MODEL 1
REMARK VINA RESULT:     -11.2      0.000      0.000
REMARK SMILES CCc1cc(N2CCC[C@H](C(=O)OCCOCCOC(=O)c3ccc(-c4c5nc(c(-c6ccc(S(=O)(=O)[O-])cc6)c6ccc([nH]6)c(-c6ccc(S(=O)(=O)[O-])cc6)c6nc(c(-c7ccc(S(=O)(=O)[O-])cc7)c7ccc4[nH]7)C=C6)C=C5)cc3)C2)nc(-c2ccc(Cl)cc2)n1
REMARK SMILES IDX 17 1 16 2 15 3 14 4 13 5 11 6 12 7 10 8 6 9 7 10 82 11 8 12
REMARK SMILES IDX 9 13 5 14 3 15 4 16 92 17 84 18 83 19 2 20 1 21 85 22 86 23
REMARK SMILES IDX 91 24 87 25 90 26 88 27 89 28 18 29 19 30 20 31 21 32 22 33
REMARK SMILES IDX 23 34 81 35 24 36 80 37 25 38 26 39 27 40 74 41 28 42 79 43
REMARK SMILES IDX 73 44 75 45 29 46 78 47 72 48 71 49 30 51 60 52 41 53 59 54
REMARK SMILES IDX 42 55 45 56 58 57 76 58 43 59 44 60 57 62 77 63 46 64 31 65
REMARK SMILES IDX 32 66 40 67 33 68 39 69 34 70 35 71 36 72 37 73 38 74 61 75
REMARK SMILES IDX 62 76 70 77 63 78 69 79 64 80 65 81 66 82 67 83 68 84 47 85
REMARK SMILES IDX 48 86 56 87 49 88 55 89 50 90 51 91 52 92 53 93 54 94
REMARK H PARENT 75 50 45 61
REMARK Flexibility Score: inf
ROOT
ATOM      1  C   UNL A   1      39.102  21.430  25.985  1.00  0.00     0.202 C 
ENDROOT
BRANCH   1   2
ATOM      2  O   UNL A   1      38.209  22.220  25.202  1.00  0.00    -0.374 OA
BRANCH   2   3
ATOM      3  C   UNL A   1      36.888  22.413  25.704  1.00  0.00     0.202 C 
BRANCH   3   4
ATOM      4  C   UNL A   1      36.330  23.832  25.611  1.00  0.00     0.261 C 
BRANCH   4   5
ATOM      5  O   UNL A   1      34.901  23.834  25.691  1.00  0.00    -0.463 OA
BRANCH   5   6
ATOM      6  C   UNL A   1      34.216  23.514  24.568  1.00  0.00     0.310 C 
ATOM      7  O   UNL A   1      34.352  24.060  23.477  1.00  0.00    -0.252 OA
BRANCH   6   8
ATOM      8  C   UNL A   1      33.246  22.364  24.778  1.00  0.00     0.118 C 
ATOM      9  N   UNL A   1      31.401  23.679  25.662  1.00  0.00    -0.356 N 
ATOM     10  C   UNL A   1      31.430  23.112  27.000  1.00  0.00     0.118 C 
ATOM     11  C   UNL A   1      31.836  22.878  24.528  1.00  0.00     0.133 C 
ATOM     12  C   UNL A   1      32.760  22.425  27.300  1.00  0.00     0.022 C 
ATOM     13  C   UNL A   1      33.315  21.623  26.120  1.00  0.00     0.019 C 
BRANCH   9  14
ATOM     14  C   UNL A   1      31.138  25.022  25.468  1.00  0.00     0.132 A 
ATOM     15  C   UNL A   1      29.864  26.716  24.409  1.00  0.00     0.046 A 
ATOM     16  C   UNL A   1      30.089  25.377  24.637  1.00  0.00     0.070 A 
ATOM     17  N   UNL A   1      30.624  27.662  24.981  1.00  0.00    -0.233 NA
ATOM     18  C   UNL A   1      31.621  27.237  25.779  1.00  0.00     0.161 A 
ATOM     19  N   UNL A   1      31.918  25.949  26.048  1.00  0.00    -0.211 NA
BRANCH  15  20
ATOM     20  C   UNL A   1      28.718  27.129  23.520  1.00  0.00     0.053 C 
ATOM     21  C   UNL A   1      28.886  28.494  22.871  1.00  0.00     0.011 C 
ENDBRANCH  15  20
BRANCH  18  22
ATOM     22  C   UNL A   1      32.482  28.288  26.331  1.00  0.00     0.019 A 
ATOM     23  C   UNL A   1      31.969  29.566  26.612  1.00  0.00     0.013 A 
ATOM     24  C   UNL A   1      33.858  28.074  26.520  1.00  0.00     0.013 A 
ATOM     25  C   UNL A   1      32.798  30.592  27.077  1.00  0.00     0.021 A 
ATOM     26  C   UNL A   1      34.692  29.096  26.986  1.00  0.00     0.021 A 
ATOM     27  C   UNL A   1      34.157  30.353  27.262  1.00  0.00     0.041 A 
ATOM     28  Cl  UNL A   1      35.190  31.616  27.807  1.00  0.00    -0.084 Cl
ENDBRANCH  18  22
ENDBRANCH   9  14
ENDBRANCH   6   8
ENDBRANCH   5   6
ENDBRANCH   4   5
ENDBRANCH   3   4
ENDBRANCH   2   3
ENDBRANCH   1   2
BRANCH   1  29
ATOM     29  C   UNL A   1      40.127  22.181  26.844  1.00  0.00     0.261 C 
BRANCH  29  30
ATOM     30  O   UNL A   1      40.265  23.570  26.487  1.00  0.00    -0.460 OA
BRANCH  30  31
ATOM     31  C   UNL A   1      41.386  24.167  26.956  1.00  0.00     0.338 C 
ATOM     32  O   UNL A   1      42.546  23.838  26.724  1.00  0.00    -0.246 OA
BRANCH  31  33
ATOM     33  C   UNL A   1      41.060  25.402  27.690  1.00  0.00     0.060 A 
ATOM     34  C   UNL A   1      42.036  26.406  27.746  1.00  0.00     0.016 A 
ATOM     35  C   UNL A   1      39.874  25.527  28.417  1.00  0.00     0.016 A 
ATOM     36  C   UNL A   1      41.854  27.516  28.570  1.00  0.00     0.010 A 
ATOM     37  C   UNL A   1      39.698  26.638  29.251  1.00  0.00     0.010 A 
ATOM     38  C   UNL A   1      40.703  27.617  29.361  1.00  0.00    -0.014 A 
BRANCH  38  39
ATOM     39  C   UNL A   1      40.615  28.656  30.417  1.00  0.00     0.031 A 
ATOM     40  C   UNL A   1      41.525  28.556  31.614  1.00  0.00     0.074 A 
ATOM     41  C   UNL A   1      39.739  29.674  30.318  1.00  0.00     0.049 A 
ATOM     42  N   UNL A   1      41.554  29.289  32.696  1.00  0.00    -0.248 NA
ATOM     43  C   UNL A   1      42.537  27.486  31.588  1.00  0.00     0.031 C 
ATOM     44  C   UNL A   1      38.842  29.915  29.188  1.00  0.00     0.029 A 
ATOM     45  N   UNL A   1      39.452  30.689  31.197  1.00  0.00    -0.354 N 
ATOM     46  C   UNL A   1      42.563  28.755  33.490  1.00  0.00     0.074 A 
ATOM     47  C   UNL A   1      43.120  27.632  32.769  1.00  0.00     0.031 C 
ATOM     48  C   UNL A   1      38.090  30.998  29.452  1.00  0.00     0.029 A 
ATOM     49  C   UNL A   1      38.424  31.502  30.783  1.00  0.00     0.049 A 
ATOM     50  H   UNL A   1      39.938  30.822  32.043  1.00  0.00     0.167 HD
ATOM     51  C   UNL A   1      42.985  29.161  34.711  1.00  0.00     0.031 A 
ATOM     52  C   UNL A   1      37.801  32.515  31.421  1.00  0.00     0.031 A 
ATOM     53  C   UNL A   1      42.441  30.288  35.419  1.00  0.00     0.049 A 
ATOM     54  C   UNL A   1      38.247  32.905  32.808  1.00  0.00     0.074 A 
ATOM     55  C   UNL A   1      42.831  30.799  36.645  1.00  0.00     0.029 A 
ATOM     56  N   UNL A   1      41.392  31.073  34.972  1.00  0.00    -0.354 N 
ATOM     57  N   UNL A   1      39.223  32.409  33.531  1.00  0.00    -0.248 NA
ATOM     58  C   UNL A   1      37.508  33.993  33.466  1.00  0.00     0.031 C 
ATOM     59  C   UNL A   1      41.980  31.861  36.964  1.00  0.00     0.029 A 
ATOM     60  C   UNL A   1      41.099  32.046  35.912  1.00  0.00     0.049 A 
ATOM     61  H   UNL A   1      40.923  30.957  34.114  1.00  0.00     0.167 HD
ATOM     62  C   UNL A   1      39.237  33.150  34.709  1.00  0.00     0.074 A 
ATOM     63  C   UNL A   1      38.178  34.130  34.602  1.00  0.00     0.031 C 
ATOM     64  C   UNL A   1      40.057  33.032  35.781  1.00  0.00     0.031 A 
BRANCH  51  65
ATOM     65  C   UNL A   1      44.067  28.366  35.388  1.00  0.00    -0.014 A 
ATOM     66  C   UNL A   1      43.767  27.239  36.172  1.00  0.00     0.010 A 
ATOM     67  C   UNL A   1      45.415  28.702  35.156  1.00  0.00     0.010 A 
ATOM     68  C   UNL A   1      44.795  26.470  36.725  1.00  0.00     0.020 A 
ATOM     69  C   UNL A   1      46.445  27.923  35.687  1.00  0.00     0.020 A 
ATOM     70  C   UNL A   1      46.128  26.815  36.476  1.00  0.00     0.054 A 
BRANCH  70  71
ATOM     71  S   UNL A   1      47.443  25.764  37.152  1.00  0.00     0.124 S 
ATOM     72  O   UNL A   1      48.126  26.682  38.060  1.00  0.00    -0.237 OA
ATOM     73  O   UNL A   1      46.695  24.687  37.795  1.00  0.00    -0.237 OA
ATOM     74  O   UNL A   1      48.211  25.368  35.975  1.00  0.00    -0.744 OA
ENDBRANCH  70  71
ENDBRANCH  51  65
BRANCH  52  75
ATOM     75  C   UNL A   1      36.649  33.211  30.782  1.00  0.00    -0.014 A 
ATOM     76  C   UNL A   1      36.849  34.104  29.715  1.00  0.00     0.010 A 
ATOM     77  C   UNL A   1      35.346  33.017  31.275  1.00  0.00     0.010 A 
ATOM     78  C   UNL A   1      35.774  34.821  29.180  1.00  0.00     0.020 A 
ATOM     79  C   UNL A   1      34.264  33.709  30.723  1.00  0.00     0.020 A 
ATOM     80  C   UNL A   1      34.488  34.623  29.693  1.00  0.00     0.054 A 
BRANCH  80  81
ATOM     81  S   UNL A   1      33.104  35.555  28.982  1.00  0.00     0.124 S 
ATOM     82  O   UNL A   1      33.797  36.600  28.234  1.00  0.00    -0.237 OA
ATOM     83  O   UNL A   1      32.421  34.545  28.178  1.00  0.00    -0.237 OA
ATOM     84  O   UNL A   1      32.363  36.010  30.155  1.00  0.00    -0.744 OA
ENDBRANCH  80  81
ENDBRANCH  52  75
BRANCH  64  85
ATOM     85  C   UNL A   1      39.893  34.018  36.907  1.00  0.00    -0.014 A 
ATOM     86  C   UNL A   1      40.368  35.336  36.800  1.00  0.00     0.010 A 
ATOM     87  C   UNL A   1      39.172  33.638  38.055  1.00  0.00     0.010 A 
ATOM     88  C   UNL A   1      40.138  36.253  37.829  1.00  0.00     0.020 A 
ATOM     89  C   UNL A   1      38.918  34.559  39.074  1.00  0.00     0.020 A 
ATOM     90  C   UNL A   1      39.411  35.860  38.959  1.00  0.00     0.054 A 
BRANCH  90  91
ATOM     91  S   UNL A   1      39.066  37.088  40.249  1.00  0.00     0.124 S 
ATOM     92  O   UNL A   1      38.195  36.344  41.153  1.00  0.00    -0.237 OA
ATOM     93  O   UNL A   1      40.397  37.393  40.769  1.00  0.00    -0.237 OA
ATOM     94  O   UNL A   1      38.423  38.182  39.523  1.00  0.00    -0.744 OA
ENDBRANCH  90  91
ENDBRANCH  64  85
ENDBRANCH  38  39
ENDBRANCH  31  33
ENDBRANCH  30  31
ENDBRANCH  29  30
ENDBRANCH   1  29
TORSDOF 20
ENDMDL
MODEL 2
REMARK VINA RESULT:     -11.1      6.655     12.245
REMARK SMILES CCc1cc(N2CCC[C@H](C(=O)OCCOCCOC(=O)c3ccc(-c4c5nc(c(-c6ccc(S(=O)(=O)[O-])cc6)c6ccc([nH]6)c(-c6ccc(S(=O)(=O)[O-])cc6)c6nc(c(-c7ccc(S(=O)(=O)[O-])cc7)c7ccc4[nH]7)C=C6)C=C5)cc3)C2)nc(-c2ccc(Cl)cc2)n1
REMARK SMILES IDX 17 1 16 2 15 3 14 4 13 5 11 6 12 7 10 8 6 9 7 10 82 11 8 12
REMARK SMILES IDX 9 13 5 14 3 15 4 16 92 17 84 18 83 19 2 20 1 21 85 22 86 23
REMARK SMILES IDX 91 24 87 25 90 26 88 27 89 28 18 29 19 30 20 31 21 32 22 33
REMARK SMILES IDX 23 34 81 35 24 36 80 37 25 38 26 39 27 40 74 41 28 42 79 43
REMARK SMILES IDX 73 44 75 45 29 46 78 47 72 48 71 49 30 51 60 52 41 53 59 54
REMARK SMILES IDX 42 55 45 56 58 57 76 58 43 59 44 60 57 62 77 63 46 64 31 65
REMARK SMILES IDX 32 66 40 67 33 68 39 69 34 70 35 71 36 72 37 73 38 74 61 75
REMARK SMILES IDX 62 76 70 77 63 78 69 79 64 80 65 81 66 82 67 83 68 84 47 85
REMARK SMILES IDX 48 86 56 87 49 88 55 89 50 90 51 91 52 92 53 93 54 94
REMARK H PARENT 75 50 45 61
REMARK Flexibility Score: inf
ROOT
ATOM      1  C   UNL A   1      33.335  29.643  27.175  1.00  0.00     0.202 C 
ENDROOT
BRANCH   1   2
ATOM      2  O   UNL A   1      33.222  30.002  25.799  1.00  0.00    -0.374 OA
BRANCH   2   3
ATOM      3  C   UNL A   1      32.725  29.011  24.901  1.00  0.00     0.202 C 
BRANCH   3   4
ATOM      4  C   UNL A   1      32.202  27.725  25.537  1.00  0.00     0.261 C 
BRANCH   4   5
ATOM      5  O   UNL A   1      32.797  26.570  24.936  1.00  0.00    -0.463 OA
BRANCH   5   6
ATOM      6  C   UNL A   1      32.119  25.402  25.030  1.00  0.00     0.310 C 
ATOM      7  O   UNL A   1      32.134  24.650  26.000  1.00  0.00    -0.252 OA
BRANCH   6   8
ATOM      8  C   UNL A   1      31.289  25.103  23.792  1.00  0.00     0.118 C 
ATOM      9  N   UNL A   1      32.715  23.355  22.883  1.00  0.00    -0.356 N 
ATOM     10  C   UNL A   1      33.127  24.089  21.698  1.00  0.00     0.118 C 
ATOM     11  C   UNL A   1      31.415  23.619  23.481  1.00  0.00     0.133 C 
ATOM     12  C   UNL A   1      32.893  25.591  21.846  1.00  0.00     0.022 C 
ATOM     13  C   UNL A   1      31.572  25.940  22.537  1.00  0.00     0.019 C 
BRANCH   9  14
ATOM     14  C   UNL A   1      33.606  22.542  23.557  1.00  0.00     0.132 A 
ATOM     15  C   UNL A   1      35.760  22.209  24.487  1.00  0.00     0.046 A 
ATOM     16  C   UNL A   1      34.860  23.042  23.860  1.00  0.00     0.070 A 
ATOM     17  N   UNL A   1      35.437  20.950  24.815  1.00  0.00    -0.233 NA
ATOM     18  C   UNL A   1      34.197  20.538  24.492  1.00  0.00     0.161 A 
ATOM     19  N   UNL A   1      33.259  21.281  23.869  1.00  0.00    -0.211 NA
BRANCH  15  20
ATOM     20  C   UNL A   1      37.128  22.736  24.841  1.00  0.00     0.053 C 
ATOM     21  C   UNL A   1      37.137  23.747  25.978  1.00  0.00     0.011 C 
ENDBRANCH  15  20
BRANCH  18  22
ATOM     22  C   UNL A   1      33.896  19.135  24.793  1.00  0.00     0.019 A 
ATOM     23  C   UNL A   1      34.717  18.102  24.307  1.00  0.00     0.013 A 
ATOM     24  C   UNL A   1      32.740  18.777  25.507  1.00  0.00     0.013 A 
ATOM     25  C   UNL A   1      34.401  16.759  24.534  1.00  0.00     0.021 A 
ATOM     26  C   UNL A   1      32.419  17.435  25.738  1.00  0.00     0.021 A 
ATOM     27  C   UNL A   1      33.252  16.431  25.250  1.00  0.00     0.041 A 
ATOM     28  Cl  UNL A   1      32.840  14.782  25.511  1.00  0.00    -0.084 Cl
ENDBRANCH  18  22
ENDBRANCH   9  14
ENDBRANCH   6   8
ENDBRANCH   5   6
ENDBRANCH   4   5
ENDBRANCH   3   4
ENDBRANCH   2   3
ENDBRANCH   1   2
BRANCH   1  29
ATOM     29  C   UNL A   1      34.679  29.064  27.636  1.00  0.00     0.261 C 
BRANCH  29  30
ATOM     30  O   UNL A   1      35.640  30.071  28.007  1.00  0.00    -0.460 OA
BRANCH  30  31
ATOM     31  C   UNL A   1      36.292  29.831  29.169  1.00  0.00     0.338 C 
ATOM     32  O   UNL A   1      35.785  29.564  30.255  1.00  0.00    -0.246 OA
BRANCH  31  33
ATOM     33  C   UNL A   1      37.749  29.777  28.957  1.00  0.00     0.060 A 
ATOM     34  C   UNL A   1      38.214  29.685  27.639  1.00  0.00     0.016 A 
ATOM     35  C   UNL A   1      38.639  29.690  30.029  1.00  0.00     0.016 A 
ATOM     36  C   UNL A   1      39.567  29.452  27.386  1.00  0.00     0.010 A 
ATOM     37  C   UNL A   1      39.994  29.447  29.774  1.00  0.00     0.010 A 
ATOM     38  C   UNL A   1      40.457  29.288  28.454  1.00  0.00    -0.014 A 
BRANCH  38  39
ATOM     39  C   UNL A   1      41.835  28.797  28.204  1.00  0.00     0.031 A 
ATOM     40  C   UNL A   1      42.969  29.790  28.183  1.00  0.00     0.074 A 
ATOM     41  C   UNL A   1      42.080  27.489  27.999  1.00  0.00     0.049 A 
ATOM     42  N   UNL A   1      44.229  29.602  27.889  1.00  0.00    -0.248 NA
ATOM     43  C   UNL A   1      42.637  31.180  28.538  1.00  0.00     0.031 C 
ATOM     44  C   UNL A   1      41.080  26.420  28.047  1.00  0.00     0.029 A 
ATOM     45  N   UNL A   1      43.250  26.840  27.690  1.00  0.00    -0.354 N 
ATOM     46  C   UNL A   1      44.834  30.849  27.997  1.00  0.00     0.074 A 
ATOM     47  C   UNL A   1      43.802  31.790  28.377  1.00  0.00     0.031 C 
ATOM     48  C   UNL A   1      41.679  25.252  27.758  1.00  0.00     0.029 A 
ATOM     49  C   UNL A   1      43.091  25.493  27.466  1.00  0.00     0.049 A 
ATOM     50  H   UNL A   1      44.121  27.297  27.636  1.00  0.00     0.167 HD
ATOM     51  C   UNL A   1      46.130  31.183  27.792  1.00  0.00     0.031 A 
ATOM     52  C   UNL A   1      43.977  24.569  27.041  1.00  0.00     0.031 A 
ATOM     53  C   UNL A   1      47.157  30.244  27.430  1.00  0.00     0.049 A 
ATOM     54  C   UNL A   1      45.400  24.980  26.757  1.00  0.00     0.074 A 
ATOM     55  C   UNL A   1      48.508  30.482  27.240  1.00  0.00     0.029 A 
ATOM     56  N   UNL A   1      46.951  28.894  27.198  1.00  0.00    -0.354 N 
ATOM     57  N   UNL A   1      45.962  26.158  26.894  1.00  0.00    -0.248 NA
ATOM     58  C   UNL A   1      46.311  23.935  26.263  1.00  0.00     0.031 C 
ATOM     59  C   UNL A   1      49.109  29.286  26.840  1.00  0.00     0.029 A 
ATOM     60  C   UNL A   1      48.143  28.292  26.836  1.00  0.00     0.049 A 
ATOM     61  H   UNL A   1      46.086  28.432  27.278  1.00  0.00     0.167 HD
ATOM     62  C   UNL A   1      47.297  25.985  26.539  1.00  0.00     0.074 A 
ATOM     63  C   UNL A   1      47.461  24.591  26.186  1.00  0.00     0.031 C 
ATOM     64  C   UNL A   1      48.298  26.897  26.512  1.00  0.00     0.031 A 
BRANCH  51  65
ATOM     65  C   UNL A   1      46.519  32.630  27.919  1.00  0.00    -0.014 A 
ATOM     66  C   UNL A   1      47.082  33.137  29.102  1.00  0.00     0.010 A 
ATOM     67  C   UNL A   1      46.402  33.474  26.797  1.00  0.00     0.010 A 
ATOM     68  C   UNL A   1      47.510  34.466  29.167  1.00  0.00     0.020 A 
ATOM     69  C   UNL A   1      46.849  34.796  26.851  1.00  0.00     0.020 A 
ATOM     70  C   UNL A   1      47.393  35.287  28.039  1.00  0.00     0.054 A 
BRANCH  70  71
ATOM     71  S   UNL A   1      48.013  36.989  28.131  1.00  0.00     0.124 S 
ATOM     72  O   UNL A   1      49.240  36.822  28.905  1.00  0.00    -0.237 OA
ATOM     73  O   UNL A   1      48.201  37.338  26.725  1.00  0.00    -0.237 OA
ATOM     74  O   UNL A   1      46.942  37.713  28.811  1.00  0.00    -0.744 OA
ENDBRANCH  70  71
ENDBRANCH  51  65
BRANCH  52  75
ATOM     75  C   UNL A   1      43.542  23.163  26.804  1.00  0.00    -0.014 A 
ATOM     76  C   UNL A   1      43.052  22.374  27.858  1.00  0.00     0.010 A 
ATOM     77  C   UNL A   1      43.664  22.594  25.523  1.00  0.00     0.010 A 
ATOM     78  C   UNL A   1      42.731  21.030  27.647  1.00  0.00     0.020 A 
ATOM     79  C   UNL A   1      43.315  21.259  25.301  1.00  0.00     0.020 A 
ATOM     80  C   UNL A   1      42.871  20.479  26.369  1.00  0.00     0.054 A 
BRANCH  80  81
ATOM     81  S   UNL A   1      42.442  18.735  26.110  1.00  0.00     0.124 S 
ATOM     82  O   UNL A   1      42.651  18.173  27.441  1.00  0.00    -0.237 OA
ATOM     83  O   UNL A   1      41.053  18.813  25.665  1.00  0.00    -0.237 OA
ATOM     84  O   UNL A   1      43.391  18.300  25.089  1.00  0.00    -0.744 OA
ENDBRANCH  80  81
ENDBRANCH  52  75
BRANCH  64  85
ATOM     85  C   UNL A   1      49.678  26.421  26.147  1.00  0.00    -0.014 A 
ATOM     86  C   UNL A   1      50.233  26.686  24.883  1.00  0.00     0.010 A 
ATOM     87  C   UNL A   1      50.463  25.774  27.120  1.00  0.00     0.010 A 
ATOM     88  C   UNL A   1      51.544  26.297  24.594  1.00  0.00     0.020 A 
ATOM     89  C   UNL A   1      51.782  25.407  26.843  1.00  0.00     0.020 A 
ATOM     90  C   UNL A   1      52.312  25.663  25.578  1.00  0.00     0.054 A 
BRANCH  90  91
ATOM     91  S   UNL A   1      54.034  25.231  25.200  1.00  0.00     0.124 S 
ATOM     92  O   UNL A   1      54.728  25.664  26.409  1.00  0.00    -0.237 OA
ATOM     93  O   UNL A   1      53.967  23.787  24.997  1.00  0.00    -0.237 OA
ATOM     94  O   UNL A   1      54.330  26.010  23.999  1.00  0.00    -0.744 OA
ENDBRANCH  90  91
ENDBRANCH  64  85
ENDBRANCH  38  39
ENDBRANCH  31  33
ENDBRANCH  30  31
ENDBRANCH  29  30
ENDBRANCH   1  29
TORSDOF 20
ENDMDL
MODEL 3
REMARK VINA RESULT:     -10.7      1.631      2.096
REMARK SMILES CCc1cc(N2CCC[C@H](C(=O)OCCOCCOC(=O)c3ccc(-c4c5nc(c(-c6ccc(S(=O)(=O)[O-])cc6)c6ccc([nH]6)c(-c6ccc(S(=O)(=O)[O-])cc6)c6nc(c(-c7ccc(S(=O)(=O)[O-])cc7)c7ccc4[nH]7)C=C6)C=C5)cc3)C2)nc(-c2ccc(Cl)cc2)n1
REMARK SMILES IDX 17 1 16 2 15 3 14 4 13 5 11 6 12 7 10 8 6 9 7 10 82 11 8 12
REMARK SMILES IDX 9 13 5 14 3 15 4 16 92 17 84 18 83 19 2 20 1 21 85 22 86 23
REMARK SMILES IDX 91 24 87 25 90 26 88 27 89 28 18 29 19 30 20 31 21 32 22 33
REMARK SMILES IDX 23 34 81 35 24 36 80 37 25 38 26 39 27 40 74 41 28 42 79 43
REMARK SMILES IDX 73 44 75 45 29 46 78 47 72 48 71 49 30 51 60 52 41 53 59 54
REMARK SMILES IDX 42 55 45 56 58 57 76 58 43 59 44 60 57 62 77 63 46 64 31 65
REMARK SMILES IDX 32 66 40 67 33 68 39 69 34 70 35 71 36 72 37 73 38 74 61 75
REMARK SMILES IDX 62 76 70 77 63 78 69 79 64 80 65 81 66 82 67 83 68 84 47 85
REMARK SMILES IDX 48 86 56 87 49 88 55 89 50 90 51 91 52 92 53 93 54 94
REMARK H PARENT 75 50 45 61
REMARK Flexibility Score: inf
ROOT
ATOM      1  C   UNL A   1      38.297  22.872  25.920  1.00  0.00     0.202 C 
ENDROOT
BRANCH   1   2
ATOM      2  O   UNL A   1      36.965  22.462  25.616  1.00  0.00    -0.374 OA
BRANCH   2   3
ATOM      3  C   UNL A   1      36.622  22.308  24.239  1.00  0.00     0.202 C 
BRANCH   3   4
ATOM      4  C   UNL A   1      35.208  22.729  23.844  1.00  0.00     0.261 C 
BRANCH   4   5
ATOM      5  O   UNL A   1      34.310  21.615  23.867  1.00  0.00    -0.463 OA
BRANCH   5   6
ATOM      6  C   UNL A   1      32.991  21.876  23.701  1.00  0.00     0.310 C 
ATOM      7  O   UNL A   1      32.493  22.397  22.707  1.00  0.00    -0.252 OA
BRANCH   6   8
ATOM      8  C   UNL A   1      32.149  21.431  24.885  1.00  0.00     0.118 C 
ATOM      9  N   UNL A   1      31.930  23.612  25.939  1.00  0.00    -0.356 N 
ATOM     10  C   UNL A   1      32.699  23.290  27.129  1.00  0.00     0.118 C 
ATOM     11  C   UNL A   1      31.199  22.563  25.245  1.00  0.00     0.133 C 
ATOM     12  C   UNL A   1      33.580  22.059  26.924  1.00  0.00     0.022 C 
ATOM     13  C   UNL A   1      32.896  20.941  26.133  1.00  0.00     0.019 C 
BRANCH   9  14
ATOM     14  C   UNL A   1      32.025  24.859  25.351  1.00  0.00     0.132 A 
ATOM     15  C   UNL A   1      31.935  26.206  23.403  1.00  0.00     0.046 A 
ATOM     16  C   UNL A   1      31.790  24.969  23.991  1.00  0.00     0.070 A 
ATOM     17  N   UNL A   1      32.280  27.286  24.120  1.00  0.00    -0.233 NA
ATOM     18  C   UNL A   1      32.487  27.099  25.436  1.00  0.00     0.161 A 
ATOM     19  N   UNL A   1      32.379  25.924  26.090  1.00  0.00    -0.211 NA
BRANCH  15  20
ATOM     20  C   UNL A   1      31.669  26.356  21.927  1.00  0.00     0.053 C 
ATOM     21  C   UNL A   1      32.650  25.613  21.033  1.00  0.00     0.011 C 
ENDBRANCH  15  20
BRANCH  18  22
ATOM     22  C   UNL A   1      32.937  28.279  26.182  1.00  0.00     0.019 A 
ATOM     23  C   UNL A   1      32.083  29.380  26.370  1.00  0.00     0.013 A 
ATOM     24  C   UNL A   1      34.254  28.378  26.660  1.00  0.00     0.013 A 
ATOM     25  C   UNL A   1      32.525  30.536  27.023  1.00  0.00     0.021 A 
ATOM     26  C   UNL A   1      34.702  29.530  27.315  1.00  0.00     0.021 A 
ATOM     27  C   UNL A   1      33.834  30.606  27.492  1.00  0.00     0.041 A 
ATOM     28  Cl  UNL A   1      34.396  32.032  28.272  1.00  0.00    -0.084 Cl
ENDBRANCH  18  22
ENDBRANCH   9  14
ENDBRANCH   6   8
ENDBRANCH   5   6
ENDBRANCH   4   5
ENDBRANCH   3   4
ENDBRANCH   2   3
ENDBRANCH   1   2
BRANCH   1  29
ATOM     29  C   UNL A   1      38.488  24.315  26.406  1.00  0.00     0.261 C 
BRANCH  29  30
ATOM     30  O   UNL A   1      39.788  24.560  26.975  1.00  0.00    -0.460 OA
BRANCH  30  31
ATOM     31  C   UNL A   1      40.308  25.778  26.695  1.00  0.00     0.338 C 
ATOM     32  O   UNL A   1      40.860  26.120  25.652  1.00  0.00    -0.246 OA
BRANCH  31  33
ATOM     33  C   UNL A   1      40.001  26.744  27.765  1.00  0.00     0.060 A 
ATOM     34  C   UNL A   1      40.518  28.040  27.642  1.00  0.00     0.016 A 
ATOM     35  C   UNL A   1      39.328  26.357  28.925  1.00  0.00     0.016 A 
ATOM     36  C   UNL A   1      40.411  28.941  28.702  1.00  0.00     0.010 A 
ATOM     37  C   UNL A   1      39.230  27.259  29.991  1.00  0.00     0.010 A 
ATOM     38  C   UNL A   1      39.804  28.541  29.899  1.00  0.00    -0.014 A 
BRANCH  38  39
ATOM     39  C   UNL A   1      39.906  29.398  31.107  1.00  0.00     0.031 A 
ATOM     40  C   UNL A   1      41.033  29.155  32.078  1.00  0.00     0.074 A 
ATOM     41  C   UNL A   1      39.012  30.377  31.341  1.00  0.00     0.049 A 
ATOM     42  N   UNL A   1      41.259  29.712  33.239  1.00  0.00    -0.248 NA
ATOM     43  C   UNL A   1      42.037  28.151  31.688  1.00  0.00     0.031 C 
ATOM     44  C   UNL A   1      37.908  30.748  30.454  1.00  0.00     0.029 A 
ATOM     45  N   UNL A   1      38.884  31.228  32.410  1.00  0.00    -0.354 N 
ATOM     46  C   UNL A   1      42.411  29.108  33.731  1.00  0.00     0.074 A 
ATOM     47  C   UNL A   1      42.836  28.138  32.745  1.00  0.00     0.031 C 
ATOM     48  C   UNL A   1      37.205  31.741  31.028  1.00  0.00     0.029 A 
ATOM     49  C   UNL A   1      37.783  32.047  32.335  1.00  0.00     0.049 A 
ATOM     50  H   UNL A   1      39.523  31.250  33.160  1.00  0.00     0.167 HD
ATOM     51  C   UNL A   1      43.055  29.338  34.900  1.00  0.00     0.031 A 
ATOM     52  C   UNL A   1      37.279  32.917  33.234  1.00  0.00     0.031 A 
ATOM     53  C   UNL A   1      42.641  30.314  35.870  1.00  0.00     0.049 A 
ATOM     54  C   UNL A   1      37.980  33.106  34.557  1.00  0.00     0.074 A 
ATOM     55  C   UNL A   1      43.253  30.646  37.068  1.00  0.00     0.029 A 
ATOM     56  N   UNL A   1      41.513  31.110  35.763  1.00  0.00    -0.354 N 
ATOM     57  N   UNL A   1      39.085  32.550  34.992  1.00  0.00    -0.248 NA
ATOM     58  C   UNL A   1      37.365  34.044  35.510  1.00  0.00     0.031 C 
ATOM     59  C   UNL A   1      42.464  31.604  37.709  1.00  0.00     0.029 A 
ATOM     60  C   UNL A   1      41.392  31.909  36.886  1.00  0.00     0.049 A 
ATOM     61  H   UNL A   1      40.888  31.107  35.001  1.00  0.00     0.167 HD
ATOM     62  C   UNL A   1      39.315  33.098  36.251  1.00  0.00     0.074 A 
ATOM     63  C   UNL A   1      38.240  34.032  36.506  1.00  0.00     0.031 C 
ATOM     64  C   UNL A   1      40.329  32.854  37.116  1.00  0.00     0.031 A 
BRANCH  51  65
ATOM     65  C   UNL A   1      44.261  28.499  35.223  1.00  0.00    -0.014 A 
ATOM     66  C   UNL A   1      45.559  28.926  34.897  1.00  0.00     0.010 A 
ATOM     67  C   UNL A   1      44.092  27.304  35.949  1.00  0.00     0.010 A 
ATOM     68  C   UNL A   1      46.668  28.166  35.280  1.00  0.00     0.020 A 
ATOM     69  C   UNL A   1      45.199  26.554  36.352  1.00  0.00     0.020 A 
ATOM     70  C   UNL A   1      46.481  26.986  36.008  1.00  0.00     0.054 A 
BRANCH  70  71
ATOM     71  S   UNL A   1      47.940  26.052  36.546  1.00  0.00     0.124 S 
ATOM     72  O   UNL A   1      49.026  26.968  36.207  1.00  0.00    -0.237 OA
ATOM     73  O   UNL A   1      47.696  25.870  37.975  1.00  0.00    -0.237 OA
ATOM     74  O   UNL A   1      47.885  24.830  35.748  1.00  0.00    -0.744 OA
ENDBRANCH  70  71
ENDBRANCH  51  65
BRANCH  52  75
ATOM     75  C   UNL A   1      36.014  33.650  32.946  1.00  0.00    -0.014 A 
ATOM     76  C   UNL A   1      36.040  34.939  32.387  1.00  0.00     0.010 A 
ATOM     77  C   UNL A   1      34.774  33.073  33.277  1.00  0.00     0.010 A 
ATOM     78  C   UNL A   1      34.854  35.655  32.202  1.00  0.00     0.020 A 
ATOM     79  C   UNL A   1      33.583  33.774  33.066  1.00  0.00     0.020 A 
ATOM     80  C   UNL A   1      33.632  35.070  32.549  1.00  0.00     0.054 A 
BRANCH  80  81
ATOM     81  S   UNL A   1      32.102  36.010  32.296  1.00  0.00     0.124 S 
ATOM     82  O   UNL A   1      32.199  36.369  30.885  1.00  0.00    -0.237 OA
ATOM     83  O   UNL A   1      31.070  35.032  32.633  1.00  0.00    -0.237 OA
ATOM     84  O   UNL A   1      32.226  37.121  33.236  1.00  0.00    -0.744 OA
ENDBRANCH  80  81
ENDBRANCH  52  75
BRANCH  64  85
ATOM     85  C   UNL A   1      40.371  33.643  38.397  1.00  0.00    -0.014 A 
ATOM     86  C   UNL A   1      39.866  33.115  39.598  1.00  0.00     0.010 A 
ATOM     87  C   UNL A   1      41.006  34.899  38.412  1.00  0.00     0.010 A 
ATOM     88  C   UNL A   1      39.983  33.837  40.789  1.00  0.00     0.020 A 
ATOM     89  C   UNL A   1      41.147  35.612  39.605  1.00  0.00     0.020 A 
ATOM     90  C   UNL A   1      40.626  35.080  40.785  1.00  0.00     0.054 A 
BRANCH  90  91
ATOM     91  S   UNL A   1      40.826  35.966  42.356  1.00  0.00     0.124 S 
ATOM     92  O   UNL A   1      39.816  37.014  42.246  1.00  0.00    -0.237 OA
ATOM     93  O   UNL A   1      40.551  34.930  43.348  1.00  0.00    -0.237 OA
ATOM     94  O   UNL A   1      42.211  36.431  42.318  1.00  0.00    -0.744 OA
ENDBRANCH  90  91
ENDBRANCH  64  85
ENDBRANCH  38  39
ENDBRANCH  31  33
ENDBRANCH  30  31
ENDBRANCH  29  30
ENDBRANCH   1  29
TORSDOF 20
ENDMDL
