MODEL 1
REMARK VINA RESULT:      -9.3      0.000      0.000
REMARK SMILES Nc1cc([N+](=O)[O-])ccc1[C@H]([NH3+])C(=O)OCCOCCOC(=O)c1ccc(-c2c3nc(c(-c4ccc(S(=O)(=O)[O-])cc4)c4ccc([nH]4)c(-c4ccc(S(=O)(=O)[O-])cc4)c4nc(c(-c5ccc(S(=O)(=O)[O-])cc5)c5ccc2[nH]5)C=C4)C=C3)cc1
REMARK SMILES IDX 19 1 18 2 17 3 16 4 15 5 13 6 14 7 11 8 10 9 2 10 3 11 4 12
REMARK SMILES IDX 9 13 8 14 1 15 5 18 6 19 7 20 12 21 20 25 21 26 22 27 23 28
REMARK SMILES IDX 24 29 25 30 83 31 26 32 82 33 27 34 28 35 29 36 76 37 30 38
REMARK SMILES IDX 81 39 75 40 77 41 31 42 80 43 74 44 73 45 32 47 62 48 43 49
REMARK SMILES IDX 61 50 44 51 47 52 60 53 78 54 45 55 46 56 59 58 79 59 48 60
REMARK SMILES IDX 33 61 34 62 42 63 35 64 41 65 36 66 37 67 38 68 39 69 40 70
REMARK SMILES IDX 63 71 64 72 72 73 65 74 71 75 66 76 67 77 68 78 69 79 70 80
REMARK SMILES IDX 49 81 50 82 58 83 51 84 57 85 52 86 53 87 54 88 55 89 56 90
REMARK H PARENT 1 16 1 17 12 22 12 23 12 24 77 46 47 57
REMARK Flexibility Score: inf
ROOT
ATOM      1  C   UNL A   1      34.182  34.407  28.126  1.00  0.00     0.202 C 
ENDROOT
BRANCH   1   2
ATOM      2  O   UNL A   1      34.111  35.108  29.366  1.00  0.00    -0.374 OA
BRANCH   2   3
ATOM      3  C   UNL A   1      33.115  36.126  29.484  1.00  0.00     0.202 C 
BRANCH   3   4
ATOM      4  C   UNL A   1      32.621  36.438  30.899  1.00  0.00     0.261 C 
BRANCH   4   5
ATOM      5  O   UNL A   1      32.667  35.276  31.743  1.00  0.00    -0.459 OA
BRANCH   5   6
ATOM      6  C   UNL A   1      33.563  35.316  32.773  1.00  0.00     0.369 C 
ATOM      7  O   UNL A   1      33.796  36.303  33.464  1.00  0.00    -0.245 OA
BRANCH   6   8
ATOM      8  C   UNL A   1      34.301  33.962  32.950  1.00  0.00     0.325 C 
BRANCH   8   9
ATOM      9  C   UNL A   1      35.761  34.122  33.398  1.00  0.00     0.044 A 
ATOM     10  C   UNL A   1      36.827  34.451  32.528  1.00  0.00     0.048 A 
ATOM     11  C   UNL A   1      38.147  34.439  33.012  1.00  0.00     0.111 A 
ATOM     12  C   UNL A   1      38.423  34.154  34.352  1.00  0.00     0.271 A 
ATOM     13  C   UNL A   1      36.082  33.822  34.748  1.00  0.00     0.020 A 
ATOM     14  C   UNL A   1      37.389  33.850  35.230  1.00  0.00     0.086 A 
BRANCH  10  15
ATOM     15  N   UNL A   1      36.667  34.632  31.155  1.00  0.00    -0.398 N 
ATOM     16  H   UNL A   1      37.263  35.245  30.668  1.00  0.00     0.156 HD
ATOM     17  H   UNL A   1      35.958  34.147  30.674  1.00  0.00     0.156 HD
ENDBRANCH  10  15
BRANCH  12  18
ATOM     18  N   UNL A   1      39.810  34.130  34.824  1.00  0.00     0.062 N 
ATOM     19  O   UNL A   1      40.051  33.518  35.875  1.00  0.00    -0.258 OA
ATOM     20  O   UNL A   1      40.656  34.747  34.161  1.00  0.00    -0.258 OA
ENDBRANCH  12  18
ENDBRANCH   8   9
BRANCH   8  21
ATOM     21  N   UNL A   1      34.090  33.147  31.732  1.00  0.00    -0.342 N 
ATOM     22  H   UNL A   1      33.339  32.476  31.897  1.00  0.00     0.345 HD
ATOM     23  H   UNL A   1      34.949  32.645  31.506  1.00  0.00     0.345 HD
ATOM     24  H   UNL A   1      33.838  33.755  30.954  1.00  0.00     0.345 HD
ENDBRANCH   8  21
ENDBRANCH   6   8
ENDBRANCH   5   6
ENDBRANCH   4   5
ENDBRANCH   3   4
ENDBRANCH   2   3
ENDBRANCH   1   2
BRANCH   1  25
ATOM     25  C   UNL A   1      35.149  33.220  28.052  1.00  0.00     0.261 C 
BRANCH  25  26
ATOM     26  O   UNL A   1      34.766  32.137  28.918  1.00  0.00    -0.460 OA
BRANCH  26  27
ATOM     27  C   UNL A   1      34.660  30.936  28.302  1.00  0.00     0.338 C 
ATOM     28  O   UNL A   1      33.719  30.531  27.632  1.00  0.00    -0.246 OA
BRANCH  27  29
ATOM     29  C   UNL A   1      35.936  30.205  28.389  1.00  0.00     0.060 A 
ATOM     30  C   UNL A   1      36.300  29.695  29.643  1.00  0.00     0.016 A 
ATOM     31  C   UNL A   1      36.799  30.086  27.297  1.00  0.00     0.016 A 
ATOM     32  C   UNL A   1      37.553  29.119  29.825  1.00  0.00     0.010 A 
ATOM     33  C   UNL A   1      38.062  29.514  27.484  1.00  0.00     0.010 A 
ATOM     34  C   UNL A   1      38.459  29.068  28.758  1.00  0.00    -0.014 A 
BRANCH  34  35
ATOM     35  C   UNL A   1      39.870  28.699  29.023  1.00  0.00     0.031 A 
ATOM     36  C   UNL A   1      40.780  29.715  29.657  1.00  0.00     0.074 A 
ATOM     37  C   UNL A   1      40.325  27.467  28.741  1.00  0.00     0.049 A 
ATOM     38  N   UNL A   1      42.044  29.610  29.976  1.00  0.00    -0.248 NA
ATOM     39  C   UNL A   1      40.184  31.024  29.973  1.00  0.00     0.031 C 
ATOM     40  C   UNL A   1      39.532  26.385  28.159  1.00  0.00     0.029 A 
ATOM     41  N   UNL A   1      41.574  26.922  28.903  1.00  0.00    -0.354 N 
ATOM     42  C   UNL A   1      42.397  30.837  30.527  1.00  0.00     0.074 A 
ATOM     43  C   UNL A   1      41.223  31.681  30.464  1.00  0.00     0.031 C 
ATOM     44  C   UNL A   1      40.319  25.308  27.999  1.00  0.00     0.029 A 
ATOM     45  C   UNL A   1      41.674  25.633  28.440  1.00  0.00     0.049 A 
ATOM     46  H   UNL A   1      42.326  27.409  29.311  1.00  0.00     0.167 HD
ATOM     47  C   UNL A   1      43.587  31.226  31.045  1.00  0.00     0.031 A 
ATOM     48  C   UNL A   1      42.742  24.814  28.361  1.00  0.00     0.031 A 
ATOM     49  C   UNL A   1      44.760  30.393  31.080  1.00  0.00     0.049 A 
ATOM     50  C   UNL A   1      44.074  25.283  28.880  1.00  0.00     0.074 A 
ATOM     51  C   UNL A   1      46.013  30.690  31.587  1.00  0.00     0.029 A 
ATOM     52  N   UNL A   1      44.828  29.102  30.577  1.00  0.00    -0.354 N 
ATOM     53  N   UNL A   1      44.386  26.437  29.421  1.00  0.00    -0.248 NA
ATOM     54  C   UNL A   1      45.193  24.336  28.790  1.00  0.00     0.031 C 
ATOM     55  C   UNL A   1      46.853  29.597  31.340  1.00  0.00     0.029 A 
ATOM     56  C   UNL A   1      46.108  28.598  30.735  1.00  0.00     0.049 A 
ATOM     57  H   UNL A   1      44.077  28.616  30.167  1.00  0.00     0.167 HD
ATOM     58  C   UNL A   1      45.734  26.349  29.753  1.00  0.00     0.074 A 
ATOM     59  C   UNL A   1      46.172  25.023  29.364  1.00  0.00     0.031 C 
ATOM     60  C   UNL A   1      46.534  27.280  30.331  1.00  0.00     0.031 A 
BRANCH  47  61
ATOM     61  C   UNL A   1      43.677  32.634  31.570  1.00  0.00    -0.014 A 
ATOM     62  C   UNL A   1      43.862  33.726  30.701  1.00  0.00     0.010 A 
ATOM     63  C   UNL A   1      43.592  32.869  32.953  1.00  0.00     0.010 A 
ATOM     64  C   UNL A   1      44.021  35.018  31.211  1.00  0.00     0.020 A 
ATOM     65  C   UNL A   1      43.721  34.163  33.466  1.00  0.00     0.020 A 
ATOM     66  C   UNL A   1      43.961  35.225  32.593  1.00  0.00     0.054 A 
BRANCH  66  67
ATOM     67  S   UNL A   1      44.196  36.906  33.234  1.00  0.00     0.124 S 
ATOM     68  O   UNL A   1      45.603  36.882  33.628  1.00  0.00    -0.237 OA
ATOM     69  O   UNL A   1      43.883  37.739  32.077  1.00  0.00    -0.237 OA
ATOM     70  O   UNL A   1      43.243  36.993  34.337  1.00  0.00    -0.744 OA
ENDBRANCH  66  67
ENDBRANCH  47  61
BRANCH  48  71
ATOM     71  C   UNL A   1      42.583  23.470  27.743  1.00  0.00    -0.014 A 
ATOM     72  C   UNL A   1      42.834  23.271  26.375  1.00  0.00     0.010 A 
ATOM     73  C   UNL A   1      42.228  22.368  28.544  1.00  0.00     0.010 A 
ATOM     74  C   UNL A   1      42.741  21.990  25.820  1.00  0.00     0.020 A 
ATOM     75  C   UNL A   1      42.159  21.085  27.998  1.00  0.00     0.020 A 
ATOM     76  C   UNL A   1      42.413  20.904  26.637  1.00  0.00     0.054 A 
BRANCH  76  77
ATOM     77  S   UNL A   1      42.395  19.239  25.916  1.00  0.00     0.124 S 
ATOM     78  O   UNL A   1      40.985  19.067  25.583  1.00  0.00    -0.237 OA
ATOM     79  O   UNL A   1      43.303  19.378  24.781  1.00  0.00    -0.237 OA
ATOM     80  O   UNL A   1      42.892  18.393  27.000  1.00  0.00    -0.744 OA
ENDBRANCH  76  77
ENDBRANCH  48  71
BRANCH  60  81
ATOM     81  C   UNL A   1      47.966  26.896  30.598  1.00  0.00    -0.014 A 
ATOM     82  C   UNL A   1      48.952  27.015  29.602  1.00  0.00     0.010 A 
ATOM     83  C   UNL A   1      48.339  26.464  31.884  1.00  0.00     0.010 A 
ATOM     84  C   UNL A   1      50.281  26.681  29.880  1.00  0.00     0.020 A 
ATOM     85  C   UNL A   1      49.671  26.155  32.173  1.00  0.00     0.020 A 
ATOM     86  C   UNL A   1      50.632  26.254  31.164  1.00  0.00     0.054 A 
BRANCH  86  87
ATOM     87  S   UNL A   1      52.370  25.869  31.513  1.00  0.00     0.124 S 
ATOM     88  O   UNL A   1      52.992  26.063  30.206  1.00  0.00    -0.237 OA
ATOM     89  O   UNL A   1      52.721  26.858  32.529  1.00  0.00    -0.237 OA
ATOM     90  O   UNL A   1      52.331  24.487  31.986  1.00  0.00    -0.744 OA
ENDBRANCH  86  87
ENDBRANCH  60  81
ENDBRANCH  34  35
ENDBRANCH  27  29
ENDBRANCH  26  27
ENDBRANCH  25  26
ENDBRANCH   1  25
TORSDOF 21
ENDMDL
MODEL 2
REMARK VINA RESULT:      -9.1      1.379      8.445
REMARK SMILES Nc1cc([N+](=O)[O-])ccc1[C@H]([NH3+])C(=O)OCCOCCOC(=O)c1ccc(-c2c3nc(c(-c4ccc(S(=O)(=O)[O-])cc4)c4ccc([nH]4)c(-c4ccc(S(=O)(=O)[O-])cc4)c4nc(c(-c5ccc(S(=O)(=O)[O-])cc5)c5ccc2[nH]5)C=C4)C=C3)cc1
REMARK SMILES IDX 19 1 18 2 17 3 16 4 15 5 13 6 14 7 11 8 10 9 2 10 3 11 4 12
REMARK SMILES IDX 9 13 8 14 1 15 5 18 6 19 7 20 12 21 20 25 21 26 22 27 23 28
REMARK SMILES IDX 24 29 25 30 83 31 26 32 82 33 27 34 28 35 29 36 76 37 30 38
REMARK SMILES IDX 81 39 75 40 77 41 31 42 80 43 74 44 73 45 32 47 62 48 43 49
REMARK SMILES IDX 61 50 44 51 47 52 60 53 78 54 45 55 46 56 59 58 79 59 48 60
REMARK SMILES IDX 33 61 34 62 42 63 35 64 41 65 36 66 37 67 38 68 39 69 40 70
REMARK SMILES IDX 63 71 64 72 72 73 65 74 71 75 66 76 67 77 68 78 69 79 70 80
REMARK SMILES IDX 49 81 50 82 58 83 51 84 57 85 52 86 53 87 54 88 55 89 56 90
REMARK H PARENT 1 16 1 17 12 22 12 23 12 24 77 46 47 57
REMARK Flexibility Score: inf
ROOT
ATOM      1  C   UNL A   1      33.495  33.992  28.207  1.00  0.00     0.202 C 
ENDROOT
BRANCH   1   2
ATOM      2  O   UNL A   1      33.953  35.184  28.842  1.00  0.00    -0.374 OA
BRANCH   2   3
ATOM      3  C   UNL A   1      32.959  36.070  29.360  1.00  0.00     0.202 C 
BRANCH   3   4
ATOM      4  C   UNL A   1      32.933  36.254  30.880  1.00  0.00     0.261 C 
BRANCH   4   5
ATOM      5  O   UNL A   1      33.371  35.068  31.563  1.00  0.00    -0.459 OA
BRANCH   5   6
ATOM      6  C   UNL A   1      34.236  35.259  32.604  1.00  0.00     0.369 C 
ATOM      7  O   UNL A   1      34.976  36.230  32.733  1.00  0.00    -0.245 OA
BRANCH   6   8
ATOM      8  C   UNL A   1      34.212  34.071  33.601  1.00  0.00     0.325 C 
BRANCH   8   9
ATOM      9  C   UNL A   1      35.438  33.154  33.480  1.00  0.00     0.044 A 
ATOM     10  C   UNL A   1      35.662  32.264  32.404  1.00  0.00     0.048 A 
ATOM     11  C   UNL A   1      36.746  31.371  32.456  1.00  0.00     0.111 A 
ATOM     12  C   UNL A   1      37.638  31.377  33.533  1.00  0.00     0.271 A 
ATOM     13  C   UNL A   1      36.355  33.120  34.564  1.00  0.00     0.020 A 
ATOM     14  C   UNL A   1      37.449  32.258  34.591  1.00  0.00     0.086 A 
BRANCH  10  15
ATOM     15  N   UNL A   1      34.768  32.099  31.348  1.00  0.00    -0.398 N 
ATOM     16  H   UNL A   1      34.311  31.237  31.221  1.00  0.00     0.156 HD
ATOM     17  H   UNL A   1      34.594  32.845  30.729  1.00  0.00     0.156 HD
ENDBRANCH  10  15
BRANCH  12  18
ATOM     18  N   UNL A   1      38.747  30.421  33.570  1.00  0.00     0.062 N 
ATOM     19  O   UNL A   1      38.470  29.214  33.504  1.00  0.00    -0.258 OA
ATOM     20  O   UNL A   1      39.895  30.872  33.694  1.00  0.00    -0.258 OA
ENDBRANCH  12  18
ENDBRANCH   8   9
BRANCH   8  21
ATOM     21  N   UNL A   1      32.897  33.397  33.500  1.00  0.00    -0.342 N 
ATOM     22  H   UNL A   1      32.429  33.689  32.642  1.00  0.00     0.345 HD
ATOM     23  H   UNL A   1      32.321  33.652  34.304  1.00  0.00     0.345 HD
ATOM     24  H   UNL A   1      33.031  32.386  33.487  1.00  0.00     0.345 HD
ENDBRANCH   8  21
ENDBRANCH   6   8
ENDBRANCH   5   6
ENDBRANCH   4   5
ENDBRANCH   3   4
ENDBRANCH   2   3
ENDBRANCH   1   2
BRANCH   1  25
ATOM     25  C   UNL A   1      34.548  32.924  27.890  1.00  0.00     0.261 C 
BRANCH  25  26
ATOM     26  O   UNL A   1      34.272  31.665  28.530  1.00  0.00    -0.460 OA
BRANCH  26  27
ATOM     27  C   UNL A   1      34.493  30.580  27.752  1.00  0.00     0.338 C 
ATOM     28  O   UNL A   1      33.776  30.157  26.854  1.00  0.00    -0.246 OA
BRANCH  27  29
ATOM     29  C   UNL A   1      35.840  30.038  28.005  1.00  0.00     0.060 A 
ATOM     30  C   UNL A   1      36.099  29.533  29.286  1.00  0.00     0.016 A 
ATOM     31  C   UNL A   1      36.854  30.093  27.045  1.00  0.00     0.016 A 
ATOM     32  C   UNL A   1      37.387  29.139  29.633  1.00  0.00     0.010 A 
ATOM     33  C   UNL A   1      38.150  29.704  27.398  1.00  0.00     0.010 A 
ATOM     34  C   UNL A   1      38.430  29.266  28.706  1.00  0.00    -0.014 A 
BRANCH  34  35
ATOM     35  C   UNL A   1      39.829  29.095  29.162  1.00  0.00     0.031 A 
ATOM     36  C   UNL A   1      40.527  27.789  28.897  1.00  0.00     0.074 A 
ATOM     37  C   UNL A   1      40.484  30.100  29.770  1.00  0.00     0.049 A 
ATOM     38  N   UNL A   1      41.743  27.422  29.208  1.00  0.00    -0.248 NA
ATOM     39  C   UNL A   1      39.747  26.761  28.187  1.00  0.00     0.031 C 
ATOM     40  C   UNL A   1      39.928  31.423  30.050  1.00  0.00     0.029 A 
ATOM     41  N   UNL A   1      41.762  30.156  30.265  1.00  0.00    -0.354 N 
ATOM     42  C   UNL A   1      41.875  26.120  28.735  1.00  0.00     0.074 A 
ATOM     43  C   UNL A   1      40.604  25.752  28.151  1.00  0.00     0.031 C 
ATOM     44  C   UNL A   1      40.858  32.158  30.683  1.00  0.00     0.029 A 
ATOM     45  C   UNL A   1      42.061  31.350  30.875  1.00  0.00     0.049 A 
ATOM     46  H   UNL A   1      42.402  29.413  30.191  1.00  0.00     0.167 HD
ATOM     47  C   UNL A   1      42.958  25.307  28.776  1.00  0.00     0.031 A 
ATOM     48  C   UNL A   1      43.170  31.740  31.533  1.00  0.00     0.031 A 
ATOM     49  C   UNL A   1      44.212  25.667  29.383  1.00  0.00     0.049 A 
ATOM     50  C   UNL A   1      44.342  30.801  31.629  1.00  0.00     0.074 A 
ATOM     51  C   UNL A   1      45.371  24.917  29.474  1.00  0.00     0.029 A 
ATOM     52  N   UNL A   1      44.467  26.876  30.015  1.00  0.00    -0.354 N 
ATOM     53  N   UNL A   1      44.461  29.584  31.155  1.00  0.00    -0.248 NA
ATOM     54  C   UNL A   1      45.532  31.293  32.336  1.00  0.00     0.031 C 
ATOM     55  C   UNL A   1      46.310  25.653  30.209  1.00  0.00     0.029 A 
ATOM     56  C   UNL A   1      45.754  26.883  30.523  1.00  0.00     0.049 A 
ATOM     57  H   UNL A   1      43.825  27.618  30.091  1.00  0.00     0.167 HD
ATOM     58  C   UNL A   1      45.747  29.169  31.490  1.00  0.00     0.074 A 
ATOM     59  C   UNL A   1      46.369  30.273  32.195  1.00  0.00     0.031 C 
ATOM     60  C   UNL A   1      46.357  27.984  31.235  1.00  0.00     0.031 A 
BRANCH  47  61
ATOM     61  C   UNL A   1      42.803  23.931  28.184  1.00  0.00    -0.014 A 
ATOM     62  C   UNL A   1      43.359  23.610  26.931  1.00  0.00     0.010 A 
ATOM     63  C   UNL A   1      42.078  22.949  28.882  1.00  0.00     0.010 A 
ATOM     64  C   UNL A   1      43.140  22.352  26.361  1.00  0.00     0.020 A 
ATOM     65  C   UNL A   1      41.881  21.681  28.329  1.00  0.00     0.020 A 
ATOM     66  C   UNL A   1      42.391  21.400  27.060  1.00  0.00     0.054 A 
BRANCH  66  67
ATOM     67  S   UNL A   1      42.098  19.784  26.289  1.00  0.00     0.124 S 
ATOM     68  O   UNL A   1      40.646  19.792  26.120  1.00  0.00    -0.237 OA
ATOM     69  O   UNL A   1      42.873  19.870  25.055  1.00  0.00    -0.237 OA
ATOM     70  O   UNL A   1      42.605  18.832  27.274  1.00  0.00    -0.744 OA
ENDBRANCH  66  67
ENDBRANCH  47  61
BRANCH  48  71
ATOM     71  C   UNL A   1      43.203  33.085  32.169  1.00  0.00    -0.014 A 
ATOM     72  C   UNL A   1      42.783  33.266  33.497  1.00  0.00     0.010 A 
ATOM     73  C   UNL A   1      43.712  34.185  31.453  1.00  0.00     0.010 A 
ATOM     74  C   UNL A   1      42.878  34.523  34.102  1.00  0.00     0.020 A 
ATOM     75  C   UNL A   1      43.831  35.436  32.062  1.00  0.00     0.020 A 
ATOM     76  C   UNL A   1      43.410  35.598  33.383  1.00  0.00     0.054 A 
BRANCH  76  77
ATOM     77  S   UNL A   1      43.615  37.196  34.219  1.00  0.00     0.124 S 
ATOM     78  O   UNL A   1      44.275  37.994  33.191  1.00  0.00    -0.237 OA
ATOM     79  O   UNL A   1      42.237  37.569  34.525  1.00  0.00    -0.237 OA
ATOM     80  O   UNL A   1      44.436  36.869  35.383  1.00  0.00    -0.744 OA
ENDBRANCH  76  77
ENDBRANCH  48  71
BRANCH  60  81
ATOM     81  C   UNL A   1      47.779  27.821  31.702  1.00  0.00    -0.014 A 
ATOM     82  C   UNL A   1      48.862  28.218  30.897  1.00  0.00     0.010 A 
ATOM     83  C   UNL A   1      48.032  27.318  32.991  1.00  0.00     0.010 A 
ATOM     84  C   UNL A   1      50.174  28.087  31.362  1.00  0.00     0.020 A 
ATOM     85  C   UNL A   1      49.341  27.210  33.470  1.00  0.00     0.020 A 
ATOM     86  C   UNL A   1      50.404  27.583  32.646  1.00  0.00     0.054 A 
BRANCH  86  87
ATOM     87  S   UNL A   1      52.113  27.464  33.244  1.00  0.00     0.124 S 
ATOM     88  O   UNL A   1      52.770  28.538  32.505  1.00  0.00    -0.237 OA
ATOM     89  O   UNL A   1      51.967  27.687  34.681  1.00  0.00    -0.237 OA
ATOM     90  O   UNL A   1      52.518  26.110  32.869  1.00  0.00    -0.744 OA
ENDBRANCH  86  87
ENDBRANCH  60  81
ENDBRANCH  34  35
ENDBRANCH  27  29
ENDBRANCH  26  27
ENDBRANCH  25  26
ENDBRANCH   1  25
TORSDOF 21
ENDMDL
MODEL 3
REMARK VINA RESULT:      -8.9      5.770     13.243
REMARK SMILES Nc1cc([N+](=O)[O-])ccc1[C@H]([NH3+])C(=O)OCCOCCOC(=O)c1ccc(-c2c3nc(c(-c4ccc(S(=O)(=O)[O-])cc4)c4ccc([nH]4)c(-c4ccc(S(=O)(=O)[O-])cc4)c4nc(c(-c5ccc(S(=O)(=O)[O-])cc5)c5ccc2[nH]5)C=C4)C=C3)cc1
REMARK SMILES IDX 19 1 18 2 17 3 16 4 15 5 13 6 14 7 11 8 10 9 2 10 3 11 4 12
REMARK SMILES IDX 9 13 8 14 1 15 5 18 6 19 7 20 12 21 20 25 21 26 22 27 23 28
REMARK SMILES IDX 24 29 25 30 83 31 26 32 82 33 27 34 28 35 29 36 76 37 30 38
REMARK SMILES IDX 81 39 75 40 77 41 31 42 80 43 74 44 73 45 32 47 62 48 43 49
REMARK SMILES IDX 61 50 44 51 47 52 60 53 78 54 45 55 46 56 59 58 79 59 48 60
REMARK SMILES IDX 33 61 34 62 42 63 35 64 41 65 36 66 37 67 38 68 39 69 40 70
REMARK SMILES IDX 63 71 64 72 72 73 65 74 71 75 66 76 67 77 68 78 69 79 70 80
REMARK SMILES IDX 49 81 50 82 58 83 51 84 57 85 52 86 53 87 54 88 55 89 56 90
REMARK H PARENT 1 16 1 17 12 22 12 23 12 24 77 46 47 57
REMARK Flexibility Score: inf
ROOT
ATOM      1  C   UNL A   1      38.201  22.731  25.812  1.00  0.00     0.202 C 
ENDROOT
BRANCH   1   2
ATOM      2  O   UNL A   1      37.765  23.457  24.664  1.00  0.00    -0.374 OA
BRANCH   2   3
ATOM      3  C   UNL A   1      36.444  23.192  24.189  1.00  0.00     0.202 C 
BRANCH   3   4
ATOM      4  C   UNL A   1      35.298  23.878  24.938  1.00  0.00     0.261 C 
BRANCH   4   5
ATOM      5  O   UNL A   1      34.222  24.228  24.052  1.00  0.00    -0.459 OA
BRANCH   5   6
ATOM      6  C   UNL A   1      33.571  23.186  23.455  1.00  0.00     0.369 C 
ATOM      7  O   UNL A   1      33.590  22.942  22.252  1.00  0.00    -0.245 OA
BRANCH   6   8
ATOM      8  C   UNL A   1      32.754  22.354  24.478  1.00  0.00     0.325 C 
BRANCH   8   9
ATOM      9  C   UNL A   1      32.977  20.840  24.343  1.00  0.00     0.044 A 
ATOM     10  C   UNL A   1      33.957  20.115  25.060  1.00  0.00     0.048 A 
ATOM     11  C   UNL A   1      34.171  18.757  24.764  1.00  0.00     0.111 A 
ATOM     12  C   UNL A   1      33.398  18.096  23.805  1.00  0.00     0.271 A 
ATOM     13  C   UNL A   1      32.223  20.140  23.365  1.00  0.00     0.020 A 
ATOM     14  C   UNL A   1      32.415  18.784  23.104  1.00  0.00     0.086 A 
BRANCH  10  15
ATOM     15  N   UNL A   1      34.854  20.709  25.946  1.00  0.00    -0.398 N 
ATOM     16  H   UNL A   1      34.930  21.689  25.985  1.00  0.00     0.156 HD
ATOM     17  H   UNL A   1      35.412  20.148  26.532  1.00  0.00     0.156 HD
ENDBRANCH  10  15
BRANCH  12  18
ATOM     18  N   UNL A   1      33.657  16.686  23.502  1.00  0.00     0.062 N 
ATOM     19  O   UNL A   1      34.231  16.421  22.436  1.00  0.00    -0.258 OA
ATOM     20  O   UNL A   1      33.260  15.839  24.315  1.00  0.00    -0.258 OA
ENDBRANCH  12  18
ENDBRANCH   8   9
BRANCH   8  21
ATOM     21  N   UNL A   1      31.342  22.800  24.430  1.00  0.00    -0.342 N 
ATOM     22  H   UNL A   1      30.772  22.189  25.015  1.00  0.00     0.345 HD
ATOM     23  H   UNL A   1      31.006  22.759  23.467  1.00  0.00     0.345 HD
ATOM     24  H   UNL A   1      31.275  23.758  24.772  1.00  0.00     0.345 HD
ENDBRANCH   8  21
ENDBRANCH   6   8
ENDBRANCH   5   6
ENDBRANCH   4   5
ENDBRANCH   3   4
ENDBRANCH   2   3
ENDBRANCH   1   2
BRANCH   1  25
ATOM     25  C   UNL A   1      39.104  23.473  26.803  1.00  0.00     0.261 C 
BRANCH  25  26
ATOM     26  O   UNL A   1      39.053  24.901  26.639  1.00  0.00    -0.460 OA
BRANCH  26  27
ATOM     27  C   UNL A   1      40.191  25.547  26.984  1.00  0.00     0.338 C 
ATOM     28  O   UNL A   1      41.282  25.465  26.435  1.00  0.00    -0.246 OA
BRANCH  27  29
ATOM     29  C   UNL A   1      39.915  26.538  28.039  1.00  0.00     0.060 A 
ATOM     30  C   UNL A   1      40.637  27.738  27.998  1.00  0.00     0.016 A 
ATOM     31  C   UNL A   1      39.033  26.275  29.091  1.00  0.00     0.016 A 
ATOM     32  C   UNL A   1      40.528  28.654  29.040  1.00  0.00     0.010 A 
ATOM     33  C   UNL A   1      38.931  27.193  30.141  1.00  0.00     0.010 A 
ATOM     34  C   UNL A   1      39.710  28.365  30.141  1.00  0.00    -0.014 A 
BRANCH  34  35
ATOM     35  C   UNL A   1      39.803  29.211  31.353  1.00  0.00     0.031 A 
ATOM     36  C   UNL A   1      40.929  28.974  32.321  1.00  0.00     0.074 A 
ATOM     37  C   UNL A   1      38.921  30.202  31.572  1.00  0.00     0.049 A 
ATOM     38  N   UNL A   1      41.202  29.591  33.442  1.00  0.00    -0.248 NA
ATOM     39  C   UNL A   1      41.872  27.897  31.980  1.00  0.00     0.031 C 
ATOM     40  C   UNL A   1      37.809  30.553  30.690  1.00  0.00     0.029 A 
ATOM     41  N   UNL A   1      38.824  31.092  32.611  1.00  0.00    -0.354 N 
ATOM     42  C   UNL A   1      42.345  28.977  33.942  1.00  0.00     0.074 A 
ATOM     43  C   UNL A   1      42.691  27.916  33.020  1.00  0.00     0.031 C 
ATOM     44  C   UNL A   1      37.130  31.577  31.234  1.00  0.00     0.029 A 
ATOM     45  C   UNL A   1      37.743  31.933  32.513  1.00  0.00     0.049 A 
ATOM     46  H   UNL A   1      39.467  31.123  33.356  1.00  0.00     0.167 HD
ATOM     47  C   UNL A   1      43.049  29.272  35.062  1.00  0.00     0.031 A 
ATOM     48  C   UNL A   1      37.286  32.871  33.367  1.00  0.00     0.031 A 
ATOM     49  C   UNL A   1      42.685  30.310  35.990  1.00  0.00     0.049 A 
ATOM     50  C   UNL A   1      38.041  33.143  34.640  1.00  0.00     0.074 A 
ATOM     51  C   UNL A   1      43.333  30.692  37.151  1.00  0.00     0.029 A 
ATOM     52  N   UNL A   1      41.567  31.123  35.869  1.00  0.00    -0.354 N 
ATOM     53  N   UNL A   1      39.134  32.571  35.086  1.00  0.00    -0.248 NA
ATOM     54  C   UNL A   1      37.508  34.194  35.517  1.00  0.00     0.031 C 
ATOM     55  C   UNL A   1      42.576  31.700  37.761  1.00  0.00     0.029 A 
ATOM     56  C   UNL A   1      41.491  31.986  36.948  1.00  0.00     0.049 A 
ATOM     57  H   UNL A   1      40.924  31.089  35.125  1.00  0.00     0.167 HD
ATOM     58  C   UNL A   1      39.432  33.205  36.289  1.00  0.00     0.074 A 
ATOM     59  C   UNL A   1      38.409  34.213  36.490  1.00  0.00     0.031 C 
ATOM     60  C   UNL A   1      40.459  32.976  37.144  1.00  0.00     0.031 A 
BRANCH  47  61
ATOM     61  C   UNL A   1      44.255  28.421  35.355  1.00  0.00    -0.014 A 
ATOM     62  C   UNL A   1      44.148  27.238  36.110  1.00  0.00     0.010 A 
ATOM     63  C   UNL A   1      45.519  28.817  34.883  1.00  0.00     0.010 A 
ATOM     64  C   UNL A   1      45.289  26.501  36.438  1.00  0.00     0.020 A 
ATOM     65  C   UNL A   1      46.660  28.068  35.184  1.00  0.00     0.020 A 
ATOM     66  C   UNL A   1      46.540  26.929  35.983  1.00  0.00     0.054 A 
BRANCH  66  67
ATOM     67  S   UNL A   1      48.011  25.972  36.444  1.00  0.00     0.124 S 
ATOM     68  O   UNL A   1      49.061  26.658  35.694  1.00  0.00    -0.237 OA
ATOM     69  O   UNL A   1      48.063  26.139  37.893  1.00  0.00    -0.237 OA
ATOM     70  O   UNL A   1      47.702  24.619  35.987  1.00  0.00    -0.744 OA
ENDBRANCH  66  67
ENDBRANCH  47  61
BRANCH  48  71
ATOM     71  C   UNL A   1      36.032  33.602  33.040  1.00  0.00    -0.014 A 
ATOM     72  C   UNL A   1      34.777  33.062  33.365  1.00  0.00     0.010 A 
ATOM     73  C   UNL A   1      36.099  34.877  32.447  1.00  0.00     0.010 A 
ATOM     74  C   UNL A   1      33.609  33.788  33.109  1.00  0.00     0.020 A 
ATOM     75  C   UNL A   1      34.937  35.615  32.212  1.00  0.00     0.020 A 
ATOM     76  C   UNL A   1      33.697  35.063  32.542  1.00  0.00     0.054 A 
BRANCH  76  77
ATOM     77  S   UNL A   1      32.177  36.027  32.310  1.00  0.00     0.124 S 
ATOM     78  O   UNL A   1      32.276  36.415  30.907  1.00  0.00    -0.237 OA
ATOM     79  O   UNL A   1      31.136  35.053  32.628  1.00  0.00    -0.237 OA
ATOM     80  O   UNL A   1      32.314  37.117  33.274  1.00  0.00    -0.744 OA
ENDBRANCH  76  77
ENDBRANCH  48  71
BRANCH  60  81
ATOM     81  C   UNL A   1      40.545  33.843  38.373  1.00  0.00    -0.014 A 
ATOM     82  C   UNL A   1      39.933  33.461  39.580  1.00  0.00     0.010 A 
ATOM     83  C   UNL A   1      41.302  35.029  38.333  1.00  0.00     0.010 A 
ATOM     84  C   UNL A   1      40.051  34.265  40.717  1.00  0.00     0.020 A 
ATOM     85  C   UNL A   1      41.445  35.821  39.475  1.00  0.00     0.020 A 
ATOM     86  C   UNL A   1      40.806  35.441  40.657  1.00  0.00     0.054 A 
BRANCH  86  87
ATOM     87  S   UNL A   1      40.981  36.445  42.158  1.00  0.00     0.124 S 
ATOM     88  O   UNL A   1      41.770  37.576  41.677  1.00  0.00    -0.237 OA
ATOM     89  O   UNL A   1      39.594  36.749  42.505  1.00  0.00    -0.237 OA
ATOM     90  O   UNL A   1      41.669  35.556  43.092  1.00  0.00    -0.744 OA
ENDBRANCH  86  87
ENDBRANCH  60  81
ENDBRANCH  34  35
ENDBRANCH  27  29
ENDBRANCH  26  27
ENDBRANCH  25  26
ENDBRANCH   1  25
TORSDOF 21
ENDMDL
