MODEL 1
REMARK VINA RESULT:      -9.5      0.000      0.000
REMARK SMILES CCc1ccc(C[N@H+]2CC[C@@H](C(=O)OCCOCCOC(=O)c3ccc(-c4c5nc(c(-c6ccc(S(=O)(=O)[O-])cc6)c6ccc([nH]6)c(-c6ccc(S(=O)(=O)[O-])cc6)c6nc(c(-c7ccc(S(=O)(=O)[O-])cc7)c7ccc4[nH]7)C=C6)C=C5)cc3)[C@@H]2C)s1
REMARK SMILES IDX 17 1 16 2 15 3 14 4 12 5 13 6 11 7 8 8 9 9 83 10 10 12 84 13
REMARK SMILES IDX 7 14 6 15 3 16 4 17 85 18 5 19 2 20 1 21 18 22 19 23 20 24
REMARK SMILES IDX 21 25 22 26 23 27 24 28 82 29 25 30 81 31 26 32 27 33 28 34
REMARK SMILES IDX 75 35 29 36 80 37 74 38 76 39 30 40 79 41 73 42 72 43 31 45
REMARK SMILES IDX 61 46 42 47 60 48 43 49 46 50 59 51 77 52 44 53 45 54 58 56
REMARK SMILES IDX 78 57 47 58 32 59 33 60 41 61 34 62 40 63 35 64 36 65 37 66
REMARK SMILES IDX 38 67 39 68 62 69 63 70 71 71 64 72 70 73 65 74 66 75 67 76
REMARK SMILES IDX 68 77 69 78 48 79 49 80 57 81 50 82 56 83 51 84 52 85 53 86
REMARK SMILES IDX 54 87 55 88
REMARK H PARENT 8 11 76 44 46 55
REMARK Flexibility Score: inf
ROOT
ATOM      1  O   UNL A   1      34.798  21.046  26.135  1.00  0.00    -0.374 OA
ENDROOT
BRANCH   1   2
ATOM      2  C   UNL A   1      33.936  20.862  25.012  1.00  0.00     0.202 C 
BRANCH   2   3
ATOM      3  C   UNL A   1      32.466  21.212  25.252  1.00  0.00     0.261 C 
BRANCH   3   4
ATOM      4  O   UNL A   1      32.287  21.905  26.503  1.00  0.00    -0.463 OA
BRANCH   4   5
ATOM      5  C   UNL A   1      31.837  23.181  26.440  1.00  0.00     0.315 C 
ATOM      6  O   UNL A   1      31.201  23.739  27.329  1.00  0.00    -0.252 OA
BRANCH   5   7
ATOM      7  C   UNL A   1      32.156  23.875  25.130  1.00  0.00     0.162 C 
ATOM      8  N   UNL A   1      31.595  25.834  23.828  1.00  0.00    -0.328 N 
ATOM      9  C   UNL A   1      33.032  25.827  24.111  1.00  0.00     0.263 C 
ATOM     10  C   UNL A   1      31.013  24.599  24.397  1.00  0.00     0.195 C 
ATOM     11  H   UNL A   1      31.454  25.826  22.818  1.00  0.00     0.348 HD
ATOM     12  C   UNL A   1      33.216  24.942  25.326  1.00  0.00     0.083 C 
ATOM     13  C   UNL A   1      30.476  23.763  23.229  1.00  0.00     0.076 C 
BRANCH   8  14
ATOM     14  C   UNL A   1      30.899  27.081  24.201  1.00  0.00     0.310 C 
BRANCH  14  15
ATOM     15  C   UNL A   1      31.478  27.837  25.368  1.00  0.00     0.059 A 
ATOM     16  C   UNL A   1      32.427  29.634  26.774  1.00  0.00     0.005 A 
ATOM     17  C   UNL A   1      31.911  28.601  27.530  1.00  0.00     0.016 A 
ATOM     18  S   UNL A   1      32.468  29.209  25.118  1.00  0.00    -0.139 S 
ATOM     19  C   UNL A   1      31.371  27.558  26.717  1.00  0.00     0.021 A 
BRANCH  16  20
ATOM     20  C   UNL A   1      32.923  30.991  27.175  1.00  0.00     0.043 C 
ATOM     21  C   UNL A   1      34.291  30.997  27.830  1.00  0.00     0.010 C 
ENDBRANCH  16  20
ENDBRANCH  14  15
ENDBRANCH   8  14
ENDBRANCH   5   7
ENDBRANCH   4   5
ENDBRANCH   3   4
ENDBRANCH   2   3
ENDBRANCH   1   2
BRANCH   1  22
ATOM     22  C   UNL A   1      35.827  22.023  25.997  1.00  0.00     0.202 C 
BRANCH  22  23
ATOM     23  C   UNL A   1      37.239  21.494  25.724  1.00  0.00     0.261 C 
BRANCH  23  24
ATOM     24  O   UNL A   1      38.177  22.532  25.383  1.00  0.00    -0.460 OA
BRANCH  24  25
ATOM     25  C   UNL A   1      39.252  22.623  26.201  1.00  0.00     0.338 C 
ATOM     26  O   UNL A   1      40.100  21.757  26.390  1.00  0.00    -0.246 OA
BRANCH  25  27
ATOM     27  C   UNL A   1      39.380  23.981  26.767  1.00  0.00     0.060 A 
ATOM     28  C   UNL A   1      40.094  24.933  26.029  1.00  0.00     0.016 A 
ATOM     29  C   UNL A   1      38.898  24.298  28.040  1.00  0.00     0.016 A 
ATOM     30  C   UNL A   1      40.370  26.187  26.579  1.00  0.00     0.010 A 
ATOM     31  C   UNL A   1      39.175  25.559  28.589  1.00  0.00     0.010 A 
ATOM     32  C   UNL A   1      39.943  26.498  27.878  1.00  0.00    -0.014 A 
BRANCH  32  33
ATOM     33  C   UNL A   1      40.421  27.745  28.536  1.00  0.00     0.031 A 
ATOM     34  C   UNL A   1      41.845  27.825  29.006  1.00  0.00     0.074 A 
ATOM     35  C   UNL A   1      39.617  28.815  28.683  1.00  0.00     0.049 A 
ATOM     36  N   UNL A   1      42.457  28.808  29.614  1.00  0.00    -0.248 NA
ATOM     37  C   UNL A   1      42.691  26.644  28.763  1.00  0.00     0.031 C 
ATOM     38  C   UNL A   1      38.228  28.874  28.248  1.00  0.00     0.029 A 
ATOM     39  N   UNL A   1      39.842  30.054  29.232  1.00  0.00    -0.354 N 
ATOM     40  C   UNL A   1      43.758  28.370  29.823  1.00  0.00     0.074 A 
ATOM     41  C   UNL A   1      43.839  27.018  29.313  1.00  0.00     0.031 C 
ATOM     42  C   UNL A   1      37.722  30.085  28.532  1.00  0.00     0.029 A 
ATOM     43  C   UNL A   1      38.737  30.877  29.215  1.00  0.00     0.049 A 
ATOM     44  H   UNL A   1      40.711  30.328  29.603  1.00  0.00     0.167 HD
ATOM     45  C   UNL A   1      44.796  29.040  30.378  1.00  0.00     0.031 A 
ATOM     46  C   UNL A   1      38.551  32.116  29.711  1.00  0.00     0.031 A 
ATOM     47  C   UNL A   1      44.713  30.376  30.902  1.00  0.00     0.049 A 
ATOM     48  C   UNL A   1      39.700  32.802  30.403  1.00  0.00     0.074 A 
ATOM     49  C   UNL A   1      45.712  31.128  31.496  1.00  0.00     0.029 A 
ATOM     50  N   UNL A   1      43.571  31.162  30.899  1.00  0.00    -0.354 N 
ATOM     51  N   UNL A   1      40.929  32.377  30.574  1.00  0.00    -0.248 NA
ATOM     52  C   UNL A   1      39.442  34.137  30.962  1.00  0.00     0.031 C 
ATOM     53  C   UNL A   1      45.162  32.349  31.896  1.00  0.00     0.029 A 
ATOM     54  C   UNL A   1      43.837  32.384  31.494  1.00  0.00     0.049 A 
ATOM     55  H   UNL A   1      42.699  30.892  30.528  1.00  0.00     0.167 HD
ATOM     56  C   UNL A   1      41.596  33.405  31.230  1.00  0.00     0.074 A 
ATOM     57  C   UNL A   1      40.642  34.479  31.406  1.00  0.00     0.031 C 
ATOM     58  C   UNL A   1      42.883  33.453  31.650  1.00  0.00     0.031 A 
BRANCH  45  59
ATOM     59  C   UNL A   1      46.118  28.328  30.454  1.00  0.00    -0.014 A 
ATOM     60  C   UNL A   1      47.085  28.495  29.447  1.00  0.00     0.010 A 
ATOM     61  C   UNL A   1      46.424  27.537  31.576  1.00  0.00     0.010 A 
ATOM     62  C   UNL A   1      48.329  27.868  29.552  1.00  0.00     0.020 A 
ATOM     63  C   UNL A   1      47.677  26.931  31.698  1.00  0.00     0.020 A 
ATOM     64  C   UNL A   1      48.619  27.095  30.679  1.00  0.00     0.054 A 
BRANCH  64  65
ATOM     65  S   UNL A   1      50.263  26.343  30.814  1.00  0.00     0.124 S 
ATOM     66  O   UNL A   1      50.035  25.294  31.804  1.00  0.00    -0.237 OA
ATOM     67  O   UNL A   1      50.512  25.877  29.452  1.00  0.00    -0.237 OA
ATOM     68  O   UNL A   1      51.114  27.444  31.259  1.00  0.00    -0.744 OA
ENDBRANCH  64  65
ENDBRANCH  45  59
BRANCH  46  69
ATOM     69  C   UNL A   1      37.221  32.787  29.620  1.00  0.00    -0.014 A 
ATOM     70  C   UNL A   1      36.860  33.525  28.478  1.00  0.00     0.010 A 
ATOM     71  C   UNL A   1      36.328  32.742  30.707  1.00  0.00     0.010 A 
ATOM     72  C   UNL A   1      35.661  34.246  28.445  1.00  0.00     0.020 A 
ATOM     73  C   UNL A   1      35.112  33.430  30.665  1.00  0.00     0.020 A 
ATOM     74  C   UNL A   1      34.798  34.199  29.543  1.00  0.00     0.054 A 
BRANCH  74  75
ATOM     75  S   UNL A   1      33.251  35.147  29.486  1.00  0.00     0.124 S 
ATOM     76  O   UNL A   1      33.727  36.479  29.129  1.00  0.00    -0.237 OA
ATOM     77  O   UNL A   1      32.490  34.448  28.455  1.00  0.00    -0.237 OA
ATOM     78  O   UNL A   1      32.720  35.012  30.841  1.00  0.00    -0.744 OA
ENDBRANCH  74  75
ENDBRANCH  46  69
BRANCH  58  79
ATOM     79  C   UNL A   1      43.358  34.729  32.294  1.00  0.00    -0.014 A 
ATOM     80  C   UNL A   1      44.016  35.725  31.551  1.00  0.00     0.010 A 
ATOM     81  C   UNL A   1      43.093  34.953  33.658  1.00  0.00     0.010 A 
ATOM     82  C   UNL A   1      44.427  36.910  32.167  1.00  0.00     0.020 A 
ATOM     83  C   UNL A   1      43.475  36.149  34.270  1.00  0.00     0.020 A 
ATOM     84  C   UNL A   1      44.153  37.114  33.524  1.00  0.00     0.054 A 
BRANCH  84  85
ATOM     85  S   UNL A   1      44.656  38.680  34.289  1.00  0.00     0.124 S 
ATOM     86  O   UNL A   1      45.474  38.223  35.408  1.00  0.00    -0.237 OA
ATOM     87  O   UNL A   1      45.382  39.344  33.210  1.00  0.00    -0.237 OA
ATOM     88  O   UNL A   1      43.389  39.308  34.659  1.00  0.00    -0.744 OA
ENDBRANCH  84  85
ENDBRANCH  58  79
ENDBRANCH  32  33
ENDBRANCH  25  27
ENDBRANCH  24  25
ENDBRANCH  23  24
ENDBRANCH  22  23
ENDBRANCH   1  22
TORSDOF 20
ENDMDL
MODEL 2
REMARK VINA RESULT:      -9.4      4.288      6.104
REMARK SMILES CCc1ccc(C[N@H+]2CC[C@@H](C(=O)OCCOCCOC(=O)c3ccc(-c4c5nc(c(-c6ccc(S(=O)(=O)[O-])cc6)c6ccc([nH]6)c(-c6ccc(S(=O)(=O)[O-])cc6)c6nc(c(-c7ccc(S(=O)(=O)[O-])cc7)c7ccc4[nH]7)C=C6)C=C5)cc3)[C@@H]2C)s1
REMARK SMILES IDX 17 1 16 2 15 3 14 4 12 5 13 6 11 7 8 8 9 9 83 10 10 12 84 13
REMARK SMILES IDX 7 14 6 15 3 16 4 17 85 18 5 19 2 20 1 21 18 22 19 23 20 24
REMARK SMILES IDX 21 25 22 26 23 27 24 28 82 29 25 30 81 31 26 32 27 33 28 34
REMARK SMILES IDX 75 35 29 36 80 37 74 38 76 39 30 40 79 41 73 42 72 43 31 45
REMARK SMILES IDX 61 46 42 47 60 48 43 49 46 50 59 51 77 52 44 53 45 54 58 56
REMARK SMILES IDX 78 57 47 58 32 59 33 60 41 61 34 62 40 63 35 64 36 65 37 66
REMARK SMILES IDX 38 67 39 68 62 69 63 70 71 71 64 72 70 73 65 74 66 75 67 76
REMARK SMILES IDX 68 77 69 78 48 79 49 80 57 81 50 82 56 83 51 84 52 85 53 86
REMARK SMILES IDX 54 87 55 88
REMARK H PARENT 8 11 76 44 46 55
REMARK Flexibility Score: inf
ROOT
ATOM      1  O   UNL A   1      40.663  21.921  27.147  1.00  0.00    -0.374 OA
ENDROOT
BRANCH   1   2
ATOM      2  C   UNL A   1      39.802  21.426  26.121  1.00  0.00     0.202 C 
BRANCH   2   3
ATOM      3  C   UNL A   1      38.432  22.104  26.033  1.00  0.00     0.261 C 
BRANCH   3   4
ATOM      4  O   UNL A   1      37.735  21.724  24.830  1.00  0.00    -0.463 OA
BRANCH   4   5
ATOM      5  C   UNL A   1      36.519  21.147  24.981  1.00  0.00     0.315 C 
ATOM      6  O   UNL A   1      36.311  19.938  24.925  1.00  0.00    -0.252 OA
BRANCH   5   7
ATOM      7  C   UNL A   1      35.394  22.140  25.193  1.00  0.00     0.162 C 
ATOM      8  N   UNL A   1      32.993  22.364  25.019  1.00  0.00    -0.328 N 
ATOM      9  C   UNL A   1      33.411  22.628  26.397  1.00  0.00     0.263 C 
ATOM     10  C   UNL A   1      34.207  22.111  24.213  1.00  0.00     0.195 C 
ATOM     11  H   UNL A   1      32.522  23.190  24.649  1.00  0.00     0.348 HD
ATOM     12  C   UNL A   1      34.762  21.961  26.560  1.00  0.00     0.083 C 
ATOM     13  C   UNL A   1      34.311  23.232  23.173  1.00  0.00     0.076 C 
BRANCH   8  14
ATOM     14  C   UNL A   1      31.931  21.348  24.881  1.00  0.00     0.310 C 
BRANCH  14  15
ATOM     15  C   UNL A   1      32.343  20.043  24.253  1.00  0.00     0.059 A 
ATOM     16  C   UNL A   1      32.911  17.659  23.927  1.00  0.00     0.005 A 
ATOM     17  C   UNL A   1      32.606  18.288  22.737  1.00  0.00     0.016 A 
ATOM     18  S   UNL A   1      33.044  18.800  25.195  1.00  0.00    -0.139 S 
ATOM     19  C   UNL A   1      32.287  19.667  22.924  1.00  0.00     0.021 A 
BRANCH  16  20
ATOM     20  C   UNL A   1      33.127  16.210  24.246  1.00  0.00     0.043 C 
ATOM     21  C   UNL A   1      33.088  15.875  25.725  1.00  0.00     0.010 C 
ENDBRANCH  16  20
ENDBRANCH  14  15
ENDBRANCH   8  14
ENDBRANCH   5   7
ENDBRANCH   4   5
ENDBRANCH   3   4
ENDBRANCH   2   3
ENDBRANCH   1   2
BRANCH   1  22
ATOM     22  C   UNL A   1      41.932  22.418  26.730  1.00  0.00     0.202 C 
BRANCH  22  23
ATOM     23  C   UNL A   1      42.039  23.934  26.533  1.00  0.00     0.261 C 
BRANCH  23  24
ATOM     24  O   UNL A   1      40.857  24.645  26.945  1.00  0.00    -0.460 OA
BRANCH  24  25
ATOM     25  C   UNL A   1      40.800  25.938  26.548  1.00  0.00     0.338 C 
ATOM     26  O   UNL A   1      40.882  26.352  25.395  1.00  0.00    -0.246 OA
BRANCH  25  27
ATOM     27  C   UNL A   1      40.481  26.832  27.679  1.00  0.00     0.060 A 
ATOM     28  C   UNL A   1      41.073  28.100  27.699  1.00  0.00     0.016 A 
ATOM     29  C   UNL A   1      39.695  26.409  28.755  1.00  0.00     0.016 A 
ATOM     30  C   UNL A   1      40.923  28.930  28.812  1.00  0.00     0.010 A 
ATOM     31  C   UNL A   1      39.543  27.246  29.870  1.00  0.00     0.010 A 
ATOM     32  C   UNL A   1      40.186  28.496  29.922  1.00  0.00    -0.014 A 
BRANCH  32  33
ATOM     33  C   UNL A   1      40.207  29.289  31.182  1.00  0.00     0.031 A 
ATOM     34  C   UNL A   1      41.298  29.041  32.185  1.00  0.00     0.074 A 
ATOM     35  C   UNL A   1      39.294  30.249  31.425  1.00  0.00     0.049 A 
ATOM     36  N   UNL A   1      41.492  29.609  33.346  1.00  0.00    -0.248 NA
ATOM     37  C   UNL A   1      42.300  28.020  31.835  1.00  0.00     0.031 C 
ATOM     38  C   UNL A   1      38.205  30.602  30.525  1.00  0.00     0.029 A 
ATOM     39  N   UNL A   1      39.132  31.103  32.489  1.00  0.00    -0.354 N 
ATOM     40  C   UNL A   1      42.637  29.020  33.867  1.00  0.00     0.074 A 
ATOM     41  C   UNL A   1      43.074  28.024  32.912  1.00  0.00     0.031 C 
ATOM     42  C   UNL A   1      37.491  31.605  31.061  1.00  0.00     0.029 A 
ATOM     43  C   UNL A   1      38.042  31.936  32.369  1.00  0.00     0.049 A 
ATOM     44  H   UNL A   1      39.737  31.116  33.265  1.00  0.00     0.167 HD
ATOM     45  C   UNL A   1      43.275  29.295  35.029  1.00  0.00     0.031 A 
ATOM     46  C   UNL A   1      37.528  32.846  33.221  1.00  0.00     0.031 A 
ATOM     47  C   UNL A   1      42.831  30.272  35.987  1.00  0.00     0.049 A 
ATOM     48  C   UNL A   1      38.209  33.067  34.546  1.00  0.00     0.074 A 
ATOM     49  C   UNL A   1      43.409  30.607  37.200  1.00  0.00     0.029 A 
ATOM     50  N   UNL A   1      41.707  31.070  35.848  1.00  0.00    -0.354 N 
ATOM     51  N   UNL A   1      39.303  32.512  35.011  1.00  0.00    -0.248 NA
ATOM     52  C   UNL A   1      37.593  34.041  35.459  1.00  0.00     0.031 C 
ATOM     53  C   UNL A   1      42.606  31.571  37.815  1.00  0.00     0.029 A 
ATOM     54  C   UNL A   1      41.565  31.884  36.958  1.00  0.00     0.049 A 
ATOM     55  H   UNL A   1      41.099  31.059  35.073  1.00  0.00     0.167 HD
ATOM     56  C   UNL A   1      39.522  33.095  36.254  1.00  0.00     0.074 A 
ATOM     57  C   UNL A   1      38.461  34.058  36.459  1.00  0.00     0.031 C 
ATOM     58  C   UNL A   1      40.513  32.851  37.146  1.00  0.00     0.031 A 
BRANCH  45  59
ATOM     59  C   UNL A   1      44.525  28.517  35.334  1.00  0.00    -0.014 A 
ATOM     60  C   UNL A   1      45.737  28.821  34.689  1.00  0.00     0.010 A 
ATOM     61  C   UNL A   1      44.504  27.517  36.323  1.00  0.00     0.010 A 
ATOM     62  C   UNL A   1      46.904  28.126  35.016  1.00  0.00     0.020 A 
ATOM     63  C   UNL A   1      45.674  26.838  36.671  1.00  0.00     0.020 A 
ATOM     64  C   UNL A   1      46.866  27.142  36.008  1.00  0.00     0.054 A 
BRANCH  64  65
ATOM     65  S   UNL A   1      48.409  26.298  36.450  1.00  0.00     0.124 S 
ATOM     66  O   UNL A   1      48.207  24.975  35.865  1.00  0.00    -0.237 OA
ATOM     67  O   UNL A   1      49.422  27.125  35.799  1.00  0.00    -0.237 OA
ATOM     68  O   UNL A   1      48.421  26.338  37.911  1.00  0.00    -0.744 OA
ENDBRANCH  64  65
ENDBRANCH  45  59
BRANCH  46  69
ATOM     69  C   UNL A   1      36.281  33.594  32.883  1.00  0.00    -0.014 A 
ATOM     70  C   UNL A   1      36.327  34.956  32.533  1.00  0.00     0.010 A 
ATOM     71  C   UNL A   1      35.028  32.960  32.971  1.00  0.00     0.010 A 
ATOM     72  C   UNL A   1      35.147  35.679  32.329  1.00  0.00     0.020 A 
ATOM     73  C   UNL A   1      33.847  33.669  32.733  1.00  0.00     0.020 A 
ATOM     74  C   UNL A   1      33.914  35.032  32.438  1.00  0.00     0.054 A 
BRANCH  74  75
ATOM     75  S   UNL A   1      32.393  35.988  32.180  1.00  0.00     0.124 S 
ATOM     76  O   UNL A   1      32.695  37.231  32.881  1.00  0.00    -0.237 OA
ATOM     77  O   UNL A   1      32.322  36.082  30.724  1.00  0.00    -0.237 OA
ATOM     78  O   UNL A   1      31.359  35.156  32.794  1.00  0.00    -0.744 OA
ENDBRANCH  74  75
ENDBRANCH  46  69
BRANCH  58  79
ATOM     79  C   UNL A   1      40.534  33.677  38.405  1.00  0.00    -0.014 A 
ATOM     80  C   UNL A   1      41.205  34.911  38.462  1.00  0.00     0.010 A 
ATOM     81  C   UNL A   1      39.824  33.228  39.535  1.00  0.00     0.010 A 
ATOM     82  C   UNL A   1      41.191  35.668  39.637  1.00  0.00     0.020 A 
ATOM     83  C   UNL A   1      39.782  33.997  40.700  1.00  0.00     0.020 A 
ATOM     84  C   UNL A   1      40.478  35.205  40.749  1.00  0.00     0.054 A 
BRANCH  84  85
ATOM     85  S   UNL A   1      40.438  36.230  42.245  1.00  0.00     0.124 S 
ATOM     86  O   UNL A   1      39.005  36.437  42.433  1.00  0.00    -0.237 OA
ATOM     87  O   UNL A   1      41.084  35.374  43.236  1.00  0.00    -0.237 OA
ATOM     88  O   UNL A   1      41.195  37.422  41.870  1.00  0.00    -0.744 OA
ENDBRANCH  84  85
ENDBRANCH  58  79
ENDBRANCH  32  33
ENDBRANCH  25  27
ENDBRANCH  24  25
ENDBRANCH  23  24
ENDBRANCH  22  23
ENDBRANCH   1  22
TORSDOF 20
ENDMDL
MODEL 3
REMARK VINA RESULT:      -9.4      3.981      9.213
REMARK SMILES CCc1ccc(C[N@H+]2CC[C@@H](C(=O)OCCOCCOC(=O)c3ccc(-c4c5nc(c(-c6ccc(S(=O)(=O)[O-])cc6)c6ccc([nH]6)c(-c6ccc(S(=O)(=O)[O-])cc6)c6nc(c(-c7ccc(S(=O)(=O)[O-])cc7)c7ccc4[nH]7)C=C6)C=C5)cc3)[C@@H]2C)s1
REMARK SMILES IDX 17 1 16 2 15 3 14 4 12 5 13 6 11 7 8 8 9 9 83 10 10 12 84 13
REMARK SMILES IDX 7 14 6 15 3 16 4 17 85 18 5 19 2 20 1 21 18 22 19 23 20 24
REMARK SMILES IDX 21 25 22 26 23 27 24 28 82 29 25 30 81 31 26 32 27 33 28 34
REMARK SMILES IDX 75 35 29 36 80 37 74 38 76 39 30 40 79 41 73 42 72 43 31 45
REMARK SMILES IDX 61 46 42 47 60 48 43 49 46 50 59 51 77 52 44 53 45 54 58 56
REMARK SMILES IDX 78 57 47 58 32 59 33 60 41 61 34 62 40 63 35 64 36 65 37 66
REMARK SMILES IDX 38 67 39 68 62 69 63 70 71 71 64 72 70 73 65 74 66 75 67 76
REMARK SMILES IDX 68 77 69 78 48 79 49 80 57 81 50 82 56 83 51 84 52 85 53 86
REMARK SMILES IDX 54 87 55 88
REMARK H PARENT 8 11 76 44 46 55
REMARK Flexibility Score: inf
ROOT
ATOM      1  O   UNL A   1      37.730  22.677  25.775  1.00  0.00    -0.374 OA
ENDROOT
BRANCH   1   2
ATOM      2  C   UNL A   1      37.121  21.960  24.701  1.00  0.00     0.202 C 
BRANCH   2   3
ATOM      3  C   UNL A   1      36.267  20.759  25.117  1.00  0.00     0.261 C 
BRANCH   3   4
ATOM      4  O   UNL A   1      35.147  21.167  25.928  1.00  0.00    -0.463 OA
BRANCH   4   5
ATOM      5  C   UNL A   1      34.112  21.764  25.289  1.00  0.00     0.315 C 
ATOM      6  O   UNL A   1      33.624  21.368  24.235  1.00  0.00    -0.252 OA
BRANCH   5   7
ATOM      7  C   UNL A   1      33.613  23.019  25.977  1.00  0.00     0.162 C 
ATOM      8  N   UNL A   1      32.207  24.954  25.623  1.00  0.00    -0.328 N 
ATOM      9  C   UNL A   1      31.714  24.194  26.773  1.00  0.00     0.263 C 
ATOM     10  C   UNL A   1      33.431  24.288  25.126  1.00  0.00     0.195 C 
ATOM     11  H   UNL A   1      32.448  25.898  25.925  1.00  0.00     0.348 HD
ATOM     12  C   UNL A   1      32.253  22.788  26.609  1.00  0.00     0.083 C 
ATOM     13  C   UNL A   1      34.597  25.265  25.319  1.00  0.00     0.076 C 
BRANCH   8  14
ATOM     14  C   UNL A   1      31.190  25.239  24.591  1.00  0.00     0.310 C 
BRANCH  14  15
ATOM     15  C   UNL A   1      31.073  26.678  24.160  1.00  0.00     0.059 A 
ATOM     16  C   UNL A   1      30.148  28.883  23.536  1.00  0.00     0.005 A 
ATOM     17  C   UNL A   1      31.479  28.960  23.892  1.00  0.00     0.016 A 
ATOM     18  S   UNL A   1      29.653  27.251  23.399  1.00  0.00    -0.139 S 
ATOM     19  C   UNL A   1      32.016  27.684  24.243  1.00  0.00     0.021 A 
BRANCH  16  20
ATOM     20  C   UNL A   1      29.138  29.958  23.270  1.00  0.00     0.043 C 
ATOM     21  C   UNL A   1      27.764  29.453  22.872  1.00  0.00     0.010 C 
ENDBRANCH  16  20
ENDBRANCH  14  15
ENDBRANCH   8  14
ENDBRANCH   5   7
ENDBRANCH   4   5
ENDBRANCH   3   4
ENDBRANCH   2   3
ENDBRANCH   1   2
BRANCH   1  22
ATOM     22  C   UNL A   1      39.027  22.243  26.177  1.00  0.00     0.202 C 
BRANCH  22  23
ATOM     23  C   UNL A   1      39.999  23.333  26.641  1.00  0.00     0.261 C 
BRANCH  23  24
ATOM     24  O   UNL A   1      39.499  24.666  26.426  1.00  0.00    -0.460 OA
BRANCH  24  25
ATOM     25  C   UNL A   1      40.451  25.624  26.327  1.00  0.00     0.338 C 
ATOM     26  O   UNL A   1      41.037  25.968  25.305  1.00  0.00    -0.246 OA
BRANCH  25  27
ATOM     27  C   UNL A   1      40.627  26.339  27.607  1.00  0.00     0.060 A 
ATOM     28  C   UNL A   1      39.675  26.125  28.612  1.00  0.00     0.016 A 
ATOM     29  C   UNL A   1      41.645  27.277  27.795  1.00  0.00     0.016 A 
ATOM     30  C   UNL A   1      39.710  26.881  29.786  1.00  0.00     0.010 A 
ATOM     31  C   UNL A   1      41.679  28.033  28.977  1.00  0.00     0.010 A 
ATOM     32  C   UNL A   1      40.691  27.866  29.963  1.00  0.00    -0.014 A 
BRANCH  32  33
ATOM     33  C   UNL A   1      40.596  28.809  31.112  1.00  0.00     0.031 A 
ATOM     34  C   UNL A   1      39.580  29.915  31.069  1.00  0.00     0.074 A 
ATOM     35  C   UNL A   1      41.372  28.669  32.203  1.00  0.00     0.049 A 
ATOM     36  N   UNL A   1      39.342  30.848  31.952  1.00  0.00    -0.248 NA
ATOM     37  C   UNL A   1      38.720  29.980  29.875  1.00  0.00     0.031 C 
ATOM     38  C   UNL A   1      42.374  27.627  32.378  1.00  0.00     0.029 A 
ATOM     39  N   UNL A   1      41.444  29.394  33.368  1.00  0.00    -0.354 N 
ATOM     40  C   UNL A   1      38.307  31.610  31.427  1.00  0.00     0.074 A 
ATOM     41  C   UNL A   1      37.986  31.053  30.130  1.00  0.00     0.031 C 
ATOM     42  C   UNL A   1      42.956  27.765  33.580  1.00  0.00     0.029 A 
ATOM     43  C   UNL A   1      42.403  28.938  34.246  1.00  0.00     0.049 A 
ATOM     44  H   UNL A   1      40.866  30.167  33.557  1.00  0.00     0.167 HD
ATOM     45  C   UNL A   1      37.670  32.668  31.982  1.00  0.00     0.031 A 
ATOM     46  C   UNL A   1      42.809  29.418  35.438  1.00  0.00     0.031 A 
ATOM     47  C   UNL A   1      38.001  33.234  33.263  1.00  0.00     0.049 A 
ATOM     48  C   UNL A   1      42.142  30.651  35.990  1.00  0.00     0.074 A 
ATOM     49  C   UNL A   1      37.418  34.317  33.898  1.00  0.00     0.029 A 
ATOM     50  N   UNL A   1      38.998  32.768  34.105  1.00  0.00    -0.354 N 
ATOM     51  N   UNL A   1      41.151  31.346  35.484  1.00  0.00    -0.248 NA
ATOM     52  C   UNL A   1      42.643  31.162  37.274  1.00  0.00     0.031 C 
ATOM     53  C   UNL A   1      38.095  34.536  35.101  1.00  0.00     0.029 A 
ATOM     54  C   UNL A   1      39.057  33.551  35.245  1.00  0.00     0.049 A 
ATOM     55  H   UNL A   1      39.579  31.995  33.919  1.00  0.00     0.167 HD
ATOM     56  C   UNL A   1      40.889  32.354  36.406  1.00  0.00     0.074 A 
ATOM     57  C   UNL A   1      41.810  32.167  37.506  1.00  0.00     0.031 C 
ATOM     58  C   UNL A   1      39.968  33.346  36.343  1.00  0.00     0.031 A 
BRANCH  45  59
ATOM     59  C   UNL A   1      36.551  33.293  31.197  1.00  0.00    -0.014 A 
ATOM     60  C   UNL A   1      35.244  33.335  31.715  1.00  0.00     0.010 A 
ATOM     61  C   UNL A   1      36.820  33.905  29.959  1.00  0.00     0.010 A 
ATOM     62  C   UNL A   1      34.221  33.962  30.999  1.00  0.00     0.020 A 
ATOM     63  C   UNL A   1      35.805  34.557  29.254  1.00  0.00     0.020 A 
ATOM     64  C   UNL A   1      34.509  34.573  29.776  1.00  0.00     0.054 A 
BRANCH  64  65
ATOM     65  S   UNL A   1      33.172  35.429  28.900  1.00  0.00     0.124 S 
ATOM     66  O   UNL A   1      32.543  34.334  28.166  1.00  0.00    -0.237 OA
ATOM     67  O   UNL A   1      32.382  35.989  29.994  1.00  0.00    -0.237 OA
ATOM     68  O   UNL A   1      33.871  36.411  28.073  1.00  0.00    -0.744 OA
ENDBRANCH  64  65
ENDBRANCH  45  59
BRANCH  46  69
ATOM     69  C   UNL A   1      43.928  28.772  36.184  1.00  0.00    -0.014 A 
ATOM     70  C   UNL A   1      45.257  29.199  36.007  1.00  0.00     0.010 A 
ATOM     71  C   UNL A   1      43.677  27.677  37.032  1.00  0.00     0.010 A 
ATOM     72  C   UNL A   1      46.313  28.515  36.620  1.00  0.00     0.020 A 
ATOM     73  C   UNL A   1      44.724  27.013  37.675  1.00  0.00     0.020 A 
ATOM     74  C   UNL A   1      46.039  27.421  37.445  1.00  0.00     0.054 A 
BRANCH  74  75
ATOM     75  S   UNL A   1      47.421  26.541  38.225  1.00  0.00     0.124 S 
ATOM     76  O   UNL A   1      48.411  27.603  38.373  1.00  0.00    -0.237 OA
ATOM     77  O   UNL A   1      46.825  26.052  39.466  1.00  0.00    -0.237 OA
ATOM     78  O   UNL A   1      47.756  25.503  37.252  1.00  0.00    -0.744 OA
ENDBRANCH  74  75
ENDBRANCH  46  69
BRANCH  58  79
ATOM     79  C   UNL A   1      39.869  34.278  37.522  1.00  0.00    -0.014 A 
ATOM     80  C   UNL A   1      39.042  33.985  38.620  1.00  0.00     0.010 A 
ATOM     81  C   UNL A   1      40.659  35.443  37.548  1.00  0.00     0.010 A 
ATOM     82  C   UNL A   1      38.984  34.856  39.712  1.00  0.00     0.020 A 
ATOM     83  C   UNL A   1      40.627  36.299  38.651  1.00  0.00     0.020 A 
ATOM     84  C   UNL A   1      39.778  36.009  39.720  1.00  0.00     0.054 A 
BRANCH  84  85
ATOM     85  S   UNL A   1      39.719  37.097  41.169  1.00  0.00     0.124 S 
ATOM     86  O   UNL A   1      39.027  36.264  42.147  1.00  0.00    -0.237 OA
ATOM     87  O   UNL A   1      41.132  37.345  41.441  1.00  0.00    -0.237 OA
ATOM     88  O   UNL A   1      38.968  38.260  40.699  1.00  0.00    -0.744 OA
ENDBRANCH  84  85
ENDBRANCH  58  79
ENDBRANCH  32  33
ENDBRANCH  25  27
ENDBRANCH  24  25
ENDBRANCH  23  24
ENDBRANCH  22  23
ENDBRANCH   1  22
TORSDOF 20
ENDMDL
