MODEL 1
REMARK VINA RESULT:     -10.8      0.000      0.000
REMARK SMILES O=C(OCCOCCOC(=O)c1cccc(Nc2ccnc3ccc(Cl)cc23)c1)c1ccc(-c2c3nc(c(-c4ccc(S(=O)(=O)[O-])cc4)c4ccc([nH]4)c(-c4ccc(S(=O)(=O)[O-])cc4)c4nc(c(-c5ccc(S(=O)(=O)[O-])cc5)c5ccc2[nH]5)C=C4)C=C3)cc1
REMARK SMILES IDX 5 1 4 2 3 3 2 4 1 5 30 6 31 7 89 8 32 9 88 10 33 11 34 12
REMARK SMILES IDX 35 13 82 14 36 15 87 16 81 17 83 18 37 19 86 20 80 21 79 22
REMARK SMILES IDX 38 24 68 25 49 26 67 27 50 28 53 29 66 30 84 31 51 32 52 33
REMARK SMILES IDX 65 35 85 36 54 37 39 38 40 39 48 40 41 41 47 42 42 43 43 44
REMARK SMILES IDX 44 45 45 46 46 47 69 48 70 49 78 50 71 51 77 52 72 53 73 54
REMARK SMILES IDX 74 55 75 56 76 57 55 58 56 59 64 60 57 61 63 62 58 63 59 64
REMARK SMILES IDX 60 65 61 66 62 67 6 68 7 69 8 70 9 71 10 72 11 73 12 74
REMARK SMILES IDX 13 75 29 76 14 77 16 78 15 79 17 80 18 82 19 83 28 84 20 85
REMARK SMILES IDX 22 86 27 87 21 88 23 89 25 90 24 91 26 92
REMARK H PARENT 83 23 53 34 17 81
REMARK Flexibility Score: inf
ROOT
ATOM      1  C   UNL A   1      32.044  29.205  25.509  1.00  0.00     0.202 C 
ENDROOT
BRANCH   1   2
ATOM      2  C   UNL A   1      33.527  29.117  25.858  1.00  0.00     0.261 C 
BRANCH   2   3
ATOM      3  O   UNL A   1      33.721  29.354  27.258  1.00  0.00    -0.460 OA
BRANCH   3   4
ATOM      4  C   UNL A   1      34.536  30.281  27.812  1.00  0.00     0.338 C 
ATOM      5  O   UNL A   1      34.115  31.423  27.974  1.00  0.00    -0.246 OA
BRANCH   4   6
ATOM      6  C   UNL A   1      35.935  29.970  28.227  1.00  0.00     0.060 A 
ATOM      7  C   UNL A   1      36.289  29.490  29.489  1.00  0.00     0.016 A 
ATOM      8  C   UNL A   1      36.935  30.070  27.249  1.00  0.00     0.016 A 
ATOM      9  C   UNL A   1      37.604  29.193  29.808  1.00  0.00     0.010 A 
ATOM     10  C   UNL A   1      38.252  29.701  27.540  1.00  0.00     0.010 A 
ATOM     11  C   UNL A   1      38.588  29.265  28.826  1.00  0.00    -0.014 A 
BRANCH  11  12
ATOM     12  C   UNL A   1      39.960  28.867  29.188  1.00  0.00     0.031 A 
ATOM     13  C   UNL A   1      40.807  29.808  29.985  1.00  0.00     0.074 A 
ATOM     14  C   UNL A   1      40.378  27.625  28.875  1.00  0.00     0.049 A 
ATOM     15  N   UNL A   1      42.045  29.666  30.375  1.00  0.00    -0.248 NA
ATOM     16  C   UNL A   1      40.179  31.069  30.413  1.00  0.00     0.031 C 
ATOM     17  C   UNL A   1      39.570  26.611  28.184  1.00  0.00     0.029 A 
ATOM     18  N   UNL A   1      41.564  26.987  29.119  1.00  0.00    -0.354 N 
ATOM     19  C   UNL A   1      42.354  30.830  31.066  1.00  0.00     0.074 A 
ATOM     20  C   UNL A   1      41.176  31.667  31.050  1.00  0.00     0.031 C 
ATOM     21  C   UNL A   1      40.277  25.474  28.088  1.00  0.00     0.029 A 
ATOM     22  C   UNL A   1      41.606  25.700  28.638  1.00  0.00     0.049 A 
ATOM     23  H   UNL A   1      42.316  27.412  29.594  1.00  0.00     0.167 HD
ATOM     24  C   UNL A   1      43.529  31.165  31.646  1.00  0.00     0.031 A 
ATOM     25  C   UNL A   1      42.624  24.818  28.611  1.00  0.00     0.031 A 
ATOM     26  C   UNL A   1      44.686  30.312  31.634  1.00  0.00     0.049 A 
ATOM     27  C   UNL A   1      43.942  25.256  29.189  1.00  0.00     0.074 A 
ATOM     28  C   UNL A   1      45.946  30.560  32.143  1.00  0.00     0.029 A 
ATOM     29  N   UNL A   1      44.717  29.039  31.078  1.00  0.00    -0.354 N 
ATOM     30  N   UNL A   1      44.238  26.379  29.802  1.00  0.00    -0.248 NA
ATOM     31  C   UNL A   1      45.068  24.324  29.055  1.00  0.00     0.031 C 
ATOM     32  C   UNL A   1      46.754  29.455  31.851  1.00  0.00     0.029 A 
ATOM     33  C   UNL A   1      45.982  28.498  31.209  1.00  0.00     0.049 A 
ATOM     34  H   UNL A   1      43.950  28.589  30.655  1.00  0.00     0.167 HD
ATOM     35  C   UNL A   1      45.583  26.286  30.133  1.00  0.00     0.074 A 
ATOM     36  C   UNL A   1      46.033  24.984  29.680  1.00  0.00     0.031 C 
ATOM     37  C   UNL A   1      46.382  27.194  30.745  1.00  0.00     0.031 A 
BRANCH  24  38
ATOM     38  C   UNL A   1      43.636  32.531  32.263  1.00  0.00    -0.014 A 
ATOM     39  C   UNL A   1      43.414  32.737  33.637  1.00  0.00     0.010 A 
ATOM     40  C   UNL A   1      43.984  33.626  31.452  1.00  0.00     0.010 A 
ATOM     41  C   UNL A   1      43.517  34.021  34.181  1.00  0.00     0.020 A 
ATOM     42  C   UNL A   1      44.108  34.907  31.997  1.00  0.00     0.020 A 
ATOM     43  C   UNL A   1      43.861  35.098  33.357  1.00  0.00     0.054 A 
BRANCH  43  44
ATOM     44  S   UNL A   1      44.017  36.748  34.095  1.00  0.00     0.124 S 
ATOM     45  O   UNL A   1      44.462  36.431  35.450  1.00  0.00    -0.237 OA
ATOM     46  O   UNL A   1      45.014  37.388  33.241  1.00  0.00    -0.237 OA
ATOM     47  O   UNL A   1      42.669  37.302  33.997  1.00  0.00    -0.744 OA
ENDBRANCH  43  44
ENDBRANCH  24  38
BRANCH  25  48
ATOM     48  C   UNL A   1      42.467  23.493  27.947  1.00  0.00    -0.014 A 
ATOM     49  C   UNL A   1      41.750  22.451  28.560  1.00  0.00     0.010 A 
ATOM     50  C   UNL A   1      43.070  23.257  26.696  1.00  0.00     0.010 A 
ATOM     51  C   UNL A   1      41.668  21.192  27.953  1.00  0.00     0.020 A 
ATOM     52  C   UNL A   1      42.963  22.012  26.071  1.00  0.00     0.020 A 
ATOM     53  C   UNL A   1      42.282  20.979  26.714  1.00  0.00     0.054 A 
BRANCH  53  54
ATOM     54  S   UNL A   1      42.168  19.342  25.940  1.00  0.00     0.124 S 
ATOM     55  O   UNL A   1      42.718  18.478  26.978  1.00  0.00    -0.237 OA
ATOM     56  O   UNL A   1      40.734  19.204  25.695  1.00  0.00    -0.237 OA
ATOM     57  O   UNL A   1      42.987  19.477  24.737  1.00  0.00    -0.744 OA
ENDBRANCH  53  54
ENDBRANCH  25  48
BRANCH  37  58
ATOM     58  C   UNL A   1      47.811  26.794  30.973  1.00  0.00    -0.014 A 
ATOM     59  C   UNL A   1      48.808  27.114  30.036  1.00  0.00     0.010 A 
ATOM     60  C   UNL A   1      48.165  26.145  32.169  1.00  0.00     0.010 A 
ATOM     61  C   UNL A   1      50.137  26.768  30.281  1.00  0.00     0.020 A 
ATOM     62  C   UNL A   1      49.498  25.823  32.430  1.00  0.00     0.020 A 
ATOM     63  C   UNL A   1      50.474  26.127  31.478  1.00  0.00     0.054 A 
BRANCH  63  64
ATOM     64  S   UNL A   1      52.215  25.740  31.799  1.00  0.00     0.124 S 
ATOM     65  O   UNL A   1      52.526  26.638  32.907  1.00  0.00    -0.237 OA
ATOM     66  O   UNL A   1      52.172  24.318  32.133  1.00  0.00    -0.237 OA
ATOM     67  O   UNL A   1      52.877  26.056  30.534  1.00  0.00    -0.744 OA
ENDBRANCH  63  64
ENDBRANCH  37  58
ENDBRANCH  11  12
ENDBRANCH   4   6
ENDBRANCH   3   4
ENDBRANCH   2   3
ENDBRANCH   1   2
BRANCH   1  68
ATOM     68  O   UNL A   1      31.676  28.874  24.165  1.00  0.00    -0.374 OA
BRANCH  68  69
ATOM     69  C   UNL A   1      30.755  27.782  24.028  1.00  0.00     0.202 C 
BRANCH  69  70
ATOM     70  C   UNL A   1      31.369  26.663  23.170  1.00  0.00     0.261 C 
BRANCH  70  71
ATOM     71  O   UNL A   1      32.711  26.417  23.626  1.00  0.00    -0.460 OA
BRANCH  71  72
ATOM     72  C   UNL A   1      33.487  25.703  22.766  1.00  0.00     0.338 C 
ATOM     73  O   UNL A   1      33.813  25.970  21.639  1.00  0.00    -0.246 OA
BRANCH  72  74
ATOM     74  C   UNL A   1      34.157  24.706  23.617  1.00  0.00     0.062 A 
ATOM     75  C   UNL A   1      34.845  23.705  22.927  1.00  0.00     0.016 A 
ATOM     76  C   UNL A   1      34.146  24.753  25.010  1.00  0.00     0.041 A 
ATOM     77  C   UNL A   1      35.778  22.936  23.594  1.00  0.00     0.003 A 
ATOM     78  C   UNL A   1      34.866  23.770  25.683  1.00  0.00     0.039 A 
ATOM     79  C   UNL A   1      35.844  23.037  24.976  1.00  0.00     0.026 A 
BRANCH  78  80
ATOM     80  N   UNL A   1      34.406  23.256  26.934  1.00  0.00    -0.355 N 
ATOM     81  H   UNL A   1      34.866  23.515  27.765  1.00  0.00     0.167 HD
BRANCH  80  82
ATOM     82  C   UNL A   1      33.258  22.352  26.990  1.00  0.00     0.050 A 
ATOM     83  C   UNL A   1      32.090  22.932  27.484  1.00  0.00     0.047 A 
ATOM     84  C   UNL A   1      33.069  21.445  25.938  1.00  0.00     0.025 A 
ATOM     85  C   UNL A   1      31.067  23.108  26.571  1.00  0.00     0.114 A 
ATOM     86  C   UNL A   1      32.096  21.798  24.995  1.00  0.00     0.072 A 
ATOM     87  C   UNL A   1      33.558  20.127  25.924  1.00  0.00     0.033 A 
ATOM     88  N   UNL A   1      31.133  22.682  25.286  1.00  0.00    -0.256 NA
ATOM     89  C   UNL A   1      32.035  21.092  23.808  1.00  0.00     0.030 A 
ATOM     90  C   UNL A   1      33.220  19.292  24.861  1.00  0.00     0.041 A 
ATOM     91  C   UNL A   1      32.577  19.812  23.741  1.00  0.00     0.023 A 
ATOM     92  Cl  UNL A   1      33.478  17.595  24.974  1.00  0.00    -0.084 Cl
ENDBRANCH  80  82
ENDBRANCH  78  80
ENDBRANCH  72  74
ENDBRANCH  71  72
ENDBRANCH  70  71
ENDBRANCH  69  70
ENDBRANCH  68  69
ENDBRANCH   1  68
TORSDOF 19
ENDMDL
MODEL 2
REMARK VINA RESULT:     -10.7      1.138      1.846
REMARK SMILES O=C(OCCOCCOC(=O)c1cccc(Nc2ccnc3ccc(Cl)cc23)c1)c1ccc(-c2c3nc(c(-c4ccc(S(=O)(=O)[O-])cc4)c4ccc([nH]4)c(-c4ccc(S(=O)(=O)[O-])cc4)c4nc(c(-c5ccc(S(=O)(=O)[O-])cc5)c5ccc2[nH]5)C=C4)C=C3)cc1
REMARK SMILES IDX 5 1 4 2 3 3 2 4 1 5 30 6 31 7 89 8 32 9 88 10 33 11 34 12
REMARK SMILES IDX 35 13 82 14 36 15 87 16 81 17 83 18 37 19 86 20 80 21 79 22
REMARK SMILES IDX 38 24 68 25 49 26 67 27 50 28 53 29 66 30 84 31 51 32 52 33
REMARK SMILES IDX 65 35 85 36 54 37 39 38 40 39 48 40 41 41 47 42 42 43 43 44
REMARK SMILES IDX 44 45 45 46 46 47 69 48 70 49 78 50 71 51 77 52 72 53 73 54
REMARK SMILES IDX 74 55 75 56 76 57 55 58 56 59 64 60 57 61 63 62 58 63 59 64
REMARK SMILES IDX 60 65 61 66 62 67 6 68 7 69 8 70 9 71 10 72 11 73 12 74
REMARK SMILES IDX 13 75 29 76 14 77 16 78 15 79 17 80 18 82 19 83 28 84 20 85
REMARK SMILES IDX 22 86 27 87 21 88 23 89 25 90 24 91 26 92
REMARK H PARENT 83 23 53 34 17 81
REMARK Flexibility Score: inf
ROOT
ATOM      1  C   UNL A   1      31.768  29.638  25.266  1.00  0.00     0.202 C 
ENDROOT
BRANCH   1   2
ATOM      2  C   UNL A   1      33.278  29.684  25.481  1.00  0.00     0.261 C 
BRANCH   2   3
ATOM      3  O   UNL A   1      33.589  29.441  26.859  1.00  0.00    -0.460 OA
BRANCH   3   4
ATOM      4  C   UNL A   1      34.283  30.257  27.684  1.00  0.00     0.338 C 
ATOM      5  O   UNL A   1      33.739  31.271  28.115  1.00  0.00    -0.246 OA
BRANCH   4   6
ATOM      6  C   UNL A   1      35.693  29.978  28.085  1.00  0.00     0.060 A 
ATOM      7  C   UNL A   1      36.075  29.542  29.355  1.00  0.00     0.016 A 
ATOM      8  C   UNL A   1      36.676  30.061  27.088  1.00  0.00     0.016 A 
ATOM      9  C   UNL A   1      37.399  29.273  29.660  1.00  0.00     0.010 A 
ATOM     10  C   UNL A   1      38.003  29.719  27.367  1.00  0.00     0.010 A 
ATOM     11  C   UNL A   1      38.366  29.329  28.660  1.00  0.00    -0.014 A 
BRANCH  11  12
ATOM     12  C   UNL A   1      39.749  28.961  29.011  1.00  0.00     0.031 A 
ATOM     13  C   UNL A   1      40.596  29.937  29.765  1.00  0.00     0.074 A 
ATOM     14  C   UNL A   1      40.179  27.715  28.729  1.00  0.00     0.049 A 
ATOM     15  N   UNL A   1      41.841  29.824  30.138  1.00  0.00    -0.248 NA
ATOM     16  C   UNL A   1      39.956  31.201  30.165  1.00  0.00     0.031 C 
ATOM     17  C   UNL A   1      39.375  26.670  28.082  1.00  0.00     0.029 A 
ATOM     18  N   UNL A   1      41.378  27.102  28.972  1.00  0.00    -0.354 N 
ATOM     19  C   UNL A   1      42.145  31.012  30.789  1.00  0.00     0.074 A 
ATOM     20  C   UNL A   1      40.955  31.832  30.767  1.00  0.00     0.031 C 
ATOM     21  C   UNL A   1      40.096  25.541  28.008  1.00  0.00     0.029 A 
ATOM     22  C   UNL A   1      41.431  25.801  28.529  1.00  0.00     0.049 A 
ATOM     23  H   UNL A   1      42.131  27.551  29.421  1.00  0.00     0.167 HD
ATOM     24  C   UNL A   1      43.324  31.381  31.338  1.00  0.00     0.031 A 
ATOM     25  C   UNL A   1      42.461  24.933  28.512  1.00  0.00     0.031 A 
ATOM     26  C   UNL A   1      44.493  30.543  31.333  1.00  0.00     0.049 A 
ATOM     27  C   UNL A   1      43.781  25.406  29.054  1.00  0.00     0.074 A 
ATOM     28  C   UNL A   1      45.757  30.824  31.814  1.00  0.00     0.029 A 
ATOM     29  N   UNL A   1      44.533  29.255  30.816  1.00  0.00    -0.354 N 
ATOM     30  N   UNL A   1      44.071  26.551  29.628  1.00  0.00    -0.248 NA
ATOM     31  C   UNL A   1      44.918  24.486  28.930  1.00  0.00     0.031 C 
ATOM     32  C   UNL A   1      46.576  29.722  31.542  1.00  0.00     0.029 A 
ATOM     33  C   UNL A   1      45.807  28.736  30.941  1.00  0.00     0.049 A 
ATOM     34  H   UNL A   1      43.766  28.782  30.419  1.00  0.00     0.167 HD
ATOM     35  C   UNL A   1      45.423  26.487  29.940  1.00  0.00     0.074 A 
ATOM     36  C   UNL A   1      45.884  25.178  29.518  1.00  0.00     0.031 C 
ATOM     37  C   UNL A   1      46.218  27.424  30.510  1.00  0.00     0.031 A 
BRANCH  24  38
ATOM     38  C   UNL A   1      43.421  32.766  31.913  1.00  0.00    -0.014 A 
ATOM     39  C   UNL A   1      43.150  33.022  33.269  1.00  0.00     0.010 A 
ATOM     40  C   UNL A   1      43.812  33.829  31.078  1.00  0.00     0.010 A 
ATOM     41  C   UNL A   1      43.246  34.323  33.773  1.00  0.00     0.020 A 
ATOM     42  C   UNL A   1      43.928  35.127  31.584  1.00  0.00     0.020 A 
ATOM     43  C   UNL A   1      43.632  35.367  32.927  1.00  0.00     0.054 A 
BRANCH  43  44
ATOM     44  S   UNL A   1      43.777  37.040  33.613  1.00  0.00     0.124 S 
ATOM     45  O   UNL A   1      43.704  37.866  32.409  1.00  0.00    -0.237 OA
ATOM     46  O   UNL A   1      42.620  37.124  34.501  1.00  0.00    -0.237 OA
ATOM     47  O   UNL A   1      45.075  37.030  34.283  1.00  0.00    -0.744 OA
ENDBRANCH  43  44
ENDBRANCH  24  38
BRANCH  25  48
ATOM     48  C   UNL A   1      42.311  23.587  27.891  1.00  0.00    -0.014 A 
ATOM     49  C   UNL A   1      41.760  22.510  28.607  1.00  0.00     0.010 A 
ATOM     50  C   UNL A   1      42.757  23.366  26.573  1.00  0.00     0.010 A 
ATOM     51  C   UNL A   1      41.688  21.236  28.031  1.00  0.00     0.020 A 
ATOM     52  C   UNL A   1      42.657  22.104  25.982  1.00  0.00     0.020 A 
ATOM     53  C   UNL A   1      42.144  21.040  26.724  1.00  0.00     0.054 A 
BRANCH  53  54
ATOM     54  S   UNL A   1      42.046  19.383  25.991  1.00  0.00     0.124 S 
ATOM     55  O   UNL A   1      42.879  19.528  24.802  1.00  0.00    -0.237 OA
ATOM     56  O   UNL A   1      42.593  18.534  27.047  1.00  0.00    -0.237 OA
ATOM     57  O   UNL A   1      40.617  19.207  25.738  1.00  0.00    -0.744 OA
ENDBRANCH  53  54
ENDBRANCH  25  48
BRANCH  37  58
ATOM     58  C   UNL A   1      47.657  27.051  30.727  1.00  0.00    -0.014 A 
ATOM     59  C   UNL A   1      48.666  27.556  29.889  1.00  0.00     0.010 A 
ATOM     60  C   UNL A   1      48.003  26.235  31.818  1.00  0.00     0.010 A 
ATOM     61  C   UNL A   1      50.002  27.230  30.128  1.00  0.00     0.020 A 
ATOM     62  C   UNL A   1      49.341  25.929  32.074  1.00  0.00     0.020 A 
ATOM     63  C   UNL A   1      50.330  26.420  31.220  1.00  0.00     0.054 A 
BRANCH  63  64
ATOM     64  S   UNL A   1      52.077  26.057  31.542  1.00  0.00     0.124 S 
ATOM     65  O   UNL A   1      52.399  27.023  32.588  1.00  0.00    -0.237 OA
ATOM     66  O   UNL A   1      52.042  24.659  31.964  1.00  0.00    -0.237 OA
ATOM     67  O   UNL A   1      52.721  26.296  30.251  1.00  0.00    -0.744 OA
ENDBRANCH  63  64
ENDBRANCH  37  58
ENDBRANCH  11  12
ENDBRANCH   4   6
ENDBRANCH   3   4
ENDBRANCH   2   3
ENDBRANCH   1   2
BRANCH   1  68
ATOM     68  O   UNL A   1      31.312  29.456  23.920  1.00  0.00    -0.374 OA
BRANCH  68  69
ATOM     69  C   UNL A   1      30.008  28.872  23.784  1.00  0.00     0.202 C 
BRANCH  69  70
ATOM     70  C   UNL A   1      30.047  27.683  22.811  1.00  0.00     0.261 C 
BRANCH  70  71
ATOM     71  O   UNL A   1      31.396  27.518  22.341  1.00  0.00    -0.460 OA
BRANCH  71  72
ATOM     72  C   UNL A   1      31.804  26.225  22.210  1.00  0.00     0.338 C 
ATOM     73  O   UNL A   1      31.959  25.577  21.208  1.00  0.00    -0.246 OA
BRANCH  72  74
ATOM     74  C   UNL A   1      32.376  25.887  23.523  1.00  0.00     0.062 A 
ATOM     75  C   UNL A   1      33.623  26.459  23.790  1.00  0.00     0.016 A 
ATOM     76  C   UNL A   1      31.730  25.083  24.461  1.00  0.00     0.041 A 
ATOM     77  C   UNL A   1      34.089  26.500  25.089  1.00  0.00     0.003 A 
ATOM     78  C   UNL A   1      32.372  24.891  25.681  1.00  0.00     0.039 A 
ATOM     79  C   UNL A   1      33.405  25.777  26.055  1.00  0.00     0.026 A 
BRANCH  78  80
ATOM     80  N   UNL A   1      32.259  23.648  26.375  1.00  0.00    -0.355 N 
ATOM     81  H   UNL A   1      31.634  23.568  27.133  1.00  0.00     0.167 HD
BRANCH  80  82
ATOM     82  C   UNL A   1      33.061  22.493  25.972  1.00  0.00     0.050 A 
ATOM     83  C   UNL A   1      32.323  21.434  25.444  1.00  0.00     0.047 A 
ATOM     84  C   UNL A   1      34.296  22.722  25.350  1.00  0.00     0.025 A 
ATOM     85  C   UNL A   1      32.494  21.190  24.094  1.00  0.00     0.114 A 
ATOM     86  C   UNL A   1      34.315  22.578  23.958  1.00  0.00     0.072 A 
ATOM     87  C   UNL A   1      35.527  22.796  26.025  1.00  0.00     0.033 A 
ATOM     88  N   UNL A   1      33.375  21.869  23.319  1.00  0.00    -0.256 NA
ATOM     89  C   UNL A   1      35.416  23.033  23.258  1.00  0.00     0.030 A 
ATOM     90  C   UNL A   1      36.698  22.932  25.282  1.00  0.00     0.041 A 
ATOM     91  C   UNL A   1      36.633  23.187  23.915  1.00  0.00     0.023 A 
ATOM     92  Cl  UNL A   1      38.229  22.660  26.018  1.00  0.00    -0.084 Cl
ENDBRANCH  80  82
ENDBRANCH  78  80
ENDBRANCH  72  74
ENDBRANCH  71  72
ENDBRANCH  70  71
ENDBRANCH  69  70
ENDBRANCH  68  69
ENDBRANCH   1  68
TORSDOF 19
ENDMDL
MODEL 3
REMARK VINA RESULT:     -10.7      2.865      9.088
REMARK SMILES O=C(OCCOCCOC(=O)c1cccc(Nc2ccnc3ccc(Cl)cc23)c1)c1ccc(-c2c3nc(c(-c4ccc(S(=O)(=O)[O-])cc4)c4ccc([nH]4)c(-c4ccc(S(=O)(=O)[O-])cc4)c4nc(c(-c5ccc(S(=O)(=O)[O-])cc5)c5ccc2[nH]5)C=C4)C=C3)cc1
REMARK SMILES IDX 5 1 4 2 3 3 2 4 1 5 30 6 31 7 89 8 32 9 88 10 33 11 34 12
REMARK SMILES IDX 35 13 82 14 36 15 87 16 81 17 83 18 37 19 86 20 80 21 79 22
REMARK SMILES IDX 38 24 68 25 49 26 67 27 50 28 53 29 66 30 84 31 51 32 52 33
REMARK SMILES IDX 65 35 85 36 54 37 39 38 40 39 48 40 41 41 47 42 42 43 43 44
REMARK SMILES IDX 44 45 45 46 46 47 69 48 70 49 78 50 71 51 77 52 72 53 73 54
REMARK SMILES IDX 74 55 75 56 76 57 55 58 56 59 64 60 57 61 63 62 58 63 59 64
REMARK SMILES IDX 60 65 61 66 62 67 6 68 7 69 8 70 9 71 10 72 11 73 12 74
REMARK SMILES IDX 13 75 29 76 14 77 16 78 15 79 17 80 18 82 19 83 28 84 20 85
REMARK SMILES IDX 22 86 27 87 21 88 23 89 25 90 24 91 26 92
REMARK H PARENT 83 23 53 34 17 81
REMARK Flexibility Score: inf
ROOT
ATOM      1  C   UNL A   1      35.234  22.482  25.177  1.00  0.00     0.202 C 
ENDROOT
BRANCH   1   2
ATOM      2  C   UNL A   1      36.536  21.967  25.782  1.00  0.00     0.261 C 
BRANCH   2   3
ATOM      3  O   UNL A   1      37.632  22.795  25.375  1.00  0.00    -0.460 OA
BRANCH   3   4
ATOM      4  C   UNL A   1      38.818  22.933  26.012  1.00  0.00     0.338 C 
ATOM      5  O   UNL A   1      39.624  22.008  25.976  1.00  0.00    -0.246 OA
BRANCH   4   6
ATOM      6  C   UNL A   1      39.180  24.168  26.767  1.00  0.00     0.060 A 
ATOM      7  C   UNL A   1      38.837  24.400  28.100  1.00  0.00     0.016 A 
ATOM      8  C   UNL A   1      40.005  25.101  26.122  1.00  0.00     0.016 A 
ATOM      9  C   UNL A   1      39.225  25.555  28.758  1.00  0.00     0.010 A 
ATOM     10  C   UNL A   1      40.464  26.234  26.802  1.00  0.00     0.010 A 
ATOM     11  C   UNL A   1      40.068  26.463  28.124  1.00  0.00    -0.014 A 
BRANCH  11  12
ATOM     12  C   UNL A   1      40.518  27.641  28.886  1.00  0.00     0.031 A 
ATOM     13  C   UNL A   1      41.906  27.663  29.443  1.00  0.00     0.074 A 
ATOM     14  C   UNL A   1      39.700  28.708  28.973  1.00  0.00     0.049 A 
ATOM     15  N   UNL A   1      42.484  28.582  30.168  1.00  0.00    -0.248 NA
ATOM     16  C   UNL A   1      42.765  26.507  29.136  1.00  0.00     0.031 C 
ATOM     17  C   UNL A   1      38.364  28.800  28.367  1.00  0.00     0.029 A 
ATOM     18  N   UNL A   1      39.872  29.927  29.572  1.00  0.00    -0.354 N 
ATOM     19  C   UNL A   1      43.760  28.103  30.430  1.00  0.00     0.074 A 
ATOM     20  C   UNL A   1      43.879  26.816  29.783  1.00  0.00     0.031 C 
ATOM     21  C   UNL A   1      37.856  30.020  28.604  1.00  0.00     0.029 A 
ATOM     22  C   UNL A   1      38.790  30.764  29.437  1.00  0.00     0.049 A 
ATOM     23  H   UNL A   1      40.693  30.178  30.054  1.00  0.00     0.167 HD
ATOM     24  C   UNL A   1      44.734  28.690  31.162  1.00  0.00     0.031 A 
ATOM     25  C   UNL A   1      38.567  31.983  29.965  1.00  0.00     0.031 A 
ATOM     26  C   UNL A   1      44.578  29.969  31.801  1.00  0.00     0.049 A 
ATOM     27  C   UNL A   1      39.637  32.569  30.844  1.00  0.00     0.074 A 
ATOM     28  C   UNL A   1      45.473  30.645  32.609  1.00  0.00     0.029 A 
ATOM     29  N   UNL A   1      43.443  30.763  31.701  1.00  0.00    -0.354 N 
ATOM     30  N   UNL A   1      40.826  32.087  31.123  1.00  0.00    -0.248 NA
ATOM     31  C   UNL A   1      39.333  33.848  31.497  1.00  0.00     0.031 C 
ATOM     32  C   UNL A   1      44.859  31.827  33.038  1.00  0.00     0.029 A 
ATOM     33  C   UNL A   1      43.603  31.912  32.453  1.00  0.00     0.049 A 
ATOM     34  H   UNL A   1      42.644  30.541  31.171  1.00  0.00     0.167 HD
ATOM     35  C   UNL A   1      41.416  33.008  31.980  1.00  0.00     0.074 A 
ATOM     36  C   UNL A   1      40.464  34.089  32.147  1.00  0.00     0.031 C 
ATOM     37  C   UNL A   1      42.628  32.964  32.585  1.00  0.00     0.031 A 
BRANCH  24  38
ATOM     38  C   UNL A   1      46.009  27.922  31.369  1.00  0.00    -0.014 A 
ATOM     39  C   UNL A   1      46.151  27.001  32.422  1.00  0.00     0.010 A 
ATOM     40  C   UNL A   1      47.079  28.116  30.476  1.00  0.00     0.010 A 
ATOM     41  C   UNL A   1      47.352  26.304  32.590  1.00  0.00     0.020 A 
ATOM     42  C   UNL A   1      48.273  27.405  30.629  1.00  0.00     0.020 A 
ATOM     43  C   UNL A   1      48.406  26.512  31.694  1.00  0.00     0.054 A 
BRANCH  43  44
ATOM     44  S   UNL A   1      49.942  25.574  31.917  1.00  0.00     0.124 S 
ATOM     45  O   UNL A   1      50.145  25.009  30.585  1.00  0.00    -0.237 OA
ATOM     46  O   UNL A   1      50.895  26.608  32.312  1.00  0.00    -0.237 OA
ATOM     47  O   UNL A   1      49.610  24.606  32.959  1.00  0.00    -0.744 OA
ENDBRANCH  43  44
ENDBRANCH  24  38
BRANCH  25  48
ATOM     48  C   UNL A   1      37.265  32.677  29.756  1.00  0.00    -0.014 A 
ATOM     49  C   UNL A   1      37.056  33.520  28.651  1.00  0.00     0.010 A 
ATOM     50  C   UNL A   1      36.225  32.519  30.694  1.00  0.00     0.010 A 
ATOM     51  C   UNL A   1      35.850  34.216  28.505  1.00  0.00     0.020 A 
ATOM     52  C   UNL A   1      35.007  33.186  30.535  1.00  0.00     0.020 A 
ATOM     53  C   UNL A   1      34.836  34.049  29.453  1.00  0.00     0.054 A 
BRANCH  53  54
ATOM     54  S   UNL A   1      33.279  34.959  29.252  1.00  0.00     0.124 S 
ATOM     55  O   UNL A   1      33.746  36.259  28.785  1.00  0.00    -0.237 OA
ATOM     56  O   UNL A   1      32.563  34.152  28.266  1.00  0.00    -0.237 OA
ATOM     57  O   UNL A   1      32.700  34.945  30.594  1.00  0.00    -0.744 OA
ENDBRANCH  53  54
ENDBRANCH  25  48
BRANCH  37  58
ATOM     58  C   UNL A   1      42.990  34.128  33.462  1.00  0.00    -0.014 A 
ATOM     59  C   UNL A   1      42.806  34.068  34.854  1.00  0.00     0.010 A 
ATOM     60  C   UNL A   1      43.577  35.269  32.888  1.00  0.00     0.010 A 
ATOM     61  C   UNL A   1      43.183  35.144  35.657  1.00  0.00     0.020 A 
ATOM     62  C   UNL A   1      43.980  36.337  33.692  1.00  0.00     0.020 A 
ATOM     63  C   UNL A   1      43.770  36.271  35.071  1.00  0.00     0.054 A 
BRANCH  63  64
ATOM     64  S   UNL A   1      44.303  37.632  36.142  1.00  0.00     0.124 S 
ATOM     65  O   UNL A   1      45.674  37.246  36.463  1.00  0.00    -0.237 OA
ATOM     66  O   UNL A   1      44.163  38.798  35.274  1.00  0.00    -0.237 OA
ATOM     67  O   UNL A   1      43.362  37.579  37.260  1.00  0.00    -0.744 OA
ENDBRANCH  63  64
ENDBRANCH  37  58
ENDBRANCH  11  12
ENDBRANCH   4   6
ENDBRANCH   3   4
ENDBRANCH   2   3
ENDBRANCH   1   2
BRANCH   1  68
ATOM     68  O   UNL A   1      34.763  21.820  23.997  1.00  0.00    -0.374 OA
BRANCH  68  69
ATOM     69  C   UNL A   1      33.423  22.146  23.599  1.00  0.00     0.202 C 
BRANCH  69  70
ATOM     70  C   UNL A   1      33.431  22.971  22.302  1.00  0.00     0.261 C 
BRANCH  70  71
ATOM     71  O   UNL A   1      33.459  24.368  22.645  1.00  0.00    -0.460 OA
BRANCH  71  72
ATOM     72  C   UNL A   1      32.954  25.202  21.694  1.00  0.00     0.338 C 
ATOM     73  O   UNL A   1      33.110  25.174  20.501  1.00  0.00    -0.246 OA
BRANCH  72  74
ATOM     74  C   UNL A   1      31.874  25.928  22.381  1.00  0.00     0.062 A 
ATOM     75  C   UNL A   1      31.925  27.319  22.258  1.00  0.00     0.016 A 
ATOM     76  C   UNL A   1      30.847  25.298  23.082  1.00  0.00     0.041 A 
ATOM     77  C   UNL A   1      30.805  28.071  22.553  1.00  0.00     0.003 A 
ATOM     78  C   UNL A   1      29.866  26.113  23.639  1.00  0.00     0.039 A 
ATOM     79  C   UNL A   1      29.735  27.439  23.171  1.00  0.00     0.026 A 
BRANCH  78  80
ATOM     80  N   UNL A   1      29.247  25.767  24.879  1.00  0.00    -0.355 N 
ATOM     81  H   UNL A   1      28.280  25.582  24.905  1.00  0.00     0.167 HD
BRANCH  80  82
ATOM     82  C   UNL A   1      30.036  25.683  26.107  1.00  0.00     0.050 A 
ATOM     83  C   UNL A   1      29.998  24.438  26.734  1.00  0.00     0.047 A 
ATOM     84  C   UNL A   1      31.280  26.328  26.148  1.00  0.00     0.025 A 
ATOM     85  C   UNL A   1      31.175  23.712  26.713  1.00  0.00     0.114 A 
ATOM     86  C   UNL A   1      32.400  25.506  25.978  1.00  0.00     0.072 A 
ATOM     87  C   UNL A   1      31.484  27.637  26.619  1.00  0.00     0.033 A 
ATOM     88  N   UNL A   1      32.334  24.186  26.192  1.00  0.00    -0.256 NA
ATOM     89  C   UNL A   1      33.629  26.097  25.751  1.00  0.00     0.030 A 
ATOM     90  C   UNL A   1      32.784  28.131  26.698  1.00  0.00     0.041 A 
ATOM     91  C   UNL A   1      33.839  27.417  26.139  1.00  0.00     0.023 A 
ATOM     92  Cl  UNL A   1      33.116  29.560  27.597  1.00  0.00    -0.084 Cl
ENDBRANCH  80  82
ENDBRANCH  78  80
ENDBRANCH  72  74
ENDBRANCH  71  72
ENDBRANCH  70  71
ENDBRANCH  69  70
ENDBRANCH  68  69
ENDBRANCH   1  68
TORSDOF 19
ENDMDL
