MODEL 1
REMARK VINA RESULT:      -9.8      0.000      0.000
REMARK SMILES COc1ccc(C(=O)N[C@](C)(C(=O)OCCOCCOC(=O)c2ccc(-c3c4nc(c(-c5ccc(S(=O)(=O)[O-])cc5)c5ccc([nH]5)c(-c5ccc(S(=O)(=O)[O-])cc5)c5nc(c(-c6ccc(S(=O)(=O)[O-])cc6)c6ccc3[nH]6)C=C5)C=C4)cc2)C(F)(F)F)cc1O
REMARK SMILES IDX 17 1 16 2 15 3 14 4 12 5 13 6 10 7 11 8 9 9 7 10 8 11 6 13
REMARK SMILES IDX 3 14 4 15 88 16 5 17 87 18 2 19 1 20 89 21 83 23 84 24 85 25
REMARK SMILES IDX 86 26 18 27 19 28 20 29 21 30 22 31 23 32 24 33 82 34 25 35
REMARK SMILES IDX 81 36 26 37 27 38 28 39 75 40 29 41 80 42 74 43 76 44 30 45
REMARK SMILES IDX 79 46 73 47 72 48 31 50 61 51 42 52 60 53 43 54 46 55 59 56
REMARK SMILES IDX 77 57 44 58 45 59 58 61 78 62 47 63 32 64 33 65 41 66 34 67
REMARK SMILES IDX 40 68 35 69 36 70 37 71 38 72 39 73 62 74 63 75 71 76 64 77
REMARK SMILES IDX 70 78 65 79 66 80 67 81 68 82 69 83 48 84 49 85 57 86 50 87
REMARK SMILES IDX 56 88 51 89 52 90 53 91 54 92 55 93
REMARK H PARENT 9 12 89 22 76 49 46 60
REMARK Flexibility Score: inf
ROOT
ATOM      1  O   UNL A   1      37.081  22.824  24.885  1.00  0.00    -0.374 OA
ENDROOT
BRANCH   1   2
ATOM      2  C   UNL A   1      36.694  21.487  25.208  1.00  0.00     0.202 C 
BRANCH   2   3
ATOM      3  C   UNL A   1      35.198  21.245  25.432  1.00  0.00     0.261 C 
BRANCH   3   4
ATOM      4  O   UNL A   1      34.374  22.178  24.698  1.00  0.00    -0.461 OA
BRANCH   4   5
ATOM      5  C   UNL A   1      33.710  23.103  25.446  1.00  0.00     0.341 C 
ATOM      6  O   UNL A   1      33.748  23.149  26.672  1.00  0.00    -0.249 OA
BRANCH   5   7
ATOM      7  C   UNL A   1      32.911  24.104  24.608  1.00  0.00     0.231 C 
ATOM      8  C   UNL A   1      32.385  23.503  23.288  1.00  0.00     0.058 C 
BRANCH   7   9
ATOM      9  N   UNL A   1      31.671  24.374  25.432  1.00  0.00    -0.329 N 
ATOM     10  C   UNL A   1      30.814  25.385  25.756  1.00  0.00     0.252 C 
ATOM     11  O   UNL A   1      30.046  25.160  26.695  1.00  0.00    -0.269 OA
ATOM     12  H   UNL A   1      31.389  23.546  25.884  1.00  0.00     0.165 HD
BRANCH  10  13
ATOM     13  C   UNL A   1      30.624  26.643  25.007  1.00  0.00     0.043 A 
ATOM     14  C   UNL A   1      30.192  28.914  23.378  1.00  0.00     0.160 A 
ATOM     15  C   UNL A   1      29.444  27.751  23.189  1.00  0.00     0.051 A 
ATOM     16  C   UNL A   1      31.102  28.942  24.437  1.00  0.00     0.158 A 
ATOM     17  C   UNL A   1      29.674  26.621  23.977  1.00  0.00     0.018 A 
ATOM     18  C   UNL A   1      31.260  27.843  25.293  1.00  0.00     0.064 A 
BRANCH  14  19
ATOM     19  O   UNL A   1      29.901  29.900  22.478  1.00  0.00    -0.493 OA
ATOM     20  C   UNL A   1      28.585  29.952  21.951  1.00  0.00     0.278 C 
ENDBRANCH  14  19
BRANCH  16  21
ATOM     21  O   UNL A   1      31.892  30.030  24.678  1.00  0.00    -0.504 OA
ATOM     22  H   UNL A   1      31.688  30.610  25.386  1.00  0.00     0.293 HD
ENDBRANCH  16  21
ENDBRANCH  10  13
ENDBRANCH   7   9
BRANCH   7  23
ATOM     23  C   UNL A   1      33.889  25.230  24.244  1.00  0.00     0.422 C 
ATOM     24  F   UNL A   1      34.999  24.749  23.624  1.00  0.00    -0.168 F 
ATOM     25  F   UNL A   1      33.339  26.120  23.386  1.00  0.00    -0.168 F 
ATOM     26  F   UNL A   1      34.359  25.927  25.300  1.00  0.00    -0.168 F 
ENDBRANCH   7  23
ENDBRANCH   5   7
ENDBRANCH   4   5
ENDBRANCH   3   4
ENDBRANCH   2   3
ENDBRANCH   1   2
BRANCH   1  27
ATOM     27  C   UNL A   1      37.419  23.691  25.964  1.00  0.00     0.202 C 
BRANCH  27  28
ATOM     28  C   UNL A   1      38.877  23.668  26.438  1.00  0.00     0.261 C 
BRANCH  28  29
ATOM     29  O   UNL A   1      39.106  24.540  27.560  1.00  0.00    -0.460 OA
BRANCH  29  30
ATOM     30  C   UNL A   1      39.793  25.664  27.256  1.00  0.00     0.338 C 
ATOM     31  O   UNL A   1      40.335  25.936  26.184  1.00  0.00    -0.246 OA
BRANCH  30  32
ATOM     32  C   UNL A   1      39.677  26.656  28.334  1.00  0.00     0.060 A 
ATOM     33  C   UNL A   1      40.475  27.802  28.241  1.00  0.00     0.016 A 
ATOM     34  C   UNL A   1      38.898  26.421  29.471  1.00  0.00     0.016 A 
ATOM     35  C   UNL A   1      40.537  28.695  29.305  1.00  0.00     0.010 A 
ATOM     36  C   UNL A   1      38.970  27.317  30.545  1.00  0.00     0.010 A 
ATOM     37  C   UNL A   1      39.820  28.436  30.482  1.00  0.00    -0.014 A 
BRANCH  37  38
ATOM     38  C   UNL A   1      40.094  29.273  31.677  1.00  0.00     0.031 A 
ATOM     39  C   UNL A   1      39.130  30.374  32.037  1.00  0.00     0.074 A 
ATOM     40  C   UNL A   1      41.134  28.993  32.482  1.00  0.00     0.049 A 
ATOM     41  N   UNL A   1      39.130  31.163  33.080  1.00  0.00    -0.248 NA
ATOM     42  C   UNL A   1      38.014  30.608  31.105  1.00  0.00     0.031 C 
ATOM     43  C   UNL A   1      42.111  27.926  32.261  1.00  0.00     0.029 A 
ATOM     44  N   UNL A   1      41.531  29.574  33.660  1.00  0.00    -0.354 N 
ATOM     45  C   UNL A   1      38.012  31.978  32.939  1.00  0.00     0.074 A 
ATOM     46  C   UNL A   1      37.377  31.613  31.690  1.00  0.00     0.031 C 
ATOM     47  C   UNL A   1      42.993  27.925  33.275  1.00  0.00     0.029 A 
ATOM     48  C   UNL A   1      42.656  29.000  34.206  1.00  0.00     0.049 A 
ATOM     49  H   UNL A   1      41.058  30.330  34.075  1.00  0.00     0.167 HD
ATOM     50  C   UNL A   1      37.547  32.935  33.778  1.00  0.00     0.031 A 
ATOM     51  C   UNL A   1      43.337  29.311  35.327  1.00  0.00     0.031 A 
ATOM     52  C   UNL A   1      38.188  33.310  35.010  1.00  0.00     0.049 A 
ATOM     53  C   UNL A   1      42.838  30.428  36.205  1.00  0.00     0.074 A 
ATOM     54  C   UNL A   1      37.798  34.273  35.926  1.00  0.00     0.029 A 
ATOM     55  N   UNL A   1      39.355  32.744  35.499  1.00  0.00    -0.354 N 
ATOM     56  N   UNL A   1      41.768  31.175  36.063  1.00  0.00    -0.248 NA
ATOM     57  C   UNL A   1      43.633  30.734  37.403  1.00  0.00     0.031 C 
ATOM     58  C   UNL A   1      38.755  34.320  36.946  1.00  0.00     0.029 A 
ATOM     59  C   UNL A   1      39.712  33.351  36.691  1.00  0.00     0.049 A 
ATOM     60  H   UNL A   1      39.856  32.017  35.063  1.00  0.00     0.167 HD
ATOM     61  C   UNL A   1      41.753  32.025  37.163  1.00  0.00     0.074 A 
ATOM     62  C   UNL A   1      42.904  31.684  37.973  1.00  0.00     0.031 C 
ATOM     63  C   UNL A   1      40.867  33.004  37.477  1.00  0.00     0.031 A 
BRANCH  50  64
ATOM     64  C   UNL A   1      36.290  33.661  33.380  1.00  0.00    -0.014 A 
ATOM     65  C   UNL A   1      36.350  34.872  32.665  1.00  0.00     0.010 A 
ATOM     66  C   UNL A   1      35.035  33.098  33.671  1.00  0.00     0.010 A 
ATOM     67  C   UNL A   1      35.174  35.517  32.268  1.00  0.00     0.020 A 
ATOM     68  C   UNL A   1      33.858  33.729  33.257  1.00  0.00     0.020 A 
ATOM     69  C   UNL A   1      33.936  34.941  32.567  1.00  0.00     0.054 A 
BRANCH  69  70
ATOM     70  S   UNL A   1      32.427  35.777  32.003  1.00  0.00     0.124 S 
ATOM     71  O   UNL A   1      32.676  37.156  32.416  1.00  0.00    -0.237 OA
ATOM     72  O   UNL A   1      32.449  35.539  30.562  1.00  0.00    -0.237 OA
ATOM     73  O   UNL A   1      31.360  35.094  32.729  1.00  0.00    -0.744 OA
ENDBRANCH  69  70
ENDBRANCH  50  64
BRANCH  51  74
ATOM     74  C   UNL A   1      44.583  28.574  35.675  1.00  0.00    -0.014 A 
ATOM     75  C   UNL A   1      44.544  27.430  36.491  1.00  0.00     0.010 A 
ATOM     76  C   UNL A   1      45.826  29.040  35.209  1.00  0.00     0.010 A 
ATOM     77  C   UNL A   1      45.728  26.784  36.861  1.00  0.00     0.020 A 
ATOM     78  C   UNL A   1      47.008  28.380  35.553  1.00  0.00     0.020 A 
ATOM     79  C   UNL A   1      46.954  27.267  36.392  1.00  0.00     0.054 A 
BRANCH  79  80
ATOM     80  S   UNL A   1      48.478  26.402  36.859  1.00  0.00     0.124 S 
ATOM     81  O   UNL A   1      49.505  27.281  36.311  1.00  0.00    -0.237 OA
ATOM     82  O   UNL A   1      48.388  26.362  38.316  1.00  0.00    -0.237 OA
ATOM     83  O   UNL A   1      48.346  25.104  36.200  1.00  0.00    -0.744 OA
ENDBRANCH  79  80
ENDBRANCH  51  74
BRANCH  63  84
ATOM     84  C   UNL A   1      41.105  33.757  38.760  1.00  0.00    -0.014 A 
ATOM     85  C   UNL A   1      41.867  34.938  38.778  1.00  0.00     0.010 A 
ATOM     86  C   UNL A   1      40.541  33.285  39.958  1.00  0.00     0.010 A 
ATOM     87  C   UNL A   1      42.104  35.607  39.981  1.00  0.00     0.020 A 
ATOM     88  C   UNL A   1      40.754  33.966  41.160  1.00  0.00     0.020 A 
ATOM     89  C   UNL A   1      41.552  35.112  41.167  1.00  0.00     0.054 A 
BRANCH  89  90
ATOM     90  S   UNL A   1      41.866  36.000  42.717  1.00  0.00     0.124 S 
ATOM     91  O   UNL A   1      43.261  35.661  42.983  1.00  0.00    -0.237 OA
ATOM     92  O   UNL A   1      41.617  37.391  42.348  1.00  0.00    -0.237 OA
ATOM     93  O   UNL A   1      40.896  35.424  43.646  1.00  0.00    -0.744 OA
ENDBRANCH  89  90
ENDBRANCH  63  84
ENDBRANCH  37  38
ENDBRANCH  30  32
ENDBRANCH  29  30
ENDBRANCH  28  29
ENDBRANCH  27  28
ENDBRANCH   1  27
TORSDOF 22
ENDMDL
MODEL 2
REMARK VINA RESULT:      -9.7      5.528      9.969
REMARK SMILES COc1ccc(C(=O)N[C@](C)(C(=O)OCCOCCOC(=O)c2ccc(-c3c4nc(c(-c5ccc(S(=O)(=O)[O-])cc5)c5ccc([nH]5)c(-c5ccc(S(=O)(=O)[O-])cc5)c5nc(c(-c6ccc(S(=O)(=O)[O-])cc6)c6ccc3[nH]6)C=C5)C=C4)cc2)C(F)(F)F)cc1O
REMARK SMILES IDX 17 1 16 2 15 3 14 4 12 5 13 6 10 7 11 8 9 9 7 10 8 11 6 13
REMARK SMILES IDX 3 14 4 15 88 16 5 17 87 18 2 19 1 20 89 21 83 23 84 24 85 25
REMARK SMILES IDX 86 26 18 27 19 28 20 29 21 30 22 31 23 32 24 33 82 34 25 35
REMARK SMILES IDX 81 36 26 37 27 38 28 39 75 40 29 41 80 42 74 43 76 44 30 45
REMARK SMILES IDX 79 46 73 47 72 48 31 50 61 51 42 52 60 53 43 54 46 55 59 56
REMARK SMILES IDX 77 57 44 58 45 59 58 61 78 62 47 63 32 64 33 65 41 66 34 67
REMARK SMILES IDX 40 68 35 69 36 70 37 71 38 72 39 73 62 74 63 75 71 76 64 77
REMARK SMILES IDX 70 78 65 79 66 80 67 81 68 82 69 83 48 84 49 85 57 86 50 87
REMARK SMILES IDX 56 88 51 89 52 90 53 91 54 92 55 93
REMARK H PARENT 9 12 89 22 76 49 46 60
REMARK Flexibility Score: inf
ROOT
ATOM      1  O   UNL A   1      35.475  20.464  25.082  1.00  0.00    -0.374 OA
ENDROOT
BRANCH   1   2
ATOM      2  C   UNL A   1      34.416  21.221  25.673  1.00  0.00     0.202 C 
BRANCH   2   3
ATOM      3  C   UNL A   1      33.012  20.983  25.110  1.00  0.00     0.261 C 
BRANCH   3   4
ATOM      4  O   UNL A   1      32.255  22.207  24.986  1.00  0.00    -0.461 OA
BRANCH   4   5
ATOM      5  C   UNL A   1      32.322  22.829  23.776  1.00  0.00     0.341 C 
ATOM      6  O   UNL A   1      32.374  22.237  22.702  1.00  0.00    -0.249 OA
BRANCH   5   7
ATOM      7  C   UNL A   1      32.311  24.356  23.873  1.00  0.00     0.231 C 
ATOM      8  C   UNL A   1      31.892  25.044  22.557  1.00  0.00     0.058 C 
BRANCH   7   9
ATOM      9  N   UNL A   1      31.189  24.660  24.841  1.00  0.00    -0.329 N 
ATOM     10  C   UNL A   1      30.793  25.606  25.742  1.00  0.00     0.252 C 
ATOM     11  O   UNL A   1      29.871  25.282  26.494  1.00  0.00    -0.269 OA
ATOM     12  H   UNL A   1      30.523  23.935  24.813  1.00  0.00     0.165 HD
BRANCH  10  13
ATOM     13  C   UNL A   1      31.258  27.006  25.799  1.00  0.00     0.043 A 
ATOM     14  C   UNL A   1      32.153  29.665  26.157  1.00  0.00     0.160 A 
ATOM     15  C   UNL A   1      32.505  28.669  27.068  1.00  0.00     0.051 A 
ATOM     16  C   UNL A   1      31.411  29.293  25.034  1.00  0.00     0.158 A 
ATOM     17  C   UNL A   1      32.044  27.360  26.906  1.00  0.00     0.018 A 
ATOM     18  C   UNL A   1      31.034  27.960  24.817  1.00  0.00     0.064 A 
BRANCH  14  19
ATOM     19  O   UNL A   1      32.618  30.903  26.498  1.00  0.00    -0.493 OA
ATOM     20  C   UNL A   1      33.508  30.999  27.599  1.00  0.00     0.278 C 
ENDBRANCH  14  19
BRANCH  16  21
ATOM     21  O   UNL A   1      31.002  30.207  24.105  1.00  0.00    -0.504 OA
ATOM     22  H   UNL A   1      31.619  30.568  23.498  1.00  0.00     0.293 HD
ENDBRANCH  16  21
ENDBRANCH  10  13
ENDBRANCH   7   9
BRANCH   7  23
ATOM     23  C   UNL A   1      33.758  24.775  24.171  1.00  0.00     0.422 C 
ATOM     24  F   UNL A   1      34.043  24.690  25.497  1.00  0.00    -0.168 F 
ATOM     25  F   UNL A   1      34.655  23.977  23.545  1.00  0.00    -0.168 F 
ATOM     26  F   UNL A   1      34.052  26.049  23.836  1.00  0.00    -0.168 F 
ENDBRANCH   7  23
ENDBRANCH   5   7
ENDBRANCH   4   5
ENDBRANCH   3   4
ENDBRANCH   2   3
ENDBRANCH   1   2
BRANCH   1  27
ATOM     27  C   UNL A   1      36.546  21.187  24.483  1.00  0.00     0.202 C 
BRANCH  27  28
ATOM     28  C   UNL A   1      37.945  20.963  25.069  1.00  0.00     0.261 C 
BRANCH  28  29
ATOM     29  O   UNL A   1      38.319  21.984  26.011  1.00  0.00    -0.460 OA
BRANCH  29  30
ATOM     30  C   UNL A   1      39.637  22.007  26.310  1.00  0.00     0.338 C 
ATOM     31  O   UNL A   1      40.499  21.215  25.927  1.00  0.00    -0.246 OA
BRANCH  30  32
ATOM     32  C   UNL A   1      39.988  23.235  27.037  1.00  0.00     0.060 A 
ATOM     33  C   UNL A   1      39.440  24.436  26.569  1.00  0.00     0.016 A 
ATOM     34  C   UNL A   1      40.921  23.236  28.077  1.00  0.00     0.016 A 
ATOM     35  C   UNL A   1      39.863  25.647  27.105  1.00  0.00     0.010 A 
ATOM     36  C   UNL A   1      41.351  24.459  28.608  1.00  0.00     0.010 A 
ATOM     37  C   UNL A   1      40.853  25.670  28.097  1.00  0.00    -0.014 A 
BRANCH  37  38
ATOM     38  C   UNL A   1      41.449  26.976  28.473  1.00  0.00     0.031 A 
ATOM     39  C   UNL A   1      42.928  27.189  28.283  1.00  0.00     0.074 A 
ATOM     40  C   UNL A   1      40.666  27.989  28.887  1.00  0.00     0.049 A 
ATOM     41  N   UNL A   1      43.636  28.275  28.463  1.00  0.00    -0.248 NA
ATOM     42  C   UNL A   1      43.710  26.032  27.819  1.00  0.00     0.031 C 
ATOM     43  C   UNL A   1      39.216  27.916  29.070  1.00  0.00     0.029 A 
ATOM     44  N   UNL A   1      40.981  29.284  29.212  1.00  0.00    -0.354 N 
ATOM     45  C   UNL A   1      44.941  27.936  28.123  1.00  0.00     0.074 A 
ATOM     46  C   UNL A   1      44.935  26.535  27.762  1.00  0.00     0.031 C 
ATOM     47  C   UNL A   1      38.765  29.118  29.469  1.00  0.00     0.029 A 
ATOM     48  C   UNL A   1      39.894  30.038  29.588  1.00  0.00     0.049 A 
ATOM     49  H   UNL A   1      41.898  29.640  29.181  1.00  0.00     0.167 HD
ATOM     50  C   UNL A   1      46.044  28.723  28.101  1.00  0.00     0.031 A 
ATOM     51  C   UNL A   1      39.821  31.323  29.989  1.00  0.00     0.031 A 
ATOM     52  C   UNL A   1      46.054  30.112  28.478  1.00  0.00     0.049 A 
ATOM     53  C   UNL A   1      41.076  32.156  30.024  1.00  0.00     0.074 A 
ATOM     54  C   UNL A   1      47.123  30.992  28.496  1.00  0.00     0.029 A 
ATOM     55  N   UNL A   1      44.944  30.823  28.907  1.00  0.00    -0.354 N 
ATOM     56  N   UNL A   1      42.298  31.822  29.681  1.00  0.00    -0.248 NA
ATOM     57  C   UNL A   1      40.937  33.544  30.487  1.00  0.00     0.031 C 
ATOM     58  C   UNL A   1      46.667  32.224  28.979  1.00  0.00     0.029 A 
ATOM     59  C   UNL A   1      45.305  32.124  29.213  1.00  0.00     0.049 A 
ATOM     60  H   UNL A   1      44.033  30.457  28.982  1.00  0.00     0.167 HD
ATOM     61  C   UNL A   1      43.068  32.965  29.869  1.00  0.00     0.074 A 
ATOM     62  C   UNL A   1      42.170  34.003  30.332  1.00  0.00     0.031 C 
ATOM     63  C   UNL A   1      44.400  33.141  29.681  1.00  0.00     0.031 A 
BRANCH  50  64
ATOM     64  C   UNL A   1      47.342  28.094  27.673  1.00  0.00    -0.014 A 
ATOM     65  C   UNL A   1      47.746  28.114  26.325  1.00  0.00     0.010 A 
ATOM     66  C   UNL A   1      48.197  27.527  28.635  1.00  0.00     0.010 A 
ATOM     67  C   UNL A   1      48.972  27.560  25.945  1.00  0.00     0.020 A 
ATOM     68  C   UNL A   1      49.433  26.991  28.263  1.00  0.00     0.020 A 
ATOM     69  C   UNL A   1      49.808  27.002  26.917  1.00  0.00     0.054 A 
BRANCH  69  70
ATOM     70  S   UNL A   1      51.413  26.328  26.403  1.00  0.00     0.124 S 
ATOM     71  O   UNL A   1      51.346  24.964  26.922  1.00  0.00    -0.237 OA
ATOM     72  O   UNL A   1      51.360  26.450  24.949  1.00  0.00    -0.237 OA
ATOM     73  O   UNL A   1      52.382  27.198  27.064  1.00  0.00    -0.744 OA
ENDBRANCH  69  70
ENDBRANCH  50  64
BRANCH  51  74
ATOM     74  C   UNL A   1      38.517  31.902  30.416  1.00  0.00    -0.014 A 
ATOM     75  C   UNL A   1      37.726  32.644  29.522  1.00  0.00     0.010 A 
ATOM     76  C   UNL A   1      38.077  31.733  31.742  1.00  0.00     0.010 A 
ATOM     77  C   UNL A   1      36.533  33.234  29.954  1.00  0.00     0.020 A 
ATOM     78  C   UNL A   1      36.872  32.297  32.169  1.00  0.00     0.020 A 
ATOM     79  C   UNL A   1      36.117  33.059  31.278  1.00  0.00     0.054 A 
BRANCH  79  80
ATOM     80  S   UNL A   1      34.554  33.808  31.815  1.00  0.00     0.124 S 
ATOM     81  O   UNL A   1      33.898  34.084  30.542  1.00  0.00    -0.237 OA
ATOM     82  O   UNL A   1      33.954  32.748  32.622  1.00  0.00    -0.237 OA
ATOM     83  O   UNL A   1      34.984  34.984  32.568  1.00  0.00    -0.744 OA
ENDBRANCH  79  80
ENDBRANCH  51  74
BRANCH  63  84
ATOM     84  C   UNL A   1      44.955  34.513  29.957  1.00  0.00    -0.014 A 
ATOM     85  C   UNL A   1      45.006  35.493  28.950  1.00  0.00     0.010 A 
ATOM     86  C   UNL A   1      45.415  34.831  31.247  1.00  0.00     0.010 A 
ATOM     87  C   UNL A   1      45.553  36.750  29.215  1.00  0.00     0.020 A 
ATOM     88  C   UNL A   1      45.939  36.097  31.524  1.00  0.00     0.020 A 
ATOM     89  C   UNL A   1      46.023  37.042  30.499  1.00  0.00     0.054 A 
BRANCH  89  90
ATOM     90  S   UNL A   1      46.724  38.684  30.823  1.00  0.00     0.124 S 
ATOM     91  O   UNL A   1      47.163  39.094  29.492  1.00  0.00    -0.237 OA
ATOM     92  O   UNL A   1      45.583  39.420  31.363  1.00  0.00    -0.237 OA
ATOM     93  O   UNL A   1      47.795  38.418  31.780  1.00  0.00    -0.744 OA
ENDBRANCH  89  90
ENDBRANCH  63  84
ENDBRANCH  37  38
ENDBRANCH  30  32
ENDBRANCH  29  30
ENDBRANCH  28  29
ENDBRANCH  27  28
ENDBRANCH   1  27
TORSDOF 22
ENDMDL
MODEL 3
REMARK VINA RESULT:      -9.7      6.517     11.257
REMARK SMILES COc1ccc(C(=O)N[C@](C)(C(=O)OCCOCCOC(=O)c2ccc(-c3c4nc(c(-c5ccc(S(=O)(=O)[O-])cc5)c5ccc([nH]5)c(-c5ccc(S(=O)(=O)[O-])cc5)c5nc(c(-c6ccc(S(=O)(=O)[O-])cc6)c6ccc3[nH]6)C=C5)C=C4)cc2)C(F)(F)F)cc1O
REMARK SMILES IDX 17 1 16 2 15 3 14 4 12 5 13 6 10 7 11 8 9 9 7 10 8 11 6 13
REMARK SMILES IDX 3 14 4 15 88 16 5 17 87 18 2 19 1 20 89 21 83 23 84 24 85 25
REMARK SMILES IDX 86 26 18 27 19 28 20 29 21 30 22 31 23 32 24 33 82 34 25 35
REMARK SMILES IDX 81 36 26 37 27 38 28 39 75 40 29 41 80 42 74 43 76 44 30 45
REMARK SMILES IDX 79 46 73 47 72 48 31 50 61 51 42 52 60 53 43 54 46 55 59 56
REMARK SMILES IDX 77 57 44 58 45 59 58 61 78 62 47 63 32 64 33 65 41 66 34 67
REMARK SMILES IDX 40 68 35 69 36 70 37 71 38 72 39 73 62 74 63 75 71 76 64 77
REMARK SMILES IDX 70 78 65 79 66 80 67 81 68 82 69 83 48 84 49 85 57 86 50 87
REMARK SMILES IDX 56 88 51 89 52 90 53 91 54 92 55 93
REMARK H PARENT 9 12 89 22 76 49 46 60
REMARK Flexibility Score: inf
ROOT
ATOM      1  O   UNL A   1      37.946  21.423  25.016  1.00  0.00    -0.374 OA
ENDROOT
BRANCH   1   2
ATOM      2  C   UNL A   1      36.770  22.060  25.518  1.00  0.00     0.202 C 
BRANCH   2   3
ATOM      3  C   UNL A   1      35.442  21.341  25.261  1.00  0.00     0.261 C 
BRANCH   3   4
ATOM      4  O   UNL A   1      34.301  22.147  25.626  1.00  0.00    -0.461 OA
BRANCH   4   5
ATOM      5  C   UNL A   1      33.529  22.591  24.595  1.00  0.00     0.341 C 
ATOM      6  O   UNL A   1      33.247  21.916  23.610  1.00  0.00    -0.249 OA
BRANCH   5   7
ATOM      7  C   UNL A   1      33.024  24.024  24.784  1.00  0.00     0.231 C 
ATOM      8  C   UNL A   1      33.686  24.746  25.977  1.00  0.00     0.058 C 
BRANCH   7   9
ATOM      9  N   UNL A   1      33.525  24.760  23.561  1.00  0.00    -0.329 N 
ATOM     10  C   UNL A   1      33.198  25.805  22.747  1.00  0.00     0.252 C 
ATOM     11  O   UNL A   1      33.828  25.880  21.688  1.00  0.00    -0.269 OA
ATOM     12  H   UNL A   1      34.363  24.349  23.248  1.00  0.00     0.165 HD
BRANCH  10  13
ATOM     13  C   UNL A   1      32.284  26.917  23.076  1.00  0.00     0.043 A 
ATOM     14  C   UNL A   1      30.422  29.005  23.486  1.00  0.00     0.160 A 
ATOM     15  C   UNL A   1      30.079  27.887  22.726  1.00  0.00     0.051 A 
ATOM     16  C   UNL A   1      31.680  29.024  24.092  1.00  0.00     0.158 A 
ATOM     17  C   UNL A   1      31.005  26.866  22.502  1.00  0.00     0.018 A 
ATOM     18  C   UNL A   1      32.574  27.953  23.951  1.00  0.00     0.064 A 
BRANCH  14  19
ATOM     19  O   UNL A   1      29.434  29.947  23.546  1.00  0.00    -0.493 OA
ATOM     20  C   UNL A   1      28.197  29.654  22.916  1.00  0.00     0.278 C 
ENDBRANCH  14  19
BRANCH  16  21
ATOM     21  O   UNL A   1      32.107  30.090  24.832  1.00  0.00    -0.504 OA
ATOM     22  H   UNL A   1      31.591  30.871  24.871  1.00  0.00     0.293 HD
ENDBRANCH  16  21
ENDBRANCH  10  13
ENDBRANCH   7   9
BRANCH   7  23
ATOM     23  C   UNL A   1      31.524  23.909  25.091  1.00  0.00     0.422 C 
ATOM     24  F   UNL A   1      31.258  22.862  25.915  1.00  0.00    -0.168 F 
ATOM     25  F   UNL A   1      31.051  25.009  25.721  1.00  0.00    -0.168 F 
ATOM     26  F   UNL A   1      30.746  23.701  24.007  1.00  0.00    -0.168 F 
ENDBRANCH   7  23
ENDBRANCH   5   7
ENDBRANCH   4   5
ENDBRANCH   3   4
ENDBRANCH   2   3
ENDBRANCH   1   2
BRANCH   1  27
ATOM     27  C   UNL A   1      37.957  19.999  24.973  1.00  0.00     0.202 C 
BRANCH  27  28
ATOM     28  C   UNL A   1      39.194  19.299  25.548  1.00  0.00     0.261 C 
BRANCH  28  29
ATOM     29  O   UNL A   1      40.034  20.194  26.299  1.00  0.00    -0.460 OA
BRANCH  29  30
ATOM     30  C   UNL A   1      41.344  19.859  26.295  1.00  0.00     0.338 C 
ATOM     31  O   UNL A   1      41.829  18.762  26.015  1.00  0.00    -0.246 OA
BRANCH  30  32
ATOM     32  C   UNL A   1      42.188  21.044  26.502  1.00  0.00     0.060 A 
ATOM     33  C   UNL A   1      42.433  21.434  27.824  1.00  0.00     0.016 A 
ATOM     34  C   UNL A   1      42.632  21.829  25.434  1.00  0.00     0.016 A 
ATOM     35  C   UNL A   1      43.079  22.637  28.085  1.00  0.00     0.010 A 
ATOM     36  C   UNL A   1      43.274  23.045  25.701  1.00  0.00     0.010 A 
ATOM     37  C   UNL A   1      43.465  23.472  27.027  1.00  0.00    -0.014 A 
BRANCH  37  38
ATOM     38  C   UNL A   1      43.931  24.845  27.342  1.00  0.00     0.031 A 
ATOM     39  C   UNL A   1      45.377  25.200  27.113  1.00  0.00     0.074 A 
ATOM     40  C   UNL A   1      43.056  25.789  27.735  1.00  0.00     0.049 A 
ATOM     41  N   UNL A   1      45.974  26.358  27.237  1.00  0.00    -0.248 NA
ATOM     42  C   UNL A   1      46.264  24.110  26.674  1.00  0.00     0.031 C 
ATOM     43  C   UNL A   1      41.625  25.576  27.952  1.00  0.00     0.029 A 
ATOM     44  N   UNL A   1      43.243  27.121  28.006  1.00  0.00    -0.354 N 
ATOM     45  C   UNL A   1      47.301  26.140  26.882  1.00  0.00     0.074 A 
ATOM     46  C   UNL A   1      47.431  24.732  26.573  1.00  0.00     0.031 C 
ATOM     47  C   UNL A   1      41.061  26.741  28.316  1.00  0.00     0.029 A 
ATOM     48  C   UNL A   1      42.092  27.775  28.378  1.00  0.00     0.049 A 
ATOM     49  H   UNL A   1      44.119  27.567  27.942  1.00  0.00     0.167 HD
ATOM     50  C   UNL A   1      48.317  27.033  26.808  1.00  0.00     0.031 A 
ATOM     51  C   UNL A   1      41.896  29.060  28.732  1.00  0.00     0.031 A 
ATOM     52  C   UNL A   1      48.192  28.429  27.133  1.00  0.00     0.049 A 
ATOM     53  C   UNL A   1      43.059  30.017  28.709  1.00  0.00     0.074 A 
ATOM     54  C   UNL A   1      49.165  29.413  27.095  1.00  0.00     0.029 A 
ATOM     55  N   UNL A   1      47.023  29.040  27.559  1.00  0.00    -0.354 N 
ATOM     56  N   UNL A   1      44.302  29.795  28.353  1.00  0.00    -0.248 NA
ATOM     57  C   UNL A   1      42.787  31.400  29.124  1.00  0.00     0.031 C 
ATOM     58  C   UNL A   1      48.595  30.610  27.543  1.00  0.00     0.029 A 
ATOM     59  C   UNL A   1      47.255  30.382  27.809  1.00  0.00     0.049 A 
ATOM     60  H   UNL A   1      46.155  28.587  27.667  1.00  0.00     0.167 HD
ATOM     61  C   UNL A   1      44.955  31.016  28.483  1.00  0.00     0.074 A 
ATOM     62  C   UNL A   1      43.965  31.976  28.926  1.00  0.00     0.031 C 
ATOM     63  C   UNL A   1      46.259  31.319  28.259  1.00  0.00     0.031 A 
BRANCH  50  64
ATOM     64  C   UNL A   1      49.665  26.522  26.375  1.00  0.00    -0.014 A 
ATOM     65  C   UNL A   1      50.197  26.862  25.117  1.00  0.00     0.010 A 
ATOM     66  C   UNL A   1      50.434  25.742  27.257  1.00  0.00     0.010 A 
ATOM     67  C   UNL A   1      51.467  26.412  24.743  1.00  0.00     0.020 A 
ATOM     68  C   UNL A   1      51.713  25.309  26.894  1.00  0.00     0.020 A 
ATOM     69  C   UNL A   1      52.217  25.639  25.634  1.00  0.00     0.054 A 
BRANCH  69  70
ATOM     70  S   UNL A   1      53.879  25.104  25.138  1.00  0.00     0.124 S 
ATOM     71  O   UNL A   1      53.873  25.393  23.706  1.00  0.00    -0.237 OA
ATOM     72  O   UNL A   1      54.744  25.957  25.948  1.00  0.00    -0.237 OA
ATOM     73  O   UNL A   1      53.904  23.685  25.486  1.00  0.00    -0.744 OA
ENDBRANCH  69  70
ENDBRANCH  50  64
BRANCH  51  74
ATOM     74  C   UNL A   1      40.547  29.520  29.166  1.00  0.00    -0.014 A 
ATOM     75  C   UNL A   1      40.242  29.688  30.528  1.00  0.00     0.010 A 
ATOM     76  C   UNL A   1      39.548  29.764  28.206  1.00  0.00     0.010 A 
ATOM     77  C   UNL A   1      38.953  30.060  30.923  1.00  0.00     0.020 A 
ATOM     78  C   UNL A   1      38.267  30.163  28.596  1.00  0.00     0.020 A 
ATOM     79  C   UNL A   1      37.972  30.291  29.953  1.00  0.00     0.054 A 
BRANCH  79  80
ATOM     80  S   UNL A   1      36.313  30.799  30.482  1.00  0.00     0.124 S 
ATOM     81  O   UNL A   1      36.551  32.155  30.965  1.00  0.00    -0.237 OA
ATOM     82  O   UNL A   1      35.539  30.693  29.247  1.00  0.00    -0.237 OA
ATOM     83  O   UNL A   1      35.969  29.818  31.508  1.00  0.00    -0.744 OA
ENDBRANCH  79  80
ENDBRANCH  51  74
BRANCH  63  84
ATOM     84  C   UNL A   1      46.676  32.750  28.473  1.00  0.00    -0.014 A 
ATOM     85  C   UNL A   1      46.599  33.692  27.432  1.00  0.00     0.010 A 
ATOM     86  C   UNL A   1      47.133  33.161  29.738  1.00  0.00     0.010 A 
ATOM     87  C   UNL A   1      47.021  35.008  27.639  1.00  0.00     0.020 A 
ATOM     88  C   UNL A   1      47.530  34.482  29.956  1.00  0.00     0.020 A 
ATOM     89  C   UNL A   1      47.490  35.393  28.898  1.00  0.00     0.054 A 
BRANCH  89  90
ATOM     90  S   UNL A   1      48.025  37.109  29.147  1.00  0.00     0.124 S 
ATOM     91  O   UNL A   1      46.926  37.657  29.937  1.00  0.00    -0.237 OA
ATOM     92  O   UNL A   1      49.293  36.952  29.856  1.00  0.00    -0.237 OA
ATOM     93  O   UNL A   1      48.139  37.634  27.788  1.00  0.00    -0.744 OA
ENDBRANCH  89  90
ENDBRANCH  63  84
ENDBRANCH  37  38
ENDBRANCH  30  32
ENDBRANCH  29  30
ENDBRANCH  28  29
ENDBRANCH  27  28
ENDBRANCH   1  27
TORSDOF 22
ENDMDL
