MODEL 1
REMARK VINA RESULT:     -11.3      0.000      0.000
REMARK SMILES O=C(OCCOCCOC(=O)[C@]1(NC(=O)C2CCN(C(=O)C3CC3)CC2)CCCc2ccccc21)c1ccc(-c2c3nc(c(-c4ccc(S(=O)(=O)[O-])cc4)c4ccc([nH]4)c(-c4ccc(S(=O)(=O)[O-])cc4)c4nc(c(-c5ccc(S(=O)(=O)[O-])cc5)c5ccc2[nH]5)C=C4)C=C3)cc1
REMARK SMILES IDX 6 1 5 2 4 3 3 4 2 5 1 6 36 7 37 8 95 9 38 10 94 11 39 12
REMARK SMILES IDX 40 13 41 14 88 15 42 16 93 17 87 18 89 19 43 20 92 21 86 22
REMARK SMILES IDX 85 23 44 25 74 26 55 27 73 28 56 29 59 30 72 31 90 32 57 33
REMARK SMILES IDX 58 34 71 36 91 37 60 38 45 39 46 40 54 41 47 42 53 43 48 44
REMARK SMILES IDX 49 45 50 46 51 47 52 48 75 49 76 50 84 51 77 52 83 53 78 54
REMARK SMILES IDX 79 55 80 56 81 57 82 58 61 59 62 60 70 61 63 62 69 63 64 64
REMARK SMILES IDX 65 65 66 66 67 67 68 68 7 69 8 70 9 71 10 72 11 73 12 74
REMARK SMILES IDX 27 75 35 76 28 77 30 78 34 79 29 80 31 81 33 82 32 83 13 84
REMARK SMILES IDX 14 85 15 87 16 88 17 89 26 90 18 91 25 92 19 93 20 94 21 95
REMARK SMILES IDX 22 96 23 97 24 98
REMARK H PARENT 89 24 59 35 13 86
REMARK Flexibility Score: inf
ROOT
ATOM      1  O   UNL A   1      37.027  20.975  24.958  1.00  0.00    -0.374 OA
ENDROOT
BRANCH   1   2
ATOM      2  C   UNL A   1      38.246  20.244  25.063  1.00  0.00     0.202 C 
BRANCH   2   3
ATOM      3  C   UNL A   1      39.406  20.665  25.995  1.00  0.00     0.261 C 
BRANCH   3   4
ATOM      4  O   UNL A   1      40.518  19.731  26.049  1.00  0.00    -0.460 OA
BRANCH   4   5
ATOM      5  C   UNL A   1      41.855  20.040  26.051  1.00  0.00     0.338 C 
ATOM      6  O   UNL A   1      42.708  19.227  25.730  1.00  0.00    -0.246 OA
BRANCH   5   7
ATOM      7  C   UNL A   1      42.233  21.381  26.539  1.00  0.00     0.060 A 
ATOM      8  C   UNL A   1      42.111  22.427  25.653  1.00  0.00     0.016 A 
ATOM      9  C   UNL A   1      42.736  21.640  27.810  1.00  0.00     0.016 A 
ATOM     10  C   UNL A   1      42.860  23.546  25.802  1.00  0.00     0.010 A 
ATOM     11  C   UNL A   1      43.189  22.937  28.103  1.00  0.00     0.010 A 
ATOM     12  C   UNL A   1      43.282  23.887  27.073  1.00  0.00    -0.014 A 
BRANCH  12  13
ATOM     13  C   UNL A   1      43.798  25.265  27.160  1.00  0.00     0.031 A 
ATOM     14  C   UNL A   1      42.973  26.295  27.854  1.00  0.00     0.074 A 
ATOM     15  C   UNL A   1      45.115  25.445  26.896  1.00  0.00     0.049 A 
ATOM     16  N   UNL A   1      43.280  27.535  28.110  1.00  0.00    -0.248 NA
ATOM     17  C   UNL A   1      41.638  25.890  28.331  1.00  0.00     0.031 C 
ATOM     18  C   UNL A   1      46.020  24.406  26.361  1.00  0.00     0.029 A 
ATOM     19  N   UNL A   1      45.964  26.480  27.178  1.00  0.00    -0.354 N 
ATOM     20  C   UNL A   1      42.154  28.078  28.711  1.00  0.00     0.074 A 
ATOM     21  C   UNL A   1      41.166  27.030  28.813  1.00  0.00     0.031 C 
ATOM     22  C   UNL A   1      47.291  24.792  26.528  1.00  0.00     0.029 A 
ATOM     23  C   UNL A   1      47.294  26.170  26.981  1.00  0.00     0.049 A 
ATOM     24  H   UNL A   1      45.655  27.360  27.491  1.00  0.00     0.167 HD
ATOM     25  C   UNL A   1      41.973  29.357  29.104  1.00  0.00     0.031 A 
ATOM     26  C   UNL A   1      48.393  26.939  27.100  1.00  0.00     0.031 A 
ATOM     27  C   UNL A   1      43.001  30.352  28.973  1.00  0.00     0.049 A 
ATOM     28  C   UNL A   1      48.150  28.370  27.473  1.00  0.00     0.074 A 
ATOM     29  C   UNL A   1      42.926  31.717  29.165  1.00  0.00     0.029 A 
ATOM     30  N   UNL A   1      44.318  30.065  28.626  1.00  0.00    -0.354 N 
ATOM     31  N   UNL A   1      47.025  28.932  27.857  1.00  0.00    -0.248 NA
ATOM     32  C   UNL A   1      49.289  29.284  27.374  1.00  0.00     0.031 C 
ATOM     33  C   UNL A   1      44.190  32.257  28.901  1.00  0.00     0.029 A 
ATOM     34  C   UNL A   1      45.067  31.223  28.598  1.00  0.00     0.049 A 
ATOM     35  H   UNL A   1      44.665  29.164  28.430  1.00  0.00     0.167 HD
ATOM     36  C   UNL A   1      47.311  30.278  28.013  1.00  0.00     0.074 A 
ATOM     37  C   UNL A   1      48.731  30.429  27.743  1.00  0.00     0.031 C 
ATOM     38  C   UNL A   1      46.479  31.304  28.316  1.00  0.00     0.031 A 
BRANCH  25  39
ATOM     39  C   UNL A   1      40.600  29.733  29.579  1.00  0.00    -0.014 A 
ATOM     40  C   UNL A   1      39.553  30.004  28.681  1.00  0.00     0.010 A 
ATOM     41  C   UNL A   1      40.373  29.881  30.960  1.00  0.00     0.010 A 
ATOM     42  C   UNL A   1      38.315  30.453  29.154  1.00  0.00     0.020 A 
ATOM     43  C   UNL A   1      39.132  30.309  31.438  1.00  0.00     0.020 A 
ATOM     44  C   UNL A   1      38.116  30.610  30.530  1.00  0.00     0.054 A 
BRANCH  44  45
ATOM     45  S   UNL A   1      36.504  31.201  31.119  1.00  0.00     0.124 S 
ATOM     46  O   UNL A   1      35.730  31.249  29.881  1.00  0.00    -0.237 OA
ATOM     47  O   UNL A   1      36.110  30.164  32.068  1.00  0.00    -0.237 OA
ATOM     48  O   UNL A   1      36.808  32.502  31.713  1.00  0.00    -0.744 OA
ENDBRANCH  44  45
ENDBRANCH  25  39
BRANCH  26  49
ATOM     49  C   UNL A   1      49.740  26.426  26.706  1.00  0.00    -0.014 A 
ATOM     50  C   UNL A   1      50.658  25.936  27.652  1.00  0.00     0.010 A 
ATOM     51  C   UNL A   1      50.124  26.441  25.348  1.00  0.00     0.010 A 
ATOM     52  C   UNL A   1      51.927  25.491  27.250  1.00  0.00     0.020 A 
ATOM     53  C   UNL A   1      51.370  25.960  24.938  1.00  0.00     0.020 A 
ATOM     54  C   UNL A   1      52.274  25.509  25.896  1.00  0.00     0.054 A 
BRANCH  54  55
ATOM     55  S   UNL A   1      53.913  24.916  25.384  1.00  0.00     0.124 S 
ATOM     56  O   UNL A   1      54.624  24.862  26.656  1.00  0.00    -0.237 OA
ATOM     57  O   UNL A   1      53.610  23.626  24.771  1.00  0.00    -0.237 OA
ATOM     58  O   UNL A   1      54.370  25.946  24.452  1.00  0.00    -0.744 OA
ENDBRANCH  54  55
ENDBRANCH  26  49
BRANCH  38  59
ATOM     59  C   UNL A   1      47.112  32.660  28.383  1.00  0.00    -0.014 A 
ATOM     60  C   UNL A   1      47.185  33.475  27.241  1.00  0.00     0.010 A 
ATOM     61  C   UNL A   1      47.611  33.124  29.611  1.00  0.00     0.010 A 
ATOM     62  C   UNL A   1      47.787  34.730  27.320  1.00  0.00     0.020 A 
ATOM     63  C   UNL A   1      48.190  34.388  29.697  1.00  0.00     0.020 A 
ATOM     64  C   UNL A   1      48.288  35.175  28.547  1.00  0.00     0.054 A 
BRANCH  64  65
ATOM     65  S   UNL A   1      49.038  36.821  28.636  1.00  0.00     0.124 S 
ATOM     66  O   UNL A   1      48.418  37.371  29.837  1.00  0.00    -0.237 OA
ATOM     67  O   UNL A   1      50.464  36.520  28.743  1.00  0.00    -0.237 OA
ATOM     68  O   UNL A   1      48.634  37.450  27.379  1.00  0.00    -0.744 OA
ENDBRANCH  64  65
ENDBRANCH  38  59
ENDBRANCH  12  13
ENDBRANCH   5   7
ENDBRANCH   4   5
ENDBRANCH   3   4
ENDBRANCH   2   3
ENDBRANCH   1   2
BRANCH   1  69
ATOM     69  C   UNL A   1      35.753  20.342  25.032  1.00  0.00     0.202 C 
BRANCH  69  70
ATOM     70  C   UNL A   1      34.581  21.105  25.641  1.00  0.00     0.261 C 
BRANCH  70  71
ATOM     71  O   UNL A   1      34.670  22.523  25.470  1.00  0.00    -0.461 OA
BRANCH  71  72
ATOM     72  C   UNL A   1      34.133  23.187  26.522  1.00  0.00     0.336 C 
ATOM     73  O   UNL A   1      34.337  22.859  27.691  1.00  0.00    -0.249 OA
BRANCH  72  74
ATOM     74  C   UNL A   1      33.174  24.371  26.126  1.00  0.00     0.164 C 
ATOM     75  C   UNL A   1      31.850  24.305  26.935  1.00  0.00     0.046 C 
ATOM     76  C   UNL A   1      32.904  23.989  24.650  1.00  0.00    -0.008 A 
ATOM     77  C   UNL A   1      31.070  23.004  26.764  1.00  0.00     0.008 C 
ATOM     78  C   UNL A   1      31.881  23.072  24.322  1.00  0.00    -0.042 A 
ATOM     79  C   UNL A   1      33.899  24.284  23.692  1.00  0.00     0.007 A 
ATOM     80  C   UNL A   1      30.799  22.672  25.298  1.00  0.00     0.036 C 
ATOM     81  C   UNL A   1      31.894  22.464  23.056  1.00  0.00     0.004 A 
ATOM     82  C   UNL A   1      33.900  23.663  22.449  1.00  0.00     0.000 A 
ATOM     83  C   UNL A   1      32.905  22.744  22.137  1.00  0.00     0.000 A 
BRANCH  74  84
ATOM     84  N   UNL A   1      33.636  25.805  26.152  1.00  0.00    -0.336 N 
ATOM     85  C   UNL A   1      33.206  26.974  25.594  1.00  0.00     0.224 C 
ATOM     86  H   UNL A   1      34.443  25.928  26.702  1.00  0.00     0.164 HD
ATOM     87  O   UNL A   1      34.057  27.842  25.373  1.00  0.00    -0.275 OA
BRANCH  85  88
ATOM     88  C   UNL A   1      31.732  27.276  25.388  1.00  0.00     0.082 C 
ATOM     89  C   UNL A   1      31.230  26.876  23.977  1.00  0.00     0.035 C 
ATOM     90  C   UNL A   1      31.474  28.761  25.743  1.00  0.00     0.035 C 
ATOM     91  C   UNL A   1      31.221  27.973  22.916  1.00  0.00     0.120 C 
ATOM     92  C   UNL A   1      31.621  29.696  24.542  1.00  0.00     0.120 C 
ATOM     93  N   UNL A   1      30.756  29.233  23.476  1.00  0.00    -0.342 N 
ATOM     94  C   UNL A   1      29.486  29.699  23.118  1.00  0.00     0.225 C 
ATOM     95  O   UNL A   1      28.759  29.024  22.385  1.00  0.00    -0.275 OA
BRANCH  94  96
ATOM     96  C   UNL A   1      28.944  31.051  23.474  1.00  0.00     0.079 C 
ATOM     97  C   UNL A   1      28.098  32.028  22.712  1.00  0.00     0.014 C 
ATOM     98  C   UNL A   1      27.477  31.207  23.809  1.00  0.00     0.014 C 
ENDBRANCH  94  96
ENDBRANCH  85  88
ENDBRANCH  74  84
ENDBRANCH  72  74
ENDBRANCH  71  72
ENDBRANCH  70  71
ENDBRANCH  69  70
ENDBRANCH   1  69
TORSDOF 20
ENDMDL
MODEL 2
REMARK VINA RESULT:     -10.3      5.352     10.805
REMARK SMILES O=C(OCCOCCOC(=O)[C@]1(NC(=O)C2CCN(C(=O)C3CC3)CC2)CCCc2ccccc21)c1ccc(-c2c3nc(c(-c4ccc(S(=O)(=O)[O-])cc4)c4ccc([nH]4)c(-c4ccc(S(=O)(=O)[O-])cc4)c4nc(c(-c5ccc(S(=O)(=O)[O-])cc5)c5ccc2[nH]5)C=C4)C=C3)cc1
REMARK SMILES IDX 6 1 5 2 4 3 3 4 2 5 1 6 36 7 37 8 95 9 38 10 94 11 39 12
REMARK SMILES IDX 40 13 41 14 88 15 42 16 93 17 87 18 89 19 43 20 92 21 86 22
REMARK SMILES IDX 85 23 44 25 74 26 55 27 73 28 56 29 59 30 72 31 90 32 57 33
REMARK SMILES IDX 58 34 71 36 91 37 60 38 45 39 46 40 54 41 47 42 53 43 48 44
REMARK SMILES IDX 49 45 50 46 51 47 52 48 75 49 76 50 84 51 77 52 83 53 78 54
REMARK SMILES IDX 79 55 80 56 81 57 82 58 61 59 62 60 70 61 63 62 69 63 64 64
REMARK SMILES IDX 65 65 66 66 67 67 68 68 7 69 8 70 9 71 10 72 11 73 12 74
REMARK SMILES IDX 27 75 35 76 28 77 30 78 34 79 29 80 31 81 33 82 32 83 13 84
REMARK SMILES IDX 14 85 15 87 16 88 17 89 26 90 18 91 25 92 19 93 20 94 21 95
REMARK SMILES IDX 22 96 23 97 24 98
REMARK H PARENT 89 24 59 35 13 86
REMARK Flexibility Score: inf
ROOT
ATOM      1  O   UNL A   1      31.651  30.790  26.365  1.00  0.00    -0.374 OA
ENDROOT
BRANCH   1   2
ATOM      2  C   UNL A   1      32.815  30.383  27.081  1.00  0.00     0.202 C 
BRANCH   2   3
ATOM      3  C   UNL A   1      33.672  31.354  27.924  1.00  0.00     0.261 C 
BRANCH   3   4
ATOM      4  O   UNL A   1      35.102  31.282  27.677  1.00  0.00    -0.460 OA
BRANCH   4   5
ATOM      5  C   UNL A   1      36.043  32.226  28.002  1.00  0.00     0.338 C 
ATOM      6  O   UNL A   1      35.905  33.405  27.710  1.00  0.00    -0.246 OA
BRANCH   5   7
ATOM      7  C   UNL A   1      37.279  31.747  28.651  1.00  0.00     0.060 A 
ATOM      8  C   UNL A   1      37.444  30.384  28.752  1.00  0.00     0.016 A 
ATOM      9  C   UNL A   1      38.253  32.578  29.194  1.00  0.00     0.016 A 
ATOM     10  C   UNL A   1      38.234  29.856  29.718  1.00  0.00     0.010 A 
ATOM     11  C   UNL A   1      39.313  31.995  29.909  1.00  0.00     0.010 A 
ATOM     12  C   UNL A   1      39.279  30.622  30.200  1.00  0.00    -0.014 A 
BRANCH  12  13
ATOM     13  C   UNL A   1      40.248  29.844  30.993  1.00  0.00     0.031 A 
ATOM     14  C   UNL A   1      41.013  28.755  30.319  1.00  0.00     0.074 A 
ATOM     15  C   UNL A   1      40.621  30.363  32.188  1.00  0.00     0.049 A 
ATOM     16  N   UNL A   1      41.964  28.014  30.813  1.00  0.00    -0.248 NA
ATOM     17  C   UNL A   1      40.682  28.459  28.914  1.00  0.00     0.031 C 
ATOM     18  C   UNL A   1      40.003  31.544  32.826  1.00  0.00     0.029 A 
ATOM     19  N   UNL A   1      41.685  30.092  33.003  1.00  0.00    -0.354 N 
ATOM     20  C   UNL A   1      42.295  27.119  29.807  1.00  0.00     0.074 A 
ATOM     21  C   UNL A   1      41.470  27.424  28.662  1.00  0.00     0.031 C 
ATOM     22  C   UNL A   1      40.799  31.990  33.807  1.00  0.00     0.029 A 
ATOM     23  C   UNL A   1      41.862  31.023  34.006  1.00  0.00     0.049 A 
ATOM     24  H   UNL A   1      42.268  29.308  32.885  1.00  0.00     0.167 HD
ATOM     25  C   UNL A   1      43.194  26.113  29.871  1.00  0.00     0.031 A 
ATOM     26  C   UNL A   1      42.754  31.058  35.013  1.00  0.00     0.031 A 
ATOM     27  C   UNL A   1      43.984  25.864  31.045  1.00  0.00     0.049 A 
ATOM     28  C   UNL A   1      43.693  29.891  35.092  1.00  0.00     0.074 A 
ATOM     29  C   UNL A   1      44.809  24.795  31.332  1.00  0.00     0.029 A 
ATOM     30  N   UNL A   1      44.051  26.730  32.132  1.00  0.00    -0.354 N 
ATOM     31  N   UNL A   1      43.867  28.924  34.219  1.00  0.00    -0.248 NA
ATOM     32  C   UNL A   1      44.507  29.776  36.304  1.00  0.00     0.031 C 
ATOM     33  C   UNL A   1      45.349  25.001  32.607  1.00  0.00     0.029 A 
ATOM     34  C   UNL A   1      44.903  26.224  33.092  1.00  0.00     0.049 A 
ATOM     35  H   UNL A   1      43.561  27.582  32.205  1.00  0.00     0.167 HD
ATOM     36  C   UNL A   1      44.787  28.062  34.790  1.00  0.00     0.074 A 
ATOM     37  C   UNL A   1      45.178  28.659  36.055  1.00  0.00     0.031 C 
ATOM     38  C   UNL A   1      45.246  26.870  34.335  1.00  0.00     0.031 A 
BRANCH  25  39
ATOM     39  C   UNL A   1      43.250  25.179  28.697  1.00  0.00    -0.014 A 
ATOM     40  C   UNL A   1      42.382  24.079  28.582  1.00  0.00     0.010 A 
ATOM     41  C   UNL A   1      44.243  25.373  27.719  1.00  0.00     0.010 A 
ATOM     42  C   UNL A   1      42.530  23.169  27.529  1.00  0.00     0.020 A 
ATOM     43  C   UNL A   1      44.381  24.479  26.655  1.00  0.00     0.020 A 
ATOM     44  C   UNL A   1      43.535  23.372  26.577  1.00  0.00     0.054 A 
BRANCH  44  45
ATOM     45  S   UNL A   1      43.713  22.174  25.225  1.00  0.00     0.124 S 
ATOM     46  O   UNL A   1      43.460  23.004  24.051  1.00  0.00    -0.237 OA
ATOM     47  O   UNL A   1      45.089  21.712  25.385  1.00  0.00    -0.237 OA
ATOM     48  O   UNL A   1      42.687  21.173  25.512  1.00  0.00    -0.744 OA
ENDBRANCH  44  45
ENDBRANCH  25  39
BRANCH  26  49
ATOM     49  C   UNL A   1      42.680  32.106  36.075  1.00  0.00    -0.014 A 
ATOM     50  C   UNL A   1      43.422  33.298  36.000  1.00  0.00     0.010 A 
ATOM     51  C   UNL A   1      41.856  31.902  37.202  1.00  0.00     0.010 A 
ATOM     52  C   UNL A   1      43.353  34.248  37.031  1.00  0.00     0.020 A 
ATOM     53  C   UNL A   1      41.750  32.863  38.210  1.00  0.00     0.020 A 
ATOM     54  C   UNL A   1      42.518  34.022  38.130  1.00  0.00     0.054 A 
BRANCH  54  55
ATOM     55  S   UNL A   1      42.422  35.264  39.451  1.00  0.00     0.124 S 
ATOM     56  O   UNL A   1      40.981  35.433  39.601  1.00  0.00    -0.237 OA
ATOM     57  O   UNL A   1      43.102  34.604  40.562  1.00  0.00    -0.237 OA
ATOM     58  O   UNL A   1      43.133  36.412  38.890  1.00  0.00    -0.744 OA
ENDBRANCH  54  55
ENDBRANCH  26  49
BRANCH  38  59
ATOM     59  C   UNL A   1      46.230  26.169  35.220  1.00  0.00    -0.014 A 
ATOM     60  C   UNL A   1      45.796  25.249  36.189  1.00  0.00     0.010 A 
ATOM     61  C   UNL A   1      47.601  26.419  35.053  1.00  0.00     0.010 A 
ATOM     62  C   UNL A   1      46.726  24.614  37.010  1.00  0.00     0.020 A 
ATOM     63  C   UNL A   1      48.534  25.766  35.856  1.00  0.00     0.020 A 
ATOM     64  C   UNL A   1      48.088  24.880  36.840  1.00  0.00     0.054 A 
BRANCH  64  65
ATOM     65  S   UNL A   1      49.283  24.021  37.896  1.00  0.00     0.124 S 
ATOM     66  O   UNL A   1      48.889  24.475  39.227  1.00  0.00    -0.237 OA
ATOM     67  O   UNL A   1      49.016  22.614  37.605  1.00  0.00    -0.237 OA
ATOM     68  O   UNL A   1      50.575  24.515  37.424  1.00  0.00    -0.744 OA
ENDBRANCH  64  65
ENDBRANCH  38  59
ENDBRANCH  12  13
ENDBRANCH   5   7
ENDBRANCH   4   5
ENDBRANCH   3   4
ENDBRANCH   2   3
ENDBRANCH   1   2
BRANCH   1  69
ATOM     69  C   UNL A   1      31.232  30.144  25.167  1.00  0.00     0.202 C 
BRANCH  69  70
ATOM     70  C   UNL A   1      32.269  29.422  24.312  1.00  0.00     0.261 C 
BRANCH  70  71
ATOM     71  O   UNL A   1      32.319  28.010  24.544  1.00  0.00    -0.461 OA
BRANCH  71  72
ATOM     72  C   UNL A   1      33.521  27.491  24.195  1.00  0.00     0.336 C 
ATOM     73  O   UNL A   1      34.486  28.191  23.888  1.00  0.00    -0.249 OA
BRANCH  72  74
ATOM     74  C   UNL A   1      33.563  25.918  24.151  1.00  0.00     0.164 C 
ATOM     75  C   UNL A   1      33.937  25.413  22.731  1.00  0.00     0.046 C 
ATOM     76  C   UNL A   1      32.069  25.621  24.434  1.00  0.00    -0.008 A 
ATOM     77  C   UNL A   1      32.993  25.880  21.626  1.00  0.00     0.008 C 
ATOM     78  C   UNL A   1      31.129  25.609  23.381  1.00  0.00    -0.042 A 
ATOM     79  C   UNL A   1      31.612  25.714  25.767  1.00  0.00     0.007 A 
ATOM     80  C   UNL A   1      31.532  25.548  21.926  1.00  0.00     0.036 C 
ATOM     81  C   UNL A   1      29.763  25.710  23.690  1.00  0.00     0.004 A 
ATOM     82  C   UNL A   1      30.256  25.826  26.051  1.00  0.00     0.000 A 
ATOM     83  C   UNL A   1      29.334  25.837  25.011  1.00  0.00     0.000 A 
BRANCH  74  84
ATOM     84  N   UNL A   1      34.383  25.121  25.133  1.00  0.00    -0.336 N 
ATOM     85  C   UNL A   1      34.442  23.811  25.512  1.00  0.00     0.224 C 
ATOM     86  H   UNL A   1      35.032  25.680  25.618  1.00  0.00     0.164 HD
ATOM     87  O   UNL A   1      34.822  23.572  26.662  1.00  0.00    -0.275 OA
BRANCH  85  88
ATOM     88  C   UNL A   1      34.203  22.676  24.532  1.00  0.00     0.082 C 
ATOM     89  C   UNL A   1      32.699  22.345  24.353  1.00  0.00     0.035 C 
ATOM     90  C   UNL A   1      35.061  21.461  24.960  1.00  0.00     0.035 C 
ATOM     91  C   UNL A   1      32.136  21.221  25.219  1.00  0.00     0.120 C 
ATOM     92  C   UNL A   1      34.327  20.517  25.913  1.00  0.00     0.120 C 
ATOM     93  N   UNL A   1      33.076  20.112  25.304  1.00  0.00    -0.342 N 
ATOM     94  C   UNL A   1      32.781  18.929  24.618  1.00  0.00     0.225 C 
ATOM     95  O   UNL A   1      31.772  18.852  23.913  1.00  0.00    -0.275 OA
BRANCH  94  96
ATOM     96  C   UNL A   1      33.559  17.654  24.750  1.00  0.00     0.079 C 
ATOM     97  C   UNL A   1      33.643  16.433  23.881  1.00  0.00     0.014 C 
ATOM     98  C   UNL A   1      34.774  17.424  23.878  1.00  0.00     0.014 C 
ENDBRANCH  94  96
ENDBRANCH  85  88
ENDBRANCH  74  84
ENDBRANCH  72  74
ENDBRANCH  71  72
ENDBRANCH  70  71
ENDBRANCH  69  70
ENDBRANCH   1  69
TORSDOF 20
ENDMDL
MODEL 3
REMARK VINA RESULT:     -10.3      5.119      9.201
REMARK SMILES O=C(OCCOCCOC(=O)[C@]1(NC(=O)C2CCN(C(=O)C3CC3)CC2)CCCc2ccccc21)c1ccc(-c2c3nc(c(-c4ccc(S(=O)(=O)[O-])cc4)c4ccc([nH]4)c(-c4ccc(S(=O)(=O)[O-])cc4)c4nc(c(-c5ccc(S(=O)(=O)[O-])cc5)c5ccc2[nH]5)C=C4)C=C3)cc1
REMARK SMILES IDX 6 1 5 2 4 3 3 4 2 5 1 6 36 7 37 8 95 9 38 10 94 11 39 12
REMARK SMILES IDX 40 13 41 14 88 15 42 16 93 17 87 18 89 19 43 20 92 21 86 22
REMARK SMILES IDX 85 23 44 25 74 26 55 27 73 28 56 29 59 30 72 31 90 32 57 33
REMARK SMILES IDX 58 34 71 36 91 37 60 38 45 39 46 40 54 41 47 42 53 43 48 44
REMARK SMILES IDX 49 45 50 46 51 47 52 48 75 49 76 50 84 51 77 52 83 53 78 54
REMARK SMILES IDX 79 55 80 56 81 57 82 58 61 59 62 60 70 61 63 62 69 63 64 64
REMARK SMILES IDX 65 65 66 66 67 67 68 68 7 69 8 70 9 71 10 72 11 73 12 74
REMARK SMILES IDX 27 75 35 76 28 77 30 78 34 79 29 80 31 81 33 82 32 83 13 84
REMARK SMILES IDX 14 85 15 87 16 88 17 89 26 90 18 91 25 92 19 93 20 94 21 95
REMARK SMILES IDX 22 96 23 97 24 98
REMARK H PARENT 89 24 59 35 13 86
REMARK Flexibility Score: inf
ROOT
ATOM      1  O   UNL A   1      32.032  31.002  26.846  1.00  0.00    -0.374 OA
ENDROOT
BRANCH   1   2
ATOM      2  C   UNL A   1      33.367  30.963  27.344  1.00  0.00     0.202 C 
BRANCH   2   3
ATOM      3  C   UNL A   1      34.038  32.158  28.056  1.00  0.00     0.261 C 
BRANCH   3   4
ATOM      4  O   UNL A   1      35.485  32.211  27.935  1.00  0.00    -0.460 OA
BRANCH   4   5
ATOM      5  C   UNL A   1      36.351  32.942  28.707  1.00  0.00     0.338 C 
ATOM      6  O   UNL A   1      36.335  34.164  28.718  1.00  0.00    -0.246 OA
BRANCH   5   7
ATOM      7  C   UNL A   1      37.368  32.192  29.470  1.00  0.00     0.060 A 
ATOM      8  C   UNL A   1      38.534  32.855  29.780  1.00  0.00     0.016 A 
ATOM      9  C   UNL A   1      37.237  30.861  29.853  1.00  0.00     0.016 A 
ATOM     10  C   UNL A   1      39.677  32.167  30.012  1.00  0.00     0.010 A 
ATOM     11  C   UNL A   1      38.336  30.222  30.453  1.00  0.00     0.010 A 
ATOM     12  C   UNL A   1      39.577  30.877  30.498  1.00  0.00    -0.014 A 
BRANCH  12  13
ATOM     13  C   UNL A   1      40.855  30.352  31.013  1.00  0.00     0.031 A 
ATOM     14  C   UNL A   1      41.294  30.753  32.381  1.00  0.00     0.074 A 
ATOM     15  C   UNL A   1      41.394  29.296  30.356  1.00  0.00     0.049 A 
ATOM     16  N   UNL A   1      42.335  30.341  33.046  1.00  0.00    -0.248 NA
ATOM     17  C   UNL A   1      40.462  31.732  33.103  1.00  0.00     0.031 C 
ATOM     18  C   UNL A   1      40.896  28.753  29.075  1.00  0.00     0.029 A 
ATOM     19  N   UNL A   1      42.355  28.394  30.722  1.00  0.00    -0.354 N 
ATOM     20  C   UNL A   1      42.325  31.060  34.231  1.00  0.00     0.074 A 
ATOM     21  C   UNL A   1      41.160  31.913  34.214  1.00  0.00     0.031 C 
ATOM     22  C   UNL A   1      41.420  27.538  28.871  1.00  0.00     0.029 A 
ATOM     23  C   UNL A   1      42.437  27.304  29.879  1.00  0.00     0.049 A 
ATOM     24  H   UNL A   1      42.931  28.511  31.511  1.00  0.00     0.167 HD
ATOM     25  C   UNL A   1      43.244  31.019  35.221  1.00  0.00     0.031 A 
ATOM     26  C   UNL A   1      43.283  26.258  29.890  1.00  0.00     0.031 A 
ATOM     27  C   UNL A   1      44.383  30.145  35.173  1.00  0.00     0.049 A 
ATOM     28  C   UNL A   1      44.331  26.279  30.962  1.00  0.00     0.074 A 
ATOM     29  C   UNL A   1      45.485  30.100  36.004  1.00  0.00     0.029 A 
ATOM     30  N   UNL A   1      44.547  29.136  34.229  1.00  0.00    -0.354 N 
ATOM     31  N   UNL A   1      44.431  27.095  31.987  1.00  0.00    -0.248 NA
ATOM     32  C   UNL A   1      45.408  25.293  30.856  1.00  0.00     0.031 C 
ATOM     33  C   UNL A   1      46.330  29.084  35.541  1.00  0.00     0.029 A 
ATOM     34  C   UNL A   1      45.728  28.461  34.454  1.00  0.00     0.049 A 
ATOM     35  H   UNL A   1      43.910  28.932  33.506  1.00  0.00     0.167 HD
ATOM     36  C   UNL A   1      45.605  26.746  32.633  1.00  0.00     0.074 A 
ATOM     37  C   UNL A   1      46.143  25.602  31.917  1.00  0.00     0.031 C 
ATOM     38  C   UNL A   1      46.208  27.330  33.698  1.00  0.00     0.031 A 
BRANCH  25  39
ATOM     39  C   UNL A   1      43.091  32.019  36.330  1.00  0.00    -0.014 A 
ATOM     40  C   UNL A   1      43.568  33.336  36.212  1.00  0.00     0.010 A 
ATOM     41  C   UNL A   1      42.511  31.607  37.544  1.00  0.00     0.010 A 
ATOM     42  C   UNL A   1      43.504  34.211  37.302  1.00  0.00     0.020 A 
ATOM     43  C   UNL A   1      42.425  32.484  38.628  1.00  0.00     0.020 A 
ATOM     44  C   UNL A   1      42.939  33.776  38.505  1.00  0.00     0.054 A 
BRANCH  44  45
ATOM     45  S   UNL A   1      42.873  34.927  39.907  1.00  0.00     0.124 S 
ATOM     46  O   UNL A   1      42.183  36.073  39.324  1.00  0.00    -0.237 OA
ATOM     47  O   UNL A   1      42.114  34.175  40.903  1.00  0.00    -0.237 OA
ATOM     48  O   UNL A   1      44.279  35.149  40.239  1.00  0.00    -0.744 OA
ENDBRANCH  44  45
ENDBRANCH  25  39
BRANCH  26  49
ATOM     49  C   UNL A   1      43.276  25.247  28.790  1.00  0.00    -0.014 A 
ATOM     50  C   UNL A   1      42.655  23.994  28.933  1.00  0.00     0.010 A 
ATOM     51  C   UNL A   1      43.919  25.538  27.569  1.00  0.00     0.010 A 
ATOM     52  C   UNL A   1      42.694  23.055  27.890  1.00  0.00     0.020 A 
ATOM     53  C   UNL A   1      43.925  24.625  26.512  1.00  0.00     0.020 A 
ATOM     54  C   UNL A   1      43.331  23.377  26.687  1.00  0.00     0.054 A 
BRANCH  54  55
ATOM     55  S   UNL A   1      43.362  22.163  25.337  1.00  0.00     0.124 S 
ATOM     56  O   UNL A   1      44.484  21.314  25.722  1.00  0.00    -0.237 OA
ATOM     57  O   UNL A   1      42.041  21.548  25.429  1.00  0.00    -0.237 OA
ATOM     58  O   UNL A   1      43.577  22.985  24.147  1.00  0.00    -0.744 OA
ENDBRANCH  54  55
ENDBRANCH  26  49
BRANCH  38  59
ATOM     59  C   UNL A   1      47.498  26.712  34.138  1.00  0.00    -0.014 A 
ATOM     60  C   UNL A   1      47.511  25.664  35.074  1.00  0.00     0.010 A 
ATOM     61  C   UNL A   1      48.704  27.173  33.584  1.00  0.00     0.010 A 
ATOM     62  C   UNL A   1      48.723  25.108  35.479  1.00  0.00     0.020 A 
ATOM     63  C   UNL A   1      49.914  26.601  33.969  1.00  0.00     0.020 A 
ATOM     64  C   UNL A   1      49.917  25.584  34.926  1.00  0.00     0.054 A 
BRANCH  64  65
ATOM     65  S   UNL A   1      51.479  24.827  35.442  1.00  0.00     0.124 S 
ATOM     66  O   UNL A   1      51.689  25.435  36.753  1.00  0.00    -0.237 OA
ATOM     67  O   UNL A   1      51.158  23.401  35.452  1.00  0.00    -0.237 OA
ATOM     68  O   UNL A   1      52.420  25.241  34.403  1.00  0.00    -0.744 OA
ENDBRANCH  64  65
ENDBRANCH  38  59
ENDBRANCH  12  13
ENDBRANCH   5   7
ENDBRANCH   4   5
ENDBRANCH   3   4
ENDBRANCH   2   3
ENDBRANCH   1   2
BRANCH   1  69
ATOM     69  C   UNL A   1      31.601  30.182  25.763  1.00  0.00     0.202 C 
BRANCH  69  70
ATOM     70  C   UNL A   1      32.644  29.590  24.821  1.00  0.00     0.261 C 
BRANCH  70  71
ATOM     71  O   UNL A   1      32.578  28.164  24.717  1.00  0.00    -0.461 OA
BRANCH  71  72
ATOM     72  C   UNL A   1      33.612  27.669  23.994  1.00  0.00     0.336 C 
ATOM     73  O   UNL A   1      34.427  28.389  23.417  1.00  0.00    -0.249 OA
BRANCH  72  74
ATOM     74  C   UNL A   1      33.647  26.098  23.896  1.00  0.00     0.164 C 
ATOM     75  C   UNL A   1      33.857  25.639  22.428  1.00  0.00     0.046 C 
ATOM     76  C   UNL A   1      32.194  25.790  24.336  1.00  0.00    -0.008 A 
ATOM     77  C   UNL A   1      32.795  26.137  21.451  1.00  0.00     0.008 C 
ATOM     78  C   UNL A   1      31.141  25.809  23.396  1.00  0.00    -0.042 A 
ATOM     79  C   UNL A   1      31.890  25.841  25.715  1.00  0.00     0.007 A 
ATOM     80  C   UNL A   1      31.377  25.794  21.904  1.00  0.00     0.036 C 
ATOM     81  C   UNL A   1      29.818  25.898  23.860  1.00  0.00     0.004 A 
ATOM     82  C   UNL A   1      30.575  25.940  26.153  1.00  0.00     0.000 A 
ATOM     83  C   UNL A   1      29.541  25.982  25.224  1.00  0.00     0.000 A 
BRANCH  74  84
ATOM     84  N   UNL A   1      34.571  25.273  24.754  1.00  0.00    -0.336 N 
ATOM     85  C   UNL A   1      34.600  23.977  25.183  1.00  0.00     0.224 C 
ATOM     86  H   UNL A   1      35.337  25.794  25.086  1.00  0.00     0.164 HD
ATOM     87  O   UNL A   1      35.166  23.750  26.257  1.00  0.00    -0.275 OA
BRANCH  85  88
ATOM     88  C   UNL A   1      34.102  22.830  24.321  1.00  0.00     0.082 C 
ATOM     89  C   UNL A   1      32.756  22.246  24.822  1.00  0.00     0.035 C 
ATOM     90  C   UNL A   1      35.230  21.778  24.194  1.00  0.00     0.035 C 
ATOM     91  C   UNL A   1      32.837  21.030  25.741  1.00  0.00     0.120 C 
ATOM     92  C   UNL A   1      35.174  20.708  25.286  1.00  0.00     0.120 C 
ATOM     93  N   UNL A   1      33.860  20.100  25.283  1.00  0.00    -0.342 N 
ATOM     94  C   UNL A   1      33.457  18.892  24.702  1.00  0.00     0.225 C 
ATOM     95  O   UNL A   1      32.259  18.651  24.535  1.00  0.00    -0.275 OA
BRANCH  94  96
ATOM     96  C   UNL A   1      34.385  17.771  24.344  1.00  0.00     0.079 C 
ATOM     97  C   UNL A   1      34.227  16.280  24.395  1.00  0.00     0.014 C 
ATOM     98  C   UNL A   1      34.157  16.987  23.070  1.00  0.00     0.014 C 
ENDBRANCH  94  96
ENDBRANCH  85  88
ENDBRANCH  74  84
ENDBRANCH  72  74
ENDBRANCH  71  72
ENDBRANCH  70  71
ENDBRANCH  69  70
ENDBRANCH   1  69
TORSDOF 20
ENDMDL
