MODEL 1
REMARK VINA RESULT:      -9.2      0.000      0.000
REMARK SMILES CCCCCN(C(=O)N1CCC(CC(=O)OCCOCCOC(=O)c2ccc(-c3c4nc(c(-c5ccc(S(=O)(=O)[O-])cc5)c5ccc([nH]5)c(-c5ccc(S(=O)(=O)[O-])cc5)c5nc(c(-c6ccc(S(=O)(=O)[O-])cc6)c6ccc3[nH]6)C=C5)C=C4)cc2)CC1)C(C)C
REMARK SMILES IDX 17 1 16 2 14 3 15 4 13 5 12 6 7 7 8 8 9 9 10 10 86 11 11 12
REMARK SMILES IDX 85 13 6 14 5 15 4 16 3 17 2 18 1 19 87 20 88 21 89 22 18 23
REMARK SMILES IDX 19 24 20 25 21 26 22 27 23 28 24 29 25 30 26 31 84 32 27 33
REMARK SMILES IDX 83 34 28 35 29 36 30 37 77 38 31 39 82 40 76 41 78 42 32 43
REMARK SMILES IDX 81 44 75 45 74 46 33 48 63 49 44 50 62 51 45 52 48 53 61 54
REMARK SMILES IDX 79 55 46 56 47 57 60 59 80 60 49 61 34 62 35 63 43 64 36 65
REMARK SMILES IDX 42 66 37 67 38 68 39 69 40 70 41 71 64 72 65 73 73 74 66 75
REMARK SMILES IDX 72 76 67 77 68 78 69 79 70 80 71 81 50 82 51 83 59 84 52 85
REMARK SMILES IDX 58 86 53 87 54 88 55 89 56 90 57 91
REMARK H PARENT 78 47 48 58
REMARK Flexibility Score: inf
ROOT
ATOM      1  C   UNL A   1      38.935  21.615  26.066  1.00  0.00     0.261 C 
ENDROOT
BRANCH   1   2
ATOM      2  O   UNL A   1      37.976  22.120  25.118  1.00  0.00    -0.463 OA
BRANCH   2   3
ATOM      3  C   UNL A   1      36.671  21.939  25.429  1.00  0.00     0.306 C 
ATOM      4  O   UNL A   1      36.059  20.883  25.320  1.00  0.00    -0.252 OA
BRANCH   3   5
ATOM      5  C   UNL A   1      36.000  23.214  25.894  1.00  0.00     0.126 C 
BRANCH   5   6
ATOM      6  C   UNL A   1      34.541  23.485  25.471  1.00  0.00     0.003 C 
ATOM      7  C   UNL A   1      31.811  26.566  25.809  1.00  0.00     0.320 C 
ATOM      8  O   UNL A   1      31.608  26.686  27.020  1.00  0.00    -0.248 OA
ATOM      9  N   UNL A   1      32.287  25.369  25.303  1.00  0.00    -0.325 N 
ATOM     10  C   UNL A   1      32.210  24.190  26.164  1.00  0.00     0.121 C 
ATOM     11  C   UNL A   1      33.155  25.208  24.142  1.00  0.00     0.121 C 
ATOM     12  C   UNL A   1      33.596  23.765  26.653  1.00  0.00     0.026 C 
ATOM     13  C   UNL A   1      34.544  24.698  24.520  1.00  0.00     0.026 C 
BRANCH   7  14
ATOM     14  N   UNL A   1      31.599  27.645  24.949  1.00  0.00    -0.322 N 
BRANCH  14  15
ATOM     15  C   UNL A   1      30.442  27.761  24.035  1.00  0.00     0.121 C 
BRANCH  15  16
ATOM     16  C   UNL A   1      30.679  28.372  22.642  1.00  0.00     0.022 C 
BRANCH  16  17
ATOM     17  C   UNL A   1      29.960  29.667  22.242  1.00  0.00     0.002 C 
BRANCH  17  18
ATOM     18  C   UNL A   1      29.089  30.345  23.300  1.00  0.00    -0.003 C 
ATOM     19  C   UNL A   1      27.613  30.002  23.178  1.00  0.00     0.004 C 
ENDBRANCH  17  18
ENDBRANCH  16  17
ENDBRANCH  15  16
ENDBRANCH  14  15
BRANCH  14  20
ATOM     20  C   UNL A   1      32.494  28.807  25.181  1.00  0.00     0.080 C 
ATOM     21  C   UNL A   1      31.881  29.884  26.076  1.00  0.00     0.031 C 
ATOM     22  C   UNL A   1      33.905  28.432  25.626  1.00  0.00     0.031 C 
ENDBRANCH  14  20
ENDBRANCH   7  14
ENDBRANCH   5   6
ENDBRANCH   3   5
ENDBRANCH   2   3
ENDBRANCH   1   2
BRANCH   1  23
ATOM     23  C   UNL A   1      39.845  22.728  26.591  1.00  0.00     0.202 C 
BRANCH  23  24
ATOM     24  O   UNL A   1      41.163  22.341  26.974  1.00  0.00    -0.374 OA
BRANCH  24  25
ATOM     25  C   UNL A   1      42.091  22.076  25.923  1.00  0.00     0.202 C 
BRANCH  25  26
ATOM     26  C   UNL A   1      42.889  23.276  25.397  1.00  0.00     0.261 C 
BRANCH  26  27
ATOM     27  O   UNL A   1      43.114  24.271  26.412  1.00  0.00    -0.460 OA
BRANCH  27  28
ATOM     28  C   UNL A   1      42.885  25.548  26.019  1.00  0.00     0.338 C 
ATOM     29  O   UNL A   1      42.889  25.979  24.872  1.00  0.00    -0.246 OA
BRANCH  28  30
ATOM     30  C   UNL A   1      42.428  26.352  27.167  1.00  0.00     0.060 A 
ATOM     31  C   UNL A   1      43.108  27.547  27.439  1.00  0.00     0.016 A 
ATOM     32  C   UNL A   1      41.385  25.927  27.992  1.00  0.00     0.016 A 
ATOM     33  C   UNL A   1      42.759  28.313  28.550  1.00  0.00     0.010 A 
ATOM     34  C   UNL A   1      41.047  26.690  29.114  1.00  0.00     0.010 A 
ATOM     35  C   UNL A   1      41.744  27.877  29.410  1.00  0.00    -0.014 A 
BRANCH  35  36
ATOM     36  C   UNL A   1      41.463  28.612  30.667  1.00  0.00     0.031 A 
ATOM     37  C   UNL A   1      40.329  29.597  30.710  1.00  0.00     0.074 A 
ATOM     38  C   UNL A   1      42.218  28.403  31.761  1.00  0.00     0.049 A 
ATOM     39  N   UNL A   1      39.967  30.401  31.676  1.00  0.00    -0.248 NA
ATOM     40  C   UNL A   1      39.489  29.686  29.505  1.00  0.00     0.031 C 
ATOM     41  C   UNL A   1      43.308  27.434  31.863  1.00  0.00     0.029 A 
ATOM     42  N   UNL A   1      42.187  29.007  32.994  1.00  0.00    -0.354 N 
ATOM     43  C   UNL A   1      38.866  31.099  31.195  1.00  0.00     0.074 A 
ATOM     44  C   UNL A   1      38.631  30.638  29.843  1.00  0.00     0.031 C 
ATOM     45  C   UNL A   1      43.853  27.520  33.090  1.00  0.00     0.029 A 
ATOM     46  C   UNL A   1      43.182  28.579  33.841  1.00  0.00     0.049 A 
ATOM     47  H   UNL A   1      41.515  29.681  33.247  1.00  0.00     0.167 HD
ATOM     48  C   UNL A   1      38.121  32.040  31.823  1.00  0.00     0.031 A 
ATOM     49  C   UNL A   1      43.535  29.016  35.065  1.00  0.00     0.031 A 
ATOM     50  C   UNL A   1      38.375  32.512  33.158  1.00  0.00     0.049 A 
ATOM     51  C   UNL A   1      42.762  30.143  35.700  1.00  0.00     0.074 A 
ATOM     52  C   UNL A   1      37.667  33.453  33.887  1.00  0.00     0.029 A 
ATOM     53  N   UNL A   1      39.426  32.095  33.960  1.00  0.00    -0.354 N 
ATOM     54  N   UNL A   1      41.708  30.776  35.244  1.00  0.00    -0.248 NA
ATOM     55  C   UNL A   1      43.230  30.616  37.011  1.00  0.00     0.031 C 
ATOM     56  C   UNL A   1      38.327  33.651  35.103  1.00  0.00     0.029 A 
ATOM     57  C   UNL A   1      39.411  32.787  35.160  1.00  0.00     0.049 A 
ATOM     58  H   UNL A   1      40.086  31.408  33.714  1.00  0.00     0.167 HD
ATOM     59  C   UNL A   1      41.376  31.711  36.220  1.00  0.00     0.074 A 
ATOM     60  C   UNL A   1      42.331  31.548  37.298  1.00  0.00     0.031 C 
ATOM     61  C   UNL A   1      40.370  32.620  36.223  1.00  0.00     0.031 A 
BRANCH  48  62
ATOM     62  C   UNL A   1      36.982  32.654  31.051  1.00  0.00    -0.014 A 
ATOM     63  C   UNL A   1      35.661  32.201  31.213  1.00  0.00     0.010 A 
ATOM     64  C   UNL A   1      37.234  33.727  30.176  1.00  0.00     0.010 A 
ATOM     65  C   UNL A   1      34.619  32.781  30.482  1.00  0.00     0.020 A 
ATOM     66  C   UNL A   1      36.193  34.327  29.463  1.00  0.00     0.020 A 
ATOM     67  C   UNL A   1      34.893  33.837  29.608  1.00  0.00     0.054 A 
BRANCH  67  68
ATOM     68  S   UNL A   1      33.521  34.577  28.680  1.00  0.00     0.124 S 
ATOM     69  O   UNL A   1      34.177  35.702  28.019  1.00  0.00    -0.237 OA
ATOM     70  O   UNL A   1      33.107  33.487  27.800  1.00  0.00    -0.237 OA
ATOM     71  O   UNL A   1      32.555  34.938  29.715  1.00  0.00    -0.744 OA
ENDBRANCH  67  68
ENDBRANCH  48  62
BRANCH  49  72
ATOM     72  C   UNL A   1      44.704  28.408  35.760  1.00  0.00    -0.014 A 
ATOM     73  C   UNL A   1      44.535  27.308  36.618  1.00  0.00     0.010 A 
ATOM     74  C   UNL A   1      45.999  28.923  35.555  1.00  0.00     0.010 A 
ATOM     75  C   UNL A   1      45.637  26.738  37.264  1.00  0.00     0.020 A 
ATOM     76  C   UNL A   1      47.106  28.339  36.177  1.00  0.00     0.020 A 
ATOM     77  C   UNL A   1      46.916  27.253  37.034  1.00  0.00     0.054 A 
BRANCH  77  78
ATOM     78  S   UNL A   1      48.336  26.456  37.834  1.00  0.00     0.124 S 
ATOM     79  O   UNL A   1      48.278  27.012  39.182  1.00  0.00    -0.237 OA
ATOM     80  O   UNL A   1      48.006  25.038  37.720  1.00  0.00    -0.237 OA
ATOM     81  O   UNL A   1      49.473  26.890  37.026  1.00  0.00    -0.744 OA
ENDBRANCH  77  78
ENDBRANCH  49  72
BRANCH  61  82
ATOM     82  C   UNL A   1      40.230  33.506  37.434  1.00  0.00    -0.014 A 
ATOM     83  C   UNL A   1      39.439  33.117  38.529  1.00  0.00     0.010 A 
ATOM     84  C   UNL A   1      40.968  34.701  37.511  1.00  0.00     0.010 A 
ATOM     85  C   UNL A   1      39.380  33.915  39.675  1.00  0.00     0.020 A 
ATOM     86  C   UNL A   1      40.931  35.488  38.666  1.00  0.00     0.020 A 
ATOM     87  C   UNL A   1      40.131  35.093  39.739  1.00  0.00     0.054 A 
BRANCH  87  88
ATOM     88  S   UNL A   1      40.093  36.069  41.268  1.00  0.00     0.124 S 
ATOM     89  O   UNL A   1      41.072  37.116  40.985  1.00  0.00    -0.237 OA
ATOM     90  O   UNL A   1      38.703  36.509  41.333  1.00  0.00    -0.237 OA
ATOM     91  O   UNL A   1      40.487  35.113  42.301  1.00  0.00    -0.744 OA
ENDBRANCH  87  88
ENDBRANCH  61  82
ENDBRANCH  35  36
ENDBRANCH  28  30
ENDBRANCH  27  28
ENDBRANCH  26  27
ENDBRANCH  25  26
ENDBRANCH  24  25
ENDBRANCH  23  24
ENDBRANCH   1  23
TORSDOF 24
ENDMDL
MODEL 2
REMARK VINA RESULT:      -8.9      2.488      9.027
REMARK SMILES CCCCCN(C(=O)N1CCC(CC(=O)OCCOCCOC(=O)c2ccc(-c3c4nc(c(-c5ccc(S(=O)(=O)[O-])cc5)c5ccc([nH]5)c(-c5ccc(S(=O)(=O)[O-])cc5)c5nc(c(-c6ccc(S(=O)(=O)[O-])cc6)c6ccc3[nH]6)C=C5)C=C4)cc2)CC1)C(C)C
REMARK SMILES IDX 17 1 16 2 14 3 15 4 13 5 12 6 7 7 8 8 9 9 10 10 86 11 11 12
REMARK SMILES IDX 85 13 6 14 5 15 4 16 3 17 2 18 1 19 87 20 88 21 89 22 18 23
REMARK SMILES IDX 19 24 20 25 21 26 22 27 23 28 24 29 25 30 26 31 84 32 27 33
REMARK SMILES IDX 83 34 28 35 29 36 30 37 77 38 31 39 82 40 76 41 78 42 32 43
REMARK SMILES IDX 81 44 75 45 74 46 33 48 63 49 44 50 62 51 45 52 48 53 61 54
REMARK SMILES IDX 79 55 46 56 47 57 60 59 80 60 49 61 34 62 35 63 43 64 36 65
REMARK SMILES IDX 42 66 37 67 38 68 39 69 40 70 41 71 64 72 65 73 73 74 66 75
REMARK SMILES IDX 72 76 67 77 68 78 69 79 70 80 71 81 50 82 51 83 59 84 52 85
REMARK SMILES IDX 58 86 53 87 54 88 55 89 56 90 57 91
REMARK H PARENT 78 47 48 58
REMARK Flexibility Score: inf
ROOT
ATOM      1  C   UNL A   1      31.305  29.077  25.150  1.00  0.00     0.261 C 
ENDROOT
BRANCH   1   2
ATOM      2  O   UNL A   1      30.612  29.474  23.953  1.00  0.00    -0.463 OA
BRANCH   2   3
ATOM      3  C   UNL A   1      30.206  28.475  23.134  1.00  0.00     0.306 C 
ATOM      4  O   UNL A   1      30.072  28.568  21.920  1.00  0.00    -0.252 OA
BRANCH   3   5
ATOM      5  C   UNL A   1      29.874  27.204  23.886  1.00  0.00     0.126 C 
BRANCH   5   6
ATOM      6  C   UNL A   1      30.410  25.860  23.351  1.00  0.00     0.003 C 
ATOM      7  C   UNL A   1      33.509  23.271  24.221  1.00  0.00     0.320 C 
ATOM      8  O   UNL A   1      34.538  23.911  23.989  1.00  0.00    -0.248 OA
ATOM      9  N   UNL A   1      32.317  23.636  23.617  1.00  0.00    -0.325 N 
ATOM     10  C   UNL A   1      32.386  24.543  22.473  1.00  0.00     0.121 C 
ATOM     11  C   UNL A   1      30.983  23.486  24.185  1.00  0.00     0.121 C 
ATOM     12  C   UNL A   1      31.857  25.933  22.832  1.00  0.00     0.026 C 
ATOM     13  C   UNL A   1      30.329  24.831  24.497  1.00  0.00     0.026 C 
BRANCH   7  14
ATOM     14  N   UNL A   1      33.530  22.204  25.121  1.00  0.00    -0.322 N 
BRANCH  14  15
ATOM     15  C   UNL A   1      33.668  20.786  24.721  1.00  0.00     0.121 C 
BRANCH  15  16
ATOM     16  C   UNL A   1      32.458  19.857  24.922  1.00  0.00     0.022 C 
BRANCH  16  17
ATOM     17  C   UNL A   1      32.628  18.338  24.790  1.00  0.00     0.002 C 
BRANCH  17  18
ATOM     18  C   UNL A   1      33.208  17.807  23.478  1.00  0.00    -0.003 C 
ATOM     19  C   UNL A   1      32.361  18.145  22.262  1.00  0.00     0.004 C 
ENDBRANCH  17  18
ENDBRANCH  16  17
ENDBRANCH  15  16
ENDBRANCH  14  15
BRANCH  14  20
ATOM     20  C   UNL A   1      33.650  22.599  26.547  1.00  0.00     0.080 C 
ATOM     21  C   UNL A   1      32.303  22.794  27.244  1.00  0.00     0.031 C 
ATOM     22  C   UNL A   1      34.592  21.719  27.364  1.00  0.00     0.031 C 
ENDBRANCH  14  20
ENDBRANCH   7  14
ENDBRANCH   5   6
ENDBRANCH   3   5
ENDBRANCH   2   3
ENDBRANCH   1   2
BRANCH   1  23
ATOM     23  C   UNL A   1      32.130  30.229  25.729  1.00  0.00     0.202 C 
BRANCH  23  24
ATOM     24  O   UNL A   1      33.059  29.888  26.758  1.00  0.00    -0.374 OA
BRANCH  24  25
ATOM     25  C   UNL A   1      33.609  30.964  27.517  1.00  0.00     0.202 C 
BRANCH  25  26
ATOM     26  C   UNL A   1      32.843  32.293  27.474  1.00  0.00     0.261 C 
BRANCH  26  27
ATOM     27  O   UNL A   1      33.704  33.427  27.684  1.00  0.00    -0.460 OA
BRANCH  27  28
ATOM     28  C   UNL A   1      33.619  33.986  28.916  1.00  0.00     0.338 C 
ATOM     29  O   UNL A   1      32.671  34.605  29.383  1.00  0.00    -0.246 OA
BRANCH  28  30
ATOM     30  C   UNL A   1      34.779  33.581  29.731  1.00  0.00     0.060 A 
ATOM     31  C   UNL A   1      36.009  34.202  29.468  1.00  0.00     0.016 A 
ATOM     32  C   UNL A   1      34.684  32.583  30.701  1.00  0.00     0.016 A 
ATOM     33  C   UNL A   1      37.152  33.812  30.163  1.00  0.00     0.010 A 
ATOM     34  C   UNL A   1      35.835  32.184  31.388  1.00  0.00     0.010 A 
ATOM     35  C   UNL A   1      37.079  32.782  31.109  1.00  0.00    -0.014 A 
BRANCH  35  36
ATOM     36  C   UNL A   1      38.313  32.267  31.750  1.00  0.00     0.031 A 
ATOM     37  C   UNL A   1      38.711  32.779  33.105  1.00  0.00     0.074 A 
ATOM     38  C   UNL A   1      39.074  31.351  31.124  1.00  0.00     0.049 A 
ATOM     39  N   UNL A   1      39.789  32.525  33.802  1.00  0.00    -0.248 NA
ATOM     40  C   UNL A   1      37.769  33.698  33.764  1.00  0.00     0.031 C 
ATOM     41  C   UNL A   1      38.765  30.734  29.835  1.00  0.00     0.029 A 
ATOM     42  N   UNL A   1      40.273  30.789  31.487  1.00  0.00    -0.354 N 
ATOM     43  C   UNL A   1      39.662  33.259  34.976  1.00  0.00     0.074 A 
ATOM     44  C   UNL A   1      38.412  33.983  34.888  1.00  0.00     0.031 C 
ATOM     45  C   UNL A   1      39.758  29.889  29.507  1.00  0.00     0.029 A 
ATOM     46  C   UNL A   1      40.792  29.940  30.539  1.00  0.00     0.049 A 
ATOM     47  H   UNL A   1      40.717  30.975  32.346  1.00  0.00     0.167 HD
ATOM     48  C   UNL A   1      40.511  33.323  36.029  1.00  0.00     0.031 A 
ATOM     49  C   UNL A   1      41.980  29.306  30.490  1.00  0.00     0.031 A 
ATOM     50  C   UNL A   1      41.765  32.620  36.099  1.00  0.00     0.049 A 
ATOM     51  C   UNL A   1      42.959  29.482  31.621  1.00  0.00     0.074 A 
ATOM     52  C   UNL A   1      42.689  32.609  37.131  1.00  0.00     0.029 A 
ATOM     53  N   UNL A   1      42.280  31.816  35.094  1.00  0.00    -0.354 N 
ATOM     54  N   UNL A   1      42.816  30.158  32.736  1.00  0.00    -0.248 NA
ATOM     55  C   UNL A   1      44.261  28.813  31.485  1.00  0.00     0.031 C 
ATOM     56  C   UNL A   1      43.791  31.852  36.722  1.00  0.00     0.029 A 
ATOM     57  C   UNL A   1      43.527  31.337  35.462  1.00  0.00     0.049 A 
ATOM     58  H   UNL A   1      41.828  31.615  34.243  1.00  0.00     0.167 HD
ATOM     59  C   UNL A   1      44.002  29.982  33.441  1.00  0.00     0.074 A 
ATOM     60  C   UNL A   1      44.845  29.122  32.635  1.00  0.00     0.031 C 
ATOM     61  C   UNL A   1      44.360  30.486  34.648  1.00  0.00     0.031 A 
BRANCH  48  62
ATOM     62  C   UNL A   1      40.131  34.223  37.176  1.00  0.00    -0.014 A 
ATOM     63  C   UNL A   1      39.258  33.787  38.188  1.00  0.00     0.010 A 
ATOM     64  C   UNL A   1      40.684  35.514  37.259  1.00  0.00     0.010 A 
ATOM     65  C   UNL A   1      38.912  34.641  39.240  1.00  0.00     0.020 A 
ATOM     66  C   UNL A   1      40.363  36.361  38.323  1.00  0.00     0.020 A 
ATOM     67  C   UNL A   1      39.464  35.924  39.298  1.00  0.00     0.054 A 
BRANCH  67  68
ATOM     68  S   UNL A   1      39.005  37.006  40.680  1.00  0.00     0.124 S 
ATOM     69  O   UNL A   1      38.197  36.114  41.506  1.00  0.00    -0.237 OA
ATOM     70  O   UNL A   1      40.302  37.378  41.240  1.00  0.00    -0.237 OA
ATOM     71  O   UNL A   1      38.272  38.097  40.039  1.00  0.00    -0.744 OA
ENDBRANCH  67  68
ENDBRANCH  48  62
BRANCH  49  72
ATOM     72  C   UNL A   1      42.326  28.472  29.306  1.00  0.00    -0.014 A 
ATOM     73  C   UNL A   1      42.953  29.042  28.185  1.00  0.00     0.010 A 
ATOM     74  C   UNL A   1      42.038  27.093  29.300  1.00  0.00     0.010 A 
ATOM     75  C   UNL A   1      43.279  28.253  27.078  1.00  0.00     0.020 A 
ATOM     76  C   UNL A   1      42.387  26.295  28.206  1.00  0.00     0.020 A 
ATOM     77  C   UNL A   1      43.000  26.884  27.098  1.00  0.00     0.054 A 
BRANCH  77  78
ATOM     78  S   UNL A   1      43.491  25.870  25.676  1.00  0.00     0.124 S 
ATOM     79  O   UNL A   1      42.304  25.937  24.829  1.00  0.00    -0.237 OA
ATOM     80  O   UNL A   1      44.666  26.579  25.176  1.00  0.00    -0.237 OA
ATOM     81  O   UNL A   1      43.766  24.562  26.266  1.00  0.00    -0.744 OA
ENDBRANCH  77  78
ENDBRANCH  49  72
BRANCH  61  82
ATOM     82  C   UNL A   1      45.715  30.113  35.190  1.00  0.00    -0.014 A 
ATOM     83  C   UNL A   1      46.836  30.931  34.965  1.00  0.00     0.010 A 
ATOM     84  C   UNL A   1      45.849  28.976  36.008  1.00  0.00     0.010 A 
ATOM     85  C   UNL A   1      48.070  30.610  35.538  1.00  0.00     0.020 A 
ATOM     86  C   UNL A   1      47.075  28.666  36.603  1.00  0.00     0.020 A 
ATOM     87  C   UNL A   1      48.180  29.483  36.358  1.00  0.00     0.054 A 
BRANCH  87  88
ATOM     88  S   UNL A   1      49.776  29.133  37.149  1.00  0.00     0.124 S 
ATOM     89  O   UNL A   1      49.505  29.471  38.545  1.00  0.00    -0.237 OA
ATOM     90  O   UNL A   1      49.966  27.712  36.873  1.00  0.00    -0.237 OA
ATOM     91  O   UNL A   1      50.707  30.026  36.463  1.00  0.00    -0.744 OA
ENDBRANCH  87  88
ENDBRANCH  61  82
ENDBRANCH  35  36
ENDBRANCH  28  30
ENDBRANCH  27  28
ENDBRANCH  26  27
ENDBRANCH  25  26
ENDBRANCH  24  25
ENDBRANCH  23  24
ENDBRANCH   1  23
TORSDOF 24
ENDMDL
MODEL 3
REMARK VINA RESULT:      -8.6      5.461     10.490
REMARK SMILES CCCCCN(C(=O)N1CCC(CC(=O)OCCOCCOC(=O)c2ccc(-c3c4nc(c(-c5ccc(S(=O)(=O)[O-])cc5)c5ccc([nH]5)c(-c5ccc(S(=O)(=O)[O-])cc5)c5nc(c(-c6ccc(S(=O)(=O)[O-])cc6)c6ccc3[nH]6)C=C5)C=C4)cc2)CC1)C(C)C
REMARK SMILES IDX 17 1 16 2 14 3 15 4 13 5 12 6 7 7 8 8 9 9 10 10 86 11 11 12
REMARK SMILES IDX 85 13 6 14 5 15 4 16 3 17 2 18 1 19 87 20 88 21 89 22 18 23
REMARK SMILES IDX 19 24 20 25 21 26 22 27 23 28 24 29 25 30 26 31 84 32 27 33
REMARK SMILES IDX 83 34 28 35 29 36 30 37 77 38 31 39 82 40 76 41 78 42 32 43
REMARK SMILES IDX 81 44 75 45 74 46 33 48 63 49 44 50 62 51 45 52 48 53 61 54
REMARK SMILES IDX 79 55 46 56 47 57 60 59 80 60 49 61 34 62 35 63 43 64 36 65
REMARK SMILES IDX 42 66 37 67 38 68 39 69 40 70 41 71 64 72 65 73 73 74 66 75
REMARK SMILES IDX 72 76 67 77 68 78 69 79 70 80 71 81 50 82 51 83 59 84 52 85
REMARK SMILES IDX 58 86 53 87 54 88 55 89 56 90 57 91
REMARK H PARENT 78 47 48 58
REMARK Flexibility Score: inf
ROOT
ATOM      1  C   UNL A   1      31.108  29.275  25.081  1.00  0.00     0.261 C 
ENDROOT
BRANCH   1   2
ATOM      2  O   UNL A   1      30.477  29.777  23.888  1.00  0.00    -0.463 OA
BRANCH   2   3
ATOM      3  C   UNL A   1      30.134  28.857  22.956  1.00  0.00     0.306 C 
ATOM      4  O   UNL A   1      29.980  29.085  21.763  1.00  0.00    -0.252 OA
BRANCH   3   5
ATOM      5  C   UNL A   1      29.903  27.484  23.551  1.00  0.00     0.126 C 
BRANCH   5   6
ATOM      6  C   UNL A   1      30.714  26.290  23.005  1.00  0.00     0.003 C 
ATOM      7  C   UNL A   1      33.724  23.803  24.353  1.00  0.00     0.320 C 
ATOM      8  O   UNL A   1      34.699  24.541  24.525  1.00  0.00    -0.248 OA
ATOM      9  N   UNL A   1      32.712  24.185  23.489  1.00  0.00    -0.325 N 
ATOM     10  C   UNL A   1      32.991  25.277  22.558  1.00  0.00     0.121 C 
ATOM     11  C   UNL A   1      31.298  23.852  23.617  1.00  0.00     0.121 C 
ATOM     12  C   UNL A   1      32.230  26.547  22.945  1.00  0.00     0.026 C 
ATOM     13  C   UNL A   1      30.437  25.078  23.917  1.00  0.00     0.026 C 
BRANCH   7  14
ATOM     14  N   UNL A   1      33.617  22.602  25.056  1.00  0.00    -0.322 N 
BRANCH  14  15
ATOM     15  C   UNL A   1      33.754  21.265  24.437  1.00  0.00     0.121 C 
BRANCH  15  16
ATOM     16  C   UNL A   1      32.520  20.346  24.424  1.00  0.00     0.022 C 
BRANCH  16  17
ATOM     17  C   UNL A   1      32.699  18.826  24.310  1.00  0.00     0.002 C 
BRANCH  17  18
ATOM     18  C   UNL A   1      32.694  18.017  25.608  1.00  0.00    -0.003 C 
ATOM     19  C   UNL A   1      33.318  16.639  25.465  1.00  0.00     0.004 C 
ENDBRANCH  17  18
ENDBRANCH  16  17
ENDBRANCH  15  16
ENDBRANCH  14  15
BRANCH  14  20
ATOM     20  C   UNL A   1      33.596  22.749  26.533  1.00  0.00     0.080 C 
ATOM     21  C   UNL A   1      32.199  22.995  27.105  1.00  0.00     0.031 C 
ATOM     22  C   UNL A   1      34.331  21.642  27.284  1.00  0.00     0.031 C 
ENDBRANCH  14  20
ENDBRANCH   7  14
ENDBRANCH   5   6
ENDBRANCH   3   5
ENDBRANCH   2   3
ENDBRANCH   1   2
BRANCH   1  23
ATOM     23  C   UNL A   1      31.885  30.373  25.811  1.00  0.00     0.202 C 
BRANCH  23  24
ATOM     24  O   UNL A   1      32.657  29.961  26.937  1.00  0.00    -0.374 OA
BRANCH  24  25
ATOM     25  C   UNL A   1      33.657  30.865  27.404  1.00  0.00     0.202 C 
BRANCH  25  26
ATOM     26  C   UNL A   1      33.182  32.275  27.779  1.00  0.00     0.261 C 
BRANCH  26  27
ATOM     27  O   UNL A   1      34.276  33.198  27.934  1.00  0.00    -0.460 OA
BRANCH  27  28
ATOM     28  C   UNL A   1      34.501  33.607  29.206  1.00  0.00     0.338 C 
ATOM     29  O   UNL A   1      33.663  33.953  30.029  1.00  0.00    -0.246 OA
BRANCH  28  30
ATOM     30  C   UNL A   1      35.918  33.400  29.556  1.00  0.00     0.060 A 
ATOM     31  C   UNL A   1      36.402  34.025  30.714  1.00  0.00     0.016 A 
ATOM     32  C   UNL A   1      36.772  32.649  28.747  1.00  0.00     0.016 A 
ATOM     33  C   UNL A   1      37.748  33.915  31.057  1.00  0.00     0.010 A 
ATOM     34  C   UNL A   1      38.126  32.552  29.087  1.00  0.00     0.010 A 
ATOM     35  C   UNL A   1      38.626  33.200  30.232  1.00  0.00    -0.014 A 
BRANCH  35  36
ATOM     36  C   UNL A   1      40.081  33.197  30.515  1.00  0.00     0.031 A 
ATOM     37  C   UNL A   1      40.657  32.140  31.415  1.00  0.00     0.074 A 
ATOM     38  C   UNL A   1      40.882  34.132  29.974  1.00  0.00     0.049 A 
ATOM     39  N   UNL A   1      41.882  32.006  31.856  1.00  0.00    -0.248 NA
ATOM     40  C   UNL A   1      39.731  31.094  31.878  1.00  0.00     0.031 C 
ATOM     41  C   UNL A   1      40.454  35.174  29.041  1.00  0.00     0.029 A 
ATOM     42  N   UNL A   1      42.225  34.364  30.143  1.00  0.00    -0.354 N 
ATOM     43  C   UNL A   1      41.873  30.870  32.656  1.00  0.00     0.074 A 
ATOM     44  C   UNL A   1      40.517  30.363  32.655  1.00  0.00     0.031 C 
ATOM     45  C   UNL A   1      41.513  35.943  28.731  1.00  0.00     0.029 A 
ATOM     46  C   UNL A   1      42.680  35.478  29.479  1.00  0.00     0.049 A 
ATOM     47  H   UNL A   1      42.806  33.785  30.688  1.00  0.00     0.167 HD
ATOM     48  C   UNL A   1      42.901  30.303  33.330  1.00  0.00     0.031 A 
ATOM     49  C   UNL A   1      43.887  36.076  29.499  1.00  0.00     0.031 A 
ATOM     50  C   UNL A   1      44.242  30.826  33.347  1.00  0.00     0.049 A 
ATOM     51  C   UNL A   1      44.987  35.492  30.347  1.00  0.00     0.074 A 
ATOM     52  C   UNL A   1      45.357  30.314  33.989  1.00  0.00     0.029 A 
ATOM     53  N   UNL A   1      44.648  31.987  32.708  1.00  0.00    -0.354 N 
ATOM     54  N   UNL A   1      44.972  34.403  31.078  1.00  0.00    -0.248 NA
ATOM     55  C   UNL A   1      46.263  36.220  30.376  1.00  0.00     0.031 C 
ATOM     56  C   UNL A   1      46.420  31.201  33.791  1.00  0.00     0.029 A 
ATOM     57  C   UNL A   1      45.985  32.232  32.973  1.00  0.00     0.049 A 
ATOM     58  H   UNL A   1      44.071  32.555  32.148  1.00  0.00     0.167 HD
ATOM     59  C   UNL A   1      46.242  34.307  31.640  1.00  0.00     0.074 A 
ATOM     60  C   UNL A   1      47.004  35.438  31.150  1.00  0.00     0.031 C 
ATOM     61  C   UNL A   1      46.732  33.365  32.484  1.00  0.00     0.031 A 
BRANCH  48  62
ATOM     62  C   UNL A   1      42.604  29.071  34.145  1.00  0.00    -0.014 A 
ATOM     63  C   UNL A   1      42.751  27.783  33.601  1.00  0.00     0.010 A 
ATOM     64  C   UNL A   1      42.205  29.205  35.487  1.00  0.00     0.010 A 
ATOM     65  C   UNL A   1      42.464  26.652  34.373  1.00  0.00     0.020 A 
ATOM     66  C   UNL A   1      41.942  28.077  36.270  1.00  0.00     0.020 A 
ATOM     67  C   UNL A   1      42.057  26.807  35.701  1.00  0.00     0.054 A 
BRANCH  67  68
ATOM     68  S   UNL A   1      41.699  25.323  36.681  1.00  0.00     0.124 S 
ATOM     69  O   UNL A   1      40.494  25.722  37.403  1.00  0.00    -0.237 OA
ATOM     70  O   UNL A   1      41.505  24.301  35.655  1.00  0.00    -0.237 OA
ATOM     71  O   UNL A   1      42.894  25.154  37.506  1.00  0.00    -0.744 OA
ENDBRANCH  67  68
ENDBRANCH  48  62
BRANCH  49  72
ATOM     72  C   UNL A   1      44.109  37.323  28.717  1.00  0.00    -0.014 A 
ATOM     73  C   UNL A   1      44.620  37.267  27.409  1.00  0.00     0.010 A 
ATOM     74  C   UNL A   1      43.796  38.578  29.275  1.00  0.00     0.010 A 
ATOM     75  C   UNL A   1      44.822  38.441  26.677  1.00  0.00     0.020 A 
ATOM     76  C   UNL A   1      43.970  39.751  28.537  1.00  0.00     0.020 A 
ATOM     77  C   UNL A   1      44.491  39.675  27.243  1.00  0.00     0.054 A 
BRANCH  77  78
ATOM     78  S   UNL A   1      44.702  41.178  26.250  1.00  0.00     0.124 S 
ATOM     79  O   UNL A   1      45.535  42.004  27.119  1.00  0.00    -0.237 OA
ATOM     80  O   UNL A   1      45.353  40.670  25.046  1.00  0.00    -0.237 OA
ATOM     81  O   UNL A   1      43.334  41.656  26.055  1.00  0.00    -0.744 OA
ENDBRANCH  77  78
ENDBRANCH  49  72
BRANCH  61  82
ATOM     82  C   UNL A   1      48.165  33.498  32.926  1.00  0.00    -0.014 A 
ATOM     83  C   UNL A   1      48.498  34.167  34.116  1.00  0.00     0.010 A 
ATOM     84  C   UNL A   1      49.183  32.870  32.185  1.00  0.00     0.010 A 
ATOM     85  C   UNL A   1      49.826  34.217  34.551  1.00  0.00     0.020 A 
ATOM     86  C   UNL A   1      50.508  32.895  32.631  1.00  0.00     0.020 A 
ATOM     87  C   UNL A   1      50.822  33.575  33.808  1.00  0.00     0.054 A 
BRANCH  87  88
ATOM     88  S   UNL A   1      52.524  33.591  34.436  1.00  0.00     0.124 S 
ATOM     89  O   UNL A   1      52.859  35.012  34.375  1.00  0.00    -0.237 OA
ATOM     90  O   UNL A   1      52.376  33.037  35.779  1.00  0.00    -0.237 OA
ATOM     91  O   UNL A   1      53.250  32.741  33.494  1.00  0.00    -0.744 OA
ENDBRANCH  87  88
ENDBRANCH  61  82
ENDBRANCH  35  36
ENDBRANCH  28  30
ENDBRANCH  27  28
ENDBRANCH  26  27
ENDBRANCH  25  26
ENDBRANCH  24  25
ENDBRANCH  23  24
ENDBRANCH   1  23
TORSDOF 24
ENDMDL
