MODEL 1
REMARK VINA RESULT:     -11.3      0.000      0.000
REMARK SMILES C[C@@H](NC(=O)[C@H]1CC=CC[C@@H]1C(=O)OCCOCCOC(=O)c1ccc(-c2c3nc(c(-c4ccc(S(=O)(=O)[O-])cc4)c4ccc([nH]4)c(-c4ccc(S(=O)(=O)[O-])cc4)c4nc(c(-c5ccc(S(=O)(=O)[O-])cc5)c5ccc2[nH]5)C=C4)C=C3)cc1)c1ccc(-n2ccnc2)cc1
REMARK SMILES IDX 16 1 15 2 14 3 12 4 13 5 11 6 6 7 7 8 8 9 10 10 9 11 4 12
REMARK SMILES IDX 3 13 5 15 2 16 1 17 83 18 84 19 93 20 85 21 92 22 86 23
REMARK SMILES IDX 87 24 88 25 91 26 89 27 90 28 17 29 18 30 19 31 20 32 21 33
REMARK SMILES IDX 22 34 23 35 24 36 82 37 25 38 81 39 26 40 27 41 28 42 75 43
REMARK SMILES IDX 29 44 80 45 74 46 76 47 30 48 79 49 73 50 72 51 31 53 61 54
REMARK SMILES IDX 42 55 60 56 43 57 46 58 59 59 77 60 44 61 45 62 58 64 78 65
REMARK SMILES IDX 47 66 32 67 33 68 41 69 34 70 40 71 35 72 36 73 37 74 38 75
REMARK SMILES IDX 39 76 62 77 63 78 71 79 64 80 70 81 65 82 66 83 67 84 68 85
REMARK SMILES IDX 69 86 48 87 49 88 57 89 50 90 56 91 51 92 52 93 53 94 54 95
REMARK SMILES IDX 55 96
REMARK H PARENT 3 14 76 52 46 63
REMARK Flexibility Score: inf
ROOT
ATOM      1  C   UNL A   1      37.475  22.439  25.313  1.00  0.00     0.202 C 
ENDROOT
BRANCH   1   2
ATOM      2  C   UNL A   1      36.898  22.542  23.903  1.00  0.00     0.261 C 
BRANCH   2   3
ATOM      3  O   UNL A   1      35.522  22.131  23.871  1.00  0.00    -0.463 OA
BRANCH   3   4
ATOM      4  C   UNL A   1      34.622  23.138  24.034  1.00  0.00     0.310 C 
ATOM      5  O   UNL A   1      34.832  24.307  23.739  1.00  0.00    -0.252 OA
BRANCH   4   6
ATOM      6  C   UNL A   1      33.290  22.598  24.536  1.00  0.00     0.115 C 
ATOM      7  C   UNL A   1      32.686  23.628  25.518  1.00  0.00     0.097 C 
ATOM      8  C   UNL A   1      33.442  23.677  26.857  1.00  0.00     0.041 C 
ATOM      9  C   UNL A   1      34.100  22.392  27.267  1.00  0.00    -0.030 C 
ATOM     10  C   UNL A   1      33.498  21.214  25.150  1.00  0.00     0.043 C 
ATOM     11  C   UNL A   1      34.109  21.282  26.516  1.00  0.00    -0.030 C 
BRANCH   7  12
ATOM     12  C   UNL A   1      31.188  23.440  25.711  1.00  0.00     0.224 C 
ATOM     13  N   UNL A   1      30.269  24.148  24.993  1.00  0.00    -0.349 N 
ATOM     14  H   UNL A   1      29.362  23.773  25.066  1.00  0.00     0.164 HD
ATOM     15  O   UNL A   1      30.735  22.600  26.493  1.00  0.00    -0.275 OA
BRANCH  13  16
ATOM     16  C   UNL A   1      30.322  25.343  24.136  1.00  0.00     0.109 C 
ATOM     17  C   UNL A   1      31.116  25.009  22.867  1.00  0.00     0.036 C 
BRANCH  16  18
ATOM     18  C   UNL A   1      30.899  26.576  24.794  1.00  0.00    -0.026 A 
ATOM     19  C   UNL A   1      30.806  26.721  26.186  1.00  0.00     0.008 A 
ATOM     20  C   UNL A   1      31.600  27.548  24.066  1.00  0.00     0.008 A 
ATOM     21  C   UNL A   1      31.557  27.691  26.852  1.00  0.00     0.027 A 
ATOM     22  C   UNL A   1      32.318  28.549  24.729  1.00  0.00     0.027 A 
ATOM     23  C   UNL A   1      32.380  28.561  26.129  1.00  0.00     0.046 A 
BRANCH  23  24
ATOM     24  N   UNL A   1      33.344  29.360  26.809  1.00  0.00    -0.306 N 
ATOM     25  C   UNL A   1      33.190  30.637  27.299  1.00  0.00     0.113 A 
ATOM     26  C   UNL A   1      34.672  29.047  27.019  1.00  0.00     0.204 A 
ATOM     27  C   UNL A   1      34.436  31.036  27.723  1.00  0.00     0.131 A 
ATOM     28  N   UNL A   1      35.343  30.024  27.588  1.00  0.00    -0.245 NA
ENDBRANCH  23  24
ENDBRANCH  16  18
ENDBRANCH  13  16
ENDBRANCH   7  12
ENDBRANCH   4   6
ENDBRANCH   3   4
ENDBRANCH   2   3
ENDBRANCH   1   2
BRANCH   1  29
ATOM     29  O   UNL A   1      38.665  21.677  25.502  1.00  0.00    -0.374 OA
BRANCH  29  30
ATOM     30  C   UNL A   1      39.513  21.995  26.595  1.00  0.00     0.202 C 
BRANCH  30  31
ATOM     31  C   UNL A   1      40.462  23.194  26.501  1.00  0.00     0.261 C 
BRANCH  31  32
ATOM     32  O   UNL A   1      39.815  24.452  26.603  1.00  0.00    -0.460 OA
BRANCH  32  33
ATOM     33  C   UNL A   1      40.615  25.500  26.281  1.00  0.00     0.338 C 
ATOM     34  O   UNL A   1      41.090  25.772  25.193  1.00  0.00    -0.246 OA
BRANCH  33  35
ATOM     35  C   UNL A   1      40.659  26.375  27.459  1.00  0.00     0.060 A 
ATOM     36  C   UNL A   1      39.695  26.188  28.455  1.00  0.00     0.016 A 
ATOM     37  C   UNL A   1      41.678  27.321  27.598  1.00  0.00     0.016 A 
ATOM     38  C   UNL A   1      39.732  26.978  29.597  1.00  0.00     0.010 A 
ATOM     39  C   UNL A   1      41.707  28.118  28.735  1.00  0.00     0.010 A 
ATOM     40  C   UNL A   1      40.714  27.968  29.717  1.00  0.00    -0.014 A 
BRANCH  40  41
ATOM     41  C   UNL A   1      40.589  28.991  30.770  1.00  0.00     0.031 A 
ATOM     42  C   UNL A   1      41.511  28.894  31.950  1.00  0.00     0.074 A 
ATOM     43  C   UNL A   1      39.677  29.970  30.667  1.00  0.00     0.049 A 
ATOM     44  N   UNL A   1      41.565  29.639  33.020  1.00  0.00    -0.248 NA
ATOM     45  C   UNL A   1      42.497  27.798  31.922  1.00  0.00     0.031 C 
ATOM     46  C   UNL A   1      38.757  30.153  29.544  1.00  0.00     0.029 A 
ATOM     47  N   UNL A   1      39.369  30.986  31.530  1.00  0.00    -0.354 N 
ATOM     48  C   UNL A   1      42.588  29.103  33.793  1.00  0.00     0.074 A 
ATOM     49  C   UNL A   1      43.095  27.945  33.092  1.00  0.00     0.031 C 
ATOM     50  C   UNL A   1      37.974  31.217  29.795  1.00  0.00     0.029 A 
ATOM     51  C   UNL A   1      38.319  31.763  31.105  1.00  0.00     0.049 A 
ATOM     52  H   UNL A   1      39.852  31.145  32.372  1.00  0.00     0.167 HD
ATOM     53  C   UNL A   1      43.065  29.545  34.979  1.00  0.00     0.031 A 
ATOM     54  C   UNL A   1      37.697  32.786  31.724  1.00  0.00     0.031 A 
ATOM     55  C   UNL A   1      42.522  30.680  35.673  1.00  0.00     0.049 A 
ATOM     56  C   UNL A   1      38.202  33.227  33.072  1.00  0.00     0.074 A 
ATOM     57  C   UNL A   1      42.918  31.226  36.878  1.00  0.00     0.029 A 
ATOM     58  N   UNL A   1      41.449  31.437  35.221  1.00  0.00    -0.354 N 
ATOM     59  N   UNL A   1      39.189  32.732  33.783  1.00  0.00    -0.248 NA
ATOM     60  C   UNL A   1      37.520  34.367  33.694  1.00  0.00     0.031 C 
ATOM     61  C   UNL A   1      42.048  32.279  37.183  1.00  0.00     0.029 A 
ATOM     62  C   UNL A   1      41.152  32.431  36.135  1.00  0.00     0.049 A 
ATOM     63  H   UNL A   1      40.969  31.288  34.374  1.00  0.00     0.167 HD
ATOM     64  C   UNL A   1      39.262  33.516  34.929  1.00  0.00     0.074 A 
ATOM     65  C   UNL A   1      38.228  34.526  34.805  1.00  0.00     0.031 C 
ATOM     66  C   UNL A   1      40.107  33.416  35.987  1.00  0.00     0.031 A 
BRANCH  53  67
ATOM     67  C   UNL A   1      44.196  28.768  35.597  1.00  0.00    -0.014 A 
ATOM     68  C   UNL A   1      43.957  27.592  36.335  1.00  0.00     0.010 A 
ATOM     69  C   UNL A   1      45.518  29.226  35.455  1.00  0.00     0.010 A 
ATOM     70  C   UNL A   1      45.011  26.924  36.965  1.00  0.00     0.020 A 
ATOM     71  C   UNL A   1      46.579  28.543  36.056  1.00  0.00     0.020 A 
ATOM     72  C   UNL A   1      46.315  27.407  36.826  1.00  0.00     0.054 A 
BRANCH  72  73
ATOM     73  S   UNL A   1      47.664  26.524  37.657  1.00  0.00     0.124 S 
ATOM     74  O   UNL A   1      48.815  27.367  37.342  1.00  0.00    -0.237 OA
ATOM     75  O   UNL A   1      47.241  26.537  39.055  1.00  0.00    -0.237 OA
ATOM     76  O   UNL A   1      47.662  25.209  37.022  1.00  0.00    -0.744 OA
ENDBRANCH  72  73
ENDBRANCH  53  67
BRANCH  54  77
ATOM     77  C   UNL A   1      36.533  33.441  31.068  1.00  0.00    -0.014 A 
ATOM     78  C   UNL A   1      35.368  33.737  31.795  1.00  0.00     0.010 A 
ATOM     79  C   UNL A   1      36.608  33.820  29.714  1.00  0.00     0.010 A 
ATOM     80  C   UNL A   1      34.299  34.397  31.181  1.00  0.00     0.020 A 
ATOM     81  C   UNL A   1      35.554  34.504  29.105  1.00  0.00     0.020 A 
ATOM     82  C   UNL A   1      34.402  34.784  29.842  1.00  0.00     0.054 A 
BRANCH  82  83
ATOM     83  S   UNL A   1      33.035  35.713  29.091  1.00  0.00     0.124 S 
ATOM     84  O   UNL A   1      32.448  34.721  28.197  1.00  0.00    -0.237 OA
ATOM     85  O   UNL A   1      32.228  36.078  30.252  1.00  0.00    -0.237 OA
ATOM     86  O   UNL A   1      33.705  36.833  28.432  1.00  0.00    -0.744 OA
ENDBRANCH  82  83
ENDBRANCH  54  77
BRANCH  66  87
ATOM     87  C   UNL A   1      39.967  34.442  37.080  1.00  0.00    -0.014 A 
ATOM     88  C   UNL A   1      40.716  35.631  37.065  1.00  0.00     0.010 A 
ATOM     89  C   UNL A   1      39.023  34.235  38.103  1.00  0.00     0.010 A 
ATOM     90  C   UNL A   1      40.545  36.583  38.072  1.00  0.00     0.020 A 
ATOM     91  C   UNL A   1      38.828  35.199  39.094  1.00  0.00     0.020 A 
ATOM     92  C   UNL A   1      39.601  36.361  39.081  1.00  0.00     0.054 A 
BRANCH  92  93
ATOM     93  S   UNL A   1      39.368  37.632  40.352  1.00  0.00     0.124 S 
ATOM     94  O   UNL A   1      40.588  38.422  40.218  1.00  0.00    -0.237 OA
ATOM     95  O   UNL A   1      38.139  38.294  39.920  1.00  0.00    -0.237 OA
ATOM     96  O   UNL A   1      39.254  36.867  41.592  1.00  0.00    -0.744 OA
ENDBRANCH  92  93
ENDBRANCH  66  87
ENDBRANCH  40  41
ENDBRANCH  33  35
ENDBRANCH  32  33
ENDBRANCH  31  32
ENDBRANCH  30  31
ENDBRANCH  29  30
ENDBRANCH   1  29
TORSDOF 21
ENDMDL
MODEL 2
REMARK VINA RESULT:     -11.1      3.139      4.900
REMARK SMILES C[C@@H](NC(=O)[C@H]1CC=CC[C@@H]1C(=O)OCCOCCOC(=O)c1ccc(-c2c3nc(c(-c4ccc(S(=O)(=O)[O-])cc4)c4ccc([nH]4)c(-c4ccc(S(=O)(=O)[O-])cc4)c4nc(c(-c5ccc(S(=O)(=O)[O-])cc5)c5ccc2[nH]5)C=C4)C=C3)cc1)c1ccc(-n2ccnc2)cc1
REMARK SMILES IDX 16 1 15 2 14 3 12 4 13 5 11 6 6 7 7 8 8 9 10 10 9 11 4 12
REMARK SMILES IDX 3 13 5 15 2 16 1 17 83 18 84 19 93 20 85 21 92 22 86 23
REMARK SMILES IDX 87 24 88 25 91 26 89 27 90 28 17 29 18 30 19 31 20 32 21 33
REMARK SMILES IDX 22 34 23 35 24 36 82 37 25 38 81 39 26 40 27 41 28 42 75 43
REMARK SMILES IDX 29 44 80 45 74 46 76 47 30 48 79 49 73 50 72 51 31 53 61 54
REMARK SMILES IDX 42 55 60 56 43 57 46 58 59 59 77 60 44 61 45 62 58 64 78 65
REMARK SMILES IDX 47 66 32 67 33 68 41 69 34 70 40 71 35 72 36 73 37 74 38 75
REMARK SMILES IDX 39 76 62 77 63 78 71 79 64 80 70 81 65 82 66 83 67 84 68 85
REMARK SMILES IDX 69 86 48 87 49 88 57 89 50 90 56 91 51 92 52 93 53 94 54 95
REMARK SMILES IDX 55 96
REMARK H PARENT 3 14 76 52 46 63
REMARK Flexibility Score: inf
ROOT
ATOM      1  C   UNL A   1      35.165  24.179  25.117  1.00  0.00     0.202 C 
ENDROOT
BRANCH   1   2
ATOM      2  C   UNL A   1      33.882  24.761  25.706  1.00  0.00     0.261 C 
BRANCH   2   3
ATOM      3  O   UNL A   1      34.046  26.148  26.044  1.00  0.00    -0.463 OA
BRANCH   3   4
ATOM      4  C   UNL A   1      33.658  27.020  25.074  1.00  0.00     0.310 C 
ATOM      5  O   UNL A   1      34.126  27.048  23.943  1.00  0.00    -0.252 OA
BRANCH   4   6
ATOM      6  C   UNL A   1      32.499  27.883  25.553  1.00  0.00     0.115 C 
ATOM      7  C   UNL A   1      32.712  29.321  25.025  1.00  0.00     0.097 C 
ATOM      8  C   UNL A   1      33.862  30.047  25.745  1.00  0.00     0.041 C 
ATOM      9  C   UNL A   1      34.105  29.613  27.161  1.00  0.00    -0.030 C 
ATOM     10  C   UNL A   1      32.394  27.798  27.076  1.00  0.00     0.043 C 
ATOM     11  C   UNL A   1      33.436  28.623  27.767  1.00  0.00    -0.030 C 
BRANCH   7  12
ATOM     12  C   UNL A   1      31.428  30.138  25.025  1.00  0.00     0.224 C 
ATOM     13  N   UNL A   1      30.450  29.953  24.093  1.00  0.00    -0.349 N 
ATOM     14  H   UNL A   1      29.603  30.389  24.341  1.00  0.00     0.164 HD
ATOM     15  O   UNL A   1      31.190  30.973  25.902  1.00  0.00    -0.275 OA
BRANCH  13  16
ATOM     16  C   UNL A   1      30.370  29.254  22.801  1.00  0.00     0.109 C 
ATOM     17  C   UNL A   1      29.142  29.762  22.037  1.00  0.00     0.036 C 
BRANCH  16  18
ATOM     18  C   UNL A   1      30.331  27.744  22.893  1.00  0.00    -0.026 A 
ATOM     19  C   UNL A   1      31.214  26.984  22.113  1.00  0.00     0.008 A 
ATOM     20  C   UNL A   1      29.493  27.077  23.797  1.00  0.00     0.008 A 
ATOM     21  C   UNL A   1      31.400  25.625  22.370  1.00  0.00     0.027 A 
ATOM     22  C   UNL A   1      29.646  25.704  24.024  1.00  0.00     0.027 A 
ATOM     23  C   UNL A   1      30.671  24.995  23.383  1.00  0.00     0.046 A 
BRANCH  23  24
ATOM     24  N   UNL A   1      31.046  23.694  23.828  1.00  0.00    -0.306 N 
ATOM     25  C   UNL A   1      30.858  23.140  25.074  1.00  0.00     0.113 A 
ATOM     26  C   UNL A   1      31.776  22.760  23.122  1.00  0.00     0.204 A 
ATOM     27  C   UNL A   1      31.526  21.938  25.062  1.00  0.00     0.131 A 
ATOM     28  N   UNL A   1      32.056  21.688  23.829  1.00  0.00    -0.245 NA
ENDBRANCH  23  24
ENDBRANCH  16  18
ENDBRANCH  13  16
ENDBRANCH   7  12
ENDBRANCH   4   6
ENDBRANCH   3   4
ENDBRANCH   2   3
ENDBRANCH   1   2
BRANCH   1  29
ATOM     29  O   UNL A   1      35.110  22.880  24.530  1.00  0.00    -0.374 OA
BRANCH  29  30
ATOM     30  C   UNL A   1      36.204  21.997  24.725  1.00  0.00     0.202 C 
BRANCH  30  31
ATOM     31  C   UNL A   1      37.618  22.561  24.905  1.00  0.00     0.261 C 
BRANCH  31  32
ATOM     32  O   UNL A   1      38.102  22.492  26.236  1.00  0.00    -0.460 OA
BRANCH  32  33
ATOM     33  C   UNL A   1      39.440  22.690  26.336  1.00  0.00     0.338 C 
ATOM     34  O   UNL A   1      40.335  21.999  25.883  1.00  0.00    -0.246 OA
BRANCH  33  35
ATOM     35  C   UNL A   1      39.627  24.016  26.938  1.00  0.00     0.060 A 
ATOM     36  C   UNL A   1      40.334  24.977  26.208  1.00  0.00     0.016 A 
ATOM     37  C   UNL A   1      39.055  24.316  28.177  1.00  0.00     0.016 A 
ATOM     38  C   UNL A   1      40.498  26.251  26.736  1.00  0.00     0.010 A 
ATOM     39  C   UNL A   1      39.229  25.587  28.710  1.00  0.00     0.010 A 
ATOM     40  C   UNL A   1      39.979  26.542  28.004  1.00  0.00    -0.014 A 
BRANCH  40  41
ATOM     41  C   UNL A   1      40.391  27.779  28.691  1.00  0.00     0.031 A 
ATOM     42  C   UNL A   1      41.756  27.811  29.312  1.00  0.00     0.074 A 
ATOM     43  C   UNL A   1      39.562  28.833  28.755  1.00  0.00     0.049 A 
ATOM     44  N   UNL A   1      42.326  28.757  30.006  1.00  0.00    -0.248 NA
ATOM     45  C   UNL A   1      42.585  26.605  29.134  1.00  0.00     0.031 C 
ATOM     46  C   UNL A   1      38.227  28.896  28.159  1.00  0.00     0.029 A 
ATOM     47  N   UNL A   1      39.722  30.048  29.364  1.00  0.00    -0.354 N 
ATOM     48  C   UNL A   1      43.578  28.261  30.350  1.00  0.00     0.074 A 
ATOM     49  C   UNL A   1      43.667  26.916  29.827  1.00  0.00     0.031 C 
ATOM     50  C   UNL A   1      37.682  30.091  28.445  1.00  0.00     0.029 A 
ATOM     51  C   UNL A   1      38.616  30.857  29.267  1.00  0.00     0.049 A 
ATOM     52  H   UNL A   1      40.549  30.316  29.825  1.00  0.00     0.167 HD
ATOM     53  C   UNL A   1      44.569  28.880  31.033  1.00  0.00     0.031 A 
ATOM     54  C   UNL A   1      38.385  32.069  29.806  1.00  0.00     0.031 A 
ATOM     55  C   UNL A   1      44.445  30.206  31.572  1.00  0.00     0.049 A 
ATOM     56  C   UNL A   1      39.475  32.718  30.616  1.00  0.00     0.074 A 
ATOM     57  C   UNL A   1      45.375  30.940  32.281  1.00  0.00     0.029 A 
ATOM     58  N   UNL A   1      43.305  30.993  31.468  1.00  0.00    -0.354 N 
ATOM     59  N   UNL A   1      40.668  32.254  30.912  1.00  0.00    -0.248 NA
ATOM     60  C   UNL A   1      39.196  34.054  31.154  1.00  0.00     0.031 C 
ATOM     61  C   UNL A   1      44.778  32.149  32.655  1.00  0.00     0.029 A 
ATOM     62  C   UNL A   1      43.499  32.196  32.121  1.00  0.00     0.049 A 
ATOM     63  H   UNL A   1      42.479  30.732  30.998  1.00  0.00     0.167 HD
ATOM     64  C   UNL A   1      41.292  33.252  31.652  1.00  0.00     0.074 A 
ATOM     65  C   UNL A   1      40.347  34.349  31.745  1.00  0.00     0.031 C 
ATOM     66  C   UNL A   1      42.532  33.265  32.204  1.00  0.00     0.031 A 
BRANCH  53  67
ATOM     67  C   UNL A   1      45.837  28.101  31.259  1.00  0.00    -0.014 A 
ATOM     68  C   UNL A   1      45.951  27.181  32.319  1.00  0.00     0.010 A 
ATOM     69  C   UNL A   1      46.940  28.304  30.411  1.00  0.00     0.010 A 
ATOM     70  C   UNL A   1      47.160  26.522  32.558  1.00  0.00     0.020 A 
ATOM     71  C   UNL A   1      48.142  27.622  30.627  1.00  0.00     0.020 A 
ATOM     72  C   UNL A   1      48.250  26.752  31.715  1.00  0.00     0.054 A 
BRANCH  72  73
ATOM     73  S   UNL A   1      49.809  25.888  32.051  1.00  0.00     0.124 S 
ATOM     74  O   UNL A   1      49.425  24.983  33.131  1.00  0.00    -0.237 OA
ATOM     75  O   UNL A   1      50.102  25.248  30.771  1.00  0.00    -0.237 OA
ATOM     76  O   UNL A   1      50.725  26.960  32.431  1.00  0.00    -0.744 OA
ENDBRANCH  72  73
ENDBRANCH  53  67
BRANCH  54  77
ATOM     77  C   UNL A   1      37.067  32.726  29.596  1.00  0.00    -0.014 A 
ATOM     78  C   UNL A   1      36.006  32.519  30.494  1.00  0.00     0.010 A 
ATOM     79  C   UNL A   1      36.884  33.609  28.514  1.00  0.00     0.010 A 
ATOM     80  C   UNL A   1      34.787  33.181  30.313  1.00  0.00     0.020 A 
ATOM     81  C   UNL A   1      35.678  34.293  28.346  1.00  0.00     0.020 A 
ATOM     82  C   UNL A   1      34.633  34.069  29.246  1.00  0.00     0.054 A 
BRANCH  82  83
ATOM     83  S   UNL A   1      33.071  34.979  29.081  1.00  0.00     0.124 S 
ATOM     84  O   UNL A   1      33.532  36.307  28.691  1.00  0.00    -0.237 OA
ATOM     85  O   UNL A   1      32.373  34.221  28.046  1.00  0.00    -0.237 OA
ATOM     86  O   UNL A   1      32.480  34.887  30.415  1.00  0.00    -0.744 OA
ENDBRANCH  82  83
ENDBRANCH  54  77
BRANCH  66  87
ATOM     87  C   UNL A   1      42.949  34.515  32.932  1.00  0.00    -0.014 A 
ATOM     88  C   UNL A   1      42.821  34.624  34.328  1.00  0.00     0.010 A 
ATOM     89  C   UNL A   1      43.535  35.571  32.210  1.00  0.00     0.010 A 
ATOM     90  C   UNL A   1      43.244  35.781  34.985  1.00  0.00     0.020 A 
ATOM     91  C   UNL A   1      43.989  36.716  32.868  1.00  0.00     0.020 A 
ATOM     92  C   UNL A   1      43.826  36.820  34.251  1.00  0.00     0.054 A 
BRANCH  92  93
ATOM     93  S   UNL A   1      44.408  38.292  35.134  1.00  0.00     0.124 S 
ATOM     94  O   UNL A   1      43.771  39.369  34.383  1.00  0.00    -0.237 OA
ATOM     95  O   UNL A   1      43.895  38.078  36.486  1.00  0.00    -0.237 OA
ATOM     96  O   UNL A   1      45.863  38.220  35.007  1.00  0.00    -0.744 OA
ENDBRANCH  92  93
ENDBRANCH  66  87
ENDBRANCH  40  41
ENDBRANCH  33  35
ENDBRANCH  32  33
ENDBRANCH  31  32
ENDBRANCH  30  31
ENDBRANCH  29  30
ENDBRANCH   1  29
TORSDOF 21
ENDMDL
MODEL 3
REMARK VINA RESULT:     -10.8      1.592      2.281
REMARK SMILES C[C@@H](NC(=O)[C@H]1CC=CC[C@@H]1C(=O)OCCOCCOC(=O)c1ccc(-c2c3nc(c(-c4ccc(S(=O)(=O)[O-])cc4)c4ccc([nH]4)c(-c4ccc(S(=O)(=O)[O-])cc4)c4nc(c(-c5ccc(S(=O)(=O)[O-])cc5)c5ccc2[nH]5)C=C4)C=C3)cc1)c1ccc(-n2ccnc2)cc1
REMARK SMILES IDX 16 1 15 2 14 3 12 4 13 5 11 6 6 7 7 8 8 9 10 10 9 11 4 12
REMARK SMILES IDX 3 13 5 15 2 16 1 17 83 18 84 19 93 20 85 21 92 22 86 23
REMARK SMILES IDX 87 24 88 25 91 26 89 27 90 28 17 29 18 30 19 31 20 32 21 33
REMARK SMILES IDX 22 34 23 35 24 36 82 37 25 38 81 39 26 40 27 41 28 42 75 43
REMARK SMILES IDX 29 44 80 45 74 46 76 47 30 48 79 49 73 50 72 51 31 53 61 54
REMARK SMILES IDX 42 55 60 56 43 57 46 58 59 59 77 60 44 61 45 62 58 64 78 65
REMARK SMILES IDX 47 66 32 67 33 68 41 69 34 70 40 71 35 72 36 73 37 74 38 75
REMARK SMILES IDX 39 76 62 77 63 78 71 79 64 80 70 81 65 82 66 83 67 84 68 85
REMARK SMILES IDX 69 86 48 87 49 88 57 89 50 90 56 91 51 92 52 93 53 94 54 95
REMARK SMILES IDX 55 96
REMARK H PARENT 3 14 76 52 46 63
REMARK Flexibility Score: inf
ROOT
ATOM      1  C   UNL A   1      37.061  22.757  24.441  1.00  0.00     0.202 C 
ENDROOT
BRANCH   1   2
ATOM      2  C   UNL A   1      35.969  23.678  24.978  1.00  0.00     0.261 C 
BRANCH   2   3
ATOM      3  O   UNL A   1      34.749  22.957  25.216  1.00  0.00    -0.463 OA
BRANCH   3   4
ATOM      4  C   UNL A   1      33.615  23.698  25.091  1.00  0.00     0.310 C 
ATOM      5  O   UNL A   1      32.880  23.999  26.023  1.00  0.00    -0.252 OA
BRANCH   4   6
ATOM      6  C   UNL A   1      33.441  24.187  23.660  1.00  0.00     0.115 C 
ATOM      7  C   UNL A   1      32.041  24.831  23.532  1.00  0.00     0.097 C 
ATOM      8  C   UNL A   1      30.909  23.790  23.567  1.00  0.00     0.041 C 
ATOM      9  C   UNL A   1      31.274  22.432  23.044  1.00  0.00    -0.030 C 
ATOM     10  C   UNL A   1      33.672  23.026  22.692  1.00  0.00     0.043 C 
ATOM     11  C   UNL A   1      32.502  22.093  22.631  1.00  0.00    -0.030 C 
BRANCH   7  12
ATOM     12  C   UNL A   1      31.933  25.757  22.329  1.00  0.00     0.224 C 
ATOM     13  N   UNL A   1      31.291  26.958  22.391  1.00  0.00    -0.349 N 
ATOM     14  H   UNL A   1      31.486  27.532  21.617  1.00  0.00     0.164 HD
ATOM     15  O   UNL A   1      32.468  25.483  21.251  1.00  0.00    -0.275 OA
BRANCH  13  16
ATOM     16  C   UNL A   1      30.373  27.593  23.351  1.00  0.00     0.109 C 
ATOM     17  C   UNL A   1      29.490  28.597  22.602  1.00  0.00     0.036 C 
BRANCH  16  18
ATOM     18  C   UNL A   1      31.045  28.272  24.524  1.00  0.00    -0.026 A 
ATOM     19  C   UNL A   1      31.837  27.513  25.397  1.00  0.00     0.008 A 
ATOM     20  C   UNL A   1      30.967  29.657  24.723  1.00  0.00     0.008 A 
ATOM     21  C   UNL A   1      32.685  28.138  26.313  1.00  0.00     0.027 A 
ATOM     22  C   UNL A   1      31.784  30.283  25.673  1.00  0.00     0.027 A 
ATOM     23  C   UNL A   1      32.719  29.534  26.400  1.00  0.00     0.046 A 
BRANCH  23  24
ATOM     24  N   UNL A   1      33.762  30.178  27.125  1.00  0.00    -0.306 N 
ATOM     25  C   UNL A   1      33.786  31.467  27.608  1.00  0.00     0.113 A 
ATOM     26  C   UNL A   1      35.014  29.664  27.399  1.00  0.00     0.204 A 
ATOM     27  C   UNL A   1      35.057  31.670  28.091  1.00  0.00     0.131 A 
ATOM     28  N   UNL A   1      35.801  30.529  27.999  1.00  0.00    -0.245 NA
ENDBRANCH  23  24
ENDBRANCH  16  18
ENDBRANCH  13  16
ENDBRANCH   7  12
ENDBRANCH   4   6
ENDBRANCH   3   4
ENDBRANCH   2   3
ENDBRANCH   1   2
BRANCH   1  29
ATOM     29  O   UNL A   1      37.811  21.981  25.374  1.00  0.00    -0.374 OA
BRANCH  29  30
ATOM     30  C   UNL A   1      38.814  22.623  26.145  1.00  0.00     0.202 C 
BRANCH  30  31
ATOM     31  C   UNL A   1      38.697  24.119  26.457  1.00  0.00     0.261 C 
BRANCH  31  32
ATOM     32  O   UNL A   1      39.665  24.594  27.378  1.00  0.00    -0.460 OA
BRANCH  32  33
ATOM     33  C   UNL A   1      40.264  25.746  26.987  1.00  0.00     0.338 C 
ATOM     34  O   UNL A   1      40.701  26.026  25.884  1.00  0.00    -0.246 OA
BRANCH  33  35
ATOM     35  C   UNL A   1      40.124  26.695  28.099  1.00  0.00     0.060 A 
ATOM     36  C   UNL A   1      40.796  27.919  28.009  1.00  0.00     0.016 A 
ATOM     37  C   UNL A   1      39.289  26.398  29.179  1.00  0.00     0.016 A 
ATOM     38  C   UNL A   1      40.655  28.850  29.029  1.00  0.00     0.010 A 
ATOM     39  C   UNL A   1      39.158  27.326  30.204  1.00  0.00     0.010 A 
ATOM     40  C   UNL A   1      39.868  28.537  30.144  1.00  0.00    -0.014 A 
BRANCH  40  41
ATOM     41  C   UNL A   1      39.943  29.382  31.348  1.00  0.00     0.031 A 
ATOM     42  C   UNL A   1      41.066  29.128  32.310  1.00  0.00     0.074 A 
ATOM     43  C   UNL A   1      39.031  30.343  31.566  1.00  0.00     0.049 A 
ATOM     44  N   UNL A   1      41.319  29.701  33.454  1.00  0.00    -0.248 NA
ATOM     45  C   UNL A   1      42.025  28.074  31.933  1.00  0.00     0.031 C 
ATOM     46  C   UNL A   1      37.921  30.674  30.673  1.00  0.00     0.029 A 
ATOM     47  N   UNL A   1      38.891  31.207  32.618  1.00  0.00    -0.354 N 
ATOM     48  C   UNL A   1      42.465  29.078  33.936  1.00  0.00     0.074 A 
ATOM     49  C   UNL A   1      42.830  28.054  32.982  1.00  0.00     0.031 C 
ATOM     50  C   UNL A   1      37.202  31.666  31.224  1.00  0.00     0.029 A 
ATOM     51  C   UNL A   1      37.785  32.014  32.518  1.00  0.00     0.049 A 
ATOM     52  H   UNL A   1      39.522  31.246  33.373  1.00  0.00     0.167 HD
ATOM     53  C   UNL A   1      43.154  29.345  35.069  1.00  0.00     0.031 A 
ATOM     54  C   UNL A   1      37.292  32.913  33.391  1.00  0.00     0.031 A 
ATOM     55  C   UNL A   1      42.752  30.346  36.018  1.00  0.00     0.049 A 
ATOM     56  C   UNL A   1      38.037  33.154  34.677  1.00  0.00     0.074 A 
ATOM     57  C   UNL A   1      43.366  30.709  37.201  1.00  0.00     0.029 A 
ATOM     58  N   UNL A   1      41.617  31.137  35.893  1.00  0.00    -0.354 N 
ATOM     59  N   UNL A   1      39.136  32.581  35.110  1.00  0.00    -0.248 NA
ATOM     60  C   UNL A   1      37.487  34.169  35.582  1.00  0.00     0.031 C 
ATOM     61  C   UNL A   1      42.571  31.681  37.819  1.00  0.00     0.029 A 
ATOM     62  C   UNL A   1      41.498  31.971  36.989  1.00  0.00     0.049 A 
ATOM     63  H   UNL A   1      40.989  31.107  35.135  1.00  0.00     0.167 HD
ATOM     64  C   UNL A   1      39.423  33.181  36.331  1.00  0.00     0.074 A 
ATOM     65  C   UNL A   1      38.387  34.172  36.557  1.00  0.00     0.031 C 
ATOM     66  C   UNL A   1      40.447  32.940  37.189  1.00  0.00     0.031 A 
BRANCH  53  67
ATOM     67  C   UNL A   1      44.376  28.509  35.341  1.00  0.00    -0.014 A 
ATOM     68  C   UNL A   1      44.270  27.212  35.879  1.00  0.00     0.010 A 
ATOM     69  C   UNL A   1      45.653  29.034  35.074  1.00  0.00     0.010 A 
ATOM     70  C   UNL A   1      45.417  26.480  36.196  1.00  0.00     0.020 A 
ATOM     71  C   UNL A   1      46.803  28.291  35.359  1.00  0.00     0.020 A 
ATOM     72  C   UNL A   1      46.677  27.027  35.939  1.00  0.00     0.054 A 
BRANCH  72  73
ATOM     73  S   UNL A   1      48.150  26.057  36.364  1.00  0.00     0.124 S 
ATOM     74  O   UNL A   1      49.184  27.088  36.419  1.00  0.00    -0.237 OA
ATOM     75  O   UNL A   1      47.785  25.466  37.649  1.00  0.00    -0.237 OA
ATOM     76  O   UNL A   1      48.273  25.110  35.259  1.00  0.00    -0.744 OA
ENDBRANCH  72  73
ENDBRANCH  53  67
BRANCH  54  77
ATOM     77  C   UNL A   1      36.029  33.632  33.070  1.00  0.00    -0.014 A 
ATOM     78  C   UNL A   1      34.785  33.126  33.481  1.00  0.00     0.010 A 
ATOM     79  C   UNL A   1      36.074  34.863  32.388  1.00  0.00     0.010 A 
ATOM     80  C   UNL A   1      33.609  33.836  33.216  1.00  0.00     0.020 A 
ATOM     81  C   UNL A   1      34.905  35.588  32.146  1.00  0.00     0.020 A 
ATOM     82  C   UNL A   1      33.677  35.066  32.557  1.00  0.00     0.054 A 
BRANCH  82  83
ATOM     83  S   UNL A   1      32.147  36.007  32.299  1.00  0.00     0.124 S 
ATOM     84  O   UNL A   1      32.254  36.382  30.893  1.00  0.00    -0.237 OA
ATOM     85  O   UNL A   1      31.115  35.023  32.616  1.00  0.00    -0.237 OA
ATOM     86  O   UNL A   1      32.259  37.110  33.252  1.00  0.00    -0.744 OA
ENDBRANCH  82  83
ENDBRANCH  54  77
BRANCH  66  87
ATOM     87  C   UNL A   1      40.515  33.782  38.435  1.00  0.00    -0.014 A 
ATOM     88  C   UNL A   1      39.869  33.386  39.619  1.00  0.00     0.010 A 
ATOM     89  C   UNL A   1      41.290  34.956  38.433  1.00  0.00     0.010 A 
ATOM     90  C   UNL A   1      39.973  34.166  40.772  1.00  0.00     0.020 A 
ATOM     91  C   UNL A   1      41.422  35.722  39.593  1.00  0.00     0.020 A 
ATOM     92  C   UNL A   1      40.749  35.330  40.752  1.00  0.00     0.054 A 
BRANCH  92  93
ATOM     93  S   UNL A   1      40.903  36.301  42.275  1.00  0.00     0.124 S 
ATOM     94  O   UNL A   1      41.723  35.428  43.110  1.00  0.00    -0.237 OA
ATOM     95  O   UNL A   1      41.557  37.523  41.811  1.00  0.00    -0.237 OA
ATOM     96  O   UNL A   1      39.521  36.471  42.720  1.00  0.00    -0.744 OA
ENDBRANCH  92  93
ENDBRANCH  66  87
ENDBRANCH  40  41
ENDBRANCH  33  35
ENDBRANCH  32  33
ENDBRANCH  31  32
ENDBRANCH  30  31
ENDBRANCH  29  30
ENDBRANCH   1  29
TORSDOF 21
ENDMDL
