MODEL 1
REMARK VINA RESULT:     -10.2      0.000      0.000
REMARK SMILES CC1(C)CCN(S(=O)(=O)c2ccc(O)c(C(=O)OCCOCCOC(=O)c3ccc(-c4c5nc(c(-c6ccc(S(=O)(=O)[O-])cc6)c6ccc([nH]6)c(-c6ccc(S(=O)(=O)[O-])cc6)c6nc(c(-c7ccc(S(=O)(=O)[O-])cc7)c7ccc4[nH]7)C=C6)C=C5)cc3)c2)C1
REMARK SMILES IDX 22 1 21 2 20 3 19 4 18 5 16 6 17 7 15 8 10 9 11 10 87 11
REMARK SMILES IDX 12 12 13 13 7 14 8 15 9 16 6 17 1 18 2 19 3 20 4 21 88 22
REMARK SMILES IDX 5 23 14 24 23 26 24 27 25 28 26 29 27 30 28 31 86 32 29 33
REMARK SMILES IDX 85 34 30 35 31 36 32 37 79 38 33 39 84 40 78 41 80 42 34 43
REMARK SMILES IDX 83 44 77 45 76 46 35 48 65 49 46 50 64 51 47 52 50 53 63 54
REMARK SMILES IDX 81 55 48 56 49 57 62 59 82 60 51 61 36 62 37 63 45 64 38 65
REMARK SMILES IDX 44 66 39 67 40 68 41 69 42 70 43 71 66 72 67 73 75 74 68 75
REMARK SMILES IDX 74 76 69 77 70 78 71 79 72 80 73 81 52 82 53 83 61 84 54 85
REMARK SMILES IDX 60 86 55 87 56 88 57 89 58 90 59 91
REMARK H PARENT 14 25 80 47 50 58
REMARK Flexibility Score: inf
ROOT
ATOM      1  C   UNL A   1      31.560  28.302  26.379  1.00  0.00     0.202 C 
ENDROOT
BRANCH   1   2
ATOM      2  O   UNL A   1      31.544  29.462  25.546  1.00  0.00    -0.374 OA
BRANCH   2   3
ATOM      3  C   UNL A   1      31.501  29.242  24.134  1.00  0.00     0.202 C 
BRANCH   3   4
ATOM      4  C   UNL A   1      30.104  29.052  23.537  1.00  0.00     0.261 C 
BRANCH   4   5
ATOM      5  O   UNL A   1      30.068  27.857  22.742  1.00  0.00    -0.460 OA
BRANCH   5   6
ATOM      6  C   UNL A   1      29.920  26.691  23.412  1.00  0.00     0.342 C 
ATOM      7  O   UNL A   1      28.918  26.300  23.988  1.00  0.00    -0.246 OA
BRANCH   6   8
ATOM      8  C   UNL A   1      31.085  25.810  23.155  1.00  0.00     0.103 A 
ATOM      9  C   UNL A   1      32.512  24.053  24.015  1.00  0.00     0.083 A 
ATOM     10  C   UNL A   1      33.170  23.977  22.783  1.00  0.00     0.025 A 
ATOM     11  C   UNL A   1      31.466  24.958  24.203  1.00  0.00     0.041 A 
ATOM     12  C   UNL A   1      32.809  24.841  21.748  1.00  0.00     0.048 A 
ATOM     13  C   UNL A   1      31.767  25.754  21.933  1.00  0.00     0.130 A 
BRANCH   9  14
ATOM     14  S   UNL A   1      32.943  22.921  25.315  1.00  0.00     0.243 S 
ATOM     15  O   UNL A   1      31.821  22.836  26.227  1.00  0.00    -0.207 OA
ATOM     16  O   UNL A   1      34.262  23.273  25.798  1.00  0.00    -0.207 OA
BRANCH  14  17
ATOM     17  N   UNL A   1      33.066  21.432  24.501  1.00  0.00    -0.197 NA
ATOM     18  C   UNL A   1      32.809  18.507  23.334  1.00  0.00     0.012 C 
ATOM     19  C   UNL A   1      33.035  19.037  24.757  1.00  0.00    -0.020 C 
ATOM     20  C   UNL A   1      32.680  17.944  25.769  1.00  0.00     0.012 C 
ATOM     21  C   UNL A   1      34.466  19.540  24.953  1.00  0.00     0.024 C 
ATOM     22  C   UNL A   1      32.224  20.315  25.013  1.00  0.00     0.109 C 
ATOM     23  C   UNL A   1      34.457  20.930  24.330  1.00  0.00     0.103 C 
ENDBRANCH  14  17
ENDBRANCH   9  14
BRANCH  13  24
ATOM     24  O   UNL A   1      31.435  26.599  20.913  1.00  0.00    -0.507 OA
ATOM     25  H   UNL A   1      30.728  27.205  21.018  1.00  0.00     0.293 HD
ENDBRANCH  13  24
ENDBRANCH   6   8
ENDBRANCH   5   6
ENDBRANCH   4   5
ENDBRANCH   3   4
ENDBRANCH   2   3
ENDBRANCH   1   2
BRANCH   1  26
ATOM     26  C   UNL A   1      32.525  28.338  27.572  1.00  0.00     0.261 C 
BRANCH  26  27
ATOM     27  O   UNL A   1      33.862  28.707  27.185  1.00  0.00    -0.460 OA
BRANCH  27  28
ATOM     28  C   UNL A   1      34.253  29.935  27.604  1.00  0.00     0.338 C 
ATOM     29  O   UNL A   1      33.563  30.935  27.706  1.00  0.00    -0.246 OA
BRANCH  28  30
ATOM     30  C   UNL A   1      35.643  29.877  28.099  1.00  0.00     0.060 A 
ATOM     31  C   UNL A   1      36.671  30.063  27.166  1.00  0.00     0.016 A 
ATOM     32  C   UNL A   1      35.939  29.578  29.430  1.00  0.00     0.016 A 
ATOM     33  C   UNL A   1      38.002  29.906  27.552  1.00  0.00     0.010 A 
ATOM     34  C   UNL A   1      37.275  29.415  29.814  1.00  0.00     0.010 A 
ATOM     35  C   UNL A   1      38.311  29.546  28.870  1.00  0.00    -0.014 A 
BRANCH  35  36
ATOM     36  C   UNL A   1      39.704  29.183  29.229  1.00  0.00     0.031 A 
ATOM     37  C   UNL A   1      40.563  30.192  29.943  1.00  0.00     0.074 A 
ATOM     38  C   UNL A   1      40.194  27.964  28.938  1.00  0.00     0.049 A 
ATOM     39  N   UNL A   1      41.813  30.096  30.318  1.00  0.00    -0.248 NA
ATOM     40  C   UNL A   1      39.930  31.478  30.276  1.00  0.00     0.031 C 
ATOM     41  C   UNL A   1      39.448  26.887  28.287  1.00  0.00     0.029 A 
ATOM     42  N   UNL A   1      41.439  27.430  29.153  1.00  0.00    -0.354 N 
ATOM     43  C   UNL A   1      42.120  31.311  30.921  1.00  0.00     0.074 A 
ATOM     44  C   UNL A   1      40.934  32.136  30.836  1.00  0.00     0.031 C 
ATOM     45  C   UNL A   1      40.255  25.821  28.149  1.00  0.00     0.029 A 
ATOM     46  C   UNL A   1      41.580  26.151  28.670  1.00  0.00     0.049 A 
ATOM     47  H   UNL A   1      42.163  27.916  29.610  1.00  0.00     0.167 HD
ATOM     48  C   UNL A   1      43.282  31.702  31.497  1.00  0.00     0.031 A 
ATOM     49  C   UNL A   1      42.661  25.345  28.632  1.00  0.00     0.031 A 
ATOM     50  C   UNL A   1      44.462  30.882  31.570  1.00  0.00     0.049 A 
ATOM     51  C   UNL A   1      43.962  25.826  29.218  1.00  0.00     0.074 A 
ATOM     52  C   UNL A   1      45.683  31.183  32.149  1.00  0.00     0.029 A 
ATOM     53  N   UNL A   1      44.574  29.605  31.041  1.00  0.00    -0.354 N 
ATOM     54  N   UNL A   1      44.230  26.969  29.806  1.00  0.00    -0.248 NA
ATOM     55  C   UNL A   1      45.106  24.906  29.143  1.00  0.00     0.031 C 
ATOM     56  C   UNL A   1      46.551  30.110  31.919  1.00  0.00     0.029 A 
ATOM     57  C   UNL A   1      45.851  29.115  31.255  1.00  0.00     0.049 A 
ATOM     58  H   UNL A   1      43.852  29.119  30.581  1.00  0.00     0.167 HD
ATOM     59  C   UNL A   1      45.563  26.892  30.197  1.00  0.00     0.074 A 
ATOM     60  C   UNL A   1      46.044  25.588  29.788  1.00  0.00     0.031 C 
ATOM     61  C   UNL A   1      46.318  27.814  30.843  1.00  0.00     0.031 A 
BRANCH  48  62
ATOM     62  C   UNL A   1      43.342  33.097  32.065  1.00  0.00    -0.014 A 
ATOM     63  C   UNL A   1      43.711  34.195  31.268  1.00  0.00     0.010 A 
ATOM     64  C   UNL A   1      42.988  33.314  33.408  1.00  0.00     0.010 A 
ATOM     65  C   UNL A   1      43.766  35.480  31.817  1.00  0.00     0.020 A 
ATOM     66  C   UNL A   1      43.014  34.600  33.955  1.00  0.00     0.020 A 
ATOM     67  C   UNL A   1      43.421  35.673  33.159  1.00  0.00     0.054 A 
BRANCH  67  68
ATOM     68  S   UNL A   1      43.485  37.353  33.841  1.00  0.00     0.124 S 
ATOM     69  O   UNL A   1      43.622  38.162  32.632  1.00  0.00    -0.237 OA
ATOM     70  O   UNL A   1      42.203  37.468  34.532  1.00  0.00    -0.237 OA
ATOM     71  O   UNL A   1      44.659  37.330  34.711  1.00  0.00    -0.744 OA
ENDBRANCH  67  68
ENDBRANCH  48  62
BRANCH  49  72
ATOM     72  C   UNL A   1      42.560  24.000  28.001  1.00  0.00    -0.014 A 
ATOM     73  C   UNL A   1      42.635  23.852  26.606  1.00  0.00     0.010 A 
ATOM     74  C   UNL A   1      42.395  22.855  28.803  1.00  0.00     0.010 A 
ATOM     75  C   UNL A   1      42.534  22.585  26.023  1.00  0.00     0.020 A 
ATOM     76  C   UNL A   1      42.322  21.585  28.226  1.00  0.00     0.020 A 
ATOM     77  C   UNL A   1      42.381  21.459  26.837  1.00  0.00     0.054 A 
BRANCH  77  78
ATOM     78  S   UNL A   1      42.311  19.819  26.062  1.00  0.00     0.124 S 
ATOM     79  O   UNL A   1      42.506  18.934  27.206  1.00  0.00    -0.237 OA
ATOM     80  O   UNL A   1      40.975  19.807  25.471  1.00  0.00    -0.237 OA
ATOM     81  O   UNL A   1      43.409  19.850  25.099  1.00  0.00    -0.744 OA
ENDBRANCH  77  78
ENDBRANCH  49  72
BRANCH  61  82
ATOM     82  C   UNL A   1      47.736  27.440  31.188  1.00  0.00    -0.014 A 
ATOM     83  C   UNL A   1      48.032  26.638  32.304  1.00  0.00     0.010 A 
ATOM     84  C   UNL A   1      48.784  27.845  30.340  1.00  0.00     0.010 A 
ATOM     85  C   UNL A   1      49.352  26.272  32.581  1.00  0.00     0.020 A 
ATOM     86  C   UNL A   1      50.101  27.459  30.597  1.00  0.00     0.020 A 
ATOM     87  C   UNL A   1      50.379  26.684  31.725  1.00  0.00     0.054 A 
BRANCH  87  88
ATOM     88  S   UNL A   1      52.077  26.153  32.077  1.00  0.00     0.124 S 
ATOM     89  O   UNL A   1      51.869  25.115  33.083  1.00  0.00    -0.237 OA
ATOM     90  O   UNL A   1      52.543  25.681  30.775  1.00  0.00    -0.237 OA
ATOM     91  O   UNL A   1      52.728  27.369  32.561  1.00  0.00    -0.744 OA
ENDBRANCH  87  88
ENDBRANCH  61  82
ENDBRANCH  35  36
ENDBRANCH  28  30
ENDBRANCH  27  28
ENDBRANCH  26  27
ENDBRANCH   1  26
TORSDOF 20
ENDMDL
MODEL 2
REMARK VINA RESULT:     -10.1      3.506      4.624
REMARK SMILES CC1(C)CCN(S(=O)(=O)c2ccc(O)c(C(=O)OCCOCCOC(=O)c3ccc(-c4c5nc(c(-c6ccc(S(=O)(=O)[O-])cc6)c6ccc([nH]6)c(-c6ccc(S(=O)(=O)[O-])cc6)c6nc(c(-c7ccc(S(=O)(=O)[O-])cc7)c7ccc4[nH]7)C=C6)C=C5)cc3)c2)C1
REMARK SMILES IDX 22 1 21 2 20 3 19 4 18 5 16 6 17 7 15 8 10 9 11 10 87 11
REMARK SMILES IDX 12 12 13 13 7 14 8 15 9 16 6 17 1 18 2 19 3 20 4 21 88 22
REMARK SMILES IDX 5 23 14 24 23 26 24 27 25 28 26 29 27 30 28 31 86 32 29 33
REMARK SMILES IDX 85 34 30 35 31 36 32 37 79 38 33 39 84 40 78 41 80 42 34 43
REMARK SMILES IDX 83 44 77 45 76 46 35 48 65 49 46 50 64 51 47 52 50 53 63 54
REMARK SMILES IDX 81 55 48 56 49 57 62 59 82 60 51 61 36 62 37 63 45 64 38 65
REMARK SMILES IDX 44 66 39 67 40 68 41 69 42 70 43 71 66 72 67 73 75 74 68 75
REMARK SMILES IDX 74 76 69 77 70 78 71 79 72 80 73 81 52 82 53 83 61 84 54 85
REMARK SMILES IDX 60 86 55 87 56 88 57 89 58 90 59 91
REMARK H PARENT 14 25 80 47 50 58
REMARK Flexibility Score: inf
ROOT
ATOM      1  C   UNL A   1      34.833  32.370  28.650  1.00  0.00     0.202 C 
ENDROOT
BRANCH   1   2
ATOM      2  O   UNL A   1      34.562  31.701  27.417  1.00  0.00    -0.374 OA
BRANCH   2   3
ATOM      3  C   UNL A   1      33.729  30.541  27.481  1.00  0.00     0.202 C 
BRANCH   3   4
ATOM      4  C   UNL A   1      33.044  30.146  26.170  1.00  0.00     0.261 C 
BRANCH   4   5
ATOM      5  O   UNL A   1      33.485  28.844  25.758  1.00  0.00    -0.460 OA
BRANCH   5   6
ATOM      6  C   UNL A   1      33.222  28.495  24.477  1.00  0.00     0.342 C 
ATOM      7  O   UNL A   1      33.905  28.741  23.496  1.00  0.00    -0.246 OA
BRANCH   6   8
ATOM      8  C   UNL A   1      32.085  27.544  24.437  1.00  0.00     0.103 A 
ATOM      9  C   UNL A   1      31.247  25.375  25.115  1.00  0.00     0.083 A 
ATOM     10  C   UNL A   1      29.992  25.688  24.582  1.00  0.00     0.025 A 
ATOM     11  C   UNL A   1      32.291  26.299  25.053  1.00  0.00     0.041 A 
ATOM     12  C   UNL A   1      29.793  26.915  23.947  1.00  0.00     0.048 A 
ATOM     13  C   UNL A   1      30.837  27.842  23.877  1.00  0.00     0.130 A 
BRANCH   9  14
ATOM     14  S   UNL A   1      31.484  23.831  25.962  1.00  0.00     0.243 S 
ATOM     15  O   UNL A   1      30.999  22.770  25.105  1.00  0.00    -0.207 OA
ATOM     16  O   UNL A   1      30.983  23.978  27.313  1.00  0.00    -0.207 OA
BRANCH  14  17
ATOM     17  N   UNL A   1      33.178  23.698  26.046  1.00  0.00    -0.197 NA
ATOM     18  C   UNL A   1      36.277  23.250  25.622  1.00  0.00     0.012 C 
ATOM     19  C   UNL A   1      35.073  22.301  25.536  1.00  0.00    -0.020 C 
ATOM     20  C   UNL A   1      35.464  21.056  24.736  1.00  0.00     0.012 C 
ATOM     21  C   UNL A   1      34.543  21.934  26.923  1.00  0.00     0.024 C 
ATOM     22  C   UNL A   1      33.854  22.999  24.917  1.00  0.00     0.109 C 
ATOM     23  C   UNL A   1      33.694  23.133  27.323  1.00  0.00     0.103 C 
ENDBRANCH  14  17
ENDBRANCH   9  14
BRANCH  13  24
ATOM     24  O   UNL A   1      30.627  29.032  23.242  1.00  0.00    -0.507 OA
ATOM     25  H   UNL A   1      30.853  29.126  22.337  1.00  0.00     0.293 HD
ENDBRANCH  13  24
ENDBRANCH   6   8
ENDBRANCH   5   6
ENDBRANCH   4   5
ENDBRANCH   3   4
ENDBRANCH   2   3
ENDBRANCH   1   2
BRANCH   1  26
ATOM     26  C   UNL A   1      35.902  31.731  29.545  1.00  0.00     0.261 C 
BRANCH  26  27
ATOM     27  O   UNL A   1      36.611  30.668  28.881  1.00  0.00    -0.460 OA
BRANCH  27  28
ATOM     28  C   UNL A   1      37.111  29.718  29.708  1.00  0.00     0.338 C 
ATOM     29  O   UNL A   1      36.542  29.178  30.642  1.00  0.00    -0.246 OA
BRANCH  28  30
ATOM     30  C   UNL A   1      38.434  29.276  29.223  1.00  0.00     0.060 A 
ATOM     31  C   UNL A   1      39.347  28.800  30.173  1.00  0.00     0.016 A 
ATOM     32  C   UNL A   1      38.802  29.389  27.881  1.00  0.00     0.016 A 
ATOM     33  C   UNL A   1      40.648  28.477  29.791  1.00  0.00     0.010 A 
ATOM     34  C   UNL A   1      40.110  29.069  27.501  1.00  0.00     0.010 A 
ATOM     35  C   UNL A   1      41.049  28.643  28.459  1.00  0.00    -0.014 A 
BRANCH  35  36
ATOM     36  C   UNL A   1      42.479  28.494  28.095  1.00  0.00     0.031 A 
ATOM     37  C   UNL A   1      43.413  29.657  28.301  1.00  0.00     0.074 A 
ATOM     38  C   UNL A   1      42.946  27.332  27.603  1.00  0.00     0.049 A 
ATOM     39  N   UNL A   1      44.687  29.754  28.020  1.00  0.00    -0.248 NA
ATOM     40  C   UNL A   1      42.833  30.869  28.900  1.00  0.00     0.031 C 
ATOM     41  C   UNL A   1      42.150  26.121  27.397  1.00  0.00     0.029 A 
ATOM     42  N   UNL A   1      44.205  26.983  27.185  1.00  0.00    -0.354 N 
ATOM     43  C   UNL A   1      45.059  31.039  28.397  1.00  0.00     0.074 A 
ATOM     44  C   UNL A   1      43.870  31.693  28.899  1.00  0.00     0.031 C 
ATOM     45  C   UNL A   1      42.941  25.163  26.884  1.00  0.00     0.029 A 
ATOM     46  C   UNL A   1      44.287  25.702  26.694  1.00  0.00     0.049 A 
ATOM     47  H   UNL A   1      44.977  27.593  27.231  1.00  0.00     0.167 HD
ATOM     48  C   UNL A   1      46.281  31.621  28.335  1.00  0.00     0.031 A 
ATOM     49  C   UNL A   1      45.323  25.045  26.135  1.00  0.00     0.031 A 
ATOM     50  C   UNL A   1      47.459  30.971  27.824  1.00  0.00     0.049 A 
ATOM     51  C   UNL A   1      46.657  25.734  26.013  1.00  0.00     0.074 A 
ATOM     52  C   UNL A   1      48.747  31.471  27.735  1.00  0.00     0.029 A 
ATOM     53  N   UNL A   1      47.493  29.684  27.307  1.00  0.00    -0.354 N 
ATOM     54  N   UNL A   1      46.999  26.942  26.396  1.00  0.00    -0.248 NA
ATOM     55  C   UNL A   1      47.747  24.969  25.391  1.00  0.00     0.031 C 
ATOM     56  C   UNL A   1      49.547  30.507  27.113  1.00  0.00     0.029 A 
ATOM     57  C   UNL A   1      48.773  29.383  26.873  1.00  0.00     0.049 A 
ATOM     58  H   UNL A   1      46.722  29.075  27.257  1.00  0.00     0.167 HD
ATOM     59  C   UNL A   1      48.350  27.070  26.089  1.00  0.00     0.074 A 
ATOM     60  C   UNL A   1      48.764  25.814  25.498  1.00  0.00     0.031 C 
ATOM     61  C   UNL A   1      49.173  28.128  26.286  1.00  0.00     0.031 A 
BRANCH  48  62
ATOM     62  C   UNL A   1      46.397  33.049  28.801  1.00  0.00    -0.014 A 
ATOM     63  C   UNL A   1      46.714  33.359  30.136  1.00  0.00     0.010 A 
ATOM     64  C   UNL A   1      46.219  34.096  27.879  1.00  0.00     0.010 A 
ATOM     65  C   UNL A   1      46.810  34.692  30.548  1.00  0.00     0.020 A 
ATOM     66  C   UNL A   1      46.342  35.429  28.280  1.00  0.00     0.020 A 
ATOM     67  C   UNL A   1      46.618  35.719  29.617  1.00  0.00     0.054 A 
BRANCH  67  68
ATOM     68  S   UNL A   1      46.765  37.438  30.176  1.00  0.00     0.124 S 
ATOM     69  O   UNL A   1      45.385  37.755  30.537  1.00  0.00    -0.237 OA
ATOM     70  O   UNL A   1      47.699  37.334  31.294  1.00  0.00    -0.237 OA
ATOM     71  O   UNL A   1      47.277  38.142  29.002  1.00  0.00    -0.744 OA
ENDBRANCH  67  68
ENDBRANCH  48  62
BRANCH  49  72
ATOM     72  C   UNL A   1      45.135  23.656  25.633  1.00  0.00    -0.014 A 
ATOM     73  C   UNL A   1      44.584  23.417  24.362  1.00  0.00     0.010 A 
ATOM     74  C   UNL A   1      45.517  22.559  26.429  1.00  0.00     0.010 A 
ATOM     75  C   UNL A   1      44.407  22.109  23.902  1.00  0.00     0.020 A 
ATOM     76  C   UNL A   1      45.367  21.251  25.961  1.00  0.00     0.020 A 
ATOM     77  C   UNL A   1      44.803  21.034  24.703  1.00  0.00     0.054 A 
BRANCH  77  78
ATOM     78  S   UNL A   1      44.617  19.347  24.062  1.00  0.00     0.124 S 
ATOM     79  O   UNL A   1      43.396  18.902  24.726  1.00  0.00    -0.237 OA
ATOM     80  O   UNL A   1      44.512  19.567  22.622  1.00  0.00    -0.237 OA
ATOM     81  O   UNL A   1      45.844  18.681  24.494  1.00  0.00    -0.744 OA
ENDBRANCH  77  78
ENDBRANCH  49  72
BRANCH  61  82
ATOM     82  C   UNL A   1      50.621  27.970  25.897  1.00  0.00    -0.014 A 
ATOM     83  C   UNL A   1      51.066  28.263  24.596  1.00  0.00     0.010 A 
ATOM     84  C   UNL A   1      51.561  27.585  26.871  1.00  0.00     0.010 A 
ATOM     85  C   UNL A   1      52.420  28.146  24.269  1.00  0.00     0.020 A 
ATOM     86  C   UNL A   1      52.918  27.493  26.557  1.00  0.00     0.020 A 
ATOM     87  C   UNL A   1      53.338  27.763  25.253  1.00  0.00     0.054 A 
BRANCH  87  88
ATOM     88  S   UNL A   1      55.097  27.668  24.818  1.00  0.00     0.124 S 
ATOM     89  O   UNL A   1      55.395  29.050  24.453  1.00  0.00    -0.237 OA
ATOM     90  O   UNL A   1      55.710  27.200  26.059  1.00  0.00    -0.237 OA
ATOM     91  O   UNL A   1      55.131  26.710  23.715  1.00  0.00    -0.744 OA
ENDBRANCH  87  88
ENDBRANCH  61  82
ENDBRANCH  35  36
ENDBRANCH  28  30
ENDBRANCH  27  28
ENDBRANCH  26  27
ENDBRANCH   1  26
TORSDOF 20
ENDMDL
MODEL 3
REMARK VINA RESULT:     -10.0      3.452      9.024
REMARK SMILES CC1(C)CCN(S(=O)(=O)c2ccc(O)c(C(=O)OCCOCCOC(=O)c3ccc(-c4c5nc(c(-c6ccc(S(=O)(=O)[O-])cc6)c6ccc([nH]6)c(-c6ccc(S(=O)(=O)[O-])cc6)c6nc(c(-c7ccc(S(=O)(=O)[O-])cc7)c7ccc4[nH]7)C=C6)C=C5)cc3)c2)C1
REMARK SMILES IDX 22 1 21 2 20 3 19 4 18 5 16 6 17 7 15 8 10 9 11 10 87 11
REMARK SMILES IDX 12 12 13 13 7 14 8 15 9 16 6 17 1 18 2 19 3 20 4 21 88 22
REMARK SMILES IDX 5 23 14 24 23 26 24 27 25 28 26 29 27 30 28 31 86 32 29 33
REMARK SMILES IDX 85 34 30 35 31 36 32 37 79 38 33 39 84 40 78 41 80 42 34 43
REMARK SMILES IDX 83 44 77 45 76 46 35 48 65 49 46 50 64 51 47 52 50 53 63 54
REMARK SMILES IDX 81 55 48 56 49 57 62 59 82 60 51 61 36 62 37 63 45 64 38 65
REMARK SMILES IDX 44 66 39 67 40 68 41 69 42 70 43 71 66 72 67 73 75 74 68 75
REMARK SMILES IDX 74 76 69 77 70 78 71 79 72 80 73 81 52 82 53 83 61 84 54 85
REMARK SMILES IDX 60 86 55 87 56 88 57 89 58 90 59 91
REMARK H PARENT 14 25 80 47 50 58
REMARK Flexibility Score: inf
ROOT
ATOM      1  C   UNL A   1      35.303  32.329  28.684  1.00  0.00     0.202 C 
ENDROOT
BRANCH   1   2
ATOM      2  O   UNL A   1      34.620  31.459  27.780  1.00  0.00    -0.374 OA
BRANCH   2   3
ATOM      3  C   UNL A   1      35.267  30.226  27.457  1.00  0.00     0.202 C 
BRANCH   3   4
ATOM      4  C   UNL A   1      34.337  29.030  27.234  1.00  0.00     0.261 C 
BRANCH   4   5
ATOM      5  O   UNL A   1      33.737  29.110  25.933  1.00  0.00    -0.460 OA
BRANCH   5   6
ATOM      6  C   UNL A   1      32.402  29.324  25.897  1.00  0.00     0.342 C 
ATOM      7  O   UNL A   1      31.749  30.013  26.665  1.00  0.00    -0.246 OA
BRANCH   6   8
ATOM      8  C   UNL A   1      31.840  28.793  24.631  1.00  0.00     0.103 A 
ATOM      9  C   UNL A   1      31.847  26.979  23.028  1.00  0.00     0.083 A 
ATOM     10  C   UNL A   1      30.788  27.577  22.338  1.00  0.00     0.025 A 
ATOM     11  C   UNL A   1      32.370  27.575  24.176  1.00  0.00     0.041 A 
ATOM     12  C   UNL A   1      30.277  28.801  22.775  1.00  0.00     0.048 A 
ATOM     13  C   UNL A   1      30.800  29.406  23.920  1.00  0.00     0.130 A 
BRANCH   9  14
ATOM     14  S   UNL A   1      32.464  25.399  22.496  1.00  0.00     0.243 S 
ATOM     15  O   UNL A   1      33.311  25.615  21.341  1.00  0.00    -0.207 OA
ATOM     16  O   UNL A   1      31.349  24.479  22.433  1.00  0.00    -0.207 OA
BRANCH  14  17
ATOM     17  N   UNL A   1      33.461  24.924  23.789  1.00  0.00    -0.197 NA
ATOM     18  C   UNL A   1      35.764  24.062  25.775  1.00  0.00     0.012 C 
ATOM     19  C   UNL A   1      35.241  23.449  24.468  1.00  0.00    -0.020 C 
ATOM     20  C   UNL A   1      36.298  22.501  23.894  1.00  0.00     0.012 C 
ATOM     21  C   UNL A   1      33.902  22.739  24.672  1.00  0.00     0.024 C 
ATOM     22  C   UNL A   1      34.860  24.536  23.454  1.00  0.00     0.109 C 
ATOM     23  C   UNL A   1      32.880  23.869  24.666  1.00  0.00     0.103 C 
ENDBRANCH  14  17
ENDBRANCH   9  14
BRANCH  13  24
ATOM     24  O   UNL A   1      30.297  30.608  24.326  1.00  0.00    -0.507 OA
ATOM     25  H   UNL A   1      29.964  30.708  25.196  1.00  0.00     0.293 HD
ENDBRANCH  13  24
ENDBRANCH   6   8
ENDBRANCH   5   6
ENDBRANCH   4   5
ENDBRANCH   3   4
ENDBRANCH   2   3
ENDBRANCH   1   2
BRANCH   1  26
ATOM     26  C   UNL A   1      35.176  31.990  30.175  1.00  0.00     0.261 C 
BRANCH  26  27
ATOM     27  O   UNL A   1      36.455  31.761  30.796  1.00  0.00    -0.460 OA
BRANCH  27  28
ATOM     28  C   UNL A   1      36.854  30.466  30.809  1.00  0.00     0.338 C 
ATOM     29  O   UNL A   1      36.163  29.483  31.013  1.00  0.00    -0.246 OA
BRANCH  28  30
ATOM     30  C   UNL A   1      38.260  30.371  30.366  1.00  0.00     0.060 A 
ATOM     31  C   UNL A   1      38.505  30.359  28.987  1.00  0.00     0.016 A 
ATOM     32  C   UNL A   1      39.310  30.225  31.275  1.00  0.00     0.016 A 
ATOM     33  C   UNL A   1      39.799  30.157  28.510  1.00  0.00     0.010 A 
ATOM     34  C   UNL A   1      40.607  30.016  30.793  1.00  0.00     0.010 A 
ATOM     35  C   UNL A   1      40.853  29.948  29.408  1.00  0.00    -0.014 A 
BRANCH  35  36
ATOM     36  C   UNL A   1      42.184  29.533  28.901  1.00  0.00     0.031 A 
ATOM     37  C   UNL A   1      42.383  28.114  28.440  1.00  0.00     0.074 A 
ATOM     38  C   UNL A   1      43.200  30.413  28.835  1.00  0.00     0.049 A 
ATOM     39  N   UNL A   1      43.467  27.533  27.996  1.00  0.00    -0.248 NA
ATOM     40  C   UNL A   1      41.204  27.234  28.490  1.00  0.00     0.031 C 
ATOM     41  C   UNL A   1      43.121  31.825  29.212  1.00  0.00     0.029 A 
ATOM     42  N   UNL A   1      44.499  30.245  28.428  1.00  0.00    -0.354 N 
ATOM     43  C   UNL A   1      43.106  26.218  27.722  1.00  0.00     0.074 A 
ATOM     44  C   UNL A   1      41.711  26.081  28.078  1.00  0.00     0.031 C 
ATOM     45  C   UNL A   1      44.324  32.393  29.025  1.00  0.00     0.029 A 
ATOM     46  C   UNL A   1      45.265  31.380  28.548  1.00  0.00     0.049 A 
ATOM     47  H   UNL A   1      44.850  29.393  28.084  1.00  0.00     0.167 HD
ATOM     48  C   UNL A   1      43.867  25.218  27.217  1.00  0.00     0.031 A 
ATOM     49  C   UNL A   1      46.579  31.576  28.321  1.00  0.00     0.031 A 
ATOM     50  C   UNL A   1      45.258  25.356  26.874  1.00  0.00     0.049 A 
ATOM     51  C   UNL A   1      47.422  30.431  27.823  1.00  0.00     0.074 A 
ATOM     52  C   UNL A   1      46.110  24.405  26.339  1.00  0.00     0.029 A 
ATOM     53  N   UNL A   1      46.004  26.512  27.040  1.00  0.00    -0.354 N 
ATOM     54  N   UNL A   1      47.060  29.200  27.548  1.00  0.00    -0.248 NA
ATOM     55  C   UNL A   1      48.849  30.704  27.598  1.00  0.00     0.031 C 
ATOM     56  C   UNL A   1      47.385  24.970  26.235  1.00  0.00     0.029 A 
ATOM     57  C   UNL A   1      47.312  26.292  26.644  1.00  0.00     0.049 A 
ATOM     58  H   UNL A   1      45.655  27.365  27.388  1.00  0.00     0.167 HD
ATOM     59  C   UNL A   1      48.207  28.561  27.088  1.00  0.00     0.074 A 
ATOM     60  C   UNL A   1      49.272  29.543  27.114  1.00  0.00     0.031 C 
ATOM     61  C   UNL A   1      48.363  27.279  26.675  1.00  0.00     0.031 A 
BRANCH  48  62
ATOM     62  C   UNL A   1      43.215  23.872  27.036  1.00  0.00    -0.014 A 
ATOM     63  C   UNL A   1      42.679  23.478  25.797  1.00  0.00     0.010 A 
ATOM     64  C   UNL A   1      43.170  22.972  28.117  1.00  0.00     0.010 A 
ATOM     65  C   UNL A   1      42.073  22.227  25.654  1.00  0.00     0.020 A 
ATOM     66  C   UNL A   1      42.591  21.709  27.972  1.00  0.00     0.020 A 
ATOM     67  C   UNL A   1      42.029  21.351  26.745  1.00  0.00     0.054 A 
BRANCH  67  68
ATOM     68  S   UNL A   1      41.251  19.727  26.527  1.00  0.00     0.124 S 
ATOM     69  O   UNL A   1      42.191  19.063  25.627  1.00  0.00    -0.237 OA
ATOM     70  O   UNL A   1      41.211  19.205  27.890  1.00  0.00    -0.237 OA
ATOM     71  O   UNL A   1      39.949  20.041  25.944  1.00  0.00    -0.744 OA
ENDBRANCH  67  68
ENDBRANCH  48  62
BRANCH  49  72
ATOM     72  C   UNL A   1      47.184  32.912  28.577  1.00  0.00    -0.014 A 
ATOM     73  C   UNL A   1      47.763  33.214  29.822  1.00  0.00     0.010 A 
ATOM     74  C   UNL A   1      47.189  33.891  27.565  1.00  0.00     0.010 A 
ATOM     75  C   UNL A   1      48.324  34.474  30.054  1.00  0.00     0.020 A 
ATOM     76  C   UNL A   1      47.773  35.141  27.784  1.00  0.00     0.020 A 
ATOM     77  C   UNL A   1      48.329  35.428  29.032  1.00  0.00     0.054 A 
BRANCH  77  78
ATOM     78  S   UNL A   1      49.114  37.035  29.337  1.00  0.00     0.124 S 
ATOM     79  O   UNL A   1      48.374  37.911  28.434  1.00  0.00    -0.237 OA
ATOM     80  O   UNL A   1      48.869  37.241  30.762  1.00  0.00    -0.237 OA
ATOM     81  O   UNL A   1      50.512  36.805  28.980  1.00  0.00    -0.744 OA
ENDBRANCH  77  78
ENDBRANCH  49  72
BRANCH  61  82
ATOM     82  C   UNL A   1      49.724  26.865  26.177  1.00  0.00    -0.014 A 
ATOM     83  C   UNL A   1      50.088  27.015  24.828  1.00  0.00     0.010 A 
ATOM     84  C   UNL A   1      50.677  26.379  27.093  1.00  0.00     0.010 A 
ATOM     85  C   UNL A   1      51.369  26.660  24.398  1.00  0.00     0.020 A 
ATOM     86  C   UNL A   1      51.967  26.049  26.673  1.00  0.00     0.020 A 
ATOM     87  C   UNL A   1      52.302  26.180  25.324  1.00  0.00     0.054 A 
BRANCH  87  88
ATOM     88  S   UNL A   1      53.974  25.775  24.750  1.00  0.00     0.124 S 
ATOM     89  O   UNL A   1      54.808  26.439  25.748  1.00  0.00    -0.237 OA
ATOM     90  O   UNL A   1      53.984  24.314  24.795  1.00  0.00    -0.237 OA
ATOM     91  O   UNL A   1      54.030  26.350  23.408  1.00  0.00    -0.744 OA
ENDBRANCH  87  88
ENDBRANCH  61  82
ENDBRANCH  35  36
ENDBRANCH  28  30
ENDBRANCH  27  28
ENDBRANCH  26  27
ENDBRANCH   1  26
TORSDOF 20
ENDMDL
