MODEL 1
REMARK VINA RESULT:      -9.1      0.000      0.000
REMARK SMILES C=CC[N@H+](CC(=O)OCCOCCOC(=O)c1ccc(-c2c3nc(c(-c4ccc(S(=O)(=O)[O-])cc4)c4ccc([nH]4)c(-c4ccc(S(=O)(=O)[O-])cc4)c4nc(c(-c5ccc(S(=O)(=O)[O-])cc5)c5ccc2[nH]5)C=C4)C=C3)cc1)[C@@H]1CC[N@@H+](C(C)C)C1
REMARK SMILES IDX 11 1 10 2 9 3 8 4 6 5 7 6 5 7 4 8 3 10 2 11 1 12 77 13 78 14
REMARK SMILES IDX 84 15 79 16 80 17 81 19 82 20 83 21 12 22 13 23 14 24 15 25
REMARK SMILES IDX 16 26 17 27 18 28 76 29 19 30 75 31 20 32 21 33 22 34 69 35
REMARK SMILES IDX 23 36 74 37 68 38 70 39 24 40 73 41 67 42 66 43 25 45 55 46
REMARK SMILES IDX 36 47 54 48 37 49 40 50 53 51 71 52 38 53 39 54 52 56 72 57
REMARK SMILES IDX 41 58 26 59 27 60 35 61 28 62 34 63 29 64 30 65 31 66 32 67
REMARK SMILES IDX 33 68 56 69 57 70 65 71 58 72 64 73 59 74 60 75 61 76 62 77
REMARK SMILES IDX 63 78 42 79 43 80 51 81 44 82 50 83 45 84 46 85 47 86 48 87
REMARK SMILES IDX 49 88
REMARK H PARENT 4 9 80 18 70 44 40 55
REMARK Flexibility Score: inf
ROOT
ATOM      1  O   UNL A   1      36.967  21.648  25.756  1.00  0.00    -0.374 OA
ENDROOT
BRANCH   1   2
ATOM      2  C   UNL A   1      35.931  21.727  24.783  1.00  0.00     0.202 C 
BRANCH   2   3
ATOM      3  C   UNL A   1      35.891  23.135  24.183  1.00  0.00     0.261 C 
BRANCH   3   4
ATOM      4  O   UNL A   1      34.719  23.860  24.611  1.00  0.00    -0.459 OA
BRANCH   4   5
ATOM      5  C   UNL A   1      34.101  24.626  23.673  1.00  0.00     0.361 C 
ATOM      6  O   UNL A   1      34.139  24.407  22.463  1.00  0.00    -0.245 OA
BRANCH   5   7
ATOM      7  C   UNL A   1      33.337  25.839  24.226  1.00  0.00     0.387 C 
BRANCH   7   8
ATOM      8  N   UNL A   1      31.887  25.649  24.525  1.00  0.00    -0.315 N 
ATOM      9  H   UNL A   1      31.617  24.683  24.710  1.00  0.00     0.349 HD
BRANCH   8  10
ATOM     10  C   UNL A   1      31.559  26.228  25.834  1.00  0.00     0.291 C 
BRANCH  10  11
ATOM     11  C   UNL A   1      32.308  27.406  26.373  1.00  0.00     0.025 C 
ATOM     12  C   UNL A   1      31.839  28.213  27.337  1.00  0.00     0.010 C 
ENDBRANCH  10  11
ENDBRANCH   8  10
BRANCH   8  13
ATOM     13  C   UNL A   1      31.046  25.835  23.314  1.00  0.00     0.246 C 
ATOM     14  C   UNL A   1      31.531  26.728  22.166  1.00  0.00     0.132 C 
ATOM     15  C   UNL A   1      29.762  26.686  23.640  1.00  0.00     0.328 C 
ATOM     16  C   UNL A   1      31.430  28.125  22.743  1.00  0.00     0.269 C 
ATOM     17  N   UNL A   1      30.185  28.087  23.512  1.00  0.00    -0.328 N 
ATOM     18  H   UNL A   1      30.339  28.404  24.470  1.00  0.00     0.348 HD
BRANCH  17  19
ATOM     19  C   UNL A   1      29.207  29.131  23.200  1.00  0.00     0.177 C 
ATOM     20  C   UNL A   1      29.517  29.953  21.944  1.00  0.00     0.075 C 
ATOM     21  C   UNL A   1      27.771  28.601  23.107  1.00  0.00     0.075 C 
ENDBRANCH  17  19
ENDBRANCH   8  13
ENDBRANCH   7   8
ENDBRANCH   5   7
ENDBRANCH   4   5
ENDBRANCH   3   4
ENDBRANCH   2   3
ENDBRANCH   1   2
BRANCH   1  22
ATOM     22  C   UNL A   1      38.162  20.964  25.376  1.00  0.00     0.202 C 
BRANCH  22  23
ATOM     23  C   UNL A   1      39.444  21.314  26.128  1.00  0.00     0.261 C 
BRANCH  23  24
ATOM     24  O   UNL A   1      40.156  20.153  26.566  1.00  0.00    -0.460 OA
BRANCH  24  25
ATOM     25  C   UNL A   1      41.427  20.047  26.126  1.00  0.00     0.338 C 
ATOM     26  O   UNL A   1      41.996  19.082  25.652  1.00  0.00    -0.246 OA
BRANCH  25  27
ATOM     27  C   UNL A   1      42.095  21.306  26.468  1.00  0.00     0.060 A 
ATOM     28  C   UNL A   1      42.356  21.629  27.799  1.00  0.00     0.016 A 
ATOM     29  C   UNL A   1      42.462  22.162  25.425  1.00  0.00     0.016 A 
ATOM     30  C   UNL A   1      42.948  22.853  28.092  1.00  0.00     0.010 A 
ATOM     31  C   UNL A   1      43.100  23.361  25.719  1.00  0.00     0.010 A 
ATOM     32  C   UNL A   1      43.310  23.731  27.057  1.00  0.00    -0.014 A 
BRANCH  32  33
ATOM     33  C   UNL A   1      43.821  25.079  27.391  1.00  0.00     0.031 A 
ATOM     34  C   UNL A   1      45.276  25.389  27.172  1.00  0.00     0.074 A 
ATOM     35  C   UNL A   1      42.974  26.021  27.842  1.00  0.00     0.049 A 
ATOM     36  N   UNL A   1      45.905  26.526  27.312  1.00  0.00    -0.248 NA
ATOM     37  C   UNL A   1      46.139  24.273  26.746  1.00  0.00     0.031 C 
ATOM     38  C   UNL A   1      41.547  25.821  28.100  1.00  0.00     0.029 A 
ATOM     39  N   UNL A   1      43.187  27.340  28.147  1.00  0.00    -0.354 N 
ATOM     40  C   UNL A   1      47.232  26.264  26.990  1.00  0.00     0.074 A 
ATOM     41  C   UNL A   1      47.328  24.852  26.695  1.00  0.00     0.031 C 
ATOM     42  C   UNL A   1      41.007  26.984  28.497  1.00  0.00     0.029 A 
ATOM     43  C   UNL A   1      42.051  28.004  28.544  1.00  0.00     0.049 A 
ATOM     44  H   UNL A   1      44.071  27.772  28.088  1.00  0.00     0.167 HD
ATOM     45  C   UNL A   1      48.273  27.128  26.931  1.00  0.00     0.031 A 
ATOM     46  C   UNL A   1      41.874  29.291  28.900  1.00  0.00     0.031 A 
ATOM     47  C   UNL A   1      48.166  28.529  27.232  1.00  0.00     0.049 A 
ATOM     48  C   UNL A   1      43.051  30.227  28.845  1.00  0.00     0.074 A 
ATOM     49  C   UNL A   1      49.151  29.500  27.177  1.00  0.00     0.029 A 
ATOM     50  N   UNL A   1      47.004  29.159  27.653  1.00  0.00    -0.354 N 
ATOM     51  N   UNL A   1      44.287  29.975  28.481  1.00  0.00    -0.248 NA
ATOM     52  C   UNL A   1      42.807  31.623  29.232  1.00  0.00     0.031 C 
ATOM     53  C   UNL A   1      48.594  30.707  27.612  1.00  0.00     0.029 A 
ATOM     54  C   UNL A   1      47.250  30.500  27.884  1.00  0.00     0.049 A 
ATOM     55  H   UNL A   1      46.132  28.716  27.769  1.00  0.00     0.167 HD
ATOM     56  C   UNL A   1      44.964  31.185  28.576  1.00  0.00     0.074 A 
ATOM     57  C   UNL A   1      43.995  32.171  29.012  1.00  0.00     0.031 C 
ATOM     58  C   UNL A   1      46.268  31.459  28.324  1.00  0.00     0.031 A 
BRANCH  45  59
ATOM     59  C   UNL A   1      49.616  26.569  26.542  1.00  0.00    -0.014 A 
ATOM     60  C   UNL A   1      50.032  26.539  25.198  1.00  0.00     0.010 A 
ATOM     61  C   UNL A   1      50.486  26.088  27.537  1.00  0.00     0.010 A 
ATOM     62  C   UNL A   1      51.274  26.000  24.852  1.00  0.00     0.020 A 
ATOM     63  C   UNL A   1      51.741  25.571  27.198  1.00  0.00     0.020 A 
ATOM     64  C   UNL A   1      52.118  25.515  25.855  1.00  0.00     0.054 A 
BRANCH  64  65
ATOM     65  S   UNL A   1      53.732  24.835  25.381  1.00  0.00     0.124 S 
ATOM     66  O   UNL A   1      54.089  25.675  24.240  1.00  0.00    -0.237 OA
ATOM     67  O   UNL A   1      54.533  25.039  26.585  1.00  0.00    -0.237 OA
ATOM     68  O   UNL A   1      53.441  23.440  25.060  1.00  0.00    -0.744 OA
ENDBRANCH  64  65
ENDBRANCH  45  59
BRANCH  46  69
ATOM     69  C   UNL A   1      40.529  29.765  29.325  1.00  0.00    -0.014 A 
ATOM     70  C   UNL A   1      39.523  30.025  28.379  1.00  0.00     0.010 A 
ATOM     71  C   UNL A   1      40.243  29.941  30.692  1.00  0.00     0.010 A 
ATOM     72  C   UNL A   1      38.261  30.466  28.790  1.00  0.00     0.020 A 
ATOM     73  C   UNL A   1      38.976  30.356  31.108  1.00  0.00     0.020 A 
ATOM     74  C   UNL A   1      37.995  30.628  30.152  1.00  0.00     0.054 A 
BRANCH  74  75
ATOM     75  S   UNL A   1      36.335  31.149  30.668  1.00  0.00     0.124 S 
ATOM     76  O   UNL A   1      35.987  30.124  31.648  1.00  0.00    -0.237 OA
ATOM     77  O   UNL A   1      36.575  32.485  31.206  1.00  0.00    -0.237 OA
ATOM     78  O   UNL A   1      35.566  31.116  29.426  1.00  0.00    -0.744 OA
ENDBRANCH  74  75
ENDBRANCH  46  69
BRANCH  58  79
ATOM     79  C   UNL A   1      46.718  32.885  28.495  1.00  0.00    -0.014 A 
ATOM     80  C   UNL A   1      47.305  33.322  29.695  1.00  0.00     0.010 A 
ATOM     81  C   UNL A   1      46.604  33.782  27.417  1.00  0.00     0.010 A 
ATOM     82  C   UNL A   1      47.742  34.642  29.825  1.00  0.00     0.020 A 
ATOM     83  C   UNL A   1      47.063  35.095  27.535  1.00  0.00     0.020 A 
ATOM     84  C   UNL A   1      47.617  35.520  28.744  1.00  0.00     0.054 A 
BRANCH  84  85
ATOM     85  S   UNL A   1      48.232  37.218  28.922  1.00  0.00     0.124 S 
ATOM     86  O   UNL A   1      47.015  37.946  29.265  1.00  0.00    -0.237 OA
ATOM     87  O   UNL A   1      49.214  37.093  29.996  1.00  0.00    -0.237 OA
ATOM     88  O   UNL A   1      48.792  37.523  27.607  1.00  0.00    -0.744 OA
ENDBRANCH  84  85
ENDBRANCH  58  79
ENDBRANCH  32  33
ENDBRANCH  25  27
ENDBRANCH  24  25
ENDBRANCH  23  24
ENDBRANCH  22  23
ENDBRANCH   1  22
TORSDOF 22
ENDMDL
MODEL 2
REMARK VINA RESULT:      -8.9      1.317      8.518
REMARK SMILES C=CC[N@H+](CC(=O)OCCOCCOC(=O)c1ccc(-c2c3nc(c(-c4ccc(S(=O)(=O)[O-])cc4)c4ccc([nH]4)c(-c4ccc(S(=O)(=O)[O-])cc4)c4nc(c(-c5ccc(S(=O)(=O)[O-])cc5)c5ccc2[nH]5)C=C4)C=C3)cc1)[C@@H]1CC[N@@H+](C(C)C)C1
REMARK SMILES IDX 11 1 10 2 9 3 8 4 6 5 7 6 5 7 4 8 3 10 2 11 1 12 77 13 78 14
REMARK SMILES IDX 84 15 79 16 80 17 81 19 82 20 83 21 12 22 13 23 14 24 15 25
REMARK SMILES IDX 16 26 17 27 18 28 76 29 19 30 75 31 20 32 21 33 22 34 69 35
REMARK SMILES IDX 23 36 74 37 68 38 70 39 24 40 73 41 67 42 66 43 25 45 55 46
REMARK SMILES IDX 36 47 54 48 37 49 40 50 53 51 71 52 38 53 39 54 52 56 72 57
REMARK SMILES IDX 41 58 26 59 27 60 35 61 28 62 34 63 29 64 30 65 31 66 32 67
REMARK SMILES IDX 33 68 56 69 57 70 65 71 58 72 64 73 59 74 60 75 61 76 62 77
REMARK SMILES IDX 63 78 42 79 43 80 51 81 44 82 50 83 45 84 46 85 47 86 48 87
REMARK SMILES IDX 49 88
REMARK H PARENT 4 9 80 18 70 44 40 55
REMARK Flexibility Score: inf
ROOT
ATOM      1  O   UNL A   1      37.456  20.106  24.821  1.00  0.00    -0.374 OA
ENDROOT
BRANCH   1   2
ATOM      2  C   UNL A   1      36.340  20.967  25.023  1.00  0.00     0.202 C 
BRANCH   2   3
ATOM      3  C   UNL A   1      36.825  22.349  25.466  1.00  0.00     0.261 C 
BRANCH   3   4
ATOM      4  O   UNL A   1      35.877  22.987  26.345  1.00  0.00    -0.459 OA
BRANCH   4   5
ATOM      5  C   UNL A   1      34.887  23.708  25.753  1.00  0.00     0.361 C 
ATOM      6  O   UNL A   1      35.047  24.427  24.768  1.00  0.00    -0.245 OA
BRANCH   5   7
ATOM      7  C   UNL A   1      33.508  23.586  26.419  1.00  0.00     0.387 C 
BRANCH   7   8
ATOM      8  N   UNL A   1      32.322  23.522  25.516  1.00  0.00    -0.315 N 
ATOM      9  H   UNL A   1      32.526  23.716  24.536  1.00  0.00     0.349 HD
BRANCH   8  10
ATOM     10  C   UNL A   1      31.864  22.133  25.378  1.00  0.00     0.291 C 
BRANCH  10  11
ATOM     11  C   UNL A   1      32.401  21.242  24.303  1.00  0.00     0.025 C 
ATOM     12  C   UNL A   1      32.273  21.490  22.991  1.00  0.00     0.010 C 
ENDBRANCH  10  11
ENDBRANCH   8  10
BRANCH   8  13
ATOM     13  C   UNL A   1      31.402  24.669  25.732  1.00  0.00     0.246 C 
ATOM     14  C   UNL A   1      30.753  25.374  24.535  1.00  0.00     0.132 C 
ATOM     15  C   UNL A   1      32.185  25.934  26.251  1.00  0.00     0.328 C 
ATOM     16  C   UNL A   1      31.910  26.112  23.895  1.00  0.00     0.269 C 
ATOM     17  N   UNL A   1      32.676  26.606  25.040  1.00  0.00    -0.328 N 
ATOM     18  H   UNL A   1      33.656  26.334  24.967  1.00  0.00     0.348 HD
BRANCH  17  19
ATOM     19  C   UNL A   1      32.956  28.043  25.052  1.00  0.00     0.177 C 
ATOM     20  C   UNL A   1      33.887  28.511  26.176  1.00  0.00     0.075 C 
ATOM     21  C   UNL A   1      33.493  28.563  23.712  1.00  0.00     0.075 C 
ENDBRANCH  17  19
ENDBRANCH   8  13
ENDBRANCH   7   8
ENDBRANCH   5   7
ENDBRANCH   4   5
ENDBRANCH   3   4
ENDBRANCH   2   3
ENDBRANCH   1   2
BRANCH   1  22
ATOM     22  C   UNL A   1      38.703  20.522  25.379  1.00  0.00     0.202 C 
BRANCH  22  23
ATOM     23  C   UNL A   1      39.685  19.431  25.802  1.00  0.00     0.261 C 
BRANCH  23  24
ATOM     24  O   UNL A   1      41.041  19.763  25.488  1.00  0.00    -0.460 OA
BRANCH  24  25
ATOM     25  C   UNL A   1      41.889  19.804  26.537  1.00  0.00     0.338 C 
ATOM     26  O   UNL A   1      42.190  18.918  27.314  1.00  0.00    -0.246 OA
BRANCH  25  27
ATOM     27  C   UNL A   1      42.296  21.203  26.691  1.00  0.00     0.060 A 
ATOM     28  C   UNL A   1      42.313  22.060  25.590  1.00  0.00     0.016 A 
ATOM     29  C   UNL A   1      42.659  21.648  27.965  1.00  0.00     0.016 A 
ATOM     30  C   UNL A   1      42.750  23.369  25.762  1.00  0.00     0.010 A 
ATOM     31  C   UNL A   1      43.046  22.971  28.142  1.00  0.00     0.010 A 
ATOM     32  C   UNL A   1      43.133  23.828  27.033  1.00  0.00    -0.014 A 
BRANCH  32  33
ATOM     33  C   UNL A   1      43.714  25.181  27.175  1.00  0.00     0.031 A 
ATOM     34  C   UNL A   1      42.865  26.292  27.727  1.00  0.00     0.074 A 
ATOM     35  C   UNL A   1      45.002  25.392  26.851  1.00  0.00     0.049 A 
ATOM     36  N   UNL A   1      43.203  27.521  28.017  1.00  0.00    -0.248 NA
ATOM     37  C   UNL A   1      41.447  25.984  27.983  1.00  0.00     0.031 C 
ATOM     38  C   UNL A   1      45.909  24.385  26.296  1.00  0.00     0.029 A 
ATOM     39  N   UNL A   1      45.776  26.518  26.958  1.00  0.00    -0.354 N 
ATOM     40  C   UNL A   1      42.046  28.130  28.489  1.00  0.00     0.074 A 
ATOM     41  C   UNL A   1      40.985  27.152  28.403  1.00  0.00     0.031 C 
ATOM     42  C   UNL A   1      47.125  24.932  26.139  1.00  0.00     0.029 A 
ATOM     43  C   UNL A   1      47.078  26.330  26.558  1.00  0.00     0.049 A 
ATOM     44  H   UNL A   1      45.433  27.379  27.290  1.00  0.00     0.167 HD
ATOM     45  C   UNL A   1      41.887  29.387  28.967  1.00  0.00     0.031 A 
ATOM     46  C   UNL A   1      48.115  27.189  26.539  1.00  0.00     0.031 A 
ATOM     47  C   UNL A   1      42.949  30.352  29.042  1.00  0.00     0.049 A 
ATOM     48  C   UNL A   1      47.908  28.587  27.056  1.00  0.00     0.074 A 
ATOM     49  C   UNL A   1      42.905  31.645  29.534  1.00  0.00     0.029 A 
ATOM     50  N   UNL A   1      44.247  30.132  28.606  1.00  0.00    -0.354 N 
ATOM     51  N   UNL A   1      46.821  29.129  27.554  1.00  0.00    -0.248 NA
ATOM     52  C   UNL A   1      49.070  29.485  27.025  1.00  0.00     0.031 C 
ATOM     53  C   UNL A   1      44.166  32.222  29.350  1.00  0.00     0.029 A 
ATOM     54  C   UNL A   1      45.009  31.271  28.794  1.00  0.00     0.049 A 
ATOM     55  H   UNL A   1      44.578  29.289  28.218  1.00  0.00     0.167 HD
ATOM     56  C   UNL A   1      47.172  30.424  27.915  1.00  0.00     0.074 A 
ATOM     57  C   UNL A   1      48.578  30.577  27.595  1.00  0.00     0.031 C 
ATOM     58  C   UNL A   1      46.405  31.399  28.461  1.00  0.00     0.031 A 
BRANCH  45  59
ATOM     59  C   UNL A   1      40.509  29.785  29.424  1.00  0.00    -0.014 A 
ATOM     60  C   UNL A   1      39.502  30.117  28.499  1.00  0.00     0.010 A 
ATOM     61  C   UNL A   1      40.208  29.805  30.798  1.00  0.00     0.010 A 
ATOM     62  C   UNL A   1      38.234  30.503  28.940  1.00  0.00     0.020 A 
ATOM     63  C   UNL A   1      38.932  30.164  31.243  1.00  0.00     0.020 A 
ATOM     64  C   UNL A   1      37.958  30.528  30.311  1.00  0.00     0.054 A 
BRANCH  64  65
ATOM     65  S   UNL A   1      36.299  31.016  30.858  1.00  0.00     0.124 S 
ATOM     66  O   UNL A   1      35.523  30.872  29.628  1.00  0.00    -0.237 OA
ATOM     67  O   UNL A   1      36.005  30.040  31.903  1.00  0.00    -0.237 OA
ATOM     68  O   UNL A   1      36.476  32.389  31.324  1.00  0.00    -0.744 OA
ENDBRANCH  64  65
ENDBRANCH  45  59
BRANCH  46  69
ATOM     69  C   UNL A   1      49.438  26.745  26.023  1.00  0.00    -0.014 A 
ATOM     70  C   UNL A   1      49.850  27.072  24.719  1.00  0.00     0.010 A 
ATOM     71  C   UNL A   1      50.303  26.004  26.847  1.00  0.00     0.010 A 
ATOM     72  C   UNL A   1      51.097  26.652  24.245  1.00  0.00     0.020 A 
ATOM     73  C   UNL A   1      51.561  25.605  26.386  1.00  0.00     0.020 A 
ATOM     74  C   UNL A   1      51.945  25.922  25.082  1.00  0.00     0.054 A 
BRANCH  74  75
ATOM     75  S   UNL A   1      53.581  25.435  24.467  1.00  0.00     0.124 S 
ATOM     76  O   UNL A   1      53.500  25.810  23.059  1.00  0.00    -0.237 OA
ATOM     77  O   UNL A   1      54.482  26.242  25.287  1.00  0.00    -0.237 OA
ATOM     78  O   UNL A   1      53.632  23.998  24.732  1.00  0.00    -0.744 OA
ENDBRANCH  74  75
ENDBRANCH  46  69
BRANCH  58  79
ATOM     79  C   UNL A   1      47.075  32.712  28.767  1.00  0.00    -0.014 A 
ATOM     80  C   UNL A   1      47.721  32.928  29.997  1.00  0.00     0.010 A 
ATOM     81  C   UNL A   1      47.108  33.719  27.785  1.00  0.00     0.010 A 
ATOM     82  C   UNL A   1      48.362  34.143  30.251  1.00  0.00     0.020 A 
ATOM     83  C   UNL A   1      47.770  34.924  28.026  1.00  0.00     0.020 A 
ATOM     84  C   UNL A   1      48.381  35.134  29.264  1.00  0.00     0.054 A 
BRANCH  84  85
ATOM     85  S   UNL A   1      49.256  36.686  29.602  1.00  0.00     0.124 S 
ATOM     86  O   UNL A   1      48.796  37.007  30.949  1.00  0.00    -0.237 OA
ATOM     87  O   UNL A   1      50.659  36.294  29.493  1.00  0.00    -0.237 OA
ATOM     88  O   UNL A   1      48.784  37.585  28.551  1.00  0.00    -0.744 OA
ENDBRANCH  84  85
ENDBRANCH  58  79
ENDBRANCH  32  33
ENDBRANCH  25  27
ENDBRANCH  24  25
ENDBRANCH  23  24
ENDBRANCH  22  23
ENDBRANCH   1  22
TORSDOF 22
ENDMDL
MODEL 3
REMARK VINA RESULT:      -8.5      2.248      3.332
REMARK SMILES C=CC[N@H+](CC(=O)OCCOCCOC(=O)c1ccc(-c2c3nc(c(-c4ccc(S(=O)(=O)[O-])cc4)c4ccc([nH]4)c(-c4ccc(S(=O)(=O)[O-])cc4)c4nc(c(-c5ccc(S(=O)(=O)[O-])cc5)c5ccc2[nH]5)C=C4)C=C3)cc1)[C@@H]1CC[N@@H+](C(C)C)C1
REMARK SMILES IDX 11 1 10 2 9 3 8 4 6 5 7 6 5 7 4 8 3 10 2 11 1 12 77 13 78 14
REMARK SMILES IDX 84 15 79 16 80 17 81 19 82 20 83 21 12 22 13 23 14 24 15 25
REMARK SMILES IDX 16 26 17 27 18 28 76 29 19 30 75 31 20 32 21 33 22 34 69 35
REMARK SMILES IDX 23 36 74 37 68 38 70 39 24 40 73 41 67 42 66 43 25 45 55 46
REMARK SMILES IDX 36 47 54 48 37 49 40 50 53 51 71 52 38 53 39 54 52 56 72 57
REMARK SMILES IDX 41 58 26 59 27 60 35 61 28 62 34 63 29 64 30 65 31 66 32 67
REMARK SMILES IDX 33 68 56 69 57 70 65 71 58 72 64 73 59 74 60 75 61 76 62 77
REMARK SMILES IDX 63 78 42 79 43 80 51 81 44 82 50 83 45 84 46 85 47 86 48 87
REMARK SMILES IDX 49 88
REMARK H PARENT 4 9 80 18 70 44 40 55
REMARK Flexibility Score: inf
ROOT
ATOM      1  O   UNL A   1      36.600  20.595  24.963  1.00  0.00    -0.374 OA
ENDROOT
BRANCH   1   2
ATOM      2  C   UNL A   1      35.195  20.812  25.039  1.00  0.00     0.202 C 
BRANCH   2   3
ATOM      3  C   UNL A   1      34.834  21.391  26.409  1.00  0.00     0.261 C 
BRANCH   3   4
ATOM      4  O   UNL A   1      33.427  21.693  26.502  1.00  0.00    -0.459 OA
BRANCH   4   5
ATOM      5  C   UNL A   1      33.058  22.969  26.208  1.00  0.00     0.361 C 
ATOM      6  O   UNL A   1      33.744  23.962  26.444  1.00  0.00    -0.245 OA
BRANCH   5   7
ATOM      7  C   UNL A   1      31.673  23.111  25.557  1.00  0.00     0.387 C 
BRANCH   7   8
ATOM      8  N   UNL A   1      31.502  24.205  24.557  1.00  0.00    -0.315 N 
ATOM      9  H   UNL A   1      32.303  24.832  24.476  1.00  0.00     0.349 HD
BRANCH   8  10
ATOM     10  C   UNL A   1      31.512  23.655  23.196  1.00  0.00     0.291 C 
BRANCH  10  11
ATOM     11  C   UNL A   1      32.424  22.531  22.818  1.00  0.00     0.025 C 
ATOM     12  C   UNL A   1      32.009  21.277  22.580  1.00  0.00     0.010 C 
ENDBRANCH  10  11
ENDBRANCH   8  10
BRANCH   8  13
ATOM     13  C   UNL A   1      30.527  25.227  25.020  1.00  0.00     0.246 C 
ATOM     14  C   UNL A   1      30.146  26.399  24.108  1.00  0.00     0.132 C 
ATOM     15  C   UNL A   1      31.139  26.116  26.167  1.00  0.00     0.328 C 
ATOM     16  C   UNL A   1      31.398  27.252  24.093  1.00  0.00     0.269 C 
ATOM     17  N   UNL A   1      31.873  27.186  25.476  1.00  0.00    -0.328 N 
ATOM     18  H   UNL A   1      32.851  26.899  25.511  1.00  0.00     0.348 HD
BRANCH  17  19
ATOM     19  C   UNL A   1      32.105  28.472  26.136  1.00  0.00     0.177 C 
ATOM     20  C   UNL A   1      31.628  29.698  25.349  1.00  0.00     0.075 C 
ATOM     21  C   UNL A   1      31.523  28.533  27.554  1.00  0.00     0.075 C 
ENDBRANCH  17  19
ENDBRANCH   8  13
ENDBRANCH   7   8
ENDBRANCH   5   7
ENDBRANCH   4   5
ENDBRANCH   3   4
ENDBRANCH   2   3
ENDBRANCH   1   2
BRANCH   1  22
ATOM     22  C   UNL A   1      37.444  21.709  25.260  1.00  0.00     0.202 C 
BRANCH  22  23
ATOM     23  C   UNL A   1      38.868  21.411  25.724  1.00  0.00     0.261 C 
BRANCH  23  24
ATOM     24  O   UNL A   1      39.536  22.573  26.223  1.00  0.00    -0.460 OA
BRANCH  24  25
ATOM     25  C   UNL A   1      40.384  22.362  27.251  1.00  0.00     0.338 C 
ATOM     26  O   UNL A   1      40.553  21.354  27.911  1.00  0.00    -0.246 OA
BRANCH  25  27
ATOM     27  C   UNL A   1      40.996  23.657  27.561  1.00  0.00     0.060 A 
ATOM     28  C   UNL A   1      41.831  23.798  28.670  1.00  0.00     0.016 A 
ATOM     29  C   UNL A   1      40.724  24.734  26.713  1.00  0.00     0.016 A 
ATOM     30  C   UNL A   1      42.357  25.052  28.962  1.00  0.00     0.010 A 
ATOM     31  C   UNL A   1      41.294  25.974  26.979  1.00  0.00     0.010 A 
ATOM     32  C   UNL A   1      42.081  26.149  28.129  1.00  0.00    -0.014 A 
BRANCH  32  33
ATOM     33  C   UNL A   1      42.544  27.498  28.523  1.00  0.00     0.031 A 
ATOM     34  C   UNL A   1      44.005  27.835  28.412  1.00  0.00     0.074 A 
ATOM     35  C   UNL A   1      41.651  28.417  28.932  1.00  0.00     0.049 A 
ATOM     36  N   UNL A   1      44.603  28.980  28.617  1.00  0.00    -0.248 NA
ATOM     37  C   UNL A   1      44.915  26.743  28.026  1.00  0.00     0.031 C 
ATOM     38  C   UNL A   1      40.213  28.187  29.085  1.00  0.00     0.029 A 
ATOM     39  N   UNL A   1      41.819  29.732  29.276  1.00  0.00    -0.354 N 
ATOM     40  C   UNL A   1      45.953  28.746  28.384  1.00  0.00     0.074 A 
ATOM     41  C   UNL A   1      46.094  27.342  28.069  1.00  0.00     0.031 C 
ATOM     42  C   UNL A   1      39.626  29.334  29.465  1.00  0.00     0.029 A 
ATOM     43  C   UNL A   1      40.646  30.369  29.605  1.00  0.00     0.049 A 
ATOM     44  H   UNL A   1      42.697  30.180  29.286  1.00  0.00     0.167 HD
ATOM     45  C   UNL A   1      46.980  29.628  28.413  1.00  0.00     0.031 A 
ATOM     46  C   UNL A   1      40.422  31.646  29.972  1.00  0.00     0.031 A 
ATOM     47  C   UNL A   1      46.828  31.020  28.733  1.00  0.00     0.049 A 
ATOM     48  C   UNL A   1      41.584  32.601  30.017  1.00  0.00     0.074 A 
ATOM     49  C   UNL A   1      47.797  32.008  28.765  1.00  0.00     0.029 A 
ATOM     50  N   UNL A   1      45.628  31.623  29.083  1.00  0.00    -0.354 N 
ATOM     51  N   UNL A   1      42.847  32.378  29.736  1.00  0.00    -0.248 NA
ATOM     52  C   UNL A   1      41.289  33.986  30.412  1.00  0.00     0.031 C 
ATOM     53  C   UNL A   1      47.189  33.198  29.183  1.00  0.00     0.029 A 
ATOM     54  C   UNL A   1      45.834  32.963  29.357  1.00  0.00     0.049 A 
ATOM     55  H   UNL A   1      44.759  31.163  29.130  1.00  0.00     0.167 HD
ATOM     56  C   UNL A   1      43.494  33.597  29.900  1.00  0.00     0.074 A 
ATOM     57  C   UNL A   1      42.479  34.557  30.286  1.00  0.00     0.031 C 
ATOM     58  C   UNL A   1      44.807  33.896  29.745  1.00  0.00     0.031 A 
BRANCH  45  59
ATOM     59  C   UNL A   1      48.357  29.098  28.109  1.00  0.00    -0.014 A 
ATOM     60  C   UNL A   1      48.834  29.026  26.787  1.00  0.00     0.010 A 
ATOM     61  C   UNL A   1      49.196  28.689  29.161  1.00  0.00     0.010 A 
ATOM     62  C   UNL A   1      50.106  28.515  26.520  1.00  0.00     0.020 A 
ATOM     63  C   UNL A   1      50.480  28.202  28.900  1.00  0.00     0.020 A 
ATOM     64  C   UNL A   1      50.920  28.102  27.579  1.00  0.00     0.054 A 
BRANCH  64  65
ATOM     65  S   UNL A   1      52.574  27.457  27.207  1.00  0.00     0.124 S 
ATOM     66  O   UNL A   1      52.516  26.120  27.794  1.00  0.00    -0.237 OA
ATOM     67  O   UNL A   1      52.615  27.499  25.747  1.00  0.00    -0.237 OA
ATOM     68  O   UNL A   1      53.471  28.393  27.879  1.00  0.00    -0.744 OA
ENDBRANCH  64  65
ENDBRANCH  45  59
BRANCH  46  69
ATOM     69  C   UNL A   1      39.043  32.089  30.311  1.00  0.00    -0.014 A 
ATOM     70  C   UNL A   1      38.159  32.528  29.310  1.00  0.00     0.010 A 
ATOM     71  C   UNL A   1      38.600  32.055  31.646  1.00  0.00     0.010 A 
ATOM     72  C   UNL A   1      36.864  32.939  29.640  1.00  0.00     0.020 A 
ATOM     73  C   UNL A   1      37.298  32.440  31.976  1.00  0.00     0.020 A 
ATOM     74  C   UNL A   1      36.441  32.891  30.971  1.00  0.00     0.054 A 
BRANCH  74  75
ATOM     75  S   UNL A   1      34.739  33.376  31.370  1.00  0.00     0.124 S 
ATOM     76  O   UNL A   1      34.305  32.279  32.230  1.00  0.00    -0.237 OA
ATOM     77  O   UNL A   1      34.923  34.665  32.032  1.00  0.00    -0.237 OA
ATOM     78  O   UNL A   1      34.087  33.444  30.063  1.00  0.00    -0.744 OA
ENDBRANCH  74  75
ENDBRANCH  46  69
BRANCH  58  79
ATOM     79  C   UNL A   1      45.218  35.326  29.974  1.00  0.00    -0.014 A 
ATOM     80  C   UNL A   1      45.644  35.765  31.240  1.00  0.00     0.010 A 
ATOM     81  C   UNL A   1      45.235  36.224  28.892  1.00  0.00     0.010 A 
ATOM     82  C   UNL A   1      46.049  37.089  31.426  1.00  0.00     0.020 A 
ATOM     83  C   UNL A   1      45.664  37.541  29.069  1.00  0.00     0.020 A 
ATOM     84  C   UNL A   1      46.055  37.968  30.339  1.00  0.00     0.054 A 
BRANCH  84  85
ATOM     85  S   UNL A   1      46.626  39.670  30.597  1.00  0.00     0.124 S 
ATOM     86  O   UNL A   1      47.777  39.475  31.473  1.00  0.00    -0.237 OA
ATOM     87  O   UNL A   1      46.937  40.114  29.240  1.00  0.00    -0.237 OA
ATOM     88  O   UNL A   1      45.478  40.331  31.213  1.00  0.00    -0.744 OA
ENDBRANCH  84  85
ENDBRANCH  58  79
ENDBRANCH  32  33
ENDBRANCH  25  27
ENDBRANCH  24  25
ENDBRANCH  23  24
ENDBRANCH  22  23
ENDBRANCH   1  22
TORSDOF 22
ENDMDL
