MODEL 1
REMARK VINA RESULT:      -9.0      0.000      0.000
REMARK SMILES COc1ccc([C@H]2CC(c3ccc(S(C)(=O)=O)cc3)=NN2c2ccc(C(=O)OCCOCCOC(=O)c3ccc(-c4c5nc(c(-c6ccc(S(=O)(=O)[O-])cc6)c6ccc([nH]6)c(-c6ccc(S(=O)(=O)[O-])cc6)c6nc(c(-c7ccc(S(=O)(=O)[O-])cc7)c7ccc4[nH]7)C=C6)C=C5)cc3)cc2)cc1
REMARK SMILES IDX 31 1 30 2 29 3 28 4 26 5 27 6 25 7 22 8 23 9 98 10 24 11
REMARK SMILES IDX 97 12 21 13 7 14 8 15 9 16 20 17 6 18 3 19 4 20 100 21 5 22
REMARK SMILES IDX 99 23 2 24 1 25 10 26 11 27 19 28 12 29 18 30 13 31 14 32
REMARK SMILES IDX 15 33 16 34 17 35 32 36 33 37 34 38 35 39 36 40 37 41 38 42
REMARK SMILES IDX 96 43 39 44 95 45 40 46 41 47 42 48 89 49 43 50 94 51 88 52
REMARK SMILES IDX 90 53 44 54 93 55 87 56 86 57 45 59 75 60 56 61 74 62 57 63
REMARK SMILES IDX 60 64 73 65 91 66 58 67 59 68 72 70 92 71 61 72 46 73 47 74
REMARK SMILES IDX 55 75 48 76 54 77 49 78 50 79 51 80 52 81 53 82 76 83 77 84
REMARK SMILES IDX 85 85 78 86 84 87 79 88 80 89 81 90 82 91 83 92 62 93 63 94
REMARK SMILES IDX 71 95 64 96 70 97 65 98 66 99 67 100 68 101 69 102
REMARK H PARENT 90 58 60 69
REMARK Flexibility Score: inf
ROOT
ATOM      1  O   UNL A   1      34.659  33.593  27.702  1.00  0.00    -0.374 OA
ENDROOT
BRANCH   1   2
ATOM      2  C   UNL A   1      34.608  34.733  28.562  1.00  0.00     0.202 C 
BRANCH   2   3
ATOM      3  C   UNL A   1      33.665  34.628  29.765  1.00  0.00     0.261 C 
BRANCH   3   4
ATOM      4  O   UNL A   1      34.235  35.239  30.935  1.00  0.00    -0.460 OA
BRANCH   4   5
ATOM      5  C   UNL A   1      34.036  34.555  32.087  1.00  0.00     0.338 C 
ATOM      6  O   UNL A   1      32.961  34.289  32.607  1.00  0.00    -0.246 OA
BRANCH   5   7
ATOM      7  C   UNL A   1      35.316  34.011  32.589  1.00  0.00     0.060 A 
ATOM      8  C   UNL A   1      37.863  33.123  33.389  1.00  0.00     0.060 A 
ATOM      9  C   UNL A   1      37.546  34.486  33.402  1.00  0.00     0.029 A 
ATOM     10  C   UNL A   1      36.852  32.208  33.050  1.00  0.00     0.029 A 
ATOM     11  C   UNL A   1      36.295  34.931  32.978  1.00  0.00     0.018 A 
ATOM     12  C   UNL A   1      35.577  32.642  32.668  1.00  0.00     0.018 A 
BRANCH   8  13
ATOM     13  N   UNL A   1      39.169  32.703  33.623  1.00  0.00    -0.257 N 
ATOM     14  C   UNL A   1      39.926  33.123  34.807  1.00  0.00     0.144 C 
ATOM     15  C   UNL A   1      41.165  32.223  34.752  1.00  0.00     0.091 C 
ATOM     16  C   UNL A   1      40.830  31.382  33.553  1.00  0.00     0.071 C 
ATOM     17  N   UNL A   1      39.709  31.643  32.960  1.00  0.00    -0.176 NA
BRANCH  14  18
ATOM     18  C   UNL A   1      39.137  32.961  36.101  1.00  0.00    -0.023 A 
ATOM     19  C   UNL A   1      37.663  32.721  38.500  1.00  0.00     0.118 A 
ATOM     20  C   UNL A   1      38.214  33.947  38.125  1.00  0.00     0.047 A 
ATOM     21  C   UNL A   1      37.818  31.620  37.661  1.00  0.00     0.047 A 
ATOM     22  C   UNL A   1      38.951  34.067  36.943  1.00  0.00     0.010 A 
ATOM     23  C   UNL A   1      38.544  31.740  36.469  1.00  0.00     0.010 A 
BRANCH  19  24
ATOM     24  O   UNL A   1      36.968  32.737  39.678  1.00  0.00    -0.497 OA
ATOM     25  C   UNL A   1      35.573  32.483  39.587  1.00  0.00     0.278 C 
ENDBRANCH  19  24
ENDBRANCH  14  18
BRANCH  16  26
ATOM     26  C   UNL A   1      41.777  30.372  33.065  1.00  0.00    -0.002 A 
ATOM     27  C   UNL A   1      41.402  29.026  33.128  1.00  0.00     0.011 A 
ATOM     28  C   UNL A   1      43.009  30.751  32.526  1.00  0.00     0.011 A 
ATOM     29  C   UNL A   1      42.260  28.045  32.628  1.00  0.00     0.021 A 
ATOM     30  C   UNL A   1      43.880  29.768  32.051  1.00  0.00     0.021 A 
ATOM     31  C   UNL A   1      43.501  28.421  32.103  1.00  0.00     0.067 A 
BRANCH  31  32
ATOM     32  S   UNL A   1      44.592  27.166  31.476  1.00  0.00     0.175 S 
ATOM     33  C   UNL A   1      45.532  26.655  32.891  1.00  0.00     0.163 C 
ATOM     34  O   UNL A   1      43.759  26.057  31.053  1.00  0.00    -0.224 OA
ATOM     35  O   UNL A   1      45.511  27.804  30.551  1.00  0.00    -0.224 OA
ENDBRANCH  31  32
ENDBRANCH  16  26
ENDBRANCH   8  13
ENDBRANCH   5   7
ENDBRANCH   4   5
ENDBRANCH   3   4
ENDBRANCH   2   3
ENDBRANCH   1   2
BRANCH   1  36
ATOM     36  C   UNL A   1      34.072  32.388  28.202  1.00  0.00     0.202 C 
BRANCH  36  37
ATOM     37  C   UNL A   1      34.966  31.143  28.177  1.00  0.00     0.261 C 
BRANCH  37  38
ATOM     38  O   UNL A   1      36.172  31.336  28.938  1.00  0.00    -0.460 OA
BRANCH  38  39
ATOM     39  C   UNL A   1      36.504  30.306  29.752  1.00  0.00     0.338 C 
ATOM     40  O   UNL A   1      35.798  29.782  30.605  1.00  0.00    -0.246 OA
BRANCH  39  41
ATOM     41  C   UNL A   1      37.810  29.749  29.352  1.00  0.00     0.060 A 
ATOM     42  C   UNL A   1      38.660  29.301  30.371  1.00  0.00     0.016 A 
ATOM     43  C   UNL A   1      38.224  29.716  28.019  1.00  0.00     0.016 A 
ATOM     44  C   UNL A   1      39.948  28.867  30.066  1.00  0.00     0.010 A 
ATOM     45  C   UNL A   1      39.522  29.286  27.716  1.00  0.00     0.010 A 
ATOM     46  C   UNL A   1      40.401  28.894  28.741  1.00  0.00    -0.014 A 
BRANCH  46  47
ATOM     47  C   UNL A   1      41.832  28.640  28.449  1.00  0.00     0.031 A 
ATOM     48  C   UNL A   1      42.263  27.257  28.045  1.00  0.00     0.074 A 
ATOM     49  C   UNL A   1      42.735  29.634  28.523  1.00  0.00     0.049 A 
ATOM     50  N   UNL A   1      43.459  26.812  27.764  1.00  0.00    -0.248 NA
ATOM     51  C   UNL A   1      41.202  26.240  27.947  1.00  0.00     0.031 C 
ATOM     52  C   UNL A   1      42.438  31.023  28.872  1.00  0.00     0.029 A 
ATOM     53  N   UNL A   1      44.092  29.622  28.314  1.00  0.00    -0.354 N 
ATOM     54  C   UNL A   1      43.301  25.462  27.469  1.00  0.00     0.074 A 
ATOM     55  C   UNL A   1      41.895  25.157  27.628  1.00  0.00     0.031 C 
ATOM     56  C   UNL A   1      43.583  31.728  28.864  1.00  0.00     0.029 A 
ATOM     57  C   UNL A   1      44.694  30.836  28.540  1.00  0.00     0.049 A 
ATOM     58  H   UNL A   1      44.586  28.820  28.028  1.00  0.00     0.167 HD
ATOM     59  C   UNL A   1      44.240  24.559  27.095  1.00  0.00     0.031 A 
ATOM     60  C   UNL A   1      45.997  31.184  28.510  1.00  0.00     0.031 A 
ATOM     61  C   UNL A   1      45.639  24.864  26.947  1.00  0.00     0.049 A 
ATOM     62  C   UNL A   1      47.031  30.152  28.145  1.00  0.00     0.074 A 
ATOM     63  C   UNL A   1      46.663  24.025  26.545  1.00  0.00     0.029 A 
ATOM     64  N   UNL A   1      46.211  26.099  27.206  1.00  0.00    -0.354 N 
ATOM     65  N   UNL A   1      46.860  28.890  27.831  1.00  0.00    -0.248 NA
ATOM     66  C   UNL A   1      48.432  30.595  28.119  1.00  0.00     0.031 C 
ATOM     67  C   UNL A   1      47.864  24.738  26.614  1.00  0.00     0.029 A 
ATOM     68  C   UNL A   1      47.580  26.038  27.002  1.00  0.00     0.049 A 
ATOM     69  H   UNL A   1      45.719  26.902  27.492  1.00  0.00     0.167 HD
ATOM     70  C   UNL A   1      48.127  28.394  27.547  1.00  0.00     0.074 A 
ATOM     71  C   UNL A   1      49.054  29.495  27.715  1.00  0.00     0.031 C 
ATOM     72  C   UNL A   1      48.492  27.140  27.179  1.00  0.00     0.031 A 
BRANCH  59  73
ATOM     73  C   UNL A   1      43.786  23.143  26.861  1.00  0.00    -0.014 A 
ATOM     74  C   UNL A   1      43.055  22.437  27.832  1.00  0.00     0.010 A 
ATOM     75  C   UNL A   1      44.073  22.519  25.633  1.00  0.00     0.010 A 
ATOM     76  C   UNL A   1      42.655  21.119  27.597  1.00  0.00     0.020 A 
ATOM     77  C   UNL A   1      43.652  21.210  25.383  1.00  0.00     0.020 A 
ATOM     78  C   UNL A   1      42.961  20.511  26.376  1.00  0.00     0.054 A 
BRANCH  78  79
ATOM     79  S   UNL A   1      42.421  18.803  26.090  1.00  0.00     0.124 S 
ATOM     80  O   UNL A   1      42.648  18.194  27.399  1.00  0.00    -0.237 OA
ATOM     81  O   UNL A   1      41.021  18.969  25.709  1.00  0.00    -0.237 OA
ATOM     82  O   UNL A   1      43.303  18.334  25.024  1.00  0.00    -0.744 OA
ENDBRANCH  78  79
ENDBRANCH  59  73
BRANCH  60  83
ATOM     83  C   UNL A   1      46.395  32.575  28.860  1.00  0.00    -0.014 A 
ATOM     84  C   UNL A   1      46.749  32.915  30.176  1.00  0.00     0.010 A 
ATOM     85  C   UNL A   1      46.436  33.568  27.862  1.00  0.00     0.010 A 
ATOM     86  C   UNL A   1      47.131  34.223  30.490  1.00  0.00     0.020 A 
ATOM     87  C   UNL A   1      46.841  34.869  28.168  1.00  0.00     0.020 A 
ATOM     88  C   UNL A   1      47.179  35.190  29.483  1.00  0.00     0.054 A 
BRANCH  88  89
ATOM     89  S   UNL A   1      47.742  36.865  29.900  1.00  0.00     0.124 S 
ATOM     90  O   UNL A   1      47.236  37.644  28.775  1.00  0.00    -0.237 OA
ATOM     91  O   UNL A   1      47.088  37.106  31.183  1.00  0.00    -0.237 OA
ATOM     92  O   UNL A   1      49.195  36.728  29.966  1.00  0.00    -0.744 OA
ENDBRANCH  88  89
ENDBRANCH  60  83
BRANCH  72  93
ATOM     93  C   UNL A   1      49.951  26.893  26.900  1.00  0.00    -0.014 A 
ATOM     94  C   UNL A   1      50.816  26.421  27.902  1.00  0.00     0.010 A 
ATOM     95  C   UNL A   1      50.449  27.078  25.596  1.00  0.00     0.010 A 
ATOM     96  C   UNL A   1      52.160  26.168  27.615  1.00  0.00     0.020 A 
ATOM     97  C   UNL A   1      51.786  26.800  25.298  1.00  0.00     0.020 A 
ATOM     98  C   UNL A   1      52.637  26.359  26.314  1.00  0.00     0.054 A 
BRANCH  98  99
ATOM     99  S   UNL A   1      54.374  25.980  25.953  1.00  0.00     0.124 S 
ATOM    100  O   UNL A   1      54.764  25.201  27.125  1.00  0.00    -0.237 OA
ATOM    101  O   UNL A   1      54.288  25.233  24.701  1.00  0.00    -0.237 OA
ATOM    102  O   UNL A   1      55.000  27.296  25.843  1.00  0.00    -0.744 OA
ENDBRANCH  98  99
ENDBRANCH  72  93
ENDBRANCH  46  47
ENDBRANCH  39  41
ENDBRANCH  38  39
ENDBRANCH  37  38
ENDBRANCH  36  37
ENDBRANCH   1  36
TORSDOF 22
ENDMDL
MODEL 2
REMARK VINA RESULT:      -8.5      6.190     11.405
REMARK SMILES COc1ccc([C@H]2CC(c3ccc(S(C)(=O)=O)cc3)=NN2c2ccc(C(=O)OCCOCCOC(=O)c3ccc(-c4c5nc(c(-c6ccc(S(=O)(=O)[O-])cc6)c6ccc([nH]6)c(-c6ccc(S(=O)(=O)[O-])cc6)c6nc(c(-c7ccc(S(=O)(=O)[O-])cc7)c7ccc4[nH]7)C=C6)C=C5)cc3)cc2)cc1
REMARK SMILES IDX 31 1 30 2 29 3 28 4 26 5 27 6 25 7 22 8 23 9 98 10 24 11
REMARK SMILES IDX 97 12 21 13 7 14 8 15 9 16 20 17 6 18 3 19 4 20 100 21 5 22
REMARK SMILES IDX 99 23 2 24 1 25 10 26 11 27 19 28 12 29 18 30 13 31 14 32
REMARK SMILES IDX 15 33 16 34 17 35 32 36 33 37 34 38 35 39 36 40 37 41 38 42
REMARK SMILES IDX 96 43 39 44 95 45 40 46 41 47 42 48 89 49 43 50 94 51 88 52
REMARK SMILES IDX 90 53 44 54 93 55 87 56 86 57 45 59 75 60 56 61 74 62 57 63
REMARK SMILES IDX 60 64 73 65 91 66 58 67 59 68 72 70 92 71 61 72 46 73 47 74
REMARK SMILES IDX 55 75 48 76 54 77 49 78 50 79 51 80 52 81 53 82 76 83 77 84
REMARK SMILES IDX 85 85 78 86 84 87 79 88 80 89 81 90 82 91 83 92 62 93 63 94
REMARK SMILES IDX 71 95 64 96 70 97 65 98 66 99 67 100 68 101 69 102
REMARK H PARENT 90 58 60 69
REMARK Flexibility Score: inf
ROOT
ATOM      1  O   UNL A   1      38.486  30.962  28.926  1.00  0.00    -0.374 OA
ENDROOT
BRANCH   1   2
ATOM      2  C   UNL A   1      37.405  31.765  29.406  1.00  0.00     0.202 C 
BRANCH   2   3
ATOM      3  C   UNL A   1      36.015  31.123  29.352  1.00  0.00     0.261 C 
BRANCH   3   4
ATOM      4  O   UNL A   1      35.609  30.858  27.999  1.00  0.00    -0.460 OA
BRANCH   4   5
ATOM      5  C   UNL A   1      34.302  31.097  27.741  1.00  0.00     0.338 C 
ATOM      6  O   UNL A   1      33.712  32.163  27.860  1.00  0.00    -0.246 OA
BRANCH   5   7
ATOM      7  C   UNL A   1      33.672  29.908  27.127  1.00  0.00     0.060 A 
ATOM      8  C   UNL A   1      32.353  27.617  26.165  1.00  0.00     0.060 A 
ATOM      9  C   UNL A   1      31.625  28.698  26.677  1.00  0.00     0.029 A 
ATOM     10  C   UNL A   1      33.749  27.743  26.065  1.00  0.00     0.029 A 
ATOM     11  C   UNL A   1      32.278  29.821  27.181  1.00  0.00     0.018 A 
ATOM     12  C   UNL A   1      34.410  28.887  26.525  1.00  0.00     0.018 A 
BRANCH   8  13
ATOM     13  N   UNL A   1      31.710  26.425  25.847  1.00  0.00    -0.257 N 
ATOM     14  C   UNL A   1      30.347  26.389  25.309  1.00  0.00     0.144 C 
ATOM     15  C   UNL A   1      30.187  24.924  24.888  1.00  0.00     0.091 C 
ATOM     16  C   UNL A   1      31.561  24.405  25.206  1.00  0.00     0.071 C 
ATOM     17  N   UNL A   1      32.397  25.257  25.708  1.00  0.00    -0.176 NA
BRANCH  14  18
ATOM     18  C   UNL A   1      30.143  27.360  24.152  1.00  0.00    -0.023 A 
ATOM     19  C   UNL A   1      29.712  29.178  22.032  1.00  0.00     0.118 A 
ATOM     20  C   UNL A   1      28.643  28.721  22.803  1.00  0.00     0.047 A 
ATOM     21  C   UNL A   1      31.003  28.755  22.339  1.00  0.00     0.047 A 
ATOM     22  C   UNL A   1      28.852  27.815  23.847  1.00  0.00     0.010 A 
ATOM     23  C   UNL A   1      31.218  27.858  23.394  1.00  0.00     0.010 A 
BRANCH  19  24
ATOM     24  O   UNL A   1      29.374  30.059  21.041  1.00  0.00    -0.497 OA
ATOM     25  C   UNL A   1      28.208  30.840  21.267  1.00  0.00     0.278 C 
ENDBRANCH  19  24
ENDBRANCH  14  18
BRANCH  16  26
ATOM     26  C   UNL A   1      31.884  22.988  25.009  1.00  0.00    -0.002 A 
ATOM     27  C   UNL A   1      31.898  22.485  23.704  1.00  0.00     0.011 A 
ATOM     28  C   UNL A   1      32.197  22.169  26.097  1.00  0.00     0.011 A 
ATOM     29  C   UNL A   1      32.249  21.153  23.479  1.00  0.00     0.021 A 
ATOM     30  C   UNL A   1      32.521  20.828  25.877  1.00  0.00     0.021 A 
ATOM     31  C   UNL A   1      32.546  20.328  24.569  1.00  0.00     0.067 A 
BRANCH  31  32
ATOM     32  S   UNL A   1      32.983  18.630  24.277  1.00  0.00     0.175 S 
ATOM     33  C   UNL A   1      32.426  18.313  22.622  1.00  0.00     0.163 C 
ATOM     34  O   UNL A   1      34.431  18.559  24.296  1.00  0.00    -0.224 OA
ATOM     35  O   UNL A   1      32.183  17.810  25.168  1.00  0.00    -0.224 OA
ENDBRANCH  31  32
ENDBRANCH  16  26
ENDBRANCH   8  13
ENDBRANCH   5   7
ENDBRANCH   4   5
ENDBRANCH   3   4
ENDBRANCH   2   3
ENDBRANCH   1   2
BRANCH   1  36
ATOM     36  C   UNL A   1      38.367  29.550  29.116  1.00  0.00     0.202 C 
BRANCH  36  37
ATOM     37  C   UNL A   1      39.120  28.670  28.111  1.00  0.00     0.261 C 
BRANCH  37  38
ATOM     38  O   UNL A   1      39.885  27.643  28.768  1.00  0.00    -0.460 OA
BRANCH  38  39
ATOM     39  C   UNL A   1      40.729  26.958  27.962  1.00  0.00     0.338 C 
ATOM     40  O   UNL A   1      40.604  26.759  26.760  1.00  0.00    -0.246 OA
BRANCH  39  41
ATOM     41  C   UNL A   1      41.960  26.613  28.698  1.00  0.00     0.060 A 
ATOM     42  C   UNL A   1      42.583  27.633  29.429  1.00  0.00     0.016 A 
ATOM     43  C   UNL A   1      42.530  25.339  28.633  1.00  0.00     0.016 A 
ATOM     44  C   UNL A   1      43.805  27.397  30.055  1.00  0.00     0.010 A 
ATOM     45  C   UNL A   1      43.761  25.108  29.257  1.00  0.00     0.010 A 
ATOM     46  C   UNL A   1      44.421  26.145  29.940  1.00  0.00    -0.014 A 
BRANCH  46  47
ATOM     47  C   UNL A   1      45.813  25.965  30.419  1.00  0.00     0.031 A 
ATOM     48  C   UNL A   1      46.953  26.376  29.527  1.00  0.00     0.074 A 
ATOM     49  C   UNL A   1      46.059  25.462  31.642  1.00  0.00     0.049 A 
ATOM     50  N   UNL A   1      48.240  26.290  29.738  1.00  0.00    -0.248 NA
ATOM     51  C   UNL A   1      46.592  26.958  28.223  1.00  0.00     0.031 C 
ATOM     52  C   UNL A   1      45.041  25.056  32.610  1.00  0.00     0.029 A 
ATOM     53  N   UNL A   1      47.249  25.198  32.273  1.00  0.00    -0.354 N 
ATOM     54  C   UNL A   1      48.844  26.793  28.591  1.00  0.00     0.074 A 
ATOM     55  C   UNL A   1      47.782  27.161  27.680  1.00  0.00     0.031 C 
ATOM     56  C   UNL A   1      45.652  24.584  33.711  1.00  0.00     0.029 A 
ATOM     57  C   UNL A   1      47.099  24.626  33.513  1.00  0.00     0.049 A 
ATOM     58  H   UNL A   1      48.127  25.401  31.875  1.00  0.00     0.167 HD
ATOM     59  C   UNL A   1      50.164  26.940  28.323  1.00  0.00     0.031 A 
ATOM     60  C   UNL A   1      48.023  24.167  34.381  1.00  0.00     0.031 A 
ATOM     61  C   UNL A   1      51.219  26.565  29.228  1.00  0.00     0.049 A 
ATOM     62  C   UNL A   1      49.485  24.291  34.041  1.00  0.00     0.074 A 
ATOM     63  C   UNL A   1      52.586  26.702  29.059  1.00  0.00     0.029 A 
ATOM     64  N   UNL A   1      51.026  25.969  30.465  1.00  0.00    -0.354 N 
ATOM     65  N   UNL A   1      50.040  24.805  32.969  1.00  0.00    -0.248 NA
ATOM     66  C   UNL A   1      50.444  23.783  35.032  1.00  0.00     0.031 C 
ATOM     67  C   UNL A   1      53.221  26.137  30.170  1.00  0.00     0.029 A 
ATOM     68  C   UNL A   1      52.249  25.703  31.058  1.00  0.00     0.049 A 
ATOM     69  H   UNL A   1      50.149  25.765  30.863  1.00  0.00     0.167 HD
ATOM     70  C   UNL A   1      51.413  24.704  33.167  1.00  0.00     0.074 A 
ATOM     71  C   UNL A   1      51.604  24.091  34.466  1.00  0.00     0.031 C 
ATOM     72  C   UNL A   1      52.425  25.087  32.349  1.00  0.00     0.031 A 
BRANCH  59  73
ATOM     73  C   UNL A   1      50.541  27.497  26.976  1.00  0.00    -0.014 A 
ATOM     74  C   UNL A   1      50.760  28.872  26.786  1.00  0.00     0.010 A 
ATOM     75  C   UNL A   1      50.706  26.621  25.887  1.00  0.00     0.010 A 
ATOM     76  C   UNL A   1      51.096  29.367  25.523  1.00  0.00     0.020 A 
ATOM     77  C   UNL A   1      51.068  27.109  24.628  1.00  0.00     0.020 A 
ATOM     78  C   UNL A   1      51.242  28.483  24.450  1.00  0.00     0.054 A 
BRANCH  78  79
ATOM     79  S   UNL A   1      51.691  29.149  22.823  1.00  0.00     0.124 S 
ATOM     80  O   UNL A   1      50.466  28.925  22.059  1.00  0.00    -0.237 OA
ATOM     81  O   UNL A   1      51.998  30.545  23.122  1.00  0.00    -0.237 OA
ATOM     82  O   UNL A   1      52.835  28.335  22.419  1.00  0.00    -0.744 OA
ENDBRANCH  78  79
ENDBRANCH  59  73
BRANCH  60  83
ATOM     83  C   UNL A   1      47.586  23.526  35.651  1.00  0.00    -0.014 A 
ATOM     84  C   UNL A   1      47.390  22.137  35.728  1.00  0.00     0.010 A 
ATOM     85  C   UNL A   1      47.378  24.311  36.801  1.00  0.00     0.010 A 
ATOM     86  C   UNL A   1      46.988  21.545  36.929  1.00  0.00     0.020 A 
ATOM     87  C   UNL A   1      47.002  23.719  38.009  1.00  0.00     0.020 A 
ATOM     88  C   UNL A   1      46.801  22.340  38.064  1.00  0.00     0.054 A 
BRANCH  88  89
ATOM     89  S   UNL A   1      46.345  21.542  39.629  1.00  0.00     0.124 S 
ATOM     90  O   UNL A   1      45.396  22.498  40.192  1.00  0.00    -0.237 OA
ATOM     91  O   UNL A   1      45.778  20.273  39.182  1.00  0.00    -0.237 OA
ATOM     92  O   UNL A   1      47.619  21.431  40.338  1.00  0.00    -0.744 OA
ENDBRANCH  88  89
ENDBRANCH  60  83
BRANCH  72  93
ATOM     93  C   UNL A   1      53.833  24.885  32.841  1.00  0.00    -0.014 A 
ATOM     94  C   UNL A   1      54.483  25.860  33.617  1.00  0.00     0.010 A 
ATOM     95  C   UNL A   1      54.494  23.670  32.574  1.00  0.00     0.010 A 
ATOM     96  C   UNL A   1      55.779  25.638  34.093  1.00  0.00     0.020 A 
ATOM     97  C   UNL A   1      55.779  23.434  33.070  1.00  0.00     0.020 A 
ATOM     98  C   UNL A   1      56.419  24.426  33.814  1.00  0.00     0.054 A 
BRANCH  98  99
ATOM     99  S   UNL A   1      58.083  24.143  34.479  1.00  0.00     0.124 S 
ATOM    100  O   UNL A   1      58.862  25.171  33.796  1.00  0.00    -0.237 OA
ATOM    101  O   UNL A   1      57.896  24.345  35.914  1.00  0.00    -0.237 OA
ATOM    102  O   UNL A   1      58.384  22.768  34.085  1.00  0.00    -0.744 OA
ENDBRANCH  98  99
ENDBRANCH  72  93
ENDBRANCH  46  47
ENDBRANCH  39  41
ENDBRANCH  38  39
ENDBRANCH  37  38
ENDBRANCH  36  37
ENDBRANCH   1  36
TORSDOF 22
ENDMDL
MODEL 3
REMARK VINA RESULT:      -8.4      0.962      7.666
REMARK SMILES COc1ccc([C@H]2CC(c3ccc(S(C)(=O)=O)cc3)=NN2c2ccc(C(=O)OCCOCCOC(=O)c3ccc(-c4c5nc(c(-c6ccc(S(=O)(=O)[O-])cc6)c6ccc([nH]6)c(-c6ccc(S(=O)(=O)[O-])cc6)c6nc(c(-c7ccc(S(=O)(=O)[O-])cc7)c7ccc4[nH]7)C=C6)C=C5)cc3)cc2)cc1
REMARK SMILES IDX 31 1 30 2 29 3 28 4 26 5 27 6 25 7 22 8 23 9 98 10 24 11
REMARK SMILES IDX 97 12 21 13 7 14 8 15 9 16 20 17 6 18 3 19 4 20 100 21 5 22
REMARK SMILES IDX 99 23 2 24 1 25 10 26 11 27 19 28 12 29 18 30 13 31 14 32
REMARK SMILES IDX 15 33 16 34 17 35 32 36 33 37 34 38 35 39 36 40 37 41 38 42
REMARK SMILES IDX 96 43 39 44 95 45 40 46 41 47 42 48 89 49 43 50 94 51 88 52
REMARK SMILES IDX 90 53 44 54 93 55 87 56 86 57 45 59 75 60 56 61 74 62 57 63
REMARK SMILES IDX 60 64 73 65 91 66 58 67 59 68 72 70 92 71 61 72 46 73 47 74
REMARK SMILES IDX 55 75 48 76 54 77 49 78 50 79 51 80 52 81 53 82 76 83 77 84
REMARK SMILES IDX 85 85 78 86 84 87 79 88 80 89 81 90 82 91 83 92 62 93 63 94
REMARK SMILES IDX 71 95 64 96 70 97 65 98 66 99 67 100 68 101 69 102
REMARK H PARENT 90 58 60 69
REMARK Flexibility Score: inf
ROOT
ATOM      1  O   UNL A   1      34.808  33.158  27.586  1.00  0.00    -0.374 OA
ENDROOT
BRANCH   1   2
ATOM      2  C   UNL A   1      34.798  34.335  28.397  1.00  0.00     0.202 C 
BRANCH   2   3
ATOM      3  C   UNL A   1      33.849  34.316  29.599  1.00  0.00     0.261 C 
BRANCH   3   4
ATOM      4  O   UNL A   1      34.469  34.877  30.768  1.00  0.00    -0.460 OA
BRANCH   4   5
ATOM      5  C   UNL A   1      34.481  34.063  31.850  1.00  0.00     0.338 C 
ATOM      6  O   UNL A   1      33.517  33.720  32.522  1.00  0.00    -0.246 OA
BRANCH   5   7
ATOM      7  C   UNL A   1      35.828  33.486  32.046  1.00  0.00     0.060 A 
ATOM      8  C   UNL A   1      38.327  32.341  32.646  1.00  0.00     0.060 A 
ATOM      9  C   UNL A   1      37.143  31.628  32.870  1.00  0.00     0.029 A 
ATOM     10  C   UNL A   1      38.239  33.602  32.034  1.00  0.00     0.029 A 
ATOM     11  C   UNL A   1      35.903  32.205  32.602  1.00  0.00     0.018 A 
ATOM     12  C   UNL A   1      37.000  34.171  31.717  1.00  0.00     0.018 A 
BRANCH   8  13
ATOM     13  N   UNL A   1      39.544  31.839  33.097  1.00  0.00    -0.257 N 
ATOM     14  C   UNL A   1      40.178  32.314  34.331  1.00  0.00     0.144 C 
ATOM     15  C   UNL A   1      41.320  31.312  34.531  1.00  0.00     0.091 C 
ATOM     16  C   UNL A   1      41.065  30.384  33.378  1.00  0.00     0.071 C 
ATOM     17  N   UNL A   1      40.061  30.676  32.614  1.00  0.00    -0.176 NA
BRANCH  14  18
ATOM     18  C   UNL A   1      39.215  32.351  35.512  1.00  0.00    -0.023 A 
ATOM     19  C   UNL A   1      37.414  32.479  37.686  1.00  0.00     0.118 A 
ATOM     20  C   UNL A   1      37.919  33.646  37.114  1.00  0.00     0.047 A 
ATOM     21  C   UNL A   1      37.780  31.245  37.152  1.00  0.00     0.047 A 
ATOM     22  C   UNL A   1      38.816  33.587  36.044  1.00  0.00     0.010 A 
ATOM     23  C   UNL A   1      38.668  31.182  36.071  1.00  0.00     0.010 A 
BRANCH  19  24
ATOM     24  O   UNL A   1      36.547  32.674  38.726  1.00  0.00    -0.497 OA
ATOM     25  C   UNL A   1      37.136  32.848  40.009  1.00  0.00     0.278 C 
ENDBRANCH  19  24
ENDBRANCH  14  18
BRANCH  16  26
ATOM     26  C   UNL A   1      41.965  29.254  33.120  1.00  0.00    -0.002 A 
ATOM     27  C   UNL A   1      42.829  29.331  32.022  1.00  0.00     0.011 A 
ATOM     28  C   UNL A   1      41.978  28.143  33.966  1.00  0.00     0.011 A 
ATOM     29  C   UNL A   1      43.731  28.294  31.777  1.00  0.00     0.021 A 
ATOM     30  C   UNL A   1      42.860  27.092  33.707  1.00  0.00     0.021 A 
ATOM     31  C   UNL A   1      43.732  27.173  32.614  1.00  0.00     0.067 A 
BRANCH  31  32
ATOM     32  S   UNL A   1      44.877  25.853  32.291  1.00  0.00     0.175 S 
ATOM     33  C   UNL A   1      45.172  25.128  33.884  1.00  0.00     0.163 C 
ATOM     34  O   UNL A   1      44.181  24.884  31.467  1.00  0.00    -0.224 OA
ATOM     35  O   UNL A   1      46.124  26.450  31.849  1.00  0.00    -0.224 OA
ENDBRANCH  31  32
ENDBRANCH  16  26
ENDBRANCH   8  13
ENDBRANCH   5   7
ENDBRANCH   4   5
ENDBRANCH   3   4
ENDBRANCH   2   3
ENDBRANCH   1   2
BRANCH   1  36
ATOM     36  C   UNL A   1      34.277  31.969  28.178  1.00  0.00     0.202 C 
BRANCH  36  37
ATOM     37  C   UNL A   1      35.183  30.733  28.134  1.00  0.00     0.261 C 
BRANCH  37  38
ATOM     38  O   UNL A   1      36.384  30.923  28.904  1.00  0.00    -0.460 OA
BRANCH  38  39
ATOM     39  C   UNL A   1      36.753  29.859  29.656  1.00  0.00     0.338 C 
ATOM     40  O   UNL A   1      36.079  29.282  30.499  1.00  0.00    -0.246 OA
BRANCH  39  41
ATOM     41  C   UNL A   1      38.058  29.346  29.196  1.00  0.00     0.060 A 
ATOM     42  C   UNL A   1      38.905  28.779  30.157  1.00  0.00     0.016 A 
ATOM     43  C   UNL A   1      38.473  29.465  27.868  1.00  0.00     0.016 A 
ATOM     44  C   UNL A   1      40.191  28.377  29.805  1.00  0.00     0.010 A 
ATOM     45  C   UNL A   1      39.769  29.067  27.518  1.00  0.00     0.010 A 
ATOM     46  C   UNL A   1      40.645  28.555  28.492  1.00  0.00    -0.014 A 
BRANCH  46  47
ATOM     47  C   UNL A   1      42.076  28.329  28.174  1.00  0.00     0.031 A 
ATOM     48  C   UNL A   1      43.038  29.482  28.274  1.00  0.00     0.074 A 
ATOM     49  C   UNL A   1      42.518  27.109  27.820  1.00  0.00     0.049 A 
ATOM     50  N   UNL A   1      44.321  29.512  28.025  1.00  0.00    -0.248 NA
ATOM     51  C   UNL A   1      42.477  30.772  28.711  1.00  0.00     0.031 C 
ATOM     52  C   UNL A   1      41.691  25.907  27.717  1.00  0.00     0.029 A 
ATOM     53  N   UNL A   1      43.776  26.684  27.473  1.00  0.00    -0.354 N 
ATOM     54  C   UNL A   1      44.720  30.823  28.261  1.00  0.00     0.074 A 
ATOM     55  C   UNL A   1      43.538  31.562  28.650  1.00  0.00     0.031 C 
ATOM     56  C   UNL A   1      42.463  24.881  27.321  1.00  0.00     0.029 A 
ATOM     57  C   UNL A   1      43.829  25.359  27.114  1.00  0.00     0.049 A 
ATOM     58  H   UNL A   1      44.565  27.273  27.481  1.00  0.00     0.167 HD
ATOM     59  C   UNL A   1      45.959  31.363  28.166  1.00  0.00     0.031 A 
ATOM     60  C   UNL A   1      44.857  24.620  26.650  1.00  0.00     0.031 A 
ATOM     61  C   UNL A   1      47.132  30.627  27.769  1.00  0.00     0.049 A 
ATOM     62  C   UNL A   1      46.216  25.253  26.501  1.00  0.00     0.074 A 
ATOM     63  C   UNL A   1      48.436  31.078  27.671  1.00  0.00     0.029 A 
ATOM     64  N   UNL A   1      47.140  29.293  27.394  1.00  0.00    -0.354 N 
ATOM     65  N   UNL A   1      46.584  26.483  26.765  1.00  0.00    -0.248 NA
ATOM     66  C   UNL A   1      47.298  24.393  26.001  1.00  0.00     0.031 C 
ATOM     67  C   UNL A   1      49.225  30.030  27.183  1.00  0.00     0.029 A 
ATOM     68  C   UNL A   1      48.422  28.911  27.034  1.00  0.00     0.049 A 
ATOM     69  H   UNL A   1      46.351  28.704  27.385  1.00  0.00     0.167 HD
ATOM     70  C   UNL A   1      47.946  26.540  26.487  1.00  0.00     0.074 A 
ATOM     71  C   UNL A   1      48.337  25.217  26.045  1.00  0.00     0.031 C 
ATOM     72  C   UNL A   1      48.796  27.592  26.590  1.00  0.00     0.031 A 
BRANCH  59  73
ATOM     73  C   UNL A   1      46.101  32.833  28.459  1.00  0.00    -0.014 A 
ATOM     74  C   UNL A   1      45.921  33.800  27.455  1.00  0.00     0.010 A 
ATOM     75  C   UNL A   1      46.390  33.252  29.771  1.00  0.00     0.010 A 
ATOM     76  C   UNL A   1      46.070  35.159  27.748  1.00  0.00     0.020 A 
ATOM     77  C   UNL A   1      46.514  34.611  30.073  1.00  0.00     0.020 A 
ATOM     78  C   UNL A   1      46.371  35.556  29.055  1.00  0.00     0.054 A 
BRANCH  78  79
ATOM     79  S   UNL A   1      46.548  37.326  29.412  1.00  0.00     0.124 S 
ATOM     80  O   UNL A   1      45.156  37.770  29.421  1.00  0.00    -0.237 OA
ATOM     81  O   UNL A   1      47.215  37.326  30.710  1.00  0.00    -0.237 OA
ATOM     82  O   UNL A   1      47.353  37.825  28.300  1.00  0.00    -0.744 OA
ENDBRANCH  78  79
ENDBRANCH  59  73
BRANCH  60  83
ATOM     83  C   UNL A   1      44.630  23.198  26.272  1.00  0.00    -0.014 A 
ATOM     84  C   UNL A   1      43.427  22.549  26.597  1.00  0.00     0.010 A 
ATOM     85  C   UNL A   1      45.620  22.491  25.564  1.00  0.00     0.010 A 
ATOM     86  C   UNL A   1      43.221  21.216  26.228  1.00  0.00     0.020 A 
ATOM     87  C   UNL A   1      45.406  21.168  25.171  1.00  0.00     0.020 A 
ATOM     88  C   UNL A   1      44.211  20.536  25.513  1.00  0.00     0.054 A 
BRANCH  88  89
ATOM     89  S   UNL A   1      43.895  18.828  24.985  1.00  0.00     0.124 S 
ATOM     90  O   UNL A   1      44.883  18.083  25.759  1.00  0.00    -0.237 OA
ATOM     91  O   UNL A   1      42.502  18.630  25.376  1.00  0.00    -0.237 OA
ATOM     92  O   UNL A   1      44.129  18.869  23.543  1.00  0.00    -0.744 OA
ENDBRANCH  88  89
ENDBRANCH  60  83
BRANCH  72  93
ATOM     93  C   UNL A   1      50.243  27.353  26.250  1.00  0.00    -0.014 A 
ATOM     94  C   UNL A   1      50.730  27.560  24.948  1.00  0.00     0.010 A 
ATOM     95  C   UNL A   1      51.142  26.974  27.265  1.00  0.00     0.010 A 
ATOM     96  C   UNL A   1      52.085  27.364  24.659  1.00  0.00     0.020 A 
ATOM     97  C   UNL A   1      52.501  26.803  26.987  1.00  0.00     0.020 A 
ATOM     98  C   UNL A   1      52.961  26.985  25.681  1.00  0.00     0.054 A 
BRANCH  98  99
ATOM     99  S   UNL A   1      54.722  26.780  25.294  1.00  0.00     0.124 S 
ATOM    100  O   UNL A   1      54.686  25.753  24.257  1.00  0.00    -0.237 OA
ATOM    101  O   UNL A   1      55.110  28.115  24.844  1.00  0.00    -0.237 OA
ATOM    102  O   UNL A   1      55.310  26.363  26.565  1.00  0.00    -0.744 OA
ENDBRANCH  98  99
ENDBRANCH  72  93
ENDBRANCH  46  47
ENDBRANCH  39  41
ENDBRANCH  38  39
ENDBRANCH  37  38
ENDBRANCH  36  37
ENDBRANCH   1  36
TORSDOF 22
ENDMDL
