MODEL 1
REMARK VINA RESULT:      -9.1      0.000      0.000
REMARK SMILES CC(C)OCCS(=O)(=O)N1CCC[C@H](C(=O)OCCOCCOC(=O)c2ccc(-c3c4nc(c(-c5ccc(S(=O)(=O)[O-])cc5)c5ccc([nH]5)c(-c5ccc(S(=O)(=O)[O-])cc5)c5nc(c(-c6ccc(S(=O)(=O)[O-])cc6)c6ccc3[nH]6)C=C5)C=C4)cc2)C1
REMARK SMILES IDX 19 1 18 2 17 3 15 4 16 5 14 6 10 7 11 8 86 9 12 10 13 11
REMARK SMILES IDX 7 12 8 13 9 14 6 15 5 16 4 17 2 18 1 19 3 20 20 21 21 22
REMARK SMILES IDX 22 23 23 24 24 25 25 26 26 27 27 28 85 29 28 30 84 31 29 32
REMARK SMILES IDX 30 33 31 34 78 35 32 36 83 37 77 38 79 39 33 40 82 41 76 42
REMARK SMILES IDX 75 43 34 45 64 46 45 47 63 48 46 49 49 50 62 51 80 52 47 53
REMARK SMILES IDX 48 54 61 56 81 57 50 58 35 59 36 60 44 61 37 62 43 63 38 64
REMARK SMILES IDX 39 65 40 66 41 67 42 68 65 69 66 70 74 71 67 72 73 73 68 74
REMARK SMILES IDX 69 75 70 76 71 77 72 78 51 79 52 80 60 81 53 82 59 83 54 84
REMARK SMILES IDX 55 85 56 86 57 87 58 88
REMARK H PARENT 79 44 49 55
REMARK Flexibility Score: inf
ROOT
ATOM      1  C   UNL A   1      32.335  29.485  26.508  1.00  0.00     0.202 C 
ENDROOT
BRANCH   1   2
ATOM      2  C   UNL A   1      31.678  28.297  27.221  1.00  0.00     0.261 C 
BRANCH   2   3
ATOM      3  O   UNL A   1      32.240  27.024  26.850  1.00  0.00    -0.463 OA
BRANCH   3   4
ATOM      4  C   UNL A   1      31.388  26.195  26.204  1.00  0.00     0.310 C 
ATOM      5  O   UNL A   1      30.211  26.018  26.511  1.00  0.00    -0.252 OA
BRANCH   4   6
ATOM      6  C   UNL A   1      31.991  25.468  25.021  1.00  0.00     0.114 C 
ATOM      7  N   UNL A   1      33.480  23.520  25.723  1.00  0.00    -0.201 NA
ATOM      8  C   UNL A   1      34.560  24.034  24.863  1.00  0.00     0.102 C 
ATOM      9  C   UNL A   1      32.129  24.007  25.400  1.00  0.00     0.117 C 
ATOM     10  C   UNL A   1      34.515  25.559  24.839  1.00  0.00     0.018 C 
ATOM     11  C   UNL A   1      33.188  26.056  24.294  1.00  0.00     0.018 C 
BRANCH   7  12
ATOM     12  S   UNL A   1      33.584  21.874  26.191  1.00  0.00     0.216 S 
ATOM     13  O   UNL A   1      33.466  21.804  27.626  1.00  0.00    -0.212 OA
ATOM     14  O   UNL A   1      34.756  21.323  25.536  1.00  0.00    -0.212 OA
BRANCH  12  15
ATOM     15  C   UNL A   1      32.143  21.092  25.446  1.00  0.00     0.182 C 
BRANCH  15  16
ATOM     16  C   UNL A   1      32.396  20.074  24.325  1.00  0.00     0.178 C 
BRANCH  16  17
ATOM     17  O   UNL A   1      32.137  18.705  24.661  1.00  0.00    -0.378 OA
BRANCH  17  18
ATOM     18  C   UNL A   1      33.195  17.734  24.661  1.00  0.00     0.112 C 
ATOM     19  C   UNL A   1      32.858  16.560  25.577  1.00  0.00     0.038 C 
ATOM     20  C   UNL A   1      33.658  17.175  23.324  1.00  0.00     0.038 C 
ENDBRANCH  17  18
ENDBRANCH  16  17
ENDBRANCH  15  16
ENDBRANCH  12  15
ENDBRANCH   7  12
ENDBRANCH   4   6
ENDBRANCH   3   4
ENDBRANCH   2   3
ENDBRANCH   1   2
BRANCH   1  21
ATOM     21  O   UNL A   1      33.515  30.041  27.079  1.00  0.00    -0.374 OA
BRANCH  21  22
ATOM     22  C   UNL A   1      34.443  29.175  27.726  1.00  0.00     0.202 C 
BRANCH  22  23
ATOM     23  C   UNL A   1      35.946  29.421  27.529  1.00  0.00     0.261 C 
BRANCH  23  24
ATOM     24  O   UNL A   1      36.553  30.155  28.610  1.00  0.00    -0.460 OA
BRANCH  24  25
ATOM     25  C   UNL A   1      37.208  29.391  29.517  1.00  0.00     0.338 C 
ATOM     26  O   UNL A   1      36.774  28.985  30.582  1.00  0.00    -0.246 OA
BRANCH  25  27
ATOM     27  C   UNL A   1      38.502  28.936  28.983  1.00  0.00     0.060 A 
ATOM     28  C   UNL A   1      39.409  28.364  29.884  1.00  0.00     0.016 A 
ATOM     29  C   UNL A   1      38.889  29.229  27.674  1.00  0.00     0.016 A 
ATOM     30  C   UNL A   1      40.729  28.143  29.500  1.00  0.00     0.010 A 
ATOM     31  C   UNL A   1      40.218  29.010  27.292  1.00  0.00     0.010 A 
ATOM     32  C   UNL A   1      41.154  28.514  28.218  1.00  0.00    -0.014 A 
BRANCH  32  33
ATOM     33  C   UNL A   1      42.607  28.530  27.917  1.00  0.00     0.031 A 
ATOM     34  C   UNL A   1      43.245  27.304  27.315  1.00  0.00     0.074 A 
ATOM     35  C   UNL A   1      43.336  29.642  28.118  1.00  0.00     0.049 A 
ATOM     36  N   UNL A   1      44.495  27.097  26.987  1.00  0.00    -0.248 NA
ATOM     37  C   UNL A   1      42.356  26.161  27.046  1.00  0.00     0.031 C 
ATOM     38  C   UNL A   1      42.819  30.908  28.635  1.00  0.00     0.029 A 
ATOM     39  N   UNL A   1      44.670  29.883  27.907  1.00  0.00    -0.354 N 
ATOM     40  C   UNL A   1      44.546  25.799  26.489  1.00  0.00     0.074 A 
ATOM     41  C   UNL A   1      43.208  25.258  26.583  1.00  0.00     0.031 C 
ATOM     42  C   UNL A   1      43.827  31.794  28.704  1.00  0.00     0.029 A 
ATOM     43  C   UNL A   1      45.066  31.147  28.278  1.00  0.00     0.049 A 
ATOM     44  H   UNL A   1      45.285  29.216  27.527  1.00  0.00     0.167 HD
ATOM     45  C   UNL A   1      45.611  25.122  25.996  1.00  0.00     0.031 A 
ATOM     46  C   UNL A   1      46.290  31.709  28.295  1.00  0.00     0.031 A 
ATOM     47  C   UNL A   1      46.942  25.665  25.913  1.00  0.00     0.049 A 
ATOM     48  C   UNL A   1      47.474  30.907  27.818  1.00  0.00     0.074 A 
ATOM     49  C   UNL A   1      48.086  25.065  25.417  1.00  0.00     0.029 A 
ATOM     50  N   UNL A   1      47.310  26.931  26.343  1.00  0.00    -0.354 N 
ATOM     51  N   UNL A   1      47.504  29.687  27.335  1.00  0.00    -0.248 NA
ATOM     52  C   UNL A   1      48.787  31.563  27.879  1.00  0.00     0.031 C 
ATOM     53  C   UNL A   1      49.157  25.942  25.609  1.00  0.00     0.029 A 
ATOM     54  C   UNL A   1      48.670  27.118  26.155  1.00  0.00     0.049 A 
ATOM     55  H   UNL A   1      46.696  27.599  26.727  1.00  0.00     0.167 HD
ATOM     56  C   UNL A   1      48.834  29.441  27.009  1.00  0.00     0.074 A 
ATOM     57  C   UNL A   1      49.572  30.644  27.334  1.00  0.00     0.031 C 
ATOM     58  C   UNL A   1      49.393  28.321  26.485  1.00  0.00     0.031 A 
BRANCH  45  59
ATOM     59  C   UNL A   1      45.391  23.700  25.548  1.00  0.00    -0.014 A 
ATOM     60  C   UNL A   1      45.408  22.628  26.460  1.00  0.00     0.010 A 
ATOM     61  C   UNL A   1      45.120  23.435  24.192  1.00  0.00     0.010 A 
ATOM     62  C   UNL A   1      45.195  21.318  26.019  1.00  0.00     0.020 A 
ATOM     63  C   UNL A   1      44.876  22.132  23.752  1.00  0.00     0.020 A 
ATOM     64  C   UNL A   1      44.931  21.079  24.666  1.00  0.00     0.054 A 
BRANCH  64  65
ATOM     65  S   UNL A   1      44.636  19.372  24.126  1.00  0.00     0.124 S 
ATOM     66  O   UNL A   1      43.364  19.066  24.775  1.00  0.00    -0.237 OA
ATOM     67  O   UNL A   1      44.583  19.502  22.672  1.00  0.00    -0.237 OA
ATOM     68  O   UNL A   1      45.789  18.639  24.642  1.00  0.00    -0.744 OA
ENDBRANCH  64  65
ENDBRANCH  45  59
BRANCH  46  69
ATOM     69  C   UNL A   1      46.461  33.097  28.806  1.00  0.00    -0.014 A 
ATOM     70  C   UNL A   1      46.371  34.201  27.940  1.00  0.00     0.010 A 
ATOM     71  C   UNL A   1      46.715  33.322  30.173  1.00  0.00     0.010 A 
ATOM     72  C   UNL A   1      46.547  35.499  28.427  1.00  0.00     0.020 A 
ATOM     73  C   UNL A   1      46.859  34.620  30.670  1.00  0.00     0.020 A 
ATOM     74  C   UNL A   1      46.787  35.701  29.790  1.00  0.00     0.054 A 
BRANCH  74  75
ATOM     75  S   UNL A   1      46.966  37.398  30.404  1.00  0.00     0.124 S 
ATOM     76  O   UNL A   1      45.953  38.110  29.630  1.00  0.00    -0.237 OA
ATOM     77  O   UNL A   1      46.682  37.248  31.829  1.00  0.00    -0.237 OA
ATOM     78  O   UNL A   1      48.350  37.737  30.084  1.00  0.00    -0.744 OA
ENDBRANCH  74  75
ENDBRANCH  46  69
BRANCH  58  79
ATOM     79  C   UNL A   1      50.872  28.352  26.189  1.00  0.00    -0.014 A 
ATOM     80  C   UNL A   1      51.362  28.787  24.945  1.00  0.00     0.010 A 
ATOM     81  C   UNL A   1      51.786  27.993  27.197  1.00  0.00     0.010 A 
ATOM     82  C   UNL A   1      52.739  28.829  24.704  1.00  0.00     0.020 A 
ATOM     83  C   UNL A   1      53.163  28.065  26.971  1.00  0.00     0.020 A 
ATOM     84  C   UNL A   1      53.630  28.469  25.719  1.00  0.00     0.054 A 
BRANCH  84  85
ATOM     85  S   UNL A   1      55.412  28.575  25.394  1.00  0.00     0.124 S 
ATOM     86  O   UNL A   1      55.472  29.598  24.355  1.00  0.00    -0.237 OA
ATOM     87  O   UNL A   1      55.952  28.967  26.694  1.00  0.00    -0.237 OA
ATOM     88  O   UNL A   1      55.767  27.226  24.960  1.00  0.00    -0.744 OA
ENDBRANCH  84  85
ENDBRANCH  58  79
ENDBRANCH  32  33
ENDBRANCH  25  27
ENDBRANCH  24  25
ENDBRANCH  23  24
ENDBRANCH  22  23
ENDBRANCH  21  22
ENDBRANCH   1  21
TORSDOF 22
ENDMDL
MODEL 2
REMARK VINA RESULT:      -8.8      1.610      2.434
REMARK SMILES CC(C)OCCS(=O)(=O)N1CCC[C@H](C(=O)OCCOCCOC(=O)c2ccc(-c3c4nc(c(-c5ccc(S(=O)(=O)[O-])cc5)c5ccc([nH]5)c(-c5ccc(S(=O)(=O)[O-])cc5)c5nc(c(-c6ccc(S(=O)(=O)[O-])cc6)c6ccc3[nH]6)C=C5)C=C4)cc2)C1
REMARK SMILES IDX 19 1 18 2 17 3 15 4 16 5 14 6 10 7 11 8 86 9 12 10 13 11
REMARK SMILES IDX 7 12 8 13 9 14 6 15 5 16 4 17 2 18 1 19 3 20 20 21 21 22
REMARK SMILES IDX 22 23 23 24 24 25 25 26 26 27 27 28 85 29 28 30 84 31 29 32
REMARK SMILES IDX 30 33 31 34 78 35 32 36 83 37 77 38 79 39 33 40 82 41 76 42
REMARK SMILES IDX 75 43 34 45 64 46 45 47 63 48 46 49 49 50 62 51 80 52 47 53
REMARK SMILES IDX 48 54 61 56 81 57 50 58 35 59 36 60 44 61 37 62 43 63 38 64
REMARK SMILES IDX 39 65 40 66 41 67 42 68 65 69 66 70 74 71 67 72 73 73 68 74
REMARK SMILES IDX 69 75 70 76 71 77 72 78 51 79 52 80 60 81 53 82 59 83 54 84
REMARK SMILES IDX 55 85 56 86 57 87 58 88
REMARK H PARENT 79 44 49 55
REMARK Flexibility Score: inf
ROOT
ATOM      1  C   UNL A   1      33.182  31.815  27.518  1.00  0.00     0.202 C 
ENDROOT
BRANCH   1   2
ATOM      2  C   UNL A   1      32.929  30.311  27.360  1.00  0.00     0.261 C 
BRANCH   2   3
ATOM      3  O   UNL A   1      33.364  29.786  26.092  1.00  0.00    -0.463 OA
BRANCH   3   4
ATOM      4  C   UNL A   1      32.426  29.080  25.420  1.00  0.00     0.310 C 
ATOM      5  O   UNL A   1      31.580  29.568  24.673  1.00  0.00    -0.252 OA
BRANCH   4   6
ATOM      6  C   UNL A   1      32.482  27.584  25.642  1.00  0.00     0.114 C 
ATOM      7  N   UNL A   1      32.090  26.260  23.497  1.00  0.00    -0.201 NA
ATOM      8  C   UNL A   1      31.060  25.457  24.180  1.00  0.00     0.102 C 
ATOM      9  C   UNL A   1      33.041  26.952  24.382  1.00  0.00     0.117 C 
ATOM     10  C   UNL A   1      30.331  26.322  25.204  1.00  0.00     0.018 C 
ATOM     11  C   UNL A   1      31.293  26.859  26.248  1.00  0.00     0.018 C 
BRANCH   7  12
ATOM     12  S   UNL A   1      32.756  25.600  22.062  1.00  0.00     0.216 S 
ATOM     13  O   UNL A   1      34.042  26.212  21.840  1.00  0.00    -0.212 OA
ATOM     14  O   UNL A   1      31.729  25.688  21.041  1.00  0.00    -0.212 OA
BRANCH  12  15
ATOM     15  C   UNL A   1      32.994  23.852  22.426  1.00  0.00     0.182 C 
BRANCH  15  16
ATOM     16  C   UNL A   1      34.398  23.408  22.858  1.00  0.00     0.178 C 
BRANCH  16  17
ATOM     17  O   UNL A   1      34.489  22.824  24.164  1.00  0.00    -0.378 OA
BRANCH  17  18
ATOM     18  C   UNL A   1      33.407  22.942  25.100  1.00  0.00     0.112 C 
ATOM     19  C   UNL A   1      32.820  21.571  25.429  1.00  0.00     0.038 C 
ATOM     20  C   UNL A   1      33.664  23.675  26.408  1.00  0.00     0.038 C 
ENDBRANCH  17  18
ENDBRANCH  16  17
ENDBRANCH  15  16
ENDBRANCH  12  15
ENDBRANCH   7  12
ENDBRANCH   4   6
ENDBRANCH   3   4
ENDBRANCH   2   3
ENDBRANCH   1   2
BRANCH   1  21
ATOM     21  O   UNL A   1      34.372  32.229  28.181  1.00  0.00    -0.374 OA
BRANCH  21  22
ATOM     22  C   UNL A   1      35.625  31.724  27.729  1.00  0.00     0.202 C 
BRANCH  22  23
ATOM     23  C   UNL A   1      36.892  32.065  28.528  1.00  0.00     0.261 C 
BRANCH  23  24
ATOM     24  O   UNL A   1      37.320  31.003  29.402  1.00  0.00    -0.460 OA
BRANCH  24  25
ATOM     25  C   UNL A   1      37.194  29.757  28.885  1.00  0.00     0.338 C 
ATOM     26  O   UNL A   1      36.155  29.167  28.640  1.00  0.00    -0.246 OA
BRANCH  25  27
ATOM     27  C   UNL A   1      38.504  29.227  28.469  1.00  0.00     0.060 A 
ATOM     28  C   UNL A   1      39.379  28.802  29.477  1.00  0.00     0.016 A 
ATOM     29  C   UNL A   1      38.933  29.317  27.145  1.00  0.00     0.016 A 
ATOM     30  C   UNL A   1      40.710  28.527  29.174  1.00  0.00     0.010 A 
ATOM     31  C   UNL A   1      40.274  29.043  26.844  1.00  0.00     0.010 A 
ATOM     32  C   UNL A   1      41.178  28.696  27.864  1.00  0.00    -0.014 A 
BRANCH  32  33
ATOM     33  C   UNL A   1      42.639  28.668  27.612  1.00  0.00     0.031 A 
ATOM     34  C   UNL A   1      43.267  27.406  27.079  1.00  0.00     0.074 A 
ATOM     35  C   UNL A   1      43.388  29.770  27.796  1.00  0.00     0.049 A 
ATOM     36  N   UNL A   1      44.521  27.158  26.801  1.00  0.00    -0.248 NA
ATOM     37  C   UNL A   1      42.361  26.274  26.823  1.00  0.00     0.031 C 
ATOM     38  C   UNL A   1      42.885  31.066  28.247  1.00  0.00     0.029 A 
ATOM     39  N   UNL A   1      44.733  29.973  27.620  1.00  0.00    -0.354 N 
ATOM     40  C   UNL A   1      44.558  25.841  26.354  1.00  0.00     0.074 A 
ATOM     41  C   UNL A   1      43.205  25.334  26.423  1.00  0.00     0.031 C 
ATOM     42  C   UNL A   1      43.910  31.932  28.317  1.00  0.00     0.029 A 
ATOM     43  C   UNL A   1      45.147  31.240  27.957  1.00  0.00     0.049 A 
ATOM     44  H   UNL A   1      45.345  29.278  27.286  1.00  0.00     0.167 HD
ATOM     45  C   UNL A   1      45.622  25.122  25.923  1.00  0.00     0.031 A 
ATOM     46  C   UNL A   1      46.383  31.775  27.993  1.00  0.00     0.031 A 
ATOM     47  C   UNL A   1      46.967  25.631  25.864  1.00  0.00     0.049 A 
ATOM     48  C   UNL A   1      47.562  30.929  27.586  1.00  0.00     0.074 A 
ATOM     49  C   UNL A   1      48.112  24.987  25.429  1.00  0.00     0.029 A 
ATOM     50  N   UNL A   1      47.351  26.904  26.258  1.00  0.00    -0.354 N 
ATOM     51  N   UNL A   1      47.579  29.691  27.152  1.00  0.00    -0.248 NA
ATOM     52  C   UNL A   1      48.888  31.557  27.667  1.00  0.00     0.031 C 
ATOM     53  C   UNL A   1      49.198  25.846  25.624  1.00  0.00     0.029 A 
ATOM     54  C   UNL A   1      48.721  27.053  26.109  1.00  0.00     0.049 A 
ATOM     55  H   UNL A   1      46.741  27.599  26.595  1.00  0.00     0.167 HD
ATOM     56  C   UNL A   1      48.913  29.402  26.880  1.00  0.00     0.074 A 
ATOM     57  C   UNL A   1      49.669  30.600  27.184  1.00  0.00     0.031 C 
ATOM     58  C   UNL A   1      49.461  28.251  26.417  1.00  0.00     0.031 A 
BRANCH  45  59
ATOM     59  C   UNL A   1      45.383  23.689  25.520  1.00  0.00    -0.014 A 
ATOM     60  C   UNL A   1      45.557  22.629  26.430  1.00  0.00     0.010 A 
ATOM     61  C   UNL A   1      44.934  23.400  24.218  1.00  0.00     0.010 A 
ATOM     62  C   UNL A   1      45.322  21.308  26.034  1.00  0.00     0.020 A 
ATOM     63  C   UNL A   1      44.668  22.086  23.827  1.00  0.00     0.020 A 
ATOM     64  C   UNL A   1      44.880  21.046  24.733  1.00  0.00     0.054 A 
BRANCH  64  65
ATOM     65  S   UNL A   1      44.562  19.325  24.253  1.00  0.00     0.124 S 
ATOM     66  O   UNL A   1      45.459  18.593  25.144  1.00  0.00    -0.237 OA
ATOM     67  O   UNL A   1      43.137  19.174  24.535  1.00  0.00    -0.237 OA
ATOM     68  O   UNL A   1      44.923  19.286  22.838  1.00  0.00    -0.744 OA
ENDBRANCH  64  65
ENDBRANCH  45  59
BRANCH  46  69
ATOM     69  C   UNL A   1      46.571  33.177  28.457  1.00  0.00    -0.014 A 
ATOM     70  C   UNL A   1      46.489  34.252  27.556  1.00  0.00     0.010 A 
ATOM     71  C   UNL A   1      46.832  33.445  29.815  1.00  0.00     0.010 A 
ATOM     72  C   UNL A   1      46.679  35.565  27.999  1.00  0.00     0.020 A 
ATOM     73  C   UNL A   1      46.991  34.757  30.268  1.00  0.00     0.020 A 
ATOM     74  C   UNL A   1      46.927  35.809  29.353  1.00  0.00     0.054 A 
BRANCH  74  75
ATOM     75  S   UNL A   1      47.126  37.524  29.910  1.00  0.00     0.124 S 
ATOM     76  O   UNL A   1      48.486  37.828  29.477  1.00  0.00    -0.237 OA
ATOM     77  O   UNL A   1      46.063  38.215  29.184  1.00  0.00    -0.237 OA
ATOM     78  O   UNL A   1      46.933  37.442  31.355  1.00  0.00    -0.744 OA
ENDBRANCH  74  75
ENDBRANCH  46  69
BRANCH  58  79
ATOM     79  C   UNL A   1      50.949  28.237  26.170  1.00  0.00    -0.014 A 
ATOM     80  C   UNL A   1      51.854  27.814  27.159  1.00  0.00     0.010 A 
ATOM     81  C   UNL A   1      51.442  28.602  24.902  1.00  0.00     0.010 A 
ATOM     82  C   UNL A   1      53.227  27.788  26.895  1.00  0.00     0.020 A 
ATOM     83  C   UNL A   1      52.810  28.545  24.625  1.00  0.00     0.020 A 
ATOM     84  C   UNL A   1      53.696  28.152  25.629  1.00  0.00     0.054 A 
BRANCH  84  85
ATOM     85  S   UNL A   1      55.478  28.067  25.301  1.00  0.00     0.124 S 
ATOM     86  O   UNL A   1      55.656  29.123  24.308  1.00  0.00    -0.237 OA
ATOM     87  O   UNL A   1      56.059  28.335  26.615  1.00  0.00    -0.237 OA
ATOM     88  O   UNL A   1      55.676  26.707  24.805  1.00  0.00    -0.744 OA
ENDBRANCH  84  85
ENDBRANCH  58  79
ENDBRANCH  32  33
ENDBRANCH  25  27
ENDBRANCH  24  25
ENDBRANCH  23  24
ENDBRANCH  22  23
ENDBRANCH  21  22
ENDBRANCH   1  21
TORSDOF 22
ENDMDL
MODEL 3
REMARK VINA RESULT:      -8.6      2.982      9.157
REMARK SMILES CC(C)OCCS(=O)(=O)N1CCC[C@H](C(=O)OCCOCCOC(=O)c2ccc(-c3c4nc(c(-c5ccc(S(=O)(=O)[O-])cc5)c5ccc([nH]5)c(-c5ccc(S(=O)(=O)[O-])cc5)c5nc(c(-c6ccc(S(=O)(=O)[O-])cc6)c6ccc3[nH]6)C=C5)C=C4)cc2)C1
REMARK SMILES IDX 19 1 18 2 17 3 15 4 16 5 14 6 10 7 11 8 86 9 12 10 13 11
REMARK SMILES IDX 7 12 8 13 9 14 6 15 5 16 4 17 2 18 1 19 3 20 20 21 21 22
REMARK SMILES IDX 22 23 23 24 24 25 25 26 26 27 27 28 85 29 28 30 84 31 29 32
REMARK SMILES IDX 30 33 31 34 78 35 32 36 83 37 77 38 79 39 33 40 82 41 76 42
REMARK SMILES IDX 75 43 34 45 64 46 45 47 63 48 46 49 49 50 62 51 80 52 47 53
REMARK SMILES IDX 48 54 61 56 81 57 50 58 35 59 36 60 44 61 37 62 43 63 38 64
REMARK SMILES IDX 39 65 40 66 41 67 42 68 65 69 66 70 74 71 67 72 73 73 68 74
REMARK SMILES IDX 69 75 70 76 71 77 72 78 51 79 52 80 60 81 53 82 59 83 54 84
REMARK SMILES IDX 55 85 56 86 57 87 58 88
REMARK H PARENT 79 44 49 55
REMARK Flexibility Score: inf
ROOT
ATOM      1  C   UNL A   1      35.407  31.732  27.919  1.00  0.00     0.202 C 
ENDROOT
BRANCH   1   2
ATOM      2  C   UNL A   1      34.352  30.627  27.796  1.00  0.00     0.261 C 
BRANCH   2   3
ATOM      3  O   UNL A   1      33.424  30.838  26.717  1.00  0.00    -0.463 OA
BRANCH   3   4
ATOM      4  C   UNL A   1      32.768  29.727  26.308  1.00  0.00     0.310 C 
ATOM      5  O   UNL A   1      31.559  29.539  26.429  1.00  0.00    -0.252 OA
BRANCH   4   6
ATOM      6  C   UNL A   1      33.646  28.680  25.658  1.00  0.00     0.114 C 
ATOM      7  N   UNL A   1      32.343  27.144  24.092  1.00  0.00    -0.201 NA
ATOM      8  C   UNL A   1      32.914  25.967  24.769  1.00  0.00     0.102 C 
ATOM      9  C   UNL A   1      33.085  28.402  24.277  1.00  0.00     0.117 C 
ATOM     10  C   UNL A   1      33.118  26.275  26.249  1.00  0.00     0.018 C 
ATOM     11  C   UNL A   1      34.066  27.445  26.437  1.00  0.00     0.018 C 
BRANCH   7  12
ATOM     12  S   UNL A   1      31.687  26.892  22.528  1.00  0.00     0.216 S 
ATOM     13  O   UNL A   1      30.846  25.722  22.575  1.00  0.00    -0.212 OA
ATOM     14  O   UNL A   1      32.795  26.946  21.592  1.00  0.00    -0.212 OA
BRANCH  12  15
ATOM     15  C   UNL A   1      30.661  28.339  22.220  1.00  0.00     0.182 C 
BRANCH  15  16
ATOM     16  C   UNL A   1      29.638  28.720  23.299  1.00  0.00     0.178 C 
BRANCH  16  17
ATOM     17  O   UNL A   1      28.280  28.830  22.855  1.00  0.00    -0.378 OA
BRANCH  17  18
ATOM     18  C   UNL A   1      27.723  30.105  22.500  1.00  0.00     0.112 C 
ATOM     19  C   UNL A   1      27.952  31.129  23.609  1.00  0.00     0.038 C 
ATOM     20  C   UNL A   1      28.147  30.732  21.179  1.00  0.00     0.038 C 
ENDBRANCH  17  18
ENDBRANCH  16  17
ENDBRANCH  15  16
ENDBRANCH  12  15
ENDBRANCH   7  12
ENDBRANCH   4   6
ENDBRANCH   3   4
ENDBRANCH   2   3
ENDBRANCH   1   2
BRANCH   1  21
ATOM     21  O   UNL A   1      35.334  32.609  29.039  1.00  0.00    -0.374 OA
BRANCH  21  22
ATOM     22  C   UNL A   1      35.032  32.067  30.322  1.00  0.00     0.202 C 
BRANCH  22  23
ATOM     23  C   UNL A   1      35.899  32.477  31.520  1.00  0.00     0.261 C 
BRANCH  23  24
ATOM     24  O   UNL A   1      36.508  31.359  32.196  1.00  0.00    -0.460 OA
BRANCH  24  25
ATOM     25  C   UNL A   1      36.826  30.316  31.391  1.00  0.00     0.338 C 
ATOM     26  O   UNL A   1      36.055  29.516  30.888  1.00  0.00    -0.246 OA
BRANCH  25  27
ATOM     27  C   UNL A   1      38.254  30.350  31.030  1.00  0.00     0.060 A 
ATOM     28  C   UNL A   1      38.581  30.715  29.718  1.00  0.00     0.016 A 
ATOM     29  C   UNL A   1      39.231  29.859  31.896  1.00  0.00     0.016 A 
ATOM     30  C   UNL A   1      39.877  30.529  29.245  1.00  0.00     0.010 A 
ATOM     31  C   UNL A   1      40.533  29.668  31.416  1.00  0.00     0.010 A 
ATOM     32  C   UNL A   1      40.848  29.955  30.076  1.00  0.00    -0.014 A 
BRANCH  32  33
ATOM     33  C   UNL A   1      42.134  29.512  29.482  1.00  0.00     0.031 A 
ATOM     34  C   UNL A   1      43.279  30.489  29.398  1.00  0.00     0.074 A 
ATOM     35  C   UNL A   1      42.301  28.240  29.081  1.00  0.00     0.049 A 
ATOM     36  N   UNL A   1      44.479  30.318  28.908  1.00  0.00    -0.248 NA
ATOM     37  C   UNL A   1      43.038  31.837  29.941  1.00  0.00     0.031 C 
ATOM     38  C   UNL A   1      41.289  27.188  29.169  1.00  0.00     0.029 A 
ATOM     39  N   UNL A   1      43.387  27.617  28.521  1.00  0.00    -0.354 N 
ATOM     40  C   UNL A   1      45.131  31.536  29.068  1.00  0.00     0.074 A 
ATOM     41  C   UNL A   1      44.185  32.445  29.676  1.00  0.00     0.031 C 
ATOM     42  C   UNL A   1      41.802  26.047  28.676  1.00  0.00     0.029 A 
ATOM     43  C   UNL A   1      43.160  26.299  28.200  1.00  0.00     0.049 A 
ATOM     44  H   UNL A   1      44.246  28.070  28.363  1.00  0.00     0.167 HD
ATOM     45  C   UNL A   1      46.404  31.866  28.739  1.00  0.00     0.031 A 
ATOM     46  C   UNL A   1      43.948  25.405  27.572  1.00  0.00     0.031 A 
ATOM     47  C   UNL A   1      47.338  30.957  28.127  1.00  0.00     0.049 A 
ATOM     48  C   UNL A   1      45.333  25.819  27.142  1.00  0.00     0.074 A 
ATOM     49  C   UNL A   1      48.655  31.190  27.769  1.00  0.00     0.029 A 
ATOM     50  N   UNL A   1      47.055  29.646  27.775  1.00  0.00    -0.354 N 
ATOM     51  N   UNL A   1      45.941  26.970  27.314  1.00  0.00    -0.248 NA
ATOM     52  C   UNL A   1      46.140  24.811  26.442  1.00  0.00     0.031 C 
ATOM     53  C   UNL A   1      49.145  30.042  27.139  1.00  0.00     0.029 A 
ATOM     54  C   UNL A   1      48.160  29.068  27.172  1.00  0.00     0.049 A 
ATOM     55  H   UNL A   1      46.194  29.193  27.930  1.00  0.00     0.167 HD
ATOM     56  C   UNL A   1      47.211  26.813  26.769  1.00  0.00     0.074 A 
ATOM     57  C   UNL A   1      47.289  25.452  26.278  1.00  0.00     0.031 C 
ATOM     58  C   UNL A   1      48.223  27.712  26.686  1.00  0.00     0.031 A 
BRANCH  45  59
ATOM     59  C   UNL A   1      46.850  33.283  28.996  1.00  0.00    -0.014 A 
ATOM     60  C   UNL A   1      46.682  34.294  28.032  1.00  0.00     0.010 A 
ATOM     61  C   UNL A   1      47.409  33.618  30.243  1.00  0.00     0.010 A 
ATOM     62  C   UNL A   1      47.098  35.603  28.297  1.00  0.00     0.020 A 
ATOM     63  C   UNL A   1      47.798  34.931  30.524  1.00  0.00     0.020 A 
ATOM     64  C   UNL A   1      47.655  35.912  29.542  1.00  0.00     0.054 A 
BRANCH  64  65
ATOM     65  S   UNL A   1      48.166  37.622  29.866  1.00  0.00     0.124 S 
ATOM     66  O   UNL A   1      49.309  37.432  30.755  1.00  0.00    -0.237 OA
ATOM     67  O   UNL A   1      48.484  38.119  28.531  1.00  0.00    -0.237 OA
ATOM     68  O   UNL A   1      46.989  38.225  30.489  1.00  0.00    -0.744 OA
ENDBRANCH  64  65
ENDBRANCH  45  59
BRANCH  46  69
ATOM     69  C   UNL A   1      43.437  24.036  27.288  1.00  0.00    -0.014 A 
ATOM     70  C   UNL A   1      43.471  23.034  28.273  1.00  0.00     0.010 A 
ATOM     71  C   UNL A   1      42.906  23.727  26.020  1.00  0.00     0.010 A 
ATOM     72  C   UNL A   1      43.001  21.748  27.993  1.00  0.00     0.020 A 
ATOM     73  C   UNL A   1      42.405  22.452  25.746  1.00  0.00     0.020 A 
ATOM     74  C   UNL A   1      42.467  21.465  26.731  1.00  0.00     0.054 A 
BRANCH  74  75
ATOM     75  S   UNL A   1      41.822  19.802  26.408  1.00  0.00     0.124 S 
ATOM     76  O   UNL A   1      40.400  20.062  26.203  1.00  0.00    -0.237 OA
ATOM     77  O   UNL A   1      42.568  19.402  25.217  1.00  0.00    -0.237 OA
ATOM     78  O   UNL A   1      42.154  19.061  27.621  1.00  0.00    -0.744 OA
ENDBRANCH  74  75
ENDBRANCH  46  69
BRANCH  58  79
ATOM     79  C   UNL A   1      49.522  27.247  26.076  1.00  0.00    -0.014 A 
ATOM     80  C   UNL A   1      50.134  26.047  26.479  1.00  0.00     0.010 A 
ATOM     81  C   UNL A   1      50.109  28.000  25.042  1.00  0.00     0.010 A 
ATOM     82  C   UNL A   1      51.326  25.626  25.881  1.00  0.00     0.020 A 
ATOM     83  C   UNL A   1      51.281  27.566  24.420  1.00  0.00     0.020 A 
ATOM     84  C   UNL A   1      51.891  26.388  24.854  1.00  0.00     0.054 A 
BRANCH  84  85
ATOM     85  S   UNL A   1      53.414  25.796  24.065  1.00  0.00     0.124 S 
ATOM     86  O   UNL A   1      53.034  25.761  22.656  1.00  0.00    -0.237 OA
ATOM     87  O   UNL A   1      54.384  26.827  24.429  1.00  0.00    -0.237 OA
ATOM     88  O   UNL A   1      53.640  24.491  24.682  1.00  0.00    -0.744 OA
ENDBRANCH  84  85
ENDBRANCH  58  79
ENDBRANCH  32  33
ENDBRANCH  25  27
ENDBRANCH  24  25
ENDBRANCH  23  24
ENDBRANCH  22  23
ENDBRANCH  21  22
ENDBRANCH   1  21
TORSDOF 22
ENDMDL
