MODEL 1
REMARK VINA RESULT:      -9.9      0.000      0.000
REMARK SMILES C=CC[N@H+](CC(=O)OCCOCCOC(=O)c1ccc(-c2c3nc(c(-c4ccc(S(=O)(=O)[O-])cc4)c4ccc([nH]4)c(-c4ccc(S(=O)(=O)[O-])cc4)c4nc(c(-c5ccc(S(=O)(=O)[O-])cc5)c5ccc2[nH]5)C=C4)C=C3)cc1)Cc1cccc2ccccc12
REMARK SMILES IDX 11 1 10 2 9 3 8 4 6 5 7 6 5 7 4 8 3 10 2 11 1 12 77 13 78 14
REMARK SMILES IDX 79 15 87 16 80 17 82 18 86 19 81 20 83 21 85 22 84 23 12 24
REMARK SMILES IDX 13 25 14 26 15 27 16 28 17 29 18 30 76 31 19 32 75 33 20 34
REMARK SMILES IDX 21 35 22 36 69 37 23 38 74 39 68 40 70 41 24 42 73 43 67 44
REMARK SMILES IDX 66 45 25 47 55 48 36 49 54 50 37 51 40 52 53 53 71 54 38 55
REMARK SMILES IDX 39 56 52 58 72 59 41 60 26 61 27 62 35 63 28 64 34 65 29 66
REMARK SMILES IDX 30 67 31 68 32 69 33 70 56 71 57 72 65 73 58 74 64 75 59 76
REMARK SMILES IDX 60 77 61 78 62 79 63 80 42 81 43 82 51 83 44 84 50 85 45 86
REMARK SMILES IDX 46 87 47 88 48 89 49 90
REMARK H PARENT 4 9 70 46 40 57
REMARK Flexibility Score: inf
ROOT
ATOM      1  O   UNL A   1      33.008  31.396  27.408  1.00  0.00    -0.374 OA
ENDROOT
BRANCH   1   2
ATOM      2  C   UNL A   1      33.678  30.153  27.137  1.00  0.00     0.202 C 
BRANCH   2   3
ATOM      3  C   UNL A   1      33.068  28.725  27.252  1.00  0.00     0.261 C 
BRANCH   3   4
ATOM      4  O   UNL A   1      31.823  28.400  26.599  1.00  0.00    -0.459 OA
BRANCH   4   5
ATOM      5  C   UNL A   1      31.856  28.127  25.260  1.00  0.00     0.361 C 
ATOM      6  O   UNL A   1      32.089  28.963  24.391  1.00  0.00    -0.245 OA
BRANCH   5   7
ATOM      7  C   UNL A   1      31.553  26.647  24.946  1.00  0.00     0.387 C 
BRANCH   7   8
ATOM      8  N   UNL A   1      32.702  25.739  25.019  1.00  0.00    -0.319 N 
ATOM      9  H   UNL A   1      32.328  24.921  24.537  1.00  0.00     0.349 HD
BRANCH   8  10
ATOM     10  C   UNL A   1      33.743  25.839  24.011  1.00  0.00     0.291 C 
BRANCH  10  11
ATOM     11  C   UNL A   1      33.476  25.169  22.688  1.00  0.00     0.025 C 
ATOM     12  C   UNL A   1      33.611  23.857  22.444  1.00  0.00     0.010 C 
ENDBRANCH  10  11
ENDBRANCH   8  10
BRANCH   8  13
ATOM     13  C   UNL A   1      32.893  24.955  26.210  1.00  0.00     0.300 C 
BRANCH  13  14
ATOM     14  C   UNL A   1      33.284  23.521  25.937  1.00  0.00     0.014 A 
ATOM     15  C   UNL A   1      31.882  22.438  25.565  1.00  0.00     0.010 A 
ATOM     16  C   UNL A   1      35.021  22.932  25.740  1.00  0.00    -0.010 A 
ATOM     17  C   UNL A   1      32.178  20.779  24.961  1.00  0.00     0.001 A 
ATOM     18  C   UNL A   1      35.298  21.247  25.170  1.00  0.00    -0.018 A 
ATOM     19  C   UNL A   1      36.232  23.644  25.847  1.00  0.00     0.009 A 
ATOM     20  C   UNL A   1      33.868  20.188  24.804  1.00  0.00     0.009 A 
ATOM     21  C   UNL A   1      36.633  20.848  25.012  1.00  0.00     0.009 A 
ATOM     22  C   UNL A   1      37.492  23.095  25.550  1.00  0.00     0.001 A 
ATOM     23  C   UNL A   1      37.688  21.754  25.185  1.00  0.00     0.001 A 
ENDBRANCH  13  14
ENDBRANCH   8  13
ENDBRANCH   7   8
ENDBRANCH   5   7
ENDBRANCH   4   5
ENDBRANCH   3   4
ENDBRANCH   2   3
ENDBRANCH   1   2
BRANCH   1  24
ATOM     24  C   UNL A   1      33.795  32.562  28.030  1.00  0.00     0.202 C 
BRANCH  24  25
ATOM     25  C   UNL A   1      33.233  34.570  28.676  1.00  0.00     0.261 C 
BRANCH  25  26
ATOM     26  O   UNL A   1      33.742  35.412  29.851  1.00  0.00    -0.460 OA
BRANCH  26  27
ATOM     27  C   UNL A   1      33.443  35.037  31.118  1.00  0.00     0.338 C 
ATOM     28  O   UNL A   1      32.376  35.044  31.702  1.00  0.00    -0.246 OA
BRANCH  27  29
ATOM     29  C   UNL A   1      34.643  34.327  31.546  1.00  0.00     0.060 A 
ATOM     30  C   UNL A   1      34.462  33.112  32.209  1.00  0.00     0.016 A 
ATOM     31  C   UNL A   1      35.903  34.774  31.126  1.00  0.00     0.016 A 
ATOM     32  C   UNL A   1      35.561  32.310  32.431  1.00  0.00     0.010 A 
ATOM     33  C   UNL A   1      37.014  33.990  31.384  1.00  0.00     0.010 A 
ATOM     34  C   UNL A   1      36.833  32.780  32.069  1.00  0.00    -0.014 A 
BRANCH  34  35
ATOM     35  C   UNL A   1      37.952  32.179  32.800  1.00  0.00     0.031 A 
ATOM     36  C   UNL A   1      38.844  31.296  31.979  1.00  0.00     0.074 A 
ATOM     37  C   UNL A   1      38.234  32.563  34.053  1.00  0.00     0.049 A 
ATOM     38  N   UNL A   1      40.017  30.813  32.266  1.00  0.00    -0.248 NA
ATOM     39  C   UNL A   1      38.364  30.950  30.624  1.00  0.00     0.031 C 
ATOM     40  C   UNL A   1      37.435  33.488  34.858  1.00  0.00     0.029 A 
ATOM     41  N   UNL A   1      39.301  32.254  34.845  1.00  0.00    -0.354 N 
ATOM     42  C   UNL A   1      40.424  30.140  31.120  1.00  0.00     0.074 A 
ATOM     43  C   UNL A   1      39.370  30.240  30.146  1.00  0.00     0.031 C 
ATOM     44  C   UNL A   1      38.060  33.688  36.033  1.00  0.00     0.029 A 
ATOM     45  C   UNL A   1      39.283  32.890  36.061  1.00  0.00     0.049 A 
ATOM     46  H   UNL A   1      40.015  31.635  34.570  1.00  0.00     0.167 HD
ATOM     47  C   UNL A   1      41.589  29.494  30.905  1.00  0.00     0.031 A 
ATOM     48  C   UNL A   1      40.170  32.816  37.071  1.00  0.00     0.031 A 
ATOM     49  C   UNL A   1      42.585  29.354  31.926  1.00  0.00     0.049 A 
ATOM     50  C   UNL A   1      41.404  31.977  36.851  1.00  0.00     0.074 A 
ATOM     51  C   UNL A   1      43.777  28.661  31.883  1.00  0.00     0.029 A 
ATOM     52  N   UNL A   1      42.479  29.911  33.195  1.00  0.00    -0.354 N 
ATOM     53  N   UNL A   1      41.781  31.329  35.770  1.00  0.00    -0.248 NA
ATOM     54  C   UNL A   1      42.337  31.869  37.977  1.00  0.00     0.031 C 
ATOM     55  C   UNL A   1      44.356  28.735  33.153  1.00  0.00     0.029 A 
ATOM     56  C   UNL A   1      43.570  29.549  33.959  1.00  0.00     0.049 A 
ATOM     57  H   UNL A   1      41.736  30.478  33.504  1.00  0.00     0.167 HD
ATOM     58  C   UNL A   1      43.009  30.756  36.077  1.00  0.00     0.074 A 
ATOM     59  C   UNL A   1      43.318  31.161  37.436  1.00  0.00     0.031 C 
ATOM     60  C   UNL A   1      43.815  29.968  35.317  1.00  0.00     0.031 A 
BRANCH  47  61
ATOM     61  C   UNL A   1      41.770  28.833  29.568  1.00  0.00    -0.014 A 
ATOM     62  C   UNL A   1      41.594  27.446  29.398  1.00  0.00     0.010 A 
ATOM     63  C   UNL A   1      42.162  29.612  28.466  1.00  0.00     0.010 A 
ATOM     64  C   UNL A   1      41.831  26.849  28.156  1.00  0.00     0.020 A 
ATOM     65  C   UNL A   1      42.371  29.025  27.216  1.00  0.00     0.020 A 
ATOM     66  C   UNL A   1      42.214  27.645  27.071  1.00  0.00     0.054 A 
BRANCH  66  67
ATOM     67  S   UNL A   1      42.476  26.854  25.460  1.00  0.00     0.124 S 
ATOM     68  O   UNL A   1      43.716  26.115  25.682  1.00  0.00    -0.237 OA
ATOM     69  O   UNL A   1      41.275  26.037  25.310  1.00  0.00    -0.237 OA
ATOM     70  O   UNL A   1      42.581  27.980  24.535  1.00  0.00    -0.744 OA
ENDBRANCH  66  67
ENDBRANCH  47  61
BRANCH  48  71
ATOM     71  C   UNL A   1      39.909  33.516  38.360  1.00  0.00    -0.014 A 
ATOM     72  C   UNL A   1      38.991  33.018  39.302  1.00  0.00     0.010 A 
ATOM     73  C   UNL A   1      40.590  34.715  38.650  1.00  0.00     0.010 A 
ATOM     74  C   UNL A   1      38.745  33.712  40.492  1.00  0.00     0.020 A 
ATOM     75  C   UNL A   1      40.373  35.394  39.852  1.00  0.00     0.020 A 
ATOM     76  C   UNL A   1      39.441  34.894  40.761  1.00  0.00     0.054 A 
BRANCH  76  77
ATOM     77  S   UNL A   1      39.138  35.758  42.329  1.00  0.00     0.124 S 
ATOM     78  O   UNL A   1      37.765  35.370  42.630  1.00  0.00    -0.237 OA
ATOM     79  O   UNL A   1      40.164  35.193  43.201  1.00  0.00    -0.237 OA
ATOM     80  O   UNL A   1      39.330  37.166  41.986  1.00  0.00    -0.744 OA
ENDBRANCH  76  77
ENDBRANCH  48  71
BRANCH  60  81
ATOM     81  C   UNL A   1      45.113  29.532  35.939  1.00  0.00    -0.014 A 
ATOM     82  C   UNL A   1      46.279  30.306  35.824  1.00  0.00     0.010 A 
ATOM     83  C   UNL A   1      45.146  28.337  36.682  1.00  0.00     0.010 A 
ATOM     84  C   UNL A   1      47.475  29.858  36.385  1.00  0.00     0.020 A 
ATOM     85  C   UNL A   1      46.330  27.910  37.283  1.00  0.00     0.020 A 
ATOM     86  C   UNL A   1      47.492  28.660  37.107  1.00  0.00     0.054 A 
BRANCH  86  87
ATOM     87  S   UNL A   1      49.057  28.103  37.827  1.00  0.00     0.124 S 
ATOM     88  O   UNL A   1      48.601  27.168  38.851  1.00  0.00    -0.237 OA
ATOM     89  O   UNL A   1      49.738  27.501  36.683  1.00  0.00    -0.237 OA
ATOM     90  O   UNL A   1      49.665  29.332  38.331  1.00  0.00    -0.744 OA
ENDBRANCH  86  87
ENDBRANCH  60  81
ENDBRANCH  34  35
ENDBRANCH  27  29
ENDBRANCH  26  27
ENDBRANCH  25  26
ENDBRANCH  24  25
ENDBRANCH   1  24
TORSDOF 22
ENDMDL
MODEL 2
REMARK VINA RESULT:      -9.7      6.768     11.359
REMARK SMILES C=CC[N@H+](CC(=O)OCCOCCOC(=O)c1ccc(-c2c3nc(c(-c4ccc(S(=O)(=O)[O-])cc4)c4ccc([nH]4)c(-c4ccc(S(=O)(=O)[O-])cc4)c4nc(c(-c5ccc(S(=O)(=O)[O-])cc5)c5ccc2[nH]5)C=C4)C=C3)cc1)Cc1cccc2ccccc12
REMARK SMILES IDX 11 1 10 2 9 3 8 4 6 5 7 6 5 7 4 8 3 10 2 11 1 12 77 13 78 14
REMARK SMILES IDX 79 15 87 16 80 17 82 18 86 19 81 20 83 21 85 22 84 23 12 24
REMARK SMILES IDX 13 25 14 26 15 27 16 28 17 29 18 30 76 31 19 32 75 33 20 34
REMARK SMILES IDX 21 35 22 36 69 37 23 38 74 39 68 40 70 41 24 42 73 43 67 44
REMARK SMILES IDX 66 45 25 47 55 48 36 49 54 50 37 51 40 52 53 53 71 54 38 55
REMARK SMILES IDX 39 56 52 58 72 59 41 60 26 61 27 62 35 63 28 64 34 65 29 66
REMARK SMILES IDX 30 67 31 68 32 69 33 70 56 71 57 72 65 73 58 74 64 75 59 76
REMARK SMILES IDX 60 77 61 78 62 79 63 80 42 81 43 82 51 83 44 84 50 85 45 86
REMARK SMILES IDX 46 87 47 88 48 89 49 90
REMARK H PARENT 4 9 70 46 40 57
REMARK Flexibility Score: inf
ROOT
ATOM      1  O   UNL A   1      32.946  30.421  27.046  1.00  0.00    -0.374 OA
ENDROOT
BRANCH   1   2
ATOM      2  C   UNL A   1      32.531  29.230  26.354  1.00  0.00     0.202 C 
BRANCH   2   3
ATOM      3  C   UNL A   1      31.967  27.931  26.999  1.00  0.00     0.261 C 
BRANCH   3   4
ATOM      4  O   UNL A   1      30.805  27.277  26.445  1.00  0.00    -0.459 OA
BRANCH   4   5
ATOM      5  C   UNL A   1      30.811  26.988  25.110  1.00  0.00     0.361 C 
ATOM      6  O   UNL A   1      30.613  27.815  24.224  1.00  0.00    -0.245 OA
BRANCH   5   7
ATOM      7  C   UNL A   1      31.080  25.496  24.825  1.00  0.00     0.387 C 
BRANCH   7   8
ATOM      8  N   UNL A   1      32.457  25.048  25.055  1.00  0.00    -0.319 N 
ATOM      9  H   UNL A   1      32.478  24.198  24.490  1.00  0.00     0.349 HD
BRANCH   8  10
ATOM     10  C   UNL A   1      33.523  25.601  24.238  1.00  0.00     0.291 C 
BRANCH  10  11
ATOM     11  C   UNL A   1      33.676  25.039  22.848  1.00  0.00     0.025 C 
ATOM     12  C   UNL A   1      33.647  23.735  22.533  1.00  0.00     0.010 C 
ENDBRANCH  10  11
ENDBRANCH   8  10
BRANCH   8  13
ATOM     13  C   UNL A   1      32.748  24.275  26.233  1.00  0.00     0.300 C 
BRANCH  13  14
ATOM     14  C   UNL A   1      33.329  22.912  25.937  1.00  0.00     0.014 A 
ATOM     15  C   UNL A   1      32.087  21.662  25.521  1.00  0.00     0.010 A 
ATOM     16  C   UNL A   1      35.131  22.562  25.756  1.00  0.00    -0.010 A 
ATOM     17  C   UNL A   1      32.608  20.070  24.889  1.00  0.00     0.001 A 
ATOM     18  C   UNL A   1      35.635  20.941  25.155  1.00  0.00    -0.018 A 
ATOM     19  C   UNL A   1      36.235  23.425  25.895  1.00  0.00     0.009 A 
ATOM     20  C   UNL A   1      34.363  19.711  24.746  1.00  0.00     0.009 A 
ATOM     21  C   UNL A   1      37.013  20.725  25.011  1.00  0.00     0.009 A 
ATOM     22  C   UNL A   1      37.561  23.053  25.607  1.00  0.00     0.001 A 
ATOM     23  C   UNL A   1      37.938  21.759  25.218  1.00  0.00     0.001 A 
ENDBRANCH  13  14
ENDBRANCH   8  13
ENDBRANCH   7   8
ENDBRANCH   5   7
ENDBRANCH   4   5
ENDBRANCH   3   4
ENDBRANCH   2   3
ENDBRANCH   1   2
BRANCH   1  24
ATOM     24  C   UNL A   1      34.441  30.658  27.318  1.00  0.00     0.202 C 
BRANCH  24  25
ATOM     25  C   UNL A   1      35.871  29.756  28.700  1.00  0.00     0.261 C 
BRANCH  25  26
ATOM     26  O   UNL A   1      37.342  29.376  28.495  1.00  0.00    -0.460 OA
BRANCH  26  27
ATOM     27  C   UNL A   1      38.048  28.867  29.534  1.00  0.00     0.338 C 
ATOM     28  O   UNL A   1      37.660  28.281  30.526  1.00  0.00    -0.246 OA
BRANCH  27  29
ATOM     29  C   UNL A   1      39.423  28.907  29.051  1.00  0.00     0.060 A 
ATOM     30  C   UNL A   1      39.612  28.965  27.669  1.00  0.00     0.016 A 
ATOM     31  C   UNL A   1      40.475  29.075  29.962  1.00  0.00     0.016 A 
ATOM     32  C   UNL A   1      40.876  29.227  27.186  1.00  0.00     0.010 A 
ATOM     33  C   UNL A   1      41.753  29.296  29.478  1.00  0.00     0.010 A 
ATOM     34  C   UNL A   1      41.945  29.333  28.090  1.00  0.00    -0.014 A 
BRANCH  34  35
ATOM     35  C   UNL A   1      43.269  29.055  27.528  1.00  0.00     0.031 A 
ATOM     36  C   UNL A   1      44.273  30.157  27.696  1.00  0.00     0.074 A 
ATOM     37  C   UNL A   1      43.576  27.831  27.077  1.00  0.00     0.049 A 
ATOM     38  N   UNL A   1      45.562  30.133  27.519  1.00  0.00    -0.248 NA
ATOM     39  C   UNL A   1      43.754  31.454  28.181  1.00  0.00     0.031 C 
ATOM     40  C   UNL A   1      42.648  26.705  26.976  1.00  0.00     0.029 A 
ATOM     41  N   UNL A   1      44.775  27.324  26.666  1.00  0.00    -0.354 N 
ATOM     42  C   UNL A   1      46.004  31.394  27.901  1.00  0.00     0.074 A 
ATOM     43  C   UNL A   1      44.857  32.173  28.286  1.00  0.00     0.031 C 
ATOM     44  C   UNL A   1      43.325  25.623  26.547  1.00  0.00     0.029 A 
ATOM     45  C   UNL A   1      44.721  25.995  26.328  1.00  0.00     0.049 A 
ATOM     46  H   UNL A   1      45.599  27.860  26.618  1.00  0.00     0.167 HD
ATOM     47  C   UNL A   1      47.272  31.857  27.929  1.00  0.00     0.031 A 
ATOM     48  C   UNL A   1      45.706  25.190  25.889  1.00  0.00     0.031 A 
ATOM     49  C   UNL A   1      48.381  31.074  27.468  1.00  0.00     0.049 A 
ATOM     50  C   UNL A   1      47.094  25.774  25.804  1.00  0.00     0.074 A 
ATOM     51  C   UNL A   1      49.708  31.435  27.360  1.00  0.00     0.029 A 
ATOM     52  N   UNL A   1      48.272  29.766  27.014  1.00  0.00    -0.354 N 
ATOM     53  N   UNL A   1      47.509  26.972  26.154  1.00  0.00    -0.248 NA
ATOM     54  C   UNL A   1      48.147  24.898  25.281  1.00  0.00     0.031 C 
ATOM     55  C   UNL A   1      50.389  30.368  26.768  1.00  0.00     0.029 A 
ATOM     56  C   UNL A   1      49.505  29.311  26.592  1.00  0.00     0.049 A 
ATOM     57  H   UNL A   1      47.440  29.240  26.996  1.00  0.00     0.167 HD
ATOM     58  C   UNL A   1      48.878  26.986  25.916  1.00  0.00     0.074 A 
ATOM     59  C   UNL A   1      49.218  25.665  25.420  1.00  0.00     0.031 C 
ATOM     60  C   UNL A   1      49.779  27.989  26.087  1.00  0.00     0.031 A 
BRANCH  47  61
ATOM     61  C   UNL A   1      47.474  33.277  28.375  1.00  0.00    -0.014 A 
ATOM     62  C   UNL A   1      47.717  33.602  29.724  1.00  0.00     0.010 A 
ATOM     63  C   UNL A   1      47.382  34.312  27.429  1.00  0.00     0.010 A 
ATOM     64  C   UNL A   1      47.837  34.938  30.120  1.00  0.00     0.020 A 
ATOM     65  C   UNL A   1      47.531  35.646  27.815  1.00  0.00     0.020 A 
ATOM     66  C   UNL A   1      47.748  35.951  29.160  1.00  0.00     0.054 A 
BRANCH  66  67
ATOM     67  S   UNL A   1      47.949  37.674  29.691  1.00  0.00     0.124 S 
ATOM     68  O   UNL A   1      48.078  37.534  31.138  1.00  0.00    -0.237 OA
ATOM     69  O   UNL A   1      49.162  38.082  28.987  1.00  0.00    -0.237 OA
ATOM     70  O   UNL A   1      46.721  38.322  29.236  1.00  0.00    -0.744 OA
ENDBRANCH  66  67
ENDBRANCH  47  61
BRANCH  48  71
ATOM     71  C   UNL A   1      45.410  23.788  25.477  1.00  0.00    -0.014 A 
ATOM     72  C   UNL A   1      44.964  23.475  24.181  1.00  0.00     0.010 A 
ATOM     73  C   UNL A   1      45.573  22.742  26.407  1.00  0.00     0.010 A 
ATOM     74  C   UNL A   1      44.668  22.152  23.831  1.00  0.00     0.020 A 
ATOM     75  C   UNL A   1      45.310  21.416  26.052  1.00  0.00     0.020 A 
ATOM     76  C   UNL A   1      44.847  21.131  24.768  1.00  0.00     0.054 A 
BRANCH  76  77
ATOM     77  S   UNL A   1      44.495  19.417  24.282  1.00  0.00     0.124 S 
ATOM     78  O   UNL A   1      43.176  19.199  24.865  1.00  0.00    -0.237 OA
ATOM     79  O   UNL A   1      44.542  19.491  22.824  1.00  0.00    -0.237 OA
ATOM     80  O   UNL A   1      45.584  18.658  24.894  1.00  0.00    -0.744 OA
ENDBRANCH  76  77
ENDBRANCH  48  71
BRANCH  60  81
ATOM     81  C   UNL A   1      51.213  27.669  25.764  1.00  0.00    -0.014 A 
ATOM     82  C   UNL A   1      52.101  27.203  26.747  1.00  0.00     0.010 A 
ATOM     83  C   UNL A   1      51.662  27.809  24.437  1.00  0.00     0.010 A 
ATOM     84  C   UNL A   1      53.433  26.946  26.423  1.00  0.00     0.020 A 
ATOM     85  C   UNL A   1      52.981  27.509  24.099  1.00  0.00     0.020 A 
ATOM     86  C   UNL A   1      53.864  27.105  25.101  1.00  0.00     0.054 A 
BRANCH  86  87
ATOM     87  S   UNL A   1      55.598  26.763  24.706  1.00  0.00     0.124 S 
ATOM     88  O   UNL A   1      56.297  27.526  25.737  1.00  0.00    -0.237 OA
ATOM     89  O   UNL A   1      55.675  25.310  24.837  1.00  0.00    -0.237 OA
ATOM     90  O   UNL A   1      55.751  27.271  23.345  1.00  0.00    -0.744 OA
ENDBRANCH  86  87
ENDBRANCH  60  81
ENDBRANCH  34  35
ENDBRANCH  27  29
ENDBRANCH  26  27
ENDBRANCH  25  26
ENDBRANCH  24  25
ENDBRANCH   1  24
TORSDOF 22
ENDMDL
MODEL 3
REMARK VINA RESULT:      -9.4      2.238      8.690
REMARK SMILES C=CC[N@H+](CC(=O)OCCOCCOC(=O)c1ccc(-c2c3nc(c(-c4ccc(S(=O)(=O)[O-])cc4)c4ccc([nH]4)c(-c4ccc(S(=O)(=O)[O-])cc4)c4nc(c(-c5ccc(S(=O)(=O)[O-])cc5)c5ccc2[nH]5)C=C4)C=C3)cc1)Cc1cccc2ccccc12
REMARK SMILES IDX 11 1 10 2 9 3 8 4 6 5 7 6 5 7 4 8 3 10 2 11 1 12 77 13 78 14
REMARK SMILES IDX 79 15 87 16 80 17 82 18 86 19 81 20 83 21 85 22 84 23 12 24
REMARK SMILES IDX 13 25 14 26 15 27 16 28 17 29 18 30 76 31 19 32 75 33 20 34
REMARK SMILES IDX 21 35 22 36 69 37 23 38 74 39 68 40 70 41 24 42 73 43 67 44
REMARK SMILES IDX 66 45 25 47 55 48 36 49 54 50 37 51 40 52 53 53 71 54 38 55
REMARK SMILES IDX 39 56 52 58 72 59 41 60 26 61 27 62 35 63 28 64 34 65 29 66
REMARK SMILES IDX 30 67 31 68 32 69 33 70 56 71 57 72 65 73 58 74 64 75 59 76
REMARK SMILES IDX 60 77 61 78 62 79 63 80 42 81 43 82 51 83 44 84 50 85 45 86
REMARK SMILES IDX 46 87 47 88 48 89 49 90
REMARK H PARENT 4 9 70 46 40 57
REMARK Flexibility Score: inf
ROOT
ATOM      1  O   UNL A   1      31.717  29.052  26.834  1.00  0.00    -0.374 OA
ENDROOT
BRANCH   1   2
ATOM      2  C   UNL A   1      31.977  27.703  26.408  1.00  0.00     0.202 C 
BRANCH   2   3
ATOM      3  C   UNL A   1      30.919  26.592  26.141  1.00  0.00     0.261 C 
BRANCH   3   4
ATOM      4  O   UNL A   1      30.398  26.373  24.813  1.00  0.00    -0.459 OA
BRANCH   4   5
ATOM      5  C   UNL A   1      31.110  25.564  23.973  1.00  0.00     0.361 C 
ATOM      6  O   UNL A   1      32.100  25.925  23.343  1.00  0.00    -0.245 OA
BRANCH   5   7
ATOM      7  C   UNL A   1      30.529  24.138  23.885  1.00  0.00     0.387 C 
BRANCH   7   8
ATOM      8  N   UNL A   1      31.434  23.061  24.300  1.00  0.00    -0.319 N 
ATOM      9  H   UNL A   1      32.240  23.602  24.617  1.00  0.00     0.349 HD
BRANCH   8  10
ATOM     10  C   UNL A   1      31.300  22.503  25.634  1.00  0.00     0.291 C 
BRANCH  10  11
ATOM     11  C   UNL A   1      31.929  23.279  26.762  1.00  0.00     0.025 C 
ATOM     12  C   UNL A   1      33.237  23.556  26.876  1.00  0.00     0.010 C 
ENDBRANCH  10  11
ENDBRANCH   8  10
BRANCH   8  13
ATOM     13  C   UNL A   1      32.252  22.421  23.305  1.00  0.00     0.300 C 
BRANCH  13  14
ATOM     14  C   UNL A   1      33.176  21.364  23.866  1.00  0.00     0.014 A 
ATOM     15  C   UNL A   1      32.510  19.683  23.766  1.00  0.00     0.010 A 
ATOM     16  C   UNL A   1      34.920  21.669  24.381  1.00  0.00    -0.010 A 
ATOM     17  C   UNL A   1      33.568  18.287  24.137  1.00  0.00     0.001 A 
ATOM     18  C   UNL A   1      35.956  20.254  24.788  1.00  0.00    -0.018 A 
ATOM     19  C   UNL A   1      35.660  22.868  24.395  1.00  0.00     0.009 A 
ATOM     20  C   UNL A   1      35.258  18.581  24.676  1.00  0.00     0.009 A 
ATOM     21  C   UNL A   1      37.282  20.529  25.152  1.00  0.00     0.009 A 
ATOM     22  C   UNL A   1      37.031  22.939  24.698  1.00  0.00     0.001 A 
ATOM     23  C   UNL A   1      37.798  21.831  25.092  1.00  0.00     0.001 A 
ENDBRANCH  13  14
ENDBRANCH   8  13
ENDBRANCH   7   8
ENDBRANCH   5   7
ENDBRANCH   4   5
ENDBRANCH   3   4
ENDBRANCH   2   3
ENDBRANCH   1   2
BRANCH   1  24
ATOM     24  C   UNL A   1      32.764  30.146  26.570  1.00  0.00     0.202 C 
BRANCH  24  25
ATOM     25  C   UNL A   1      33.314  31.976  27.626  1.00  0.00     0.261 C 
BRANCH  25  26
ATOM     26  O   UNL A   1      34.650  32.726  27.681  1.00  0.00    -0.460 OA
BRANCH  26  27
ATOM     27  C   UNL A   1      35.009  33.362  28.822  1.00  0.00     0.338 C 
ATOM     28  O   UNL A   1      34.363  34.103  29.538  1.00  0.00    -0.246 OA
BRANCH  27  29
ATOM     29  C   UNL A   1      36.268  32.718  29.179  1.00  0.00     0.060 A 
ATOM     30  C   UNL A   1      36.205  31.393  29.615  1.00  0.00     0.016 A 
ATOM     31  C   UNL A   1      37.481  33.360  28.902  1.00  0.00     0.016 A 
ATOM     32  C   UNL A   1      37.379  30.684  29.748  1.00  0.00     0.010 A 
ATOM     33  C   UNL A   1      38.665  32.664  29.075  1.00  0.00     0.010 A 
ATOM     34  C   UNL A   1      38.602  31.341  29.533  1.00  0.00    -0.014 A 
BRANCH  34  35
ATOM     35  C   UNL A   1      39.759  30.742  30.203  1.00  0.00     0.031 A 
ATOM     36  C   UNL A   1      40.055  31.290  31.567  1.00  0.00     0.074 A 
ATOM     37  C   UNL A   1      40.362  29.662  29.688  1.00  0.00     0.049 A 
ATOM     38  N   UNL A   1      40.848  30.827  32.488  1.00  0.00    -0.248 NA
ATOM     39  C   UNL A   1      39.314  32.506  31.965  1.00  0.00     0.031 C 
ATOM     40  C   UNL A   1      40.045  29.045  28.399  1.00  0.00     0.029 A 
ATOM     41  N   UNL A   1      41.337  28.866  30.217  1.00  0.00    -0.354 N 
ATOM     42  C   UNL A   1      40.674  31.672  33.577  1.00  0.00     0.074 A 
ATOM     43  C   UNL A   1      39.734  32.695  33.202  1.00  0.00     0.031 C 
ATOM     44  C   UNL A   1      40.805  27.944  28.248  1.00  0.00     0.029 A 
ATOM     45  C   UNL A   1      41.669  27.801  29.418  1.00  0.00     0.049 A 
ATOM     46  H   UNL A   1      41.760  29.040  31.088  1.00  0.00     0.167 HD
ATOM     47  C   UNL A   1      41.255  31.592  34.793  1.00  0.00     0.031 A 
ATOM     48  C   UNL A   1      42.576  26.831  29.631  1.00  0.00     0.031 A 
ATOM     49  C   UNL A   1      42.242  30.601  35.104  1.00  0.00     0.049 A 
ATOM     50  C   UNL A   1      43.309  26.842  30.950  1.00  0.00     0.074 A 
ATOM     51  C   UNL A   1      42.975  30.444  36.262  1.00  0.00     0.029 A 
ATOM     52  N   UNL A   1      42.646  29.605  34.223  1.00  0.00    -0.354 N 
ATOM     53  N   UNL A   1      43.152  27.652  31.974  1.00  0.00    -0.248 NA
ATOM     54  C   UNL A   1      44.327  25.806  31.148  1.00  0.00     0.031 C 
ATOM     55  C   UNL A   1      43.879  29.398  36.052  1.00  0.00     0.029 A 
ATOM     56  C   UNL A   1      43.646  28.846  34.799  1.00  0.00     0.049 A 
ATOM     57  H   UNL A   1      42.276  29.461  33.323  1.00  0.00     0.167 HD
ATOM     58  C   UNL A   1      44.036  27.207  32.951  1.00  0.00     0.074 A 
ATOM     59  C   UNL A   1      44.699  26.041  32.397  1.00  0.00     0.031 C 
ATOM     60  C   UNL A   1      44.284  27.706  34.190  1.00  0.00     0.031 A 
BRANCH  47  61
ATOM     61  C   UNL A   1      40.898  32.653  35.795  1.00  0.00    -0.014 A 
ATOM     62  C   UNL A   1      41.532  33.911  35.799  1.00  0.00     0.010 A 
ATOM     63  C   UNL A   1      39.933  32.372  36.776  1.00  0.00     0.010 A 
ATOM     64  C   UNL A   1      41.224  34.856  36.783  1.00  0.00     0.020 A 
ATOM     65  C   UNL A   1      39.600  33.323  37.743  1.00  0.00     0.020 A 
ATOM     66  C   UNL A   1      40.256  34.556  37.747  1.00  0.00     0.054 A 
BRANCH  66  67
ATOM     67  S   UNL A   1      39.844  35.813  38.988  1.00  0.00     0.124 S 
ATOM     68  O   UNL A   1      40.955  35.688  39.928  1.00  0.00    -0.237 OA
ATOM     69  O   UNL A   1      39.822  37.041  38.198  1.00  0.00    -0.237 OA
ATOM     70  O   UNL A   1      38.546  35.382  39.500  1.00  0.00    -0.744 OA
ENDBRANCH  66  67
ENDBRANCH  47  61
BRANCH  48  71
ATOM     71  C   UNL A   1      42.856  25.812  28.579  1.00  0.00    -0.014 A 
ATOM     72  C   UNL A   1      43.759  26.059  27.530  1.00  0.00     0.010 A 
ATOM     73  C   UNL A   1      42.198  24.567  28.625  1.00  0.00     0.010 A 
ATOM     74  C   UNL A   1      43.982  25.094  26.541  1.00  0.00     0.020 A 
ATOM     75  C   UNL A   1      42.441  23.588  27.658  1.00  0.00     0.020 A 
ATOM     76  C   UNL A   1      43.323  23.863  26.614  1.00  0.00     0.054 A 
BRANCH  76  77
ATOM     77  S   UNL A   1      43.656  22.609  25.343  1.00  0.00     0.124 S 
ATOM     78  O   UNL A   1      44.817  21.918  25.893  1.00  0.00    -0.237 OA
ATOM     79  O   UNL A   1      42.411  21.845  25.325  1.00  0.00    -0.237 OA
ATOM     80  O   UNL A   1      43.909  23.401  24.141  1.00  0.00    -0.744 OA
ENDBRANCH  76  77
ENDBRANCH  48  71
BRANCH  60  81
ATOM     81  C   UNL A   1      45.290  26.964  35.027  1.00  0.00    -0.014 A 
ATOM     82  C   UNL A   1      46.651  27.312  35.018  1.00  0.00     0.010 A 
ATOM     83  C   UNL A   1      44.848  25.922  35.862  1.00  0.00     0.010 A 
ATOM     84  C   UNL A   1      47.564  26.584  35.781  1.00  0.00     0.020 A 
ATOM     85  C   UNL A   1      45.752  25.222  36.661  1.00  0.00     0.020 A 
ATOM     86  C   UNL A   1      47.108  25.541  36.594  1.00  0.00     0.054 A 
BRANCH  86  87
ATOM     87  S   UNL A   1      48.314  24.614  37.575  1.00  0.00     0.124 S 
ATOM     88  O   UNL A   1      49.216  24.109  36.544  1.00  0.00    -0.237 OA
ATOM     89  O   UNL A   1      48.872  25.642  38.451  1.00  0.00    -0.237 OA
ATOM     90  O   UNL A   1      47.507  23.599  38.248  1.00  0.00    -0.744 OA
ENDBRANCH  86  87
ENDBRANCH  60  81
ENDBRANCH  34  35
ENDBRANCH  27  29
ENDBRANCH  26  27
ENDBRANCH  25  26
ENDBRANCH  24  25
ENDBRANCH   1  24
TORSDOF 22
ENDMDL
