MODEL 1
REMARK VINA RESULT:     -10.5      0.000      0.000
REMARK SMILES Cc1ccc(C(F)(F)F)cc1/C=C/C(=O)OCCOCCOC(=O)c1ccc(-c2c3nc(c(-c4ccc(S(=O)(=O)[O-])cc4)c4ccc([nH]4)c(-c4ccc(S(=O)(=O)[O-])cc4)c4nc(c(-c5ccc(S(=O)(=O)[O-])cc5)c5ccc2[nH]5)C=C4)C=C3)cc1
REMARK SMILES IDX 20 1 19 2 18 3 17 4 16 5 14 6 15 7 13 8 12 9 11 10 1 11 2 12
REMARK SMILES IDX 3 13 4 14 10 15 5 16 6 17 7 18 8 19 9 20 21 21 22 22 23 23
REMARK SMILES IDX 24 24 25 25 26 26 84 27 27 28 83 29 28 30 29 31 30 32 77 33
REMARK SMILES IDX 31 34 82 35 76 36 78 37 32 38 81 39 75 40 74 41 33 43 63 44
REMARK SMILES IDX 44 45 62 46 45 47 48 48 61 49 79 50 46 51 47 52 60 54 80 55
REMARK SMILES IDX 49 56 34 57 35 58 43 59 36 60 42 61 37 62 38 63 39 64 40 65
REMARK SMILES IDX 41 66 64 67 65 68 73 69 66 70 72 71 67 72 68 73 69 74 70 75
REMARK SMILES IDX 71 76 50 77 51 78 59 79 52 80 58 81 53 82 54 83 55 84 56 85
REMARK SMILES IDX 57 86
REMARK H PARENT 78 42 48 53
REMARK Flexibility Score: inf
ROOT
ATOM      1  C   UNL A   1      36.070  31.284  30.293  1.00  0.00     0.202 C 
ENDROOT
BRANCH   1   2
ATOM      2  O   UNL A   1      36.278  31.860  29.030  1.00  0.00    -0.374 OA
BRANCH   2   3
ATOM      3  C   UNL A   1      35.375  32.890  28.663  1.00  0.00     0.202 C 
BRANCH   3   4
ATOM      4  C   UNL A   1      34.045  32.225  28.594  1.00  0.00     0.261 C 
BRANCH   4   5
ATOM      5  O   UNL A   1      33.826  31.600  27.315  1.00  0.00    -0.460 OA
BRANCH   5   6
ATOM      6  C   UNL A   1      33.730  30.260  27.111  1.00  0.00     0.330 C 
ATOM      7  O   UNL A   1      34.526  29.378  27.336  1.00  0.00    -0.247 OA
BRANCH   6   8
ATOM      8  C   UNL A   1      32.372  29.982  26.596  1.00  0.00     0.094 C 
ATOM      9  C   UNL A   1      32.244  29.483  25.356  1.00  0.00     0.016 C 
BRANCH   9  10
ATOM     10  C   UNL A   1      31.035  29.347  24.555  1.00  0.00    -0.022 A 
ATOM     11  C   UNL A   1      31.463  26.830  24.127  1.00  0.00     0.045 C 
ATOM     12  C   UNL A   1      30.692  28.120  23.951  1.00  0.00    -0.044 A 
ATOM     13  C   UNL A   1      29.551  28.074  23.136  1.00  0.00     0.004 A 
ATOM     14  C   UNL A   1      28.791  29.219  22.893  1.00  0.00     0.013 A 
ATOM     15  C   UNL A   1      30.282  30.496  24.276  1.00  0.00     0.021 A 
ATOM     16  C   UNL A   1      29.157  30.447  23.452  1.00  0.00     0.056 A 
BRANCH  16  17
ATOM     17  C   UNL A   1      28.367  31.698  23.179  1.00  0.00     0.416 C 
ATOM     18  F   UNL A   1      28.994  32.820  23.631  1.00  0.00    -0.166 F 
ATOM     19  F   UNL A   1      28.157  31.900  21.848  1.00  0.00    -0.166 F 
ATOM     20  F   UNL A   1      27.132  31.709  23.756  1.00  0.00    -0.166 F 
ENDBRANCH  16  17
ENDBRANCH   9  10
ENDBRANCH   6   8
ENDBRANCH   5   6
ENDBRANCH   4   5
ENDBRANCH   3   4
ENDBRANCH   2   3
ENDBRANCH   1   2
BRANCH   1  21
ATOM     21  C   UNL A   1      37.310  30.549  30.805  1.00  0.00     0.261 C 
BRANCH  21  22
ATOM     22  O   UNL A   1      37.008  29.163  31.091  1.00  0.00    -0.460 OA
BRANCH  22  23
ATOM     23  C   UNL A   1      37.748  28.562  32.073  1.00  0.00     0.338 C 
ATOM     24  O   UNL A   1      37.343  28.384  33.208  1.00  0.00    -0.246 OA
BRANCH  23  25
ATOM     25  C   UNL A   1      39.055  28.077  31.536  1.00  0.00     0.060 A 
ATOM     26  C   UNL A   1      40.275  28.327  32.195  1.00  0.00     0.016 A 
ATOM     27  C   UNL A   1      39.068  27.517  30.264  1.00  0.00     0.016 A 
ATOM     28  C   UNL A   1      41.502  28.151  31.520  1.00  0.00     0.010 A 
ATOM     29  C   UNL A   1      40.259  27.442  29.577  1.00  0.00     0.010 A 
ATOM     30  C   UNL A   1      41.486  27.778  30.178  1.00  0.00    -0.014 A 
BRANCH  30  31
ATOM     31  C   UNL A   1      42.614  27.755  29.231  1.00  0.00     0.031 A 
ATOM     32  C   UNL A   1      43.243  26.438  28.970  1.00  0.00     0.074 A 
ATOM     33  C   UNL A   1      42.824  28.780  28.365  1.00  0.00     0.049 A 
ATOM     34  N   UNL A   1      44.231  26.267  28.170  1.00  0.00    -0.248 NA
ATOM     35  C   UNL A   1      42.831  25.186  29.612  1.00  0.00     0.031 C 
ATOM     36  C   UNL A   1      43.382  28.739  27.009  1.00  0.00     0.029 A 
ATOM     37  N   UNL A   1      42.549  30.134  28.529  1.00  0.00    -0.354 N 
ATOM     38  C   UNL A   1      44.349  24.923  27.922  1.00  0.00     0.074 A 
ATOM     39  C   UNL A   1      43.537  24.282  28.924  1.00  0.00     0.031 C 
ATOM     40  C   UNL A   1      43.634  29.990  26.576  1.00  0.00     0.029 A 
ATOM     41  C   UNL A   1      43.360  30.896  27.681  1.00  0.00     0.049 A 
ATOM     42  H   UNL A   1      41.881  30.503  29.150  1.00  0.00     0.167 HD
ATOM     43  C   UNL A   1      45.031  24.538  26.810  1.00  0.00     0.031 A 
ATOM     44  C   UNL A   1      44.176  31.841  28.219  1.00  0.00     0.031 A 
ATOM     45  C   UNL A   1      45.695  25.696  26.192  1.00  0.00     0.049 A 
ATOM     46  C   UNL A   1      45.578  31.316  28.075  1.00  0.00     0.074 A 
ATOM     47  C   UNL A   1      45.455  26.438  25.049  1.00  0.00     0.029 A 
ATOM     48  N   UNL A   1      46.563  26.458  26.976  1.00  0.00    -0.354 N 
ATOM     49  N   UNL A   1      45.831  30.041  27.931  1.00  0.00    -0.248 NA
ATOM     50  C   UNL A   1      46.765  32.145  27.912  1.00  0.00     0.031 C 
ATOM     51  C   UNL A   1      46.087  27.709  25.222  1.00  0.00     0.029 A 
ATOM     52  C   UNL A   1      46.743  27.722  26.447  1.00  0.00     0.049 A 
ATOM     53  H   UNL A   1      46.992  26.136  27.803  1.00  0.00     0.167 HD
ATOM     54  C   UNL A   1      47.112  29.879  27.521  1.00  0.00     0.074 A 
ATOM     55  C   UNL A   1      47.685  31.215  27.592  1.00  0.00     0.031 C 
ATOM     56  C   UNL A   1      47.621  28.683  27.114  1.00  0.00     0.031 A 
BRANCH  43  57
ATOM     57  C   UNL A   1      44.969  23.164  26.180  1.00  0.00    -0.014 A 
ATOM     58  C   UNL A   1      43.761  22.439  26.237  1.00  0.00     0.010 A 
ATOM     59  C   UNL A   1      46.061  22.496  25.586  1.00  0.00     0.010 A 
ATOM     60  C   UNL A   1      43.649  21.133  25.728  1.00  0.00     0.020 A 
ATOM     61  C   UNL A   1      45.958  21.202  25.050  1.00  0.00     0.020 A 
ATOM     62  C   UNL A   1      44.749  20.523  25.129  1.00  0.00     0.054 A 
BRANCH  62  63
ATOM     63  S   UNL A   1      44.583  18.846  24.468  1.00  0.00     0.124 S 
ATOM     64  O   UNL A   1      45.768  18.179  25.001  1.00  0.00    -0.237 OA
ATOM     65  O   UNL A   1      43.307  18.409  25.029  1.00  0.00    -0.237 OA
ATOM     66  O   UNL A   1      44.584  19.040  23.019  1.00  0.00    -0.744 OA
ENDBRANCH  62  63
ENDBRANCH  43  57
BRANCH  44  67
ATOM     67  C   UNL A   1      43.516  32.575  29.356  1.00  0.00    -0.014 A 
ATOM     68  C   UNL A   1      44.016  32.296  30.656  1.00  0.00     0.010 A 
ATOM     69  C   UNL A   1      42.878  33.815  29.157  1.00  0.00     0.010 A 
ATOM     70  C   UNL A   1      44.025  33.276  31.665  1.00  0.00     0.020 A 
ATOM     71  C   UNL A   1      42.904  34.806  30.162  1.00  0.00     0.020 A 
ATOM     72  C   UNL A   1      43.520  34.548  31.392  1.00  0.00     0.054 A 
BRANCH  72  73
ATOM     73  S   UNL A   1      43.971  35.927  32.513  1.00  0.00     0.124 S 
ATOM     74  O   UNL A   1      45.195  35.440  33.137  1.00  0.00    -0.237 OA
ATOM     75  O   UNL A   1      44.143  37.053  31.594  1.00  0.00    -0.237 OA
ATOM     76  O   UNL A   1      42.808  36.039  33.386  1.00  0.00    -0.744 OA
ENDBRANCH  72  73
ENDBRANCH  44  67
BRANCH  56  77
ATOM     77  C   UNL A   1      49.068  28.358  27.300  1.00  0.00    -0.014 A 
ATOM     78  C   UNL A   1      49.964  28.296  26.219  1.00  0.00     0.010 A 
ATOM     79  C   UNL A   1      49.606  28.290  28.602  1.00  0.00     0.010 A 
ATOM     80  C   UNL A   1      51.318  28.056  26.419  1.00  0.00     0.020 A 
ATOM     81  C   UNL A   1      50.972  28.123  28.816  1.00  0.00     0.020 A 
ATOM     82  C   UNL A   1      51.810  27.958  27.719  1.00  0.00     0.054 A 
BRANCH  82  83
ATOM     83  S   UNL A   1      53.565  27.628  27.956  1.00  0.00     0.124 S 
ATOM     84  O   UNL A   1      53.848  28.406  29.160  1.00  0.00    -0.237 OA
ATOM     85  O   UNL A   1      53.603  26.177  28.125  1.00  0.00    -0.237 OA
ATOM     86  O   UNL A   1      54.180  28.123  26.728  1.00  0.00    -0.744 OA
ENDBRANCH  82  83
ENDBRANCH  56  77
ENDBRANCH  30  31
ENDBRANCH  23  25
ENDBRANCH  22  23
ENDBRANCH  21  22
ENDBRANCH   1  21
TORSDOF 19
ENDMDL
MODEL 2
REMARK VINA RESULT:     -10.4      4.832      6.653
REMARK SMILES Cc1ccc(C(F)(F)F)cc1/C=C/C(=O)OCCOCCOC(=O)c1ccc(-c2c3nc(c(-c4ccc(S(=O)(=O)[O-])cc4)c4ccc([nH]4)c(-c4ccc(S(=O)(=O)[O-])cc4)c4nc(c(-c5ccc(S(=O)(=O)[O-])cc5)c5ccc2[nH]5)C=C4)C=C3)cc1
REMARK SMILES IDX 20 1 19 2 18 3 17 4 16 5 14 6 15 7 13 8 12 9 11 10 1 11 2 12
REMARK SMILES IDX 3 13 4 14 10 15 5 16 6 17 7 18 8 19 9 20 21 21 22 22 23 23
REMARK SMILES IDX 24 24 25 25 26 26 84 27 27 28 83 29 28 30 29 31 30 32 77 33
REMARK SMILES IDX 31 34 82 35 76 36 78 37 32 38 81 39 75 40 74 41 33 43 63 44
REMARK SMILES IDX 44 45 62 46 45 47 48 48 61 49 79 50 46 51 47 52 60 54 80 55
REMARK SMILES IDX 49 56 34 57 35 58 43 59 36 60 42 61 37 62 38 63 39 64 40 65
REMARK SMILES IDX 41 66 64 67 65 68 73 69 66 70 72 71 67 72 68 73 69 74 70 75
REMARK SMILES IDX 71 76 50 77 51 78 59 79 52 80 58 81 53 82 54 83 55 84 56 85
REMARK SMILES IDX 57 86
REMARK H PARENT 78 42 48 53
REMARK Flexibility Score: inf
ROOT
ATOM      1  C   UNL A   1      33.292  31.135  27.285  1.00  0.00     0.202 C 
ENDROOT
BRANCH   1   2
ATOM      2  O   UNL A   1      32.224  30.550  26.587  1.00  0.00    -0.374 OA
BRANCH   2   3
ATOM      3  C   UNL A   1      32.488  29.286  25.997  1.00  0.00     0.202 C 
BRANCH   3   4
ATOM      4  C   UNL A   1      31.305  29.014  25.136  1.00  0.00     0.261 C 
BRANCH   4   5
ATOM      5  O   UNL A   1      31.687  28.745  23.774  1.00  0.00    -0.460 OA
BRANCH   5   6
ATOM      6  C   UNL A   1      31.035  27.896  22.937  1.00  0.00     0.330 C 
ATOM      7  O   UNL A   1      30.372  28.128  21.952  1.00  0.00    -0.247 OA
BRANCH   6   8
ATOM      8  C   UNL A   1      31.325  26.516  23.384  1.00  0.00     0.094 C 
ATOM      9  C   UNL A   1      32.559  26.024  23.193  1.00  0.00     0.016 C 
BRANCH   9  10
ATOM     10  C   UNL A   1      33.016  24.647  23.329  1.00  0.00    -0.022 A 
ATOM     11  C   UNL A   1      30.596  23.733  23.429  1.00  0.00     0.045 C 
ATOM     12  C   UNL A   1      32.101  23.585  23.477  1.00  0.00    -0.044 A 
ATOM     13  C   UNL A   1      32.607  22.292  23.673  1.00  0.00     0.004 A 
ATOM     14  C   UNL A   1      33.981  22.059  23.758  1.00  0.00     0.013 A 
ATOM     15  C   UNL A   1      34.392  24.405  23.449  1.00  0.00     0.021 A 
ATOM     16  C   UNL A   1      34.888  23.119  23.659  1.00  0.00     0.056 A 
BRANCH  16  17
ATOM     17  C   UNL A   1      36.372  22.893  23.777  1.00  0.00     0.416 C 
ATOM     18  F   UNL A   1      36.675  21.639  24.214  1.00  0.00    -0.166 F 
ATOM     19  F   UNL A   1      37.015  23.037  22.585  1.00  0.00    -0.166 F 
ATOM     20  F   UNL A   1      36.993  23.745  24.641  1.00  0.00    -0.166 F 
ENDBRANCH  16  17
ENDBRANCH   9  10
ENDBRANCH   6   8
ENDBRANCH   5   6
ENDBRANCH   4   5
ENDBRANCH   3   4
ENDBRANCH   2   3
ENDBRANCH   1   2
BRANCH   1  21
ATOM     21  C   UNL A   1      34.549  30.265  27.255  1.00  0.00     0.261 C 
BRANCH  21  22
ATOM     22  O   UNL A   1      35.396  30.539  28.395  1.00  0.00    -0.460 OA
BRANCH  22  23
ATOM     23  C   UNL A   1      36.693  30.886  28.131  1.00  0.00     0.338 C 
ATOM     24  O   UNL A   1      37.037  32.011  27.813  1.00  0.00    -0.246 OA
BRANCH  23  25
ATOM     25  C   UNL A   1      37.615  29.738  28.379  1.00  0.00     0.060 A 
ATOM     26  C   UNL A   1      37.426  28.843  29.450  1.00  0.00     0.016 A 
ATOM     27  C   UNL A   1      38.782  29.667  27.628  1.00  0.00     0.016 A 
ATOM     28  C   UNL A   1      38.467  27.981  29.855  1.00  0.00     0.010 A 
ATOM     29  C   UNL A   1      39.828  28.899  28.087  1.00  0.00     0.010 A 
ATOM     30  C   UNL A   1      39.701  28.066  29.213  1.00  0.00    -0.014 A 
BRANCH  30  31
ATOM     31  C   UNL A   1      40.972  27.437  29.609  1.00  0.00     0.031 A 
ATOM     32  C   UNL A   1      41.216  26.057  29.125  1.00  0.00     0.074 A 
ATOM     33  C   UNL A   1      42.016  28.183  30.055  1.00  0.00     0.049 A 
ATOM     34  N   UNL A   1      42.277  25.387  29.390  1.00  0.00    -0.248 NA
ATOM     35  C   UNL A   1      40.267  25.288  28.314  1.00  0.00     0.031 C 
ATOM     36  C   UNL A   1      43.455  27.945  29.892  1.00  0.00     0.029 A 
ATOM     37  N   UNL A   1      41.995  29.379  30.767  1.00  0.00    -0.354 N 
ATOM     38  C   UNL A   1      42.320  24.308  28.543  1.00  0.00     0.074 A 
ATOM     39  C   UNL A   1      41.000  24.223  27.975  1.00  0.00     0.031 C 
ATOM     40  C   UNL A   1      44.153  28.792  30.672  1.00  0.00     0.029 A 
ATOM     41  C   UNL A   1      43.194  29.541  31.470  1.00  0.00     0.049 A 
ATOM     42  H   UNL A   1      41.246  30.018  30.776  1.00  0.00     0.167 HD
ATOM     43  C   UNL A   1      43.522  23.701  28.346  1.00  0.00     0.031 A 
ATOM     44  C   UNL A   1      43.155  29.692  32.820  1.00  0.00     0.031 A 
ATOM     45  C   UNL A   1      44.524  24.236  29.280  1.00  0.00     0.049 A 
ATOM     46  C   UNL A   1      43.704  28.418  33.401  1.00  0.00     0.074 A 
ATOM     47  C   UNL A   1      45.610  25.079  29.136  1.00  0.00     0.029 A 
ATOM     48  N   UNL A   1      44.247  24.187  30.648  1.00  0.00    -0.354 N 
ATOM     49  N   UNL A   1      43.712  27.296  32.730  1.00  0.00    -0.248 NA
ATOM     50  C   UNL A   1      44.423  28.321  34.665  1.00  0.00     0.031 C 
ATOM     51  C   UNL A   1      45.895  25.637  30.422  1.00  0.00     0.029 A 
ATOM     52  C   UNL A   1      45.011  25.100  31.350  1.00  0.00     0.049 A 
ATOM     53  H   UNL A   1      43.589  23.580  31.060  1.00  0.00     0.167 HD
ATOM     54  C   UNL A   1      44.523  26.405  33.350  1.00  0.00     0.074 A 
ATOM     55  C   UNL A   1      44.891  27.060  34.597  1.00  0.00     0.031 C 
ATOM     56  C   UNL A   1      44.878  25.210  32.802  1.00  0.00     0.031 A 
BRANCH  43  57
ATOM     57  C   UNL A   1      43.845  22.754  27.211  1.00  0.00    -0.014 A 
ATOM     58  C   UNL A   1      43.010  21.640  26.991  1.00  0.00     0.010 A 
ATOM     59  C   UNL A   1      44.978  22.849  26.375  1.00  0.00     0.010 A 
ATOM     60  C   UNL A   1      43.284  20.686  25.995  1.00  0.00     0.020 A 
ATOM     61  C   UNL A   1      45.252  21.919  25.360  1.00  0.00     0.020 A 
ATOM     62  C   UNL A   1      44.403  20.835  25.178  1.00  0.00     0.054 A 
BRANCH  62  63
ATOM     63  S   UNL A   1      44.733  19.603  23.893  1.00  0.00     0.124 S 
ATOM     64  O   UNL A   1      44.428  20.338  22.668  1.00  0.00    -0.237 OA
ATOM     65  O   UNL A   1      46.144  19.293  24.107  1.00  0.00    -0.237 OA
ATOM     66  O   UNL A   1      43.808  18.515  24.206  1.00  0.00    -0.744 OA
ENDBRANCH  62  63
ENDBRANCH  43  57
BRANCH  44  67
ATOM     67  C   UNL A   1      41.998  30.550  33.259  1.00  0.00    -0.014 A 
ATOM     68  C   UNL A   1      41.831  31.779  32.567  1.00  0.00     0.010 A 
ATOM     69  C   UNL A   1      40.861  29.990  33.872  1.00  0.00     0.010 A 
ATOM     70  C   UNL A   1      40.557  32.336  32.356  1.00  0.00     0.020 A 
ATOM     71  C   UNL A   1      39.579  30.537  33.646  1.00  0.00     0.020 A 
ATOM     72  C   UNL A   1      39.430  31.678  32.849  1.00  0.00     0.054 A 
BRANCH  72  73
ATOM     73  S   UNL A   1      37.788  32.129  32.169  1.00  0.00     0.124 S 
ATOM     74  O   UNL A   1      38.124  32.655  30.853  1.00  0.00    -0.237 OA
ATOM     75  O   UNL A   1      37.072  30.852  32.170  1.00  0.00    -0.237 OA
ATOM     76  O   UNL A   1      37.283  33.098  33.136  1.00  0.00    -0.744 OA
ENDBRANCH  72  73
ENDBRANCH  44  67
BRANCH  56  77
ATOM     77  C   UNL A   1      45.175  24.025  33.665  1.00  0.00    -0.014 A 
ATOM     78  C   UNL A   1      44.200  23.059  33.966  1.00  0.00     0.010 A 
ATOM     79  C   UNL A   1      46.506  23.754  34.044  1.00  0.00     0.010 A 
ATOM     80  C   UNL A   1      44.513  21.931  34.716  1.00  0.00     0.020 A 
ATOM     81  C   UNL A   1      46.843  22.592  34.732  1.00  0.00     0.020 A 
ATOM     82  C   UNL A   1      45.832  21.713  35.105  1.00  0.00     0.054 A 
BRANCH  82  83
ATOM     83  S   UNL A   1      46.211  20.255  36.093  1.00  0.00     0.124 S 
ATOM     84  O   UNL A   1      47.671  20.226  36.020  1.00  0.00    -0.237 OA
ATOM     85  O   UNL A   1      45.657  20.596  37.402  1.00  0.00    -0.237 OA
ATOM     86  O   UNL A   1      45.525  19.174  35.393  1.00  0.00    -0.744 OA
ENDBRANCH  82  83
ENDBRANCH  56  77
ENDBRANCH  30  31
ENDBRANCH  23  25
ENDBRANCH  22  23
ENDBRANCH  21  22
ENDBRANCH   1  21
TORSDOF 19
ENDMDL
MODEL 3
REMARK VINA RESULT:     -10.2      6.480     12.626
REMARK SMILES Cc1ccc(C(F)(F)F)cc1/C=C/C(=O)OCCOCCOC(=O)c1ccc(-c2c3nc(c(-c4ccc(S(=O)(=O)[O-])cc4)c4ccc([nH]4)c(-c4ccc(S(=O)(=O)[O-])cc4)c4nc(c(-c5ccc(S(=O)(=O)[O-])cc5)c5ccc2[nH]5)C=C4)C=C3)cc1
REMARK SMILES IDX 20 1 19 2 18 3 17 4 16 5 14 6 15 7 13 8 12 9 11 10 1 11 2 12
REMARK SMILES IDX 3 13 4 14 10 15 5 16 6 17 7 18 8 19 9 20 21 21 22 22 23 23
REMARK SMILES IDX 24 24 25 25 26 26 84 27 27 28 83 29 28 30 29 31 30 32 77 33
REMARK SMILES IDX 31 34 82 35 76 36 78 37 32 38 81 39 75 40 74 41 33 43 63 44
REMARK SMILES IDX 44 45 62 46 45 47 48 48 61 49 79 50 46 51 47 52 60 54 80 55
REMARK SMILES IDX 49 56 34 57 35 58 43 59 36 60 42 61 37 62 38 63 39 64 40 65
REMARK SMILES IDX 41 66 64 67 65 68 73 69 66 70 72 71 67 72 68 73 69 74 70 75
REMARK SMILES IDX 71 76 50 77 51 78 59 79 52 80 58 81 53 82 54 83 55 84 56 85
REMARK SMILES IDX 57 86
REMARK H PARENT 78 42 48 53
REMARK Flexibility Score: inf
ROOT
ATOM      1  C   UNL A   1      45.741  21.059  24.497  1.00  0.00     0.202 C 
ENDROOT
BRANCH   1   2
ATOM      2  O   UNL A   1      46.543  20.127  25.173  1.00  0.00    -0.374 OA
BRANCH   2   3
ATOM      3  C   UNL A   1      45.963  18.850  25.387  1.00  0.00     0.202 C 
BRANCH   3   4
ATOM      4  C   UNL A   1      44.543  19.002  24.966  1.00  0.00     0.261 C 
BRANCH   4   5
ATOM      5  O   UNL A   1      43.654  19.057  26.097  1.00  0.00    -0.460 OA
BRANCH   5   6
ATOM      6  C   UNL A   1      42.313  19.261  26.022  1.00  0.00     0.330 C 
ATOM      7  O   UNL A   1      41.420  18.487  25.759  1.00  0.00    -0.247 OA
BRANCH   6   8
ATOM      8  C   UNL A   1      42.050  20.664  26.407  1.00  0.00     0.094 C 
ATOM      9  C   UNL A   1      40.779  21.051  26.603  1.00  0.00     0.016 C 
BRANCH   9  10
ATOM     10  C   UNL A   1      40.257  22.402  26.756  1.00  0.00    -0.022 A 
ATOM     11  C   UNL A   1      37.993  21.773  25.668  1.00  0.00     0.045 C 
ATOM     12  C   UNL A   1      38.973  22.747  26.286  1.00  0.00    -0.044 A 
ATOM     13  C   UNL A   1      38.557  24.081  26.402  1.00  0.00     0.004 A 
ATOM     14  C   UNL A   1      39.401  25.057  26.935  1.00  0.00     0.013 A 
ATOM     15  C   UNL A   1      41.106  23.398  27.259  1.00  0.00     0.021 A 
ATOM     16  C   UNL A   1      40.692  24.726  27.357  1.00  0.00     0.056 A 
BRANCH  16  17
ATOM     17  C   UNL A   1      41.627  25.768  27.908  1.00  0.00     0.416 C 
ATOM     18  F   UNL A   1      41.075  27.014  27.913  1.00  0.00    -0.166 F 
ATOM     19  F   UNL A   1      41.986  25.515  29.197  1.00  0.00    -0.166 F 
ATOM     20  F   UNL A   1      42.794  25.886  27.213  1.00  0.00    -0.166 F 
ENDBRANCH  16  17
ENDBRANCH   9  10
ENDBRANCH   6   8
ENDBRANCH   5   6
ENDBRANCH   4   5
ENDBRANCH   3   4
ENDBRANCH   2   3
ENDBRANCH   1   2
BRANCH   1  21
ATOM     21  C   UNL A   1      46.018  22.494  24.947  1.00  0.00     0.261 C 
BRANCH  21  22
ATOM     22  O   UNL A   1      45.349  22.784  26.196  1.00  0.00    -0.460 OA
BRANCH  22  23
ATOM     23  C   UNL A   1      45.532  24.037  26.716  1.00  0.00     0.338 C 
ATOM     24  O   UNL A   1      45.692  25.033  26.032  1.00  0.00    -0.246 OA
BRANCH  23  25
ATOM     25  C   UNL A   1      45.409  24.022  28.204  1.00  0.00     0.060 A 
ATOM     26  C   UNL A   1      44.424  23.263  28.867  1.00  0.00     0.016 A 
ATOM     27  C   UNL A   1      46.183  24.919  28.930  1.00  0.00     0.016 A 
ATOM     28  C   UNL A   1      44.120  23.513  30.222  1.00  0.00     0.010 A 
ATOM     29  C   UNL A   1      45.816  25.228  30.221  1.00  0.00     0.010 A 
ATOM     30  C   UNL A   1      44.772  24.554  30.879  1.00  0.00    -0.014 A 
BRANCH  30  31
ATOM     31  C   UNL A   1      44.459  25.129  32.198  1.00  0.00     0.031 A 
ATOM     32  C   UNL A   1      43.812  26.463  32.212  1.00  0.00     0.074 A 
ATOM     33  C   UNL A   1      44.405  24.349  33.309  1.00  0.00     0.049 A 
ATOM     34  N   UNL A   1      43.483  27.083  33.285  1.00  0.00    -0.248 NA
ATOM     35  C   UNL A   1      43.500  27.240  31.008  1.00  0.00     0.031 C 
ATOM     36  C   UNL A   1      43.554  24.492  34.495  1.00  0.00     0.029 A 
ATOM     37  N   UNL A   1      45.130  23.198  33.606  1.00  0.00    -0.354 N 
ATOM     38  C   UNL A   1      42.639  28.109  32.940  1.00  0.00     0.074 A 
ATOM     39  C   UNL A   1      42.769  28.240  31.512  1.00  0.00     0.031 C 
ATOM     40  C   UNL A   1      43.967  23.651  35.463  1.00  0.00     0.029 A 
ATOM     41  C   UNL A   1      45.182  23.005  34.990  1.00  0.00     0.049 A 
ATOM     42  H   UNL A   1      45.547  22.606  32.939  1.00  0.00     0.167 HD
ATOM     43  C   UNL A   1      41.843  28.632  33.912  1.00  0.00     0.031 A 
ATOM     44  C   UNL A   1      46.392  22.933  35.604  1.00  0.00     0.031 A 
ATOM     45  C   UNL A   1      42.220  28.093  35.226  1.00  0.00     0.049 A 
ATOM     46  C   UNL A   1      46.538  24.203  36.396  1.00  0.00     0.074 A 
ATOM     47  C   UNL A   1      41.638  27.180  36.088  1.00  0.00     0.029 A 
ATOM     48  N   UNL A   1      43.544  28.234  35.646  1.00  0.00    -0.354 N 
ATOM     49  N   UNL A   1      45.861  25.284  36.106  1.00  0.00    -0.248 NA
ATOM     50  C   UNL A   1      47.290  24.328  37.638  1.00  0.00     0.031 C 
ATOM     51  C   UNL A   1      42.668  26.680  36.944  1.00  0.00     0.029 A 
ATOM     52  C   UNL A   1      43.862  27.319  36.631  1.00  0.00     0.049 A 
ATOM     53  H   UNL A   1      44.173  28.901  35.284  1.00  0.00     0.167 HD
ATOM     54  C   UNL A   1      45.945  26.158  37.138  1.00  0.00     0.074 A 
ATOM     55  C   UNL A   1      46.908  25.553  38.046  1.00  0.00     0.031 C 
ATOM     56  C   UNL A   1      45.203  27.298  37.214  1.00  0.00     0.031 A 
BRANCH  43  57
ATOM     57  C   UNL A   1      40.623  29.494  33.670  1.00  0.00    -0.014 A 
ATOM     58  C   UNL A   1      39.471  28.906  33.108  1.00  0.00     0.010 A 
ATOM     59  C   UNL A   1      40.557  30.885  33.896  1.00  0.00     0.010 A 
ATOM     60  C   UNL A   1      38.324  29.658  32.799  1.00  0.00     0.020 A 
ATOM     61  C   UNL A   1      39.410  31.646  33.616  1.00  0.00     0.020 A 
ATOM     62  C   UNL A   1      38.297  31.026  33.063  1.00  0.00     0.054 A 
BRANCH  62  63
ATOM     63  S   UNL A   1      36.807  31.977  32.669  1.00  0.00     0.124 S 
ATOM     64  O   UNL A   1      36.053  31.046  31.833  1.00  0.00    -0.237 OA
ATOM     65  O   UNL A   1      36.240  32.238  33.990  1.00  0.00    -0.237 OA
ATOM     66  O   UNL A   1      37.318  33.157  31.974  1.00  0.00    -0.744 OA
ENDBRANCH  62  63
ENDBRANCH  43  57
BRANCH  44  67
ATOM     67  C   UNL A   1      47.397  22.170  34.782  1.00  0.00    -0.014 A 
ATOM     68  C   UNL A   1      48.570  22.878  34.409  1.00  0.00     0.010 A 
ATOM     69  C   UNL A   1      47.478  20.765  34.841  1.00  0.00     0.010 A 
ATOM     70  C   UNL A   1      49.807  22.226  34.264  1.00  0.00     0.020 A 
ATOM     71  C   UNL A   1      48.722  20.110  34.714  1.00  0.00     0.020 A 
ATOM     72  C   UNL A   1      49.886  20.849  34.476  1.00  0.00     0.054 A 
BRANCH  72  73
ATOM     73  S   UNL A   1      51.536  20.103  34.765  1.00  0.00     0.124 S 
ATOM     74  O   UNL A   1      51.204  18.842  35.413  1.00  0.00    -0.237 OA
ATOM     75  O   UNL A   1      52.084  19.988  33.412  1.00  0.00    -0.237 OA
ATOM     76  O   UNL A   1      52.208  21.094  35.599  1.00  0.00    -0.744 OA
ENDBRANCH  72  73
ENDBRANCH  44  67
BRANCH  56  77
ATOM     77  C   UNL A   1      45.723  28.510  37.919  1.00  0.00    -0.014 A 
ATOM     78  C   UNL A   1      45.876  29.744  37.265  1.00  0.00     0.010 A 
ATOM     79  C   UNL A   1      45.895  28.482  39.318  1.00  0.00     0.010 A 
ATOM     80  C   UNL A   1      46.299  30.875  37.955  1.00  0.00     0.020 A 
ATOM     81  C   UNL A   1      46.248  29.626  40.029  1.00  0.00     0.020 A 
ATOM     82  C   UNL A   1      46.495  30.804  39.332  1.00  0.00     0.054 A 
BRANCH  82  83
ATOM     83  S   UNL A   1      47.063  32.276  40.202  1.00  0.00     0.124 S 
ATOM     84  O   UNL A   1      47.059  33.267  39.128  1.00  0.00    -0.237 OA
ATOM     85  O   UNL A   1      46.039  32.461  41.228  1.00  0.00    -0.237 OA
ATOM     86  O   UNL A   1      48.379  31.896  40.703  1.00  0.00    -0.744 OA
ENDBRANCH  82  83
ENDBRANCH  56  77
ENDBRANCH  30  31
ENDBRANCH  23  25
ENDBRANCH  22  23
ENDBRANCH  21  22
ENDBRANCH   1  21
TORSDOF 19
ENDMDL
