MODEL 1
REMARK VINA RESULT:     -11.1      0.000      0.000
REMARK SMILES O=C(OCCOCCOC(=O)c1ccccc1Nc1nc(Cl)nc(Nc2ccc(N3CCOCC3=O)cc2)n1)c1ccc(-c2c3nc(c(-c4ccc(S(=O)(=O)[O-])cc4)c4ccc([nH]4)c(-c4ccc(S(=O)(=O)[O-])cc4)c4nc(c(-c5ccc(S(=O)(=O)[O-])cc5)c5ccc2[nH]5)C=C4)C=C3)cc1
REMARK SMILES IDX 7 1 6 2 5 3 4 4 3 5 2 6 1 7 40 8 41 9 99 10 42 11 98 12
REMARK SMILES IDX 43 13 44 14 45 15 92 16 46 17 97 18 91 19 93 20 47 21 96 22
REMARK SMILES IDX 90 23 89 24 48 26 78 27 59 28 77 29 60 30 63 31 76 32 94 33
REMARK SMILES IDX 61 34 62 35 75 37 95 38 64 39 49 40 50 41 58 42 51 43 57 44
REMARK SMILES IDX 52 45 53 46 54 47 55 48 56 49 79 50 80 51 88 52 81 53 87 54
REMARK SMILES IDX 82 55 83 56 84 57 85 58 86 59 65 60 66 61 74 62 67 63 73 64
REMARK SMILES IDX 68 65 69 66 70 67 71 68 72 69 8 70 9 71 10 72 11 73 12 74
REMARK SMILES IDX 13 75 17 76 14 77 16 78 15 79 18 80 19 82 20 83 39 84 21 85
REMARK SMILES IDX 24 86 22 87 23 88 25 89 26 91 27 92 38 93 28 94 37 95 29 96
REMARK SMILES IDX 30 97 31 98 35 99 32 100 34 101 36 102 33 103
REMARK H PARENT 93 25 63 36 18 81 25 90
REMARK Flexibility Score: inf
ROOT
ATOM      1  C   UNL A   1      41.842  20.692  27.575  1.00  0.00     0.202 C 
ENDROOT
BRANCH   1   2
ATOM      2  O   UNL A   1      41.679  19.283  27.389  1.00  0.00    -0.374 OA
BRANCH   2   3
ATOM      3  C   UNL A   1      42.863  18.490  27.411  1.00  0.00     0.202 C 
BRANCH   3   4
ATOM      4  C   UNL A   1      43.185  17.818  26.075  1.00  0.00     0.261 C 
BRANCH   4   5
ATOM      5  O   UNL A   1      43.264  18.805  25.036  1.00  0.00    -0.460 OA
BRANCH   5   6
ATOM      6  C   UNL A   1      44.328  19.557  24.675  1.00  0.00     0.338 C 
ATOM      7  O   UNL A   1      45.235  19.013  24.045  1.00  0.00    -0.246 OA
BRANCH   6   8
ATOM      8  C   UNL A   1      44.474  21.011  24.987  1.00  0.00     0.060 A 
ATOM      9  C   UNL A   1      44.040  22.065  24.177  1.00  0.00     0.016 A 
ATOM     10  C   UNL A   1      44.998  21.328  26.251  1.00  0.00     0.016 A 
ATOM     11  C   UNL A   1      44.114  23.384  24.588  1.00  0.00     0.010 A 
ATOM     12  C   UNL A   1      45.085  22.655  26.675  1.00  0.00     0.010 A 
ATOM     13  C   UNL A   1      44.645  23.680  25.833  1.00  0.00    -0.014 A 
BRANCH  13  14
ATOM     14  C   UNL A   1      44.889  25.091  26.149  1.00  0.00     0.031 A 
ATOM     15  C   UNL A   1      46.264  25.616  25.907  1.00  0.00     0.074 A 
ATOM     16  C   UNL A   1      43.872  25.873  26.540  1.00  0.00     0.049 A 
ATOM     17  N   UNL A   1      46.771  26.776  26.213  1.00  0.00    -0.248 NA
ATOM     18  C   UNL A   1      47.198  24.707  25.216  1.00  0.00     0.031 C 
ATOM     19  C   UNL A   1      42.471  25.453  26.638  1.00  0.00     0.029 A 
ATOM     20  N   UNL A   1      43.857  27.186  26.918  1.00  0.00    -0.354 N 
ATOM     21  C   UNL A   1      48.094  26.720  25.798  1.00  0.00     0.074 A 
ATOM     22  C   UNL A   1      48.312  25.419  25.209  1.00  0.00     0.031 C 
ATOM     23  C   UNL A   1      41.734  26.489  27.067  1.00  0.00     0.029 A 
ATOM     24  C   UNL A   1      42.622  27.615  27.341  1.00  0.00     0.049 A 
ATOM     25  H   UNL A   1      44.652  27.766  26.892  1.00  0.00     0.167 HD
ATOM     26  C   UNL A   1      49.043  27.674  25.931  1.00  0.00     0.031 A 
ATOM     27  C   UNL A   1      42.275  28.771  27.937  1.00  0.00     0.031 A 
ATOM     28  C   UNL A   1      48.777  28.937  26.560  1.00  0.00     0.049 A 
ATOM     29  C   UNL A   1      43.364  29.782  28.173  1.00  0.00     0.074 A 
ATOM     30  C   UNL A   1      49.648  29.972  26.830  1.00  0.00     0.029 A 
ATOM     31  N   UNL A   1      47.525  29.326  27.028  1.00  0.00    -0.354 N 
ATOM     32  N   UNL A   1      44.637  29.704  27.855  1.00  0.00    -0.248 NA
ATOM     33  C   UNL A   1      42.985  31.026  28.849  1.00  0.00     0.031 C 
ATOM     34  C   UNL A   1      48.933  30.964  27.512  1.00  0.00     0.029 A 
ATOM     35  C   UNL A   1      47.601  30.579  27.601  1.00  0.00     0.049 A 
ATOM     36  H   UNL A   1      46.705  28.785  26.959  1.00  0.00     0.167 HD
ATOM     37  C   UNL A   1      45.208  30.899  28.267  1.00  0.00     0.074 A 
ATOM     38  C   UNL A   1      44.138  31.684  28.857  1.00  0.00     0.031 C 
ATOM     39  C   UNL A   1      46.495  31.319  28.163  1.00  0.00     0.031 A 
BRANCH  26  40
ATOM     40  C   UNL A   1      50.438  27.312  25.499  1.00  0.00    -0.014 A 
ATOM     41  C   UNL A   1      51.365  26.730  26.384  1.00  0.00     0.010 A 
ATOM     42  C   UNL A   1      50.855  27.640  24.196  1.00  0.00     0.010 A 
ATOM     43  C   UNL A   1      52.696  26.548  25.998  1.00  0.00     0.020 A 
ATOM     44  C   UNL A   1      52.176  27.431  23.794  1.00  0.00     0.020 A 
ATOM     45  C   UNL A   1      53.096  26.913  24.708  1.00  0.00     0.054 A 
BRANCH  45  46
ATOM     46  S   UNL A   1      54.838  26.711  24.243  1.00  0.00     0.124 S 
ATOM     47  O   UNL A   1      55.464  27.841  24.924  1.00  0.00    -0.237 OA
ATOM     48  O   UNL A   1      55.163  25.393  24.785  1.00  0.00    -0.237 OA
ATOM     49  O   UNL A   1      54.820  26.795  22.785  1.00  0.00    -0.744 OA
ENDBRANCH  45  46
ENDBRANCH  26  40
BRANCH  27  50
ATOM     50  C   UNL A   1      40.871  28.979  28.387  1.00  0.00    -0.014 A 
ATOM     51  C   UNL A   1      40.541  29.000  29.752  1.00  0.00     0.010 A 
ATOM     52  C   UNL A   1      39.858  29.229  27.440  1.00  0.00     0.010 A 
ATOM     53  C   UNL A   1      39.230  29.273  30.161  1.00  0.00     0.020 A 
ATOM     54  C   UNL A   1      38.554  29.529  27.844  1.00  0.00     0.020 A 
ATOM     55  C   UNL A   1      38.247  29.546  29.204  1.00  0.00     0.054 A 
BRANCH  55  56
ATOM     56  S   UNL A   1      36.575  29.979  29.763  1.00  0.00     0.124 S 
ATOM     57  O   UNL A   1      36.674  31.425  29.931  1.00  0.00    -0.237 OA
ATOM     58  O   UNL A   1      35.744  29.525  28.650  1.00  0.00    -0.237 OA
ATOM     59  O   UNL A   1      36.417  29.215  31.000  1.00  0.00    -0.744 OA
ENDBRANCH  55  56
ENDBRANCH  27  50
BRANCH  39  60
ATOM     60  C   UNL A   1      46.804  32.709  28.638  1.00  0.00    -0.014 A 
ATOM     61  C   UNL A   1      47.282  32.949  29.937  1.00  0.00     0.010 A 
ATOM     62  C   UNL A   1      46.733  33.771  27.716  1.00  0.00     0.010 A 
ATOM     63  C   UNL A   1      47.682  34.235  30.307  1.00  0.00     0.020 A 
ATOM     64  C   UNL A   1      47.159  35.048  28.074  1.00  0.00     0.020 A 
ATOM     65  C   UNL A   1      47.629  35.273  29.369  1.00  0.00     0.054 A 
BRANCH  65  66
ATOM     66  S   UNL A   1      48.250  36.907  29.843  1.00  0.00     0.124 S 
ATOM     67  O   UNL A   1      47.067  37.521  30.440  1.00  0.00    -0.237 OA
ATOM     68  O   UNL A   1      49.328  36.582  30.773  1.00  0.00    -0.237 OA
ATOM     69  O   UNL A   1      48.685  37.494  28.577  1.00  0.00    -0.744 OA
ENDBRANCH  65  66
ENDBRANCH  39  60
ENDBRANCH  13  14
ENDBRANCH   6   8
ENDBRANCH   5   6
ENDBRANCH   4   5
ENDBRANCH   3   4
ENDBRANCH   2   3
ENDBRANCH   1   2
BRANCH   1  70
ATOM     70  C   UNL A   1      41.037  21.418  26.497  1.00  0.00     0.261 C 
BRANCH  70  71
ATOM     71  O   UNL A   1      39.651  21.355  26.868  1.00  0.00    -0.460 OA
BRANCH  71  72
ATOM     72  C   UNL A   1      38.785  21.021  25.874  1.00  0.00     0.340 C 
ATOM     73  O   UNL A   1      38.782  19.980  25.238  1.00  0.00    -0.246 OA
BRANCH  72  74
ATOM     74  C   UNL A   1      37.724  22.069  25.762  1.00  0.00     0.083 A 
ATOM     75  C   UNL A   1      38.132  23.394  25.986  1.00  0.00     0.018 A 
ATOM     76  C   UNL A   1      36.376  21.783  25.434  1.00  0.00     0.055 A 
ATOM     77  C   UNL A   1      37.216  24.438  25.900  1.00  0.00     0.001 A 
ATOM     78  C   UNL A   1      35.469  22.850  25.380  1.00  0.00     0.027 A 
ATOM     79  C   UNL A   1      35.883  24.163  25.613  1.00  0.00     0.002 A 
BRANCH  76  80
ATOM     80  N   UNL A   1      35.975  20.462  25.187  1.00  0.00    -0.323 N 
ATOM     81  H   UNL A   1      36.719  19.820  25.116  1.00  0.00     0.170 HD
BRANCH  80  82
ATOM     82  C   UNL A   1      34.725  19.900  25.025  1.00  0.00     0.233 A 
ATOM     83  N   UNL A   1      34.551  18.745  24.411  1.00  0.00    -0.182 NA
ATOM     84  N   UNL A   1      33.749  20.647  25.523  1.00  0.00    -0.176 NA
ATOM     85  C   UNL A   1      33.286  18.373  24.367  1.00  0.00     0.228 A 
ATOM     86  C   UNL A   1      32.518  20.220  25.324  1.00  0.00     0.233 A 
ATOM     87  Cl  UNL A   1      32.970  16.868  23.622  1.00  0.00    -0.041 Cl
ATOM     88  N   UNL A   1      32.228  19.049  24.780  1.00  0.00    -0.182 NA
BRANCH  86  89
ATOM     89  N   UNL A   1      31.520  21.147  25.601  1.00  0.00    -0.324 N 
ATOM     90  H   UNL A   1      30.770  20.833  26.157  1.00  0.00     0.170 HD
BRANCH  89  91
ATOM     91  C   UNL A   1      31.466  22.472  25.180  1.00  0.00     0.041 A 
ATOM     92  C   UNL A   1      31.789  22.806  23.862  1.00  0.00     0.028 A 
ATOM     93  C   UNL A   1      30.953  23.457  26.024  1.00  0.00     0.028 A 
ATOM     94  C   UNL A   1      31.559  24.099  23.386  1.00  0.00     0.028 A 
ATOM     95  C   UNL A   1      30.774  24.757  25.569  1.00  0.00     0.028 A 
ATOM     96  C   UNL A   1      31.054  25.085  24.241  1.00  0.00     0.044 A 
BRANCH  96  97
ATOM     97  N   UNL A   1      30.749  26.387  23.759  1.00  0.00    -0.308 N 
ATOM     98  C   UNL A   1      31.800  27.062  22.989  1.00  0.00     0.154 C 
ATOM     99  C   UNL A   1      29.422  26.823  23.697  1.00  0.00     0.253 C 
ATOM    100  C   UNL A   1      31.473  28.515  22.677  1.00  0.00     0.183 C 
ATOM    101  C   UNL A   1      29.194  28.151  22.963  1.00  0.00     0.260 C 
ATOM    102  O   UNL A   1      28.474  26.267  24.253  1.00  0.00    -0.272 OA
ATOM    103  O   UNL A   1      30.192  28.592  22.058  1.00  0.00    -0.370 OA
ENDBRANCH  96  97
ENDBRANCH  89  91
ENDBRANCH  86  89
ENDBRANCH  80  82
ENDBRANCH  76  80
ENDBRANCH  72  74
ENDBRANCH  71  72
ENDBRANCH  70  71
ENDBRANCH   1  70
TORSDOF 22
ENDMDL
MODEL 2
REMARK VINA RESULT:     -10.9      0.879      7.769
REMARK SMILES O=C(OCCOCCOC(=O)c1ccccc1Nc1nc(Cl)nc(Nc2ccc(N3CCOCC3=O)cc2)n1)c1ccc(-c2c3nc(c(-c4ccc(S(=O)(=O)[O-])cc4)c4ccc([nH]4)c(-c4ccc(S(=O)(=O)[O-])cc4)c4nc(c(-c5ccc(S(=O)(=O)[O-])cc5)c5ccc2[nH]5)C=C4)C=C3)cc1
REMARK SMILES IDX 7 1 6 2 5 3 4 4 3 5 2 6 1 7 40 8 41 9 99 10 42 11 98 12
REMARK SMILES IDX 43 13 44 14 45 15 92 16 46 17 97 18 91 19 93 20 47 21 96 22
REMARK SMILES IDX 90 23 89 24 48 26 78 27 59 28 77 29 60 30 63 31 76 32 94 33
REMARK SMILES IDX 61 34 62 35 75 37 95 38 64 39 49 40 50 41 58 42 51 43 57 44
REMARK SMILES IDX 52 45 53 46 54 47 55 48 56 49 79 50 80 51 88 52 81 53 87 54
REMARK SMILES IDX 82 55 83 56 84 57 85 58 86 59 65 60 66 61 74 62 67 63 73 64
REMARK SMILES IDX 68 65 69 66 70 67 71 68 72 69 8 70 9 71 10 72 11 73 12 74
REMARK SMILES IDX 13 75 17 76 14 77 16 78 15 79 18 80 19 82 20 83 39 84 21 85
REMARK SMILES IDX 24 86 22 87 23 88 25 89 26 91 27 92 38 93 28 94 37 95 29 96
REMARK SMILES IDX 30 97 31 98 35 99 32 100 34 101 36 102 33 103
REMARK H PARENT 93 25 63 36 18 81 25 90
REMARK Flexibility Score: inf
ROOT
ATOM      1  C   UNL A   1      42.055  20.812  27.276  1.00  0.00     0.202 C 
ENDROOT
BRANCH   1   2
ATOM      2  O   UNL A   1      41.819  19.424  27.028  1.00  0.00    -0.374 OA
BRANCH   2   3
ATOM      3  C   UNL A   1      42.963  18.573  26.990  1.00  0.00     0.202 C 
BRANCH   3   4
ATOM      4  C   UNL A   1      43.487  18.301  25.578  1.00  0.00     0.261 C 
BRANCH   4   5
ATOM      5  O   UNL A   1      43.451  19.507  24.801  1.00  0.00    -0.460 OA
BRANCH   5   6
ATOM      6  C   UNL A   1      44.490  20.257  24.372  1.00  0.00     0.338 C 
ATOM      7  O   UNL A   1      45.256  19.767  23.542  1.00  0.00    -0.246 OA
BRANCH   6   8
ATOM      8  C   UNL A   1      44.771  21.649  24.839  1.00  0.00     0.060 A 
ATOM      9  C   UNL A   1      44.484  22.819  24.127  1.00  0.00     0.016 A 
ATOM     10  C   UNL A   1      45.268  21.782  26.145  1.00  0.00     0.016 A 
ATOM     11  C   UNL A   1      44.674  24.075  24.675  1.00  0.00     0.010 A 
ATOM     12  C   UNL A   1      45.471  23.043  26.707  1.00  0.00     0.010 A 
ATOM     13  C   UNL A   1      45.177  24.188  25.961  1.00  0.00    -0.014 A 
BRANCH  13  14
ATOM     14  C   UNL A   1      45.550  25.526  26.429  1.00  0.00     0.031 A 
ATOM     15  C   UNL A   1      44.473  26.360  27.040  1.00  0.00     0.074 A 
ATOM     16  C   UNL A   1      46.833  25.913  26.391  1.00  0.00     0.049 A 
ATOM     17  N   UNL A   1      44.508  27.606  27.416  1.00  0.00    -0.248 NA
ATOM     18  C   UNL A   1      43.178  25.692  27.262  1.00  0.00     0.031 C 
ATOM     19  C   UNL A   1      47.956  25.077  25.954  1.00  0.00     0.029 A 
ATOM     20  N   UNL A   1      47.412  27.103  26.730  1.00  0.00    -0.354 N 
ATOM     21  C   UNL A   1      43.228  27.887  27.874  1.00  0.00     0.074 A 
ATOM     22  C   UNL A   1      42.442  26.682  27.740  1.00  0.00     0.031 C 
ATOM     23  C   UNL A   1      49.089  25.791  26.039  1.00  0.00     0.029 A 
ATOM     24  C   UNL A   1      48.759  27.148  26.464  1.00  0.00     0.049 A 
ATOM     25  H   UNL A   1      46.913  27.854  27.127  1.00  0.00     0.167 HD
ATOM     26  C   UNL A   1      42.757  29.066  28.338  1.00  0.00     0.031 A 
ATOM     27  C   UNL A   1      49.606  28.193  26.505  1.00  0.00     0.031 A 
ATOM     28  C   UNL A   1      43.576  30.242  28.413  1.00  0.00     0.049 A 
ATOM     29  C   UNL A   1      49.042  29.524  26.924  1.00  0.00     0.074 A 
ATOM     30  C   UNL A   1      43.225  31.521  28.794  1.00  0.00     0.029 A 
ATOM     31  N   UNL A   1      44.929  30.272  28.086  1.00  0.00    -0.354 N 
ATOM     32  N   UNL A   1      47.812  29.817  27.282  1.00  0.00    -0.248 NA
ATOM     33  C   UNL A   1      49.963  30.665  26.938  1.00  0.00     0.031 C 
ATOM     34  C   UNL A   1      44.353  32.336  28.642  1.00  0.00     0.029 A 
ATOM     35  C   UNL A   1      45.425  31.550  28.239  1.00  0.00     0.049 A 
ATOM     36  H   UNL A   1      45.453  29.494  27.789  1.00  0.00     0.167 HD
ATOM     37  C   UNL A   1      47.815  31.169  27.593  1.00  0.00     0.074 A 
ATOM     38  C   UNL A   1      49.173  31.636  27.379  1.00  0.00     0.031 C 
ATOM     39  C   UNL A   1      46.795  31.956  28.023  1.00  0.00     0.031 A 
BRANCH  26  40
ATOM     40  C   UNL A   1      41.289  29.132  28.663  1.00  0.00    -0.014 A 
ATOM     41  C   UNL A   1      40.308  29.240  27.659  1.00  0.00     0.010 A 
ATOM     42  C   UNL A   1      40.890  29.170  30.011  1.00  0.00     0.010 A 
ATOM     43  C   UNL A   1      38.968  29.455  27.998  1.00  0.00     0.020 A 
ATOM     44  C   UNL A   1      39.549  29.353  30.356  1.00  0.00     0.020 A 
ATOM     45  C   UNL A   1      38.600  29.522  29.346  1.00  0.00     0.054 A 
BRANCH  45  46
ATOM     46  S   UNL A   1      36.864  29.847  29.762  1.00  0.00     0.124 S 
ATOM     47  O   UNL A   1      36.171  29.330  28.585  1.00  0.00    -0.237 OA
ATOM     48  O   UNL A   1      36.679  29.075  30.989  1.00  0.00    -0.237 OA
ATOM     49  O   UNL A   1      36.813  31.297  29.928  1.00  0.00    -0.744 OA
ENDBRANCH  45  46
ENDBRANCH  26  40
BRANCH  27  50
ATOM     50  C   UNL A   1      51.023  28.015  26.085  1.00  0.00    -0.014 A 
ATOM     51  C   UNL A   1      52.005  27.597  26.998  1.00  0.00     0.010 A 
ATOM     52  C   UNL A   1      51.385  28.197  24.735  1.00  0.00     0.010 A 
ATOM     53  C   UNL A   1      53.317  27.361  26.570  1.00  0.00     0.020 A 
ATOM     54  C   UNL A   1      52.686  27.936  24.297  1.00  0.00     0.020 A 
ATOM     55  C   UNL A   1      53.647  27.522  25.220  1.00  0.00     0.054 A 
BRANCH  55  56
ATOM     56  S   UNL A   1      55.333  27.129  24.676  1.00  0.00     0.124 S 
ATOM     57  O   UNL A   1      55.113  26.670  23.307  1.00  0.00    -0.237 OA
ATOM     58  O   UNL A   1      56.016  28.413  24.811  1.00  0.00    -0.237 OA
ATOM     59  O   UNL A   1      55.768  26.099  25.618  1.00  0.00    -0.744 OA
ENDBRANCH  55  56
ENDBRANCH  27  50
BRANCH  39  60
ATOM     60  C   UNL A   1      47.121  33.384  28.351  1.00  0.00    -0.014 A 
ATOM     61  C   UNL A   1      46.967  34.407  27.401  1.00  0.00     0.010 A 
ATOM     62  C   UNL A   1      47.466  33.711  29.676  1.00  0.00     0.010 A 
ATOM     63  C   UNL A   1      47.154  35.739  27.775  1.00  0.00     0.020 A 
ATOM     64  C   UNL A   1      47.625  35.041  30.057  1.00  0.00     0.020 A 
ATOM     65  C   UNL A   1      47.471  36.048  29.103  1.00  0.00     0.054 A 
BRANCH  65  66
ATOM     66  S   UNL A   1      47.607  37.789  29.583  1.00  0.00     0.124 S 
ATOM     67  O   UNL A   1      47.320  37.733  31.014  1.00  0.00    -0.237 OA
ATOM     68  O   UNL A   1      48.987  38.111  29.231  1.00  0.00    -0.237 OA
ATOM     69  O   UNL A   1      46.591  38.454  28.770  1.00  0.00    -0.744 OA
ENDBRANCH  65  66
ENDBRANCH  39  60
ENDBRANCH  13  14
ENDBRANCH   6   8
ENDBRANCH   5   6
ENDBRANCH   4   5
ENDBRANCH   3   4
ENDBRANCH   2   3
ENDBRANCH   1   2
BRANCH   1  70
ATOM     70  C   UNL A   1      41.052  21.627  26.459  1.00  0.00     0.261 C 
BRANCH  70  71
ATOM     71  O   UNL A   1      39.732  21.233  26.867  1.00  0.00    -0.460 OA
BRANCH  71  72
ATOM     72  C   UNL A   1      38.874  20.906  25.865  1.00  0.00     0.340 C 
ATOM     73  O   UNL A   1      38.855  19.856  25.244  1.00  0.00    -0.246 OA
BRANCH  72  74
ATOM     74  C   UNL A   1      37.841  21.977  25.721  1.00  0.00     0.083 A 
ATOM     75  C   UNL A   1      38.245  23.280  26.056  1.00  0.00     0.018 A 
ATOM     76  C   UNL A   1      36.524  21.735  25.262  1.00  0.00     0.055 A 
ATOM     77  C   UNL A   1      37.353  24.344  25.951  1.00  0.00     0.001 A 
ATOM     78  C   UNL A   1      35.639  22.819  25.190  1.00  0.00     0.027 A 
ATOM     79  C   UNL A   1      36.047  24.110  25.534  1.00  0.00     0.002 A 
BRANCH  76  80
ATOM     80  N   UNL A   1      36.128  20.437  24.905  1.00  0.00    -0.323 N 
ATOM     81  H   UNL A   1      36.862  19.866  24.581  1.00  0.00     0.170 HD
BRANCH  80  82
ATOM     82  C   UNL A   1      34.896  19.817  24.926  1.00  0.00     0.233 A 
ATOM     83  N   UNL A   1      34.719  18.594  24.462  1.00  0.00    -0.182 NA
ATOM     84  N   UNL A   1      33.936  20.581  25.430  1.00  0.00    -0.176 NA
ATOM     85  C   UNL A   1      33.473  18.176  24.581  1.00  0.00     0.228 A 
ATOM     86  C   UNL A   1      32.712  20.092  25.398  1.00  0.00     0.233 A 
ATOM     87  Cl  UNL A   1      33.159  16.585  24.039  1.00  0.00    -0.041 Cl
ATOM     88  N   UNL A   1      32.428  18.857  25.017  1.00  0.00    -0.182 NA
BRANCH  86  89
ATOM     89  N   UNL A   1      31.703  21.009  25.666  1.00  0.00    -0.324 N 
ATOM     90  H   UNL A   1      30.905  20.662  26.128  1.00  0.00     0.170 HD
BRANCH  89  91
ATOM     91  C   UNL A   1      31.698  22.364  25.354  1.00  0.00     0.041 A 
ATOM     92  C   UNL A   1      31.692  23.322  26.371  1.00  0.00     0.028 A 
ATOM     93  C   UNL A   1      31.845  22.781  24.030  1.00  0.00     0.028 A 
ATOM     94  C   UNL A   1      31.873  24.674  26.068  1.00  0.00     0.028 A 
ATOM     95  C   UNL A   1      31.971  24.129  23.720  1.00  0.00     0.028 A 
ATOM     96  C   UNL A   1      32.009  25.085  24.737  1.00  0.00     0.044 A 
BRANCH  96  97
ATOM     97  N   UNL A   1      32.263  26.446  24.413  1.00  0.00    -0.308 N 
ATOM     98  C   UNL A   1      33.642  26.785  24.046  1.00  0.00     0.154 C 
ATOM     99  C   UNL A   1      31.204  27.304  24.099  1.00  0.00     0.253 C 
ATOM    100  C   UNL A   1      33.872  28.283  23.903  1.00  0.00     0.183 C 
ATOM    101  C   UNL A   1      31.606  28.682  23.558  1.00  0.00     0.260 C 
ATOM    102  O   UNL A   1      30.015  27.058  24.308  1.00  0.00    -0.272 OA
ATOM    103  O   UNL A   1      32.906  28.829  23.010  1.00  0.00    -0.370 OA
ENDBRANCH  96  97
ENDBRANCH  89  91
ENDBRANCH  86  89
ENDBRANCH  80  82
ENDBRANCH  76  80
ENDBRANCH  72  74
ENDBRANCH  71  72
ENDBRANCH  70  71
ENDBRANCH   1  70
TORSDOF 22
ENDMDL
MODEL 3
REMARK VINA RESULT:     -10.6      1.762      8.155
REMARK SMILES O=C(OCCOCCOC(=O)c1ccccc1Nc1nc(Cl)nc(Nc2ccc(N3CCOCC3=O)cc2)n1)c1ccc(-c2c3nc(c(-c4ccc(S(=O)(=O)[O-])cc4)c4ccc([nH]4)c(-c4ccc(S(=O)(=O)[O-])cc4)c4nc(c(-c5ccc(S(=O)(=O)[O-])cc5)c5ccc2[nH]5)C=C4)C=C3)cc1
REMARK SMILES IDX 7 1 6 2 5 3 4 4 3 5 2 6 1 7 40 8 41 9 99 10 42 11 98 12
REMARK SMILES IDX 43 13 44 14 45 15 92 16 46 17 97 18 91 19 93 20 47 21 96 22
REMARK SMILES IDX 90 23 89 24 48 26 78 27 59 28 77 29 60 30 63 31 76 32 94 33
REMARK SMILES IDX 61 34 62 35 75 37 95 38 64 39 49 40 50 41 58 42 51 43 57 44
REMARK SMILES IDX 52 45 53 46 54 47 55 48 56 49 79 50 80 51 88 52 81 53 87 54
REMARK SMILES IDX 82 55 83 56 84 57 85 58 86 59 65 60 66 61 74 62 67 63 73 64
REMARK SMILES IDX 68 65 69 66 70 67 71 68 72 69 8 70 9 71 10 72 11 73 12 74
REMARK SMILES IDX 13 75 17 76 14 77 16 78 15 79 18 80 19 82 20 83 39 84 21 85
REMARK SMILES IDX 24 86 22 87 23 88 25 89 26 91 27 92 38 93 28 94 37 95 29 96
REMARK SMILES IDX 30 97 31 98 35 99 32 100 34 101 36 102 33 103
REMARK H PARENT 93 25 63 36 18 81 25 90
REMARK Flexibility Score: inf
ROOT
ATOM      1  C   UNL A   1      40.482  22.480  27.159  1.00  0.00     0.202 C 
ENDROOT
BRANCH   1   2
ATOM      2  O   UNL A   1      40.220  21.075  27.109  1.00  0.00    -0.374 OA
BRANCH   2   3
ATOM      3  C   UNL A   1      40.830  20.345  26.047  1.00  0.00     0.202 C 
BRANCH   3   4
ATOM      4  C   UNL A   1      42.274  19.926  26.330  1.00  0.00     0.261 C 
BRANCH   4   5
ATOM      5  O   UNL A   1      42.974  19.713  25.095  1.00  0.00    -0.460 OA
BRANCH   5   6
ATOM      6  C   UNL A   1      44.047  20.381  24.616  1.00  0.00     0.338 C 
ATOM      7  O   UNL A   1      44.691  19.865  23.702  1.00  0.00    -0.246 OA
BRANCH   6   8
ATOM      8  C   UNL A   1      44.503  21.712  25.121  1.00  0.00     0.060 A 
ATOM      9  C   UNL A   1      45.174  21.938  26.327  1.00  0.00     0.016 A 
ATOM     10  C   UNL A   1      44.330  22.802  24.253  1.00  0.00     0.016 A 
ATOM     11  C   UNL A   1      45.661  23.186  26.673  1.00  0.00     0.010 A 
ATOM     12  C   UNL A   1      44.809  24.068  24.592  1.00  0.00     0.010 A 
ATOM     13  C   UNL A   1      45.470  24.253  25.810  1.00  0.00    -0.014 A 
BRANCH  13  14
ATOM     14  C   UNL A   1      45.821  25.591  26.296  1.00  0.00     0.031 A 
ATOM     15  C   UNL A   1      44.730  26.402  26.910  1.00  0.00     0.074 A 
ATOM     16  C   UNL A   1      47.099  25.997  26.269  1.00  0.00     0.049 A 
ATOM     17  N   UNL A   1      44.744  27.644  27.301  1.00  0.00    -0.248 NA
ATOM     18  C   UNL A   1      43.443  25.712  27.118  1.00  0.00     0.031 C 
ATOM     19  C   UNL A   1      48.236  25.183  25.830  1.00  0.00     0.029 A 
ATOM     20  N   UNL A   1      47.659  27.191  26.626  1.00  0.00    -0.354 N 
ATOM     21  C   UNL A   1      43.457  27.900  27.756  1.00  0.00     0.074 A 
ATOM     22  C   UNL A   1      42.690  26.686  27.603  1.00  0.00     0.031 C 
ATOM     23  C   UNL A   1      49.359  25.912  25.930  1.00  0.00     0.029 A 
ATOM     24  C   UNL A   1      49.006  27.259  26.368  1.00  0.00     0.049 A 
ATOM     25  H   UNL A   1      47.147  27.930  27.029  1.00  0.00     0.167 HD
ATOM     26  C   UNL A   1      42.966  29.066  28.231  1.00  0.00     0.031 A 
ATOM     27  C   UNL A   1      49.837  28.316  26.426  1.00  0.00     0.031 A 
ATOM     28  C   UNL A   1      43.768  30.254  28.325  1.00  0.00     0.049 A 
ATOM     29  C   UNL A   1      49.252  29.634  26.858  1.00  0.00     0.074 A 
ATOM     30  C   UNL A   1      43.396  31.523  28.718  1.00  0.00     0.029 A 
ATOM     31  N   UNL A   1      45.122  30.307  28.005  1.00  0.00    -0.354 N 
ATOM     32  N   UNL A   1      48.015  29.904  27.213  1.00  0.00    -0.248 NA
ATOM     33  C   UNL A   1      50.156  30.787  26.890  1.00  0.00     0.031 C 
ATOM     34  C   UNL A   1      44.512  32.356  28.583  1.00  0.00     0.029 A 
ATOM     35  C   UNL A   1      45.599  31.591  28.176  1.00  0.00     0.049 A 
ATOM     36  H   UNL A   1      45.659  29.541  27.702  1.00  0.00     0.167 HD
ATOM     37  C   UNL A   1      47.997  31.252  27.539  1.00  0.00     0.074 A 
ATOM     38  C   UNL A   1      49.349  31.742  27.339  1.00  0.00     0.031 C 
ATOM     39  C   UNL A   1      46.963  32.019  27.973  1.00  0.00     0.031 A 
BRANCH  26  40
ATOM     40  C   UNL A   1      41.496  29.107  28.548  1.00  0.00    -0.014 A 
ATOM     41  C   UNL A   1      40.516  29.119  27.538  1.00  0.00     0.010 A 
ATOM     42  C   UNL A   1      41.091  29.220  29.891  1.00  0.00     0.010 A 
ATOM     43  C   UNL A   1      39.169  29.313  27.860  1.00  0.00     0.020 A 
ATOM     44  C   UNL A   1      39.744  29.383  30.220  1.00  0.00     0.020 A 
ATOM     45  C   UNL A   1      38.794  29.457  29.200  1.00  0.00     0.054 A 
BRANCH  45  46
ATOM     46  S   UNL A   1      37.047  29.753  29.591  1.00  0.00     0.124 S 
ATOM     47  O   UNL A   1      36.375  29.131  28.453  1.00  0.00    -0.237 OA
ATOM     48  O   UNL A   1      36.883  29.064  30.869  1.00  0.00    -0.237 OA
ATOM     49  O   UNL A   1      36.947  31.209  29.654  1.00  0.00    -0.744 OA
ENDBRANCH  45  46
ENDBRANCH  26  40
BRANCH  27  50
ATOM     50  C   UNL A   1      51.259  28.163  26.012  1.00  0.00    -0.014 A 
ATOM     51  C   UNL A   1      52.191  27.515  26.838  1.00  0.00     0.010 A 
ATOM     52  C   UNL A   1      51.674  28.611  24.742  1.00  0.00     0.010 A 
ATOM     53  C   UNL A   1      53.506  27.313  26.401  1.00  0.00     0.020 A 
ATOM     54  C   UNL A   1      52.977  28.387  24.290  1.00  0.00     0.020 A 
ATOM     55  C   UNL A   1      53.888  27.741  25.126  1.00  0.00     0.054 A 
BRANCH  55  56
ATOM     56  S   UNL A   1      55.574  27.392  24.550  1.00  0.00     0.124 S 
ATOM     57  O   UNL A   1      55.498  27.759  23.140  1.00  0.00    -0.237 OA
ATOM     58  O   UNL A   1      56.382  28.273  25.391  1.00  0.00    -0.237 OA
ATOM     59  O   UNL A   1      55.740  25.964  24.818  1.00  0.00    -0.744 OA
ENDBRANCH  55  56
ENDBRANCH  27  50
BRANCH  39  60
ATOM     60  C   UNL A   1      47.267  33.447  28.320  1.00  0.00    -0.014 A 
ATOM     61  C   UNL A   1      47.510  33.843  29.645  1.00  0.00     0.010 A 
ATOM     62  C   UNL A   1      47.434  34.376  27.275  1.00  0.00     0.010 A 
ATOM     63  C   UNL A   1      47.916  35.150  29.919  1.00  0.00     0.020 A 
ATOM     64  C   UNL A   1      47.867  35.672  27.544  1.00  0.00     0.020 A 
ATOM     65  C   UNL A   1      48.103  36.053  28.865  1.00  0.00     0.054 A 
BRANCH  65  66
ATOM     66  S   UNL A   1      48.728  37.711  29.240  1.00  0.00     0.124 S 
ATOM     67  O   UNL A   1      48.489  37.808  30.678  1.00  0.00    -0.237 OA
ATOM     68  O   UNL A   1      50.130  37.622  28.840  1.00  0.00    -0.237 OA
ATOM     69  O   UNL A   1      47.905  38.588  28.411  1.00  0.00    -0.744 OA
ENDBRANCH  65  66
ENDBRANCH  39  60
ENDBRANCH  13  14
ENDBRANCH   6   8
ENDBRANCH   5   6
ENDBRANCH   4   5
ENDBRANCH   3   4
ENDBRANCH   2   3
ENDBRANCH   1   2
BRANCH   1  70
ATOM     70  C   UNL A   1      39.342  23.210  26.448  1.00  0.00     0.261 C 
BRANCH  70  71
ATOM     71  O   UNL A   1      38.179  22.368  26.506  1.00  0.00    -0.460 OA
BRANCH  71  72
ATOM     72  C   UNL A   1      37.103  22.793  25.792  1.00  0.00     0.340 C 
ATOM     73  O   UNL A   1      36.918  23.922  25.368  1.00  0.00    -0.246 OA
BRANCH  72  74
ATOM     74  C   UNL A   1      36.225  21.628  25.468  1.00  0.00     0.083 A 
ATOM     75  C   UNL A   1      36.875  20.462  25.029  1.00  0.00     0.018 A 
ATOM     76  C   UNL A   1      34.815  21.652  25.598  1.00  0.00     0.055 A 
ATOM     77  C   UNL A   1      36.141  19.324  24.708  1.00  0.00     0.001 A 
ATOM     78  C   UNL A   1      34.099  20.501  25.243  1.00  0.00     0.027 A 
ATOM     79  C   UNL A   1      34.754  19.350  24.799  1.00  0.00     0.002 A 
BRANCH  76  80
ATOM     80  N   UNL A   1      34.169  22.808  26.059  1.00  0.00    -0.323 N 
ATOM     81  H   UNL A   1      34.751  23.422  26.564  1.00  0.00     0.170 HD
BRANCH  80  82
ATOM     82  C   UNL A   1      32.864  23.240  25.933  1.00  0.00     0.233 A 
ATOM     83  N   UNL A   1      31.892  22.759  26.684  1.00  0.00    -0.182 NA
ATOM     84  N   UNL A   1      32.706  24.149  24.981  1.00  0.00    -0.176 NA
ATOM     85  C   UNL A   1      30.721  23.306  26.419  1.00  0.00     0.228 A 
ATOM     86  C   UNL A   1      31.471  24.542  24.738  1.00  0.00     0.233 A 
ATOM     87  Cl  UNL A   1      29.407  22.770  27.372  1.00  0.00    -0.041 Cl
ATOM     88  N   UNL A   1      30.430  24.178  25.469  1.00  0.00    -0.182 NA
BRANCH  86  89
ATOM     89  N   UNL A   1      31.304  25.270  23.565  1.00  0.00    -0.324 N 
ATOM     90  H   UNL A   1      31.532  24.808  22.725  1.00  0.00     0.170 HD
BRANCH  89  91
ATOM     91  C   UNL A   1      30.849  26.579  23.450  1.00  0.00     0.041 A 
ATOM     92  C   UNL A   1      31.736  27.607  23.120  1.00  0.00     0.028 A 
ATOM     93  C   UNL A   1      29.483  26.857  23.518  1.00  0.00     0.028 A 
ATOM     94  C   UNL A   1      31.256  28.885  22.822  1.00  0.00     0.028 A 
ATOM     95  C   UNL A   1      29.007  28.138  23.275  1.00  0.00     0.028 A 
ATOM     96  C   UNL A   1      29.886  29.158  22.903  1.00  0.00     0.044 A 
BRANCH  96  97
ATOM     97  N   UNL A   1      29.370  30.432  22.538  1.00  0.00    -0.308 N 
ATOM     98  C   UNL A   1      28.607  30.494  21.287  1.00  0.00     0.154 C 
ATOM     99  C   UNL A   1      29.273  31.452  23.490  1.00  0.00     0.253 C 
ATOM    100  C   UNL A   1      28.258  31.916  20.869  1.00  0.00     0.183 C 
ATOM    101  C   UNL A   1      28.507  32.704  23.044  1.00  0.00     0.260 C 
ATOM    102  O   UNL A   1      29.822  31.438  24.593  1.00  0.00    -0.272 OA
ATOM    103  O   UNL A   1      27.613  32.584  21.950  1.00  0.00    -0.370 OA
ENDBRANCH  96  97
ENDBRANCH  89  91
ENDBRANCH  86  89
ENDBRANCH  80  82
ENDBRANCH  76  80
ENDBRANCH  72  74
ENDBRANCH  71  72
ENDBRANCH  70  71
ENDBRANCH   1  70
TORSDOF 22
ENDMDL
