MODEL 1
REMARK VINA RESULT:     -10.6      0.000      0.000
REMARK SMILES Cc1ccccc1-c1nc(CC(=O)OCCOCCOC(=O)c2ccc(-c3c4nc(c(-c5ccc(S(=O)(=O)[O-])cc5)c5ccc([nH]5)c(-c5ccc(S(=O)(=O)[O-])cc5)c5nc(c(-c6ccc(S(=O)(=O)[O-])cc6)c6ccc3[nH]6)C=C5)C=C4)cc2)cs1
REMARK SMILES IDX 18 1 17 2 16 3 15 4 14 5 12 6 13 7 11 8 10 9 8 10 9 11 84 12
REMARK SMILES IDX 83 13 7 14 1 15 2 16 3 17 4 18 6 19 5 20 19 21 20 22 21 23
REMARK SMILES IDX 22 24 23 25 24 26 82 27 25 28 81 29 26 30 27 31 28 32 75 33
REMARK SMILES IDX 29 34 80 35 74 36 76 37 30 38 79 39 73 40 72 41 31 43 61 44
REMARK SMILES IDX 42 45 60 46 43 47 46 48 59 49 77 50 44 51 45 52 58 54 78 55
REMARK SMILES IDX 47 56 32 57 33 58 41 59 34 60 40 61 35 62 36 63 37 64 38 65
REMARK SMILES IDX 39 66 62 67 63 68 71 69 64 70 70 71 65 72 66 73 67 74 68 75
REMARK SMILES IDX 69 76 48 77 49 78 57 79 50 80 56 81 51 82 52 83 53 84 54 85
REMARK SMILES IDX 55 86
REMARK H PARENT 76 42 46 53
REMARK Flexibility Score: inf
ROOT
ATOM      1  C   UNL A   1      36.036  21.644  25.250  1.00  0.00     0.202 C 
ENDROOT
BRANCH   1   2
ATOM      2  O   UNL A   1      35.080  22.174  24.362  1.00  0.00    -0.374 OA
BRANCH   2   3
ATOM      3  C   UNL A   1      33.850  21.474  24.261  1.00  0.00     0.202 C 
BRANCH   3   4
ATOM      4  C   UNL A   1      33.329  21.307  25.659  1.00  0.00     0.261 C 
BRANCH   4   5
ATOM      5  O   UNL A   1      31.975  21.774  25.862  1.00  0.00    -0.463 OA
BRANCH   5   6
ATOM      6  C   UNL A   1      31.651  22.960  26.453  1.00  0.00     0.311 C 
ATOM      7  O   UNL A   1      31.840  23.298  27.611  1.00  0.00    -0.252 OA
BRANCH   6   8
ATOM      8  C   UNL A   1      31.027  23.867  25.423  1.00  0.00     0.179 C 
BRANCH   8   9
ATOM      9  C   UNL A   1      32.020  24.938  25.132  1.00  0.00     0.063 A 
ATOM     10  C   UNL A   1      32.683  27.038  25.321  1.00  0.00     0.123 A 
ATOM     11  N   UNL A   1      31.910  26.113  25.843  1.00  0.00    -0.240 NA
ATOM     12  S   UNL A   1      33.612  26.541  23.964  1.00  0.00    -0.122 S 
ATOM     13  C   UNL A   1      32.945  24.966  24.105  1.00  0.00     0.091 A 
BRANCH  10  14
ATOM     14  C   UNL A   1      32.953  28.311  25.979  1.00  0.00     0.013 A 
ATOM     15  C   UNL A   1      31.028  29.356  24.649  1.00  0.00     0.045 C 
ATOM     16  C   UNL A   1      32.128  29.419  25.680  1.00  0.00    -0.041 A 
ATOM     17  C   UNL A   1      32.368  30.639  26.323  1.00  0.00     0.004 A 
ATOM     18  C   UNL A   1      33.405  30.762  27.248  1.00  0.00     0.000 A 
ATOM     19  C   UNL A   1      34.015  28.452  26.886  1.00  0.00     0.011 A 
ATOM     20  C   UNL A   1      34.234  29.676  27.521  1.00  0.00     0.001 A 
ENDBRANCH  10  14
ENDBRANCH   8   9
ENDBRANCH   6   8
ENDBRANCH   5   6
ENDBRANCH   4   5
ENDBRANCH   3   4
ENDBRANCH   2   3
ENDBRANCH   1   2
BRANCH   1  21
ATOM     21  C   UNL A   1      37.082  22.665  25.706  1.00  0.00     0.261 C 
BRANCH  21  22
ATOM     22  O   UNL A   1      38.430  22.187  25.499  1.00  0.00    -0.460 OA
BRANCH  22  23
ATOM     23  C   UNL A   1      39.315  22.447  26.504  1.00  0.00     0.338 C 
ATOM     24  O   UNL A   1      39.934  21.578  27.104  1.00  0.00    -0.246 OA
BRANCH  23  25
ATOM     25  C   UNL A   1      39.441  23.912  26.730  1.00  0.00     0.060 A 
ATOM     26  C   UNL A   1      40.077  24.755  25.801  1.00  0.00     0.016 A 
ATOM     27  C   UNL A   1      39.111  24.398  27.990  1.00  0.00     0.016 A 
ATOM     28  C   UNL A   1      40.512  26.037  26.186  1.00  0.00     0.010 A 
ATOM     29  C   UNL A   1      39.670  25.584  28.402  1.00  0.00     0.010 A 
ATOM     30  C   UNL A   1      40.368  26.423  27.517  1.00  0.00    -0.014 A 
BRANCH  30  31
ATOM     31  C   UNL A   1      40.878  27.639  28.156  1.00  0.00     0.031 A 
ATOM     32  C   UNL A   1      39.905  28.721  28.436  1.00  0.00     0.074 A 
ATOM     33  C   UNL A   1      42.083  27.676  28.773  1.00  0.00     0.049 A 
ATOM     34  N   UNL A   1      40.242  29.900  28.827  1.00  0.00    -0.248 NA
ATOM     35  C   UNL A   1      38.458  28.592  28.244  1.00  0.00     0.031 C 
ATOM     36  C   UNL A   1      42.451  28.440  29.968  1.00  0.00     0.029 A 
ATOM     37  N   UNL A   1      43.254  26.992  28.473  1.00  0.00    -0.354 N 
ATOM     38  C   UNL A   1      39.106  30.499  29.316  1.00  0.00     0.074 A 
ATOM     39  C   UNL A   1      38.014  29.732  28.776  1.00  0.00     0.031 C 
ATOM     40  C   UNL A   1      43.775  28.336  30.180  1.00  0.00     0.029 A 
ATOM     41  C   UNL A   1      44.355  27.642  29.044  1.00  0.00     0.049 A 
ATOM     42  H   UNL A   1      43.303  26.169  27.934  1.00  0.00     0.167 HD
ATOM     43  C   UNL A   1      39.237  31.465  30.266  1.00  0.00     0.031 A 
ATOM     44  C   UNL A   1      45.402  28.016  28.257  1.00  0.00     0.031 A 
ATOM     45  C   UNL A   1      40.654  31.749  30.552  1.00  0.00     0.049 A 
ATOM     46  C   UNL A   1      45.414  29.522  28.144  1.00  0.00     0.074 A 
ATOM     47  C   UNL A   1      41.486  31.517  31.635  1.00  0.00     0.029 A 
ATOM     48  N   UNL A   1      41.499  32.082  29.500  1.00  0.00    -0.354 N 
ATOM     49  N   UNL A   1      44.570  30.273  28.796  1.00  0.00    -0.248 NA
ATOM     50  C   UNL A   1      46.291  30.314  27.290  1.00  0.00     0.031 C 
ATOM     51  C   UNL A   1      42.835  31.726  31.214  1.00  0.00     0.029 A 
ATOM     52  C   UNL A   1      42.825  32.120  29.887  1.00  0.00     0.049 A 
ATOM     53  H   UNL A   1      41.190  32.271  28.585  1.00  0.00     0.167 HD
ATOM     54  C   UNL A   1      44.685  31.568  28.422  1.00  0.00     0.074 A 
ATOM     55  C   UNL A   1      45.787  31.552  27.469  1.00  0.00     0.031 C 
ATOM     56  C   UNL A   1      43.840  32.519  28.915  1.00  0.00     0.031 A 
BRANCH  43  57
ATOM     57  C   UNL A   1      38.098  32.008  31.106  1.00  0.00    -0.014 A 
ATOM     58  C   UNL A   1      37.640  33.320  30.869  1.00  0.00     0.010 A 
ATOM     59  C   UNL A   1      37.448  31.316  32.148  1.00  0.00     0.010 A 
ATOM     60  C   UNL A   1      36.630  33.913  31.642  1.00  0.00     0.020 A 
ATOM     61  C   UNL A   1      36.440  31.895  32.935  1.00  0.00     0.020 A 
ATOM     62  C   UNL A   1      36.037  33.196  32.677  1.00  0.00     0.054 A 
BRANCH  62  63
ATOM     63  S   UNL A   1      34.726  33.968  33.654  1.00  0.00     0.124 S 
ATOM     64  O   UNL A   1      35.148  33.685  35.024  1.00  0.00    -0.237 OA
ATOM     65  O   UNL A   1      34.810  35.366  33.243  1.00  0.00    -0.237 OA
ATOM     66  O   UNL A   1      33.515  33.270  33.227  1.00  0.00    -0.744 OA
ENDBRANCH  62  63
ENDBRANCH  43  57
BRANCH  44  67
ATOM     67  C   UNL A   1      45.708  26.983  27.206  1.00  0.00    -0.014 A 
ATOM     68  C   UNL A   1      46.236  25.746  27.658  1.00  0.00     0.010 A 
ATOM     69  C   UNL A   1      45.026  26.992  25.974  1.00  0.00     0.010 A 
ATOM     70  C   UNL A   1      45.949  24.540  26.994  1.00  0.00     0.020 A 
ATOM     71  C   UNL A   1      44.717  25.783  25.321  1.00  0.00     0.020 A 
ATOM     72  C   UNL A   1      45.138  24.561  25.859  1.00  0.00     0.054 A 
BRANCH  72  73
ATOM     73  S   UNL A   1      44.368  23.000  25.281  1.00  0.00     0.124 S 
ATOM     74  O   UNL A   1      43.143  23.468  24.645  1.00  0.00    -0.237 OA
ATOM     75  O   UNL A   1      45.367  22.438  24.371  1.00  0.00    -0.237 OA
ATOM     76  O   UNL A   1      44.198  22.244  26.518  1.00  0.00    -0.744 OA
ENDBRANCH  72  73
ENDBRANCH  44  67
BRANCH  56  77
ATOM     77  C   UNL A   1      43.901  33.951  28.487  1.00  0.00    -0.014 A 
ATOM     78  C   UNL A   1      43.779  34.333  27.146  1.00  0.00     0.010 A 
ATOM     79  C   UNL A   1      44.173  34.959  29.437  1.00  0.00     0.010 A 
ATOM     80  C   UNL A   1      43.810  35.680  26.786  1.00  0.00     0.020 A 
ATOM     81  C   UNL A   1      44.243  36.303  29.084  1.00  0.00     0.020 A 
ATOM     82  C   UNL A   1      44.021  36.656  27.761  1.00  0.00     0.054 A 
BRANCH  82  83
ATOM     83  S   UNL A   1      44.024  38.394  27.279  1.00  0.00     0.124 S 
ATOM     84  O   UNL A   1      42.785  38.513  26.514  1.00  0.00    -0.237 OA
ATOM     85  O   UNL A   1      44.026  39.062  28.579  1.00  0.00    -0.237 OA
ATOM     86  O   UNL A   1      45.250  38.541  26.500  1.00  0.00    -0.744 OA
ENDBRANCH  82  83
ENDBRANCH  56  77
ENDBRANCH  30  31
ENDBRANCH  23  25
ENDBRANCH  22  23
ENDBRANCH  21  22
ENDBRANCH   1  21
TORSDOF 19
ENDMDL
MODEL 2
REMARK VINA RESULT:     -10.5      3.500     10.114
REMARK SMILES Cc1ccccc1-c1nc(CC(=O)OCCOCCOC(=O)c2ccc(-c3c4nc(c(-c5ccc(S(=O)(=O)[O-])cc5)c5ccc([nH]5)c(-c5ccc(S(=O)(=O)[O-])cc5)c5nc(c(-c6ccc(S(=O)(=O)[O-])cc6)c6ccc3[nH]6)C=C5)C=C4)cc2)cs1
REMARK SMILES IDX 18 1 17 2 16 3 15 4 14 5 12 6 13 7 11 8 10 9 8 10 9 11 84 12
REMARK SMILES IDX 83 13 7 14 1 15 2 16 3 17 4 18 6 19 5 20 19 21 20 22 21 23
REMARK SMILES IDX 22 24 23 25 24 26 82 27 25 28 81 29 26 30 27 31 28 32 75 33
REMARK SMILES IDX 29 34 80 35 74 36 76 37 30 38 79 39 73 40 72 41 31 43 61 44
REMARK SMILES IDX 42 45 60 46 43 47 46 48 59 49 77 50 44 51 45 52 58 54 78 55
REMARK SMILES IDX 47 56 32 57 33 58 41 59 34 60 40 61 35 62 36 63 37 64 38 65
REMARK SMILES IDX 39 66 62 67 63 68 71 69 64 70 70 71 65 72 66 73 67 74 68 75
REMARK SMILES IDX 69 76 48 77 49 78 57 79 50 80 56 81 51 82 52 83 53 84 54 85
REMARK SMILES IDX 55 86
REMARK H PARENT 76 42 46 53
REMARK Flexibility Score: inf
ROOT
ATOM      1  C   UNL A   1      32.489  30.052  25.774  1.00  0.00     0.202 C 
ENDROOT
BRANCH   1   2
ATOM      2  O   UNL A   1      32.714  29.306  24.602  1.00  0.00    -0.374 OA
BRANCH   2   3
ATOM      3  C   UNL A   1      31.600  29.118  23.744  1.00  0.00     0.202 C 
BRANCH   3   4
ATOM      4  C   UNL A   1      30.670  28.168  24.440  1.00  0.00     0.261 C 
BRANCH   4   5
ATOM      5  O   UNL A   1      31.131  26.797  24.494  1.00  0.00    -0.463 OA
BRANCH   5   6
ATOM      6  C   UNL A   1      31.410  26.124  25.648  1.00  0.00     0.311 C 
ATOM      7  O   UNL A   1      32.113  26.489  26.578  1.00  0.00    -0.252 OA
BRANCH   6   8
ATOM      8  C   UNL A   1      30.667  24.813  25.644  1.00  0.00     0.179 C 
BRANCH   8   9
ATOM      9  C   UNL A   1      31.444  23.878  24.782  1.00  0.00     0.063 A 
ATOM     10  C   UNL A   1      33.373  22.978  24.188  1.00  0.00     0.123 A 
ATOM     11  N   UNL A   1      32.744  23.610  25.153  1.00  0.00    -0.240 NA
ATOM     12  S   UNL A   1      32.430  22.639  22.792  1.00  0.00    -0.122 S 
ATOM     13  C   UNL A   1      31.076  23.375  23.549  1.00  0.00     0.091 A 
BRANCH  10  14
ATOM     14  C   UNL A   1      34.683  22.363  24.364  1.00  0.00     0.013 A 
ATOM     15  C   UNL A   1      33.534  20.297  25.350  1.00  0.00     0.045 C 
ATOM     16  C   UNL A   1      34.755  21.054  24.890  1.00  0.00    -0.041 A 
ATOM     17  C   UNL A   1      36.008  20.449  25.042  1.00  0.00     0.004 A 
ATOM     18  C   UNL A   1      37.172  21.126  24.678  1.00  0.00     0.000 A 
ATOM     19  C   UNL A   1      35.861  23.050  24.031  1.00  0.00     0.011 A 
ATOM     20  C   UNL A   1      37.102  22.427  24.184  1.00  0.00     0.001 A 
ENDBRANCH  10  14
ENDBRANCH   8   9
ENDBRANCH   6   8
ENDBRANCH   5   6
ENDBRANCH   4   5
ENDBRANCH   3   4
ENDBRANCH   2   3
ENDBRANCH   1   2
BRANCH   1  21
ATOM     21  C   UNL A   1      33.451  29.708  26.914  1.00  0.00     0.261 C 
BRANCH  21  22
ATOM     22  O   UNL A   1      33.593  30.800  27.850  1.00  0.00    -0.460 OA
BRANCH  22  23
ATOM     23  C   UNL A   1      34.805  31.427  27.857  1.00  0.00     0.338 C 
ATOM     24  O   UNL A   1      34.957  32.612  27.590  1.00  0.00    -0.246 OA
BRANCH  23  25
ATOM     25  C   UNL A   1      35.882  30.485  28.265  1.00  0.00     0.060 A 
ATOM     26  C   UNL A   1      35.959  29.967  29.570  1.00  0.00     0.016 A 
ATOM     27  C   UNL A   1      36.944  30.304  27.386  1.00  0.00     0.016 A 
ATOM     28  C   UNL A   1      37.158  29.395  30.037  1.00  0.00     0.010 A 
ATOM     29  C   UNL A   1      38.151  29.887  27.893  1.00  0.00     0.010 A 
ATOM     30  C   UNL A   1      38.280  29.421  29.212  1.00  0.00    -0.014 A 
BRANCH  30  31
ATOM     31  C   UNL A   1      39.649  29.019  29.550  1.00  0.00     0.031 A 
ATOM     32  C   UNL A   1      40.087  27.669  29.124  1.00  0.00     0.074 A 
ATOM     33  C   UNL A   1      40.591  29.918  29.925  1.00  0.00     0.049 A 
ATOM     34  N   UNL A   1      41.189  27.124  29.504  1.00  0.00    -0.248 NA
ATOM     35  C   UNL A   1      39.292  26.779  28.274  1.00  0.00     0.031 C 
ATOM     36  C   UNL A   1      42.026  29.881  29.634  1.00  0.00     0.029 A 
ATOM     37  N   UNL A   1      40.451  31.103  30.635  1.00  0.00    -0.354 N 
ATOM     38  C   UNL A   1      41.425  26.067  28.658  1.00  0.00     0.074 A 
ATOM     39  C   UNL A   1      40.155  25.788  28.041  1.00  0.00     0.031 C 
ATOM     40  C   UNL A   1      42.649  30.864  30.307  1.00  0.00     0.029 A 
ATOM     41  C   UNL A   1      41.677  31.479  31.196  1.00  0.00     0.049 A 
ATOM     42  H   UNL A   1      39.609  31.606  30.732  1.00  0.00     0.167 HD
ATOM     43  C   UNL A   1      42.711  25.673  28.452  1.00  0.00     0.031 A 
ATOM     44  C   UNL A   1      41.768  31.703  32.536  1.00  0.00     0.031 A 
ATOM     45  C   UNL A   1      43.651  26.453  29.276  1.00  0.00     0.049 A 
ATOM     46  C   UNL A   1      42.578  30.594  33.163  1.00  0.00     0.074 A 
ATOM     47  C   UNL A   1      44.611  27.413  29.000  1.00  0.00     0.029 A 
ATOM     48  N   UNL A   1      43.451  26.515  30.650  1.00  0.00    -0.354 N 
ATOM     49  N   UNL A   1      43.136  29.654  32.452  1.00  0.00    -0.248 NA
ATOM     50  C   UNL A   1      42.798  30.391  34.590  1.00  0.00     0.031 C 
ATOM     51  C   UNL A   1      44.984  28.038  30.229  1.00  0.00     0.029 A 
ATOM     52  C   UNL A   1      44.280  27.438  31.258  1.00  0.00     0.049 A 
ATOM     53  H   UNL A   1      42.794  25.965  31.135  1.00  0.00     0.167 HD
ATOM     54  C   UNL A   1      43.680  28.703  33.245  1.00  0.00     0.074 A 
ATOM     55  C   UNL A   1      43.446  29.208  34.592  1.00  0.00     0.031 C 
ATOM     56  C   UNL A   1      44.242  27.580  32.712  1.00  0.00     0.031 A 
BRANCH  43  57
ATOM     57  C   UNL A   1      43.160  24.736  27.347  1.00  0.00    -0.014 A 
ATOM     58  C   UNL A   1      43.857  23.560  27.691  1.00  0.00     0.010 A 
ATOM     59  C   UNL A   1      42.962  24.945  25.968  1.00  0.00     0.010 A 
ATOM     60  C   UNL A   1      44.353  22.673  26.724  1.00  0.00     0.020 A 
ATOM     61  C   UNL A   1      43.456  24.071  24.987  1.00  0.00     0.020 A 
ATOM     62  C   UNL A   1      44.153  22.937  25.373  1.00  0.00     0.054 A 
BRANCH  62  63
ATOM     63  S   UNL A   1      44.786  21.777  24.138  1.00  0.00     0.124 S 
ATOM     64  O   UNL A   1      44.220  22.300  22.897  1.00  0.00    -0.237 OA
ATOM     65  O   UNL A   1      46.231  21.921  24.283  1.00  0.00    -0.237 OA
ATOM     66  O   UNL A   1      44.247  20.486  24.564  1.00  0.00    -0.744 OA
ENDBRANCH  62  63
ENDBRANCH  43  57
BRANCH  44  67
ATOM     67  C   UNL A   1      40.548  32.406  33.068  1.00  0.00    -0.014 A 
ATOM     68  C   UNL A   1      40.305  33.720  32.589  1.00  0.00     0.010 A 
ATOM     69  C   UNL A   1      39.447  31.668  33.540  1.00  0.00     0.010 A 
ATOM     70  C   UNL A   1      38.997  34.211  32.429  1.00  0.00     0.020 A 
ATOM     71  C   UNL A   1      38.134  32.148  33.358  1.00  0.00     0.020 A 
ATOM     72  C   UNL A   1      37.915  33.395  32.760  1.00  0.00     0.054 A 
BRANCH  72  73
ATOM     73  S   UNL A   1      36.249  33.813  32.117  1.00  0.00     0.124 S 
ATOM     74  O   UNL A   1      35.965  35.081  32.778  1.00  0.00    -0.237 OA
ATOM     75  O   UNL A   1      36.448  33.895  30.670  1.00  0.00    -0.237 OA
ATOM     76  O   UNL A   1      35.441  32.674  32.544  1.00  0.00    -0.744 OA
ENDBRANCH  72  73
ENDBRANCH  44  67
BRANCH  56  77
ATOM     77  C   UNL A   1      44.806  26.483  33.556  1.00  0.00    -0.014 A 
ATOM     78  C   UNL A   1      44.056  25.851  34.555  1.00  0.00     0.010 A 
ATOM     79  C   UNL A   1      46.162  26.113  33.418  1.00  0.00     0.010 A 
ATOM     80  C   UNL A   1      44.605  24.809  35.303  1.00  0.00     0.020 A 
ATOM     81  C   UNL A   1      46.730  25.102  34.184  1.00  0.00     0.020 A 
ATOM     82  C   UNL A   1      45.932  24.429  35.097  1.00  0.00     0.054 A 
BRANCH  82  83
ATOM     83  S   UNL A   1      46.612  23.058  36.052  1.00  0.00     0.124 S 
ATOM     84  O   UNL A   1      45.410  22.361  36.505  1.00  0.00    -0.237 OA
ATOM     85  O   UNL A   1      47.402  22.357  35.043  1.00  0.00    -0.237 OA
ATOM     86  O   UNL A   1      47.383  23.712  37.105  1.00  0.00    -0.744 OA
ENDBRANCH  82  83
ENDBRANCH  56  77
ENDBRANCH  30  31
ENDBRANCH  23  25
ENDBRANCH  22  23
ENDBRANCH  21  22
ENDBRANCH   1  21
TORSDOF 19
ENDMDL
MODEL 3
REMARK VINA RESULT:     -10.4      3.694     10.188
REMARK SMILES Cc1ccccc1-c1nc(CC(=O)OCCOCCOC(=O)c2ccc(-c3c4nc(c(-c5ccc(S(=O)(=O)[O-])cc5)c5ccc([nH]5)c(-c5ccc(S(=O)(=O)[O-])cc5)c5nc(c(-c6ccc(S(=O)(=O)[O-])cc6)c6ccc3[nH]6)C=C5)C=C4)cc2)cs1
REMARK SMILES IDX 18 1 17 2 16 3 15 4 14 5 12 6 13 7 11 8 10 9 8 10 9 11 84 12
REMARK SMILES IDX 83 13 7 14 1 15 2 16 3 17 4 18 6 19 5 20 19 21 20 22 21 23
REMARK SMILES IDX 22 24 23 25 24 26 82 27 25 28 81 29 26 30 27 31 28 32 75 33
REMARK SMILES IDX 29 34 80 35 74 36 76 37 30 38 79 39 73 40 72 41 31 43 61 44
REMARK SMILES IDX 42 45 60 46 43 47 46 48 59 49 77 50 44 51 45 52 58 54 78 55
REMARK SMILES IDX 47 56 32 57 33 58 41 59 34 60 40 61 35 62 36 63 37 64 38 65
REMARK SMILES IDX 39 66 62 67 63 68 71 69 64 70 70 71 65 72 66 73 67 74 68 75
REMARK SMILES IDX 69 76 48 77 49 78 57 79 50 80 56 81 51 82 52 83 53 84 54 85
REMARK SMILES IDX 55 86
REMARK H PARENT 76 42 46 53
REMARK Flexibility Score: inf
ROOT
ATOM      1  C   UNL A   1      31.557  30.029  25.743  1.00  0.00     0.202 C 
ENDROOT
BRANCH   1   2
ATOM      2  O   UNL A   1      31.792  29.661  24.404  1.00  0.00    -0.374 OA
BRANCH   2   3
ATOM      3  C   UNL A   1      32.000  28.281  24.152  1.00  0.00     0.202 C 
BRANCH   3   4
ATOM      4  C   UNL A   1      30.644  27.655  24.005  1.00  0.00     0.261 C 
BRANCH   4   5
ATOM      5  O   UNL A   1      30.371  26.573  24.925  1.00  0.00    -0.463 OA
BRANCH   5   6
ATOM      6  C   UNL A   1      30.427  25.250  24.596  1.00  0.00     0.311 C 
ATOM      7  O   UNL A   1      30.183  24.734  23.515  1.00  0.00    -0.252 OA
BRANCH   6   8
ATOM      8  C   UNL A   1      30.891  24.465  25.796  1.00  0.00     0.179 C 
BRANCH   8   9
ATOM      9  C   UNL A   1      31.952  23.534  25.319  1.00  0.00     0.063 A 
ATOM     10  C   UNL A   1      32.697  21.476  25.011  1.00  0.00     0.123 A 
ATOM     11  N   UNL A   1      31.619  22.202  25.203  1.00  0.00    -0.240 NA
ATOM     12  S   UNL A   1      34.171  22.355  24.926  1.00  0.00    -0.122 S 
ATOM     13  C   UNL A   1      33.293  23.815  25.140  1.00  0.00     0.091 A 
BRANCH  10  14
ATOM     14  C   UNL A   1      32.650  20.070  24.630  1.00  0.00     0.013 A 
ATOM     15  C   UNL A   1      32.057  20.782  22.242  1.00  0.00     0.045 C 
ATOM     16  C   UNL A   1      32.378  19.740  23.284  1.00  0.00    -0.041 A 
ATOM     17  C   UNL A   1      32.352  18.392  22.905  1.00  0.00     0.004 A 
ATOM     18  C   UNL A   1      32.593  17.387  23.842  1.00  0.00     0.000 A 
ATOM     19  C   UNL A   1      32.859  19.051  25.573  1.00  0.00     0.011 A 
ATOM     20  C   UNL A   1      32.836  17.713  25.174  1.00  0.00     0.001 A 
ENDBRANCH  10  14
ENDBRANCH   8   9
ENDBRANCH   6   8
ENDBRANCH   5   6
ENDBRANCH   4   5
ENDBRANCH   3   4
ENDBRANCH   2   3
ENDBRANCH   1   2
BRANCH   1  21
ATOM     21  C   UNL A   1      32.661  30.904  26.341  1.00  0.00     0.261 C 
BRANCH  21  22
ATOM     22  O   UNL A   1      33.106  30.412  27.625  1.00  0.00    -0.460 OA
BRANCH  22  23
ATOM     23  C   UNL A   1      33.898  29.301  27.596  1.00  0.00     0.338 C 
ATOM     24  O   UNL A   1      33.501  28.194  27.258  1.00  0.00    -0.246 OA
BRANCH  23  25
ATOM     25  C   UNL A   1      35.292  29.639  27.991  1.00  0.00     0.060 A 
ATOM     26  C   UNL A   1      36.307  29.836  27.037  1.00  0.00     0.016 A 
ATOM     27  C   UNL A   1      35.622  29.535  29.337  1.00  0.00     0.016 A 
ATOM     28  C   UNL A   1      37.661  29.782  27.419  1.00  0.00     0.010 A 
ATOM     29  C   UNL A   1      36.938  29.332  29.677  1.00  0.00     0.010 A 
ATOM     30  C   UNL A   1      37.974  29.458  28.736  1.00  0.00    -0.014 A 
BRANCH  30  31
ATOM     31  C   UNL A   1      39.302  29.207  29.305  1.00  0.00     0.031 A 
ATOM     32  C   UNL A   1      39.947  27.912  28.984  1.00  0.00     0.074 A 
ATOM     33  C   UNL A   1      40.067  30.204  29.813  1.00  0.00     0.049 A 
ATOM     34  N   UNL A   1      41.022  27.491  29.553  1.00  0.00    -0.248 NA
ATOM     35  C   UNL A   1      39.406  26.940  28.031  1.00  0.00     0.031 C 
ATOM     36  C   UNL A   1      41.526  30.322  29.765  1.00  0.00     0.029 A 
ATOM     37  N   UNL A   1      39.684  31.368  30.467  1.00  0.00    -0.354 N 
ATOM     38  C   UNL A   1      41.508  26.464  28.778  1.00  0.00     0.074 A 
ATOM     39  C   UNL A   1      40.396  26.049  27.964  1.00  0.00     0.031 C 
ATOM     40  C   UNL A   1      41.918  31.369  30.514  1.00  0.00     0.029 A 
ATOM     41  C   UNL A   1      40.752  31.875  31.216  1.00  0.00     0.049 A 
ATOM     42  H   UNL A   1      38.789  31.776  30.413  1.00  0.00     0.167 HD
ATOM     43  C   UNL A   1      42.845  26.212  28.797  1.00  0.00     0.031 A 
ATOM     44  C   UNL A   1      40.593  32.111  32.548  1.00  0.00     0.031 A 
ATOM     45  C   UNL A   1      43.545  27.091  29.750  1.00  0.00     0.049 A 
ATOM     46  C   UNL A   1      41.400  31.096  33.323  1.00  0.00     0.074 A 
ATOM     47  C   UNL A   1      44.429  28.149  29.618  1.00  0.00     0.029 A 
ATOM     48  N   UNL A   1      43.112  27.133  31.070  1.00  0.00    -0.354 N 
ATOM     49  N   UNL A   1      42.166  30.222  32.732  1.00  0.00    -0.248 NA
ATOM     50  C   UNL A   1      41.399  30.920  34.770  1.00  0.00     0.031 C 
ATOM     51  C   UNL A   1      44.522  28.813  30.879  1.00  0.00     0.029 A 
ATOM     52  C   UNL A   1      43.724  28.141  31.789  1.00  0.00     0.049 A 
ATOM     53  H   UNL A   1      42.446  26.515  31.450  1.00  0.00     0.167 HD
ATOM     54  C   UNL A   1      42.668  29.336  33.624  1.00  0.00     0.074 A 
ATOM     55  C   UNL A   1      42.160  29.815  34.903  1.00  0.00     0.031 C 
ATOM     56  C   UNL A   1      43.429  28.281  33.214  1.00  0.00     0.031 A 
BRANCH  43  57
ATOM     57  C   UNL A   1      43.570  25.328  27.800  1.00  0.00    -0.014 A 
ATOM     58  C   UNL A   1      43.958  25.874  26.561  1.00  0.00     0.010 A 
ATOM     59  C   UNL A   1      43.880  23.966  27.990  1.00  0.00     0.010 A 
ATOM     60  C   UNL A   1      44.581  25.106  25.565  1.00  0.00     0.020 A 
ATOM     61  C   UNL A   1      44.498  23.182  27.003  1.00  0.00     0.020 A 
ATOM     62  C   UNL A   1      44.843  23.758  25.791  1.00  0.00     0.054 A 
BRANCH  62  63
ATOM     63  S   UNL A   1      45.661  22.785  24.505  1.00  0.00     0.124 S 
ATOM     64  O   UNL A   1      46.373  21.773  25.282  1.00  0.00    -0.237 OA
ATOM     65  O   UNL A   1      44.533  22.297  23.717  1.00  0.00    -0.237 OA
ATOM     66  O   UNL A   1      46.517  23.754  23.824  1.00  0.00    -0.744 OA
ENDBRANCH  62  63
ENDBRANCH  43  57
BRANCH  44  67
ATOM     67  C   UNL A   1      39.233  32.678  32.856  1.00  0.00    -0.014 A 
ATOM     68  C   UNL A   1      38.984  34.010  32.437  1.00  0.00     0.010 A 
ATOM     69  C   UNL A   1      38.124  31.826  33.021  1.00  0.00     0.010 A 
ATOM     70  C   UNL A   1      37.702  34.425  32.037  1.00  0.00     0.020 A 
ATOM     71  C   UNL A   1      36.843  32.232  32.597  1.00  0.00     0.020 A 
ATOM     72  C   UNL A   1      36.648  33.511  32.063  1.00  0.00     0.054 A 
BRANCH  72  73
ATOM     73  S   UNL A   1      35.124  33.875  31.109  1.00  0.00     0.124 S 
ATOM     74  O   UNL A   1      35.644  34.147  29.775  1.00  0.00    -0.237 OA
ATOM     75  O   UNL A   1      34.338  32.647  31.233  1.00  0.00    -0.237 OA
ATOM     76  O   UNL A   1      34.560  35.018  31.822  1.00  0.00    -0.744 OA
ENDBRANCH  72  73
ENDBRANCH  44  67
BRANCH  56  77
ATOM     77  C   UNL A   1      43.958  27.252  34.161  1.00  0.00    -0.014 A 
ATOM     78  C   UNL A   1      43.119  26.343  34.817  1.00  0.00     0.010 A 
ATOM     79  C   UNL A   1      45.332  27.234  34.485  1.00  0.00     0.010 A 
ATOM     80  C   UNL A   1      43.651  25.376  35.671  1.00  0.00     0.020 A 
ATOM     81  C   UNL A   1      45.867  26.298  35.364  1.00  0.00     0.020 A 
ATOM     82  C   UNL A   1      45.024  25.349  35.922  1.00  0.00     0.054 A 
BRANCH  82  83
ATOM     83  S   UNL A   1      45.694  24.071  37.004  1.00  0.00     0.124 S 
ATOM     84  O   UNL A   1      45.120  24.421  38.301  1.00  0.00    -0.237 OA
ATOM     85  O   UNL A   1      45.164  22.855  36.390  1.00  0.00    -0.237 OA
ATOM     86  O   UNL A   1      47.140  24.244  36.898  1.00  0.00    -0.744 OA
ENDBRANCH  82  83
ENDBRANCH  56  77
ENDBRANCH  30  31
ENDBRANCH  23  25
ENDBRANCH  22  23
ENDBRANCH  21  22
ENDBRANCH   1  21
TORSDOF 19
ENDMDL
