MODEL 1
REMARK VINA RESULT:     -10.5      0.000      0.000
REMARK SMILES CCc1cc(C)c2c(c1)C=C(C(=O)OCCOCCOC(=O)c1ccc(-c3c4nc(c(-c5ccc(S(=O)(=O)[O-])cc5)c5ccc([nH]5)c(-c5ccc(S(=O)(=O)[O-])cc5)c5nc(c(-c6ccc(S(=O)(=O)[O-])cc6)c6ccc3[nH]6)C=C5)C=C4)cc1)[C@@H](C(F)(F)F)O2
REMARK SMILES IDX 18 1 17 2 16 3 15 4 14 5 12 6 13 7 11 8 3 9 4 10 9 11 5 12
REMARK SMILES IDX 8 13 6 14 7 15 10 16 88 17 83 18 2 19 1 20 84 21 85 22 86 23
REMARK SMILES IDX 87 24 19 25 20 26 21 27 22 28 23 29 24 30 82 31 25 32 81 33
REMARK SMILES IDX 26 34 27 35 28 36 75 37 29 38 80 39 74 40 76 41 30 42 79 43
REMARK SMILES IDX 73 44 72 45 31 47 61 48 42 49 60 50 43 51 46 52 59 53 77 54
REMARK SMILES IDX 44 55 45 56 58 58 78 59 47 60 32 61 33 62 41 63 34 64 40 65
REMARK SMILES IDX 35 66 36 67 37 68 38 69 39 70 62 71 63 72 71 73 64 74 70 75
REMARK SMILES IDX 65 76 66 77 67 78 68 79 69 80 48 81 49 82 57 83 50 84 56 85
REMARK SMILES IDX 51 86 52 87 53 88 54 89 55 90
REMARK H PARENT 76 46 46 57
REMARK Flexibility Score: inf
ROOT
ATOM      1  C   UNL A   1      36.047  21.182  24.707  1.00  0.00     0.202 C 
ENDROOT
BRANCH   1   2
ATOM      2  O   UNL A   1      35.201  21.020  25.848  1.00  0.00    -0.374 OA
BRANCH   2   3
ATOM      3  C   UNL A   1      34.509  22.169  26.330  1.00  0.00     0.202 C 
BRANCH   3   4
ATOM      4  C   UNL A   1      33.107  21.943  26.904  1.00  0.00     0.261 C 
BRANCH   4   5
ATOM      5  O   UNL A   1      32.078  22.377  26.004  1.00  0.00    -0.460 OA
BRANCH   5   6
ATOM      6  C   UNL A   1      31.455  23.520  26.373  1.00  0.00     0.338 C 
ATOM      7  O   UNL A   1      30.554  23.633  27.191  1.00  0.00    -0.246 OA
BRANCH   6   8
ATOM      8  C   UNL A   1      32.113  24.678  25.738  1.00  0.00     0.087 C 
ATOM      9  C   UNL A   1      33.791  29.158  26.305  1.00  0.00    -0.047 A 
ATOM     10  C   UNL A   1      33.914  29.273  24.914  1.00  0.00     0.011 A 
ATOM     11  C   UNL A   1      33.360  27.938  26.840  1.00  0.00     0.015 A 
ATOM     12  C   UNL A   1      33.606  28.197  24.064  1.00  0.00    -0.008 A 
ATOM     13  C   UNL A   1      33.043  26.862  26.005  1.00  0.00     0.018 A 
ATOM     14  C   UNL A   1      33.703  28.367  22.574  1.00  0.00     0.048 C 
ATOM     15  C   UNL A   1      33.186  26.980  24.622  1.00  0.00     0.130 A 
ATOM     16  C   UNL A   1      32.502  25.646  26.577  1.00  0.00     0.027 C 
ATOM     17  O   UNL A   1      32.944  25.947  23.758  1.00  0.00    -0.475 OA
ATOM     18  C   UNL A   1      32.287  24.743  24.247  1.00  0.00     0.316 C 
BRANCH   9  19
ATOM     19  C   UNL A   1      34.115  30.310  27.224  1.00  0.00     0.032 C 
ATOM     20  C   UNL A   1      35.410  30.117  28.001  1.00  0.00     0.009 C 
ENDBRANCH   9  19
BRANCH  18  21
ATOM     21  C   UNL A   1      30.963  24.577  23.488  1.00  0.00     0.430 C 
ATOM     22  F   UNL A   1      29.946  25.186  24.144  1.00  0.00    -0.167 F 
ATOM     23  F   UNL A   1      31.020  25.131  22.255  1.00  0.00    -0.167 F 
ATOM     24  F   UNL A   1      30.629  23.276  23.336  1.00  0.00    -0.167 F 
ENDBRANCH  18  21
ENDBRANCH   6   8
ENDBRANCH   5   6
ENDBRANCH   4   5
ENDBRANCH   3   4
ENDBRANCH   2   3
ENDBRANCH   1   2
BRANCH   1  25
ATOM     25  C   UNL A   1      37.560  21.074  24.928  1.00  0.00     0.261 C 
BRANCH  25  26
ATOM     26  O   UNL A   1      38.002  21.875  26.042  1.00  0.00    -0.460 OA
BRANCH  26  27
ATOM     27  C   UNL A   1      39.340  21.882  26.246  1.00  0.00     0.338 C 
ATOM     28  O   UNL A   1      40.163  21.090  25.807  1.00  0.00    -0.246 OA
BRANCH  27  29
ATOM     29  C   UNL A   1      39.724  23.111  26.956  1.00  0.00     0.060 A 
ATOM     30  C   UNL A   1      39.117  24.314  26.576  1.00  0.00     0.016 A 
ATOM     31  C   UNL A   1      40.750  23.096  27.902  1.00  0.00     0.016 A 
ATOM     32  C   UNL A   1      39.556  25.517  27.122  1.00  0.00     0.010 A 
ATOM     33  C   UNL A   1      41.202  24.306  28.436  1.00  0.00     0.010 A 
ATOM     34  C   UNL A   1      40.630  25.522  28.022  1.00  0.00    -0.014 A 
BRANCH  34  35
ATOM     35  C   UNL A   1      41.254  26.813  28.387  1.00  0.00     0.031 A 
ATOM     36  C   UNL A   1      42.736  26.981  28.184  1.00  0.00     0.074 A 
ATOM     37  C   UNL A   1      40.506  27.840  28.829  1.00  0.00     0.049 A 
ATOM     38  N   UNL A   1      43.482  28.033  28.396  1.00  0.00    -0.248 NA
ATOM     39  C   UNL A   1      43.473  25.816  27.664  1.00  0.00     0.031 C 
ATOM     40  C   UNL A   1      39.055  27.812  29.012  1.00  0.00     0.029 A 
ATOM     41  N   UNL A   1      40.867  29.114  29.190  1.00  0.00    -0.354 N 
ATOM     42  C   UNL A   1      44.768  27.663  28.025  1.00  0.00     0.074 A 
ATOM     43  C   UNL A   1      44.713  26.281  27.606  1.00  0.00     0.031 C 
ATOM     44  C   UNL A   1      38.647  29.020  29.439  1.00  0.00     0.029 A 
ATOM     45  C   UNL A   1      39.808  29.898  29.583  1.00  0.00     0.049 A 
ATOM     46  H   UNL A   1      41.797  29.438  29.169  1.00  0.00     0.167 HD
ATOM     47  C   UNL A   1      45.892  28.413  28.019  1.00  0.00     0.031 A 
ATOM     48  C   UNL A   1      39.779  31.176  30.012  1.00  0.00     0.031 A 
ATOM     49  C   UNL A   1      45.948  29.786  28.438  1.00  0.00     0.049 A 
ATOM     50  C   UNL A   1      41.062  31.960  30.090  1.00  0.00     0.074 A 
ATOM     51  C   UNL A   1      47.045  30.628  28.462  1.00  0.00     0.029 A 
ATOM     52  N   UNL A   1      44.867  30.514  28.904  1.00  0.00    -0.354 N 
ATOM     53  N   UNL A   1      42.268  31.596  29.730  1.00  0.00    -0.248 NA
ATOM     54  C   UNL A   1      40.983  33.325  30.632  1.00  0.00     0.031 C 
ATOM     55  C   UNL A   1      46.635  31.856  28.986  1.00  0.00     0.029 A 
ATOM     56  C   UNL A   1      45.274  31.790  29.243  1.00  0.00     0.049 A 
ATOM     57  H   UNL A   1      43.946  30.174  28.983  1.00  0.00     0.167 HD
ATOM     58  C   UNL A   1      43.087  32.692  29.980  1.00  0.00     0.074 A 
ATOM     59  C   UNL A   1      42.241  33.734  30.522  1.00  0.00     0.031 C 
ATOM     60  C   UNL A   1      44.419  32.820  29.773  1.00  0.00     0.031 A 
BRANCH  47  61
ATOM     61  C   UNL A   1      47.165  27.776  27.541  1.00  0.00    -0.014 A 
ATOM     62  C   UNL A   1      47.599  27.953  26.216  1.00  0.00     0.010 A 
ATOM     63  C   UNL A   1      47.985  27.083  28.449  1.00  0.00     0.010 A 
ATOM     64  C   UNL A   1      48.833  27.446  25.805  1.00  0.00     0.020 A 
ATOM     65  C   UNL A   1      49.229  26.590  28.046  1.00  0.00     0.020 A 
ATOM     66  C   UNL A   1      49.645  26.777  26.727  1.00  0.00     0.054 A 
BRANCH  66  67
ATOM     67  S   UNL A   1      51.265  26.179  26.173  1.00  0.00     0.124 S 
ATOM     68  O   UNL A   1      51.304  24.832  26.738  1.00  0.00    -0.237 OA
ATOM     69  O   UNL A   1      51.145  26.249  24.719  1.00  0.00    -0.237 OA
ATOM     70  O   UNL A   1      52.208  27.125  26.768  1.00  0.00    -0.744 OA
ENDBRANCH  66  67
ENDBRANCH  47  61
BRANCH  48  71
ATOM     71  C   UNL A   1      38.483  31.795  30.398  1.00  0.00    -0.014 A 
ATOM     72  C   UNL A   1      37.969  31.618  31.695  1.00  0.00     0.010 A 
ATOM     73  C   UNL A   1      37.768  32.583  29.479  1.00  0.00     0.010 A 
ATOM     74  C   UNL A   1      36.761  32.216  32.063  1.00  0.00     0.020 A 
ATOM     75  C   UNL A   1      36.571  33.200  29.849  1.00  0.00     0.020 A 
ATOM     76  C   UNL A   1      36.074  33.011  31.140  1.00  0.00     0.054 A 
BRANCH  76  77
ATOM     77  S   UNL A   1      34.528  33.807  31.662  1.00  0.00     0.124 S 
ATOM     78  O   UNL A   1      35.013  35.000  32.351  1.00  0.00    -0.237 OA
ATOM     79  O   UNL A   1      33.859  34.042  30.385  1.00  0.00    -0.237 OA
ATOM     80  O   UNL A   1      33.896  32.805  32.518  1.00  0.00    -0.744 OA
ENDBRANCH  76  77
ENDBRANCH  48  71
BRANCH  60  81
ATOM     81  C   UNL A   1      45.076  34.129  30.109  1.00  0.00    -0.014 A 
ATOM     82  C   UNL A   1      45.687  34.319  31.360  1.00  0.00     0.010 A 
ATOM     83  C   UNL A   1      45.242  35.099  29.102  1.00  0.00     0.010 A 
ATOM     84  C   UNL A   1      46.475  35.449  31.591  1.00  0.00     0.020 A 
ATOM     85  C   UNL A   1      46.044  36.221  29.325  1.00  0.00     0.020 A 
ATOM     86  C   UNL A   1      46.665  36.382  30.566  1.00  0.00     0.054 A 
BRANCH  86  87
ATOM     87  S   UNL A   1      47.787  37.776  30.862  1.00  0.00     0.124 S 
ATOM     88  O   UNL A   1      48.388  37.974  29.546  1.00  0.00    -0.237 OA
ATOM     89  O   UNL A   1      46.872  38.827  31.299  1.00  0.00    -0.237 OA
ATOM     90  O   UNL A   1      48.698  37.279  31.890  1.00  0.00    -0.744 OA
ENDBRANCH  86  87
ENDBRANCH  60  81
ENDBRANCH  34  35
ENDBRANCH  27  29
ENDBRANCH  26  27
ENDBRANCH  25  26
ENDBRANCH   1  25
TORSDOF 19
ENDMDL
MODEL 2
REMARK VINA RESULT:     -10.5      1.059      1.567
REMARK SMILES CCc1cc(C)c2c(c1)C=C(C(=O)OCCOCCOC(=O)c1ccc(-c3c4nc(c(-c5ccc(S(=O)(=O)[O-])cc5)c5ccc([nH]5)c(-c5ccc(S(=O)(=O)[O-])cc5)c5nc(c(-c6ccc(S(=O)(=O)[O-])cc6)c6ccc3[nH]6)C=C5)C=C4)cc1)[C@@H](C(F)(F)F)O2
REMARK SMILES IDX 18 1 17 2 16 3 15 4 14 5 12 6 13 7 11 8 3 9 4 10 9 11 5 12
REMARK SMILES IDX 8 13 6 14 7 15 10 16 88 17 83 18 2 19 1 20 84 21 85 22 86 23
REMARK SMILES IDX 87 24 19 25 20 26 21 27 22 28 23 29 24 30 82 31 25 32 81 33
REMARK SMILES IDX 26 34 27 35 28 36 75 37 29 38 80 39 74 40 76 41 30 42 79 43
REMARK SMILES IDX 73 44 72 45 31 47 61 48 42 49 60 50 43 51 46 52 59 53 77 54
REMARK SMILES IDX 44 55 45 56 58 58 78 59 47 60 32 61 33 62 41 63 34 64 40 65
REMARK SMILES IDX 35 66 36 67 37 68 38 69 39 70 62 71 63 72 71 73 64 74 70 75
REMARK SMILES IDX 65 76 66 77 67 78 68 79 69 80 48 81 49 82 57 83 50 84 56 85
REMARK SMILES IDX 51 86 52 87 53 88 54 89 55 90
REMARK H PARENT 76 46 46 57
REMARK Flexibility Score: inf
ROOT
ATOM      1  C   UNL A   1      36.436  21.046  24.577  1.00  0.00     0.202 C 
ENDROOT
BRANCH   1   2
ATOM      2  O   UNL A   1      35.278  20.686  25.334  1.00  0.00    -0.374 OA
BRANCH   2   3
ATOM      3  C   UNL A   1      34.693  21.681  26.169  1.00  0.00     0.202 C 
BRANCH   3   4
ATOM      4  C   UNL A   1      33.234  21.469  26.583  1.00  0.00     0.261 C 
BRANCH   4   5
ATOM      5  O   UNL A   1      32.321  22.167  25.723  1.00  0.00    -0.460 OA
BRANCH   5   6
ATOM      6  C   UNL A   1      31.792  23.290  26.261  1.00  0.00     0.338 C 
ATOM      7  O   UNL A   1      31.027  23.357  27.213  1.00  0.00    -0.246 OA
BRANCH   6   8
ATOM      8  C   UNL A   1      32.377  24.481  25.617  1.00  0.00     0.087 C 
ATOM      9  C   UNL A   1      33.981  28.986  26.193  1.00  0.00    -0.047 A 
ATOM     10  C   UNL A   1      34.007  29.140  24.801  1.00  0.00     0.011 A 
ATOM     11  C   UNL A   1      33.617  27.742  26.722  1.00  0.00     0.015 A 
ATOM     12  C   UNL A   1      33.669  28.080  23.944  1.00  0.00    -0.008 A 
ATOM     13  C   UNL A   1      33.270  26.681  25.881  1.00  0.00     0.018 A 
ATOM     14  C   UNL A   1      33.660  28.290  22.456  1.00  0.00     0.048 C 
ATOM     15  C   UNL A   1      33.317  26.838  24.495  1.00  0.00     0.130 A 
ATOM     16  C   UNL A   1      32.798  25.436  26.454  1.00  0.00     0.027 C 
ATOM     17  O   UNL A   1      33.042  25.822  23.621  1.00  0.00    -0.475 OA
ATOM     18  C   UNL A   1      32.448  24.589  24.119  1.00  0.00     0.316 C 
BRANCH   9  19
ATOM     19  C   UNL A   1      34.338  30.122  27.120  1.00  0.00     0.032 C 
ATOM     20  C   UNL A   1      35.620  29.880  27.906  1.00  0.00     0.009 C 
ENDBRANCH   9  19
BRANCH  18  21
ATOM     21  C   UNL A   1      31.080  24.409  23.447  1.00  0.00     0.430 C 
ATOM     22  F   UNL A   1      30.077  24.803  24.268  1.00  0.00    -0.167 F 
ATOM     23  F   UNL A   1      30.976  25.149  22.319  1.00  0.00    -0.167 F 
ATOM     24  F   UNL A   1      30.850  23.119  23.111  1.00  0.00    -0.167 F 
ENDBRANCH  18  21
ENDBRANCH   6   8
ENDBRANCH   5   6
ENDBRANCH   4   5
ENDBRANCH   3   4
ENDBRANCH   2   3
ENDBRANCH   1   2
BRANCH   1  25
ATOM     25  C   UNL A   1      37.806  20.760  25.204  1.00  0.00     0.261 C 
BRANCH  25  26
ATOM     26  O   UNL A   1      38.193  21.781  26.145  1.00  0.00    -0.460 OA
BRANCH  26  27
ATOM     27  C   UNL A   1      39.513  21.814  26.443  1.00  0.00     0.338 C 
ATOM     28  O   UNL A   1      40.359  20.976  26.161  1.00  0.00    -0.246 OA
BRANCH  27  29
ATOM     29  C   UNL A   1      39.855  23.119  27.028  1.00  0.00     0.060 A 
ATOM     30  C   UNL A   1      39.251  24.264  26.493  1.00  0.00     0.016 A 
ATOM     31  C   UNL A   1      40.841  23.223  28.009  1.00  0.00     0.016 A 
ATOM     32  C   UNL A   1      39.655  25.526  26.920  1.00  0.00     0.010 A 
ATOM     33  C   UNL A   1      41.259  24.491  28.423  1.00  0.00     0.010 A 
ATOM     34  C   UNL A   1      40.692  25.645  27.856  1.00  0.00    -0.014 A 
BRANCH  34  35
ATOM     35  C   UNL A   1      41.287  26.978  28.101  1.00  0.00     0.031 A 
ATOM     36  C   UNL A   1      42.658  27.267  27.552  1.00  0.00     0.074 A 
ATOM     37  C   UNL A   1      40.593  27.936  28.742  1.00  0.00     0.049 A 
ATOM     38  N   UNL A   1      43.351  28.374  27.611  1.00  0.00    -0.248 NA
ATOM     39  C   UNL A   1      43.332  26.172  26.832  1.00  0.00     0.031 C 
ATOM     40  C   UNL A   1      39.237  27.789  29.269  1.00  0.00     0.029 A 
ATOM     41  N   UNL A   1      40.934  29.230  29.047  1.00  0.00    -0.354 N 
ATOM     42  C   UNL A   1      44.534  28.113  26.929  1.00  0.00     0.074 A 
ATOM     43  C   UNL A   1      44.482  26.736  26.492  1.00  0.00     0.031 C 
ATOM     44  C   UNL A   1      38.855  28.954  29.820  1.00  0.00     0.029 A 
ATOM     45  C   UNL A   1      39.947  29.921  29.708  1.00  0.00     0.049 A 
ATOM     46  H   UNL A   1      41.804  29.628  28.812  1.00  0.00     0.167 HD
ATOM     47  C   UNL A   1      45.563  28.951  26.676  1.00  0.00     0.031 A 
ATOM     48  C   UNL A   1      39.927  31.187  30.172  1.00  0.00     0.031 A 
ATOM     49  C   UNL A   1      45.615  30.318  27.113  1.00  0.00     0.049 A 
ATOM     50  C   UNL A   1      41.127  32.071  29.963  1.00  0.00     0.074 A 
ATOM     51  C   UNL A   1      46.619  31.246  26.899  1.00  0.00     0.029 A 
ATOM     52  N   UNL A   1      44.628  30.951  27.849  1.00  0.00    -0.354 N 
ATOM     53  N   UNL A   1      42.235  31.809  29.311  1.00  0.00    -0.248 NA
ATOM     54  C   UNL A   1      41.080  33.418  30.551  1.00  0.00     0.031 C 
ATOM     55  C   UNL A   1      46.258  32.430  27.545  1.00  0.00     0.029 A 
ATOM     56  C   UNL A   1      45.009  32.252  28.120  1.00  0.00     0.049 A 
ATOM     57  H   UNL A   1      43.782  30.538  28.137  1.00  0.00     0.167 HD
ATOM     58  C   UNL A   1      43.004  32.965  29.391  1.00  0.00     0.074 A 
ATOM     59  C   UNL A   1      42.240  33.929  30.155  1.00  0.00     0.031 C 
ATOM     60  C   UNL A   1      44.233  33.203  28.874  1.00  0.00     0.031 A 
BRANCH  47  61
ATOM     61  C   UNL A   1      46.725  28.425  25.885  1.00  0.00    -0.014 A 
ATOM     62  C   UNL A   1      46.633  28.280  24.490  1.00  0.00     0.010 A 
ATOM     63  C   UNL A   1      47.951  28.173  26.527  1.00  0.00     0.010 A 
ATOM     64  C   UNL A   1      47.750  27.890  23.748  1.00  0.00     0.020 A 
ATOM     65  C   UNL A   1      49.075  27.799  25.785  1.00  0.00     0.020 A 
ATOM     66  C   UNL A   1      48.967  27.662  24.400  1.00  0.00     0.054 A 
BRANCH  66  67
ATOM     67  S   UNL A   1      50.409  27.209  23.398  1.00  0.00     0.124 S 
ATOM     68  O   UNL A   1      50.948  28.516  23.029  1.00  0.00    -0.237 OA
ATOM     69  O   UNL A   1      51.216  26.439  24.341  1.00  0.00    -0.237 OA
ATOM     70  O   UNL A   1      49.839  26.442  22.293  1.00  0.00    -0.744 OA
ENDBRANCH  66  67
ENDBRANCH  47  61
BRANCH  48  71
ATOM     71  C   UNL A   1      38.721  31.695  30.878  1.00  0.00    -0.014 A 
ATOM     72  C   UNL A   1      38.659  31.674  32.283  1.00  0.00     0.010 A 
ATOM     73  C   UNL A   1      37.638  32.221  30.152  1.00  0.00     0.010 A 
ATOM     74  C   UNL A   1      37.533  32.169  32.947  1.00  0.00     0.020 A 
ATOM     75  C   UNL A   1      36.520  32.737  30.812  1.00  0.00     0.020 A 
ATOM     76  C   UNL A   1      36.475  32.706  32.208  1.00  0.00     0.054 A 
BRANCH  76  77
ATOM     77  S   UNL A   1      35.045  33.378  33.101  1.00  0.00     0.124 S 
ATOM     78  O   UNL A   1      33.934  32.649  32.497  1.00  0.00    -0.237 OA
ATOM     79  O   UNL A   1      35.355  33.026  34.484  1.00  0.00    -0.237 OA
ATOM     80  O   UNL A   1      35.091  34.807  32.800  1.00  0.00    -0.744 OA
ENDBRANCH  76  77
ENDBRANCH  48  71
BRANCH  60  81
ATOM     81  C   UNL A   1      44.852  34.555  29.083  1.00  0.00    -0.014 A 
ATOM     82  C   UNL A   1      44.572  35.612  28.200  1.00  0.00     0.010 A 
ATOM     83  C   UNL A   1      45.566  34.814  30.268  1.00  0.00     0.010 A 
ATOM     84  C   UNL A   1      44.975  36.912  28.512  1.00  0.00     0.020 A 
ATOM     85  C   UNL A   1      45.955  36.116  30.590  1.00  0.00     0.020 A 
ATOM     86  C   UNL A   1      45.646  37.159  29.714  1.00  0.00     0.054 A 
BRANCH  86  87
ATOM     87  S   UNL A   1      46.052  38.875  30.141  1.00  0.00     0.124 S 
ATOM     88  O   UNL A   1      45.822  39.571  28.877  1.00  0.00    -0.237 OA
ATOM     89  O   UNL A   1      45.092  39.169  31.202  1.00  0.00    -0.237 OA
ATOM     90  O   UNL A   1      47.448  38.809  30.567  1.00  0.00    -0.744 OA
ENDBRANCH  86  87
ENDBRANCH  60  81
ENDBRANCH  34  35
ENDBRANCH  27  29
ENDBRANCH  26  27
ENDBRANCH  25  26
ENDBRANCH   1  25
TORSDOF 19
ENDMDL
MODEL 3
REMARK VINA RESULT:     -10.5      2.832      9.336
REMARK SMILES CCc1cc(C)c2c(c1)C=C(C(=O)OCCOCCOC(=O)c1ccc(-c3c4nc(c(-c5ccc(S(=O)(=O)[O-])cc5)c5ccc([nH]5)c(-c5ccc(S(=O)(=O)[O-])cc5)c5nc(c(-c6ccc(S(=O)(=O)[O-])cc6)c6ccc3[nH]6)C=C5)C=C4)cc1)[C@@H](C(F)(F)F)O2
REMARK SMILES IDX 18 1 17 2 16 3 15 4 14 5 12 6 13 7 11 8 3 9 4 10 9 11 5 12
REMARK SMILES IDX 8 13 6 14 7 15 10 16 88 17 83 18 2 19 1 20 84 21 85 22 86 23
REMARK SMILES IDX 87 24 19 25 20 26 21 27 22 28 23 29 24 30 82 31 25 32 81 33
REMARK SMILES IDX 26 34 27 35 28 36 75 37 29 38 80 39 74 40 76 41 30 42 79 43
REMARK SMILES IDX 73 44 72 45 31 47 61 48 42 49 60 50 43 51 46 52 59 53 77 54
REMARK SMILES IDX 44 55 45 56 58 58 78 59 47 60 32 61 33 62 41 63 34 64 40 65
REMARK SMILES IDX 35 66 36 67 37 68 38 69 39 70 62 71 63 72 71 73 64 74 70 75
REMARK SMILES IDX 65 76 66 77 67 78 68 79 69 80 48 81 49 82 57 83 50 84 56 85
REMARK SMILES IDX 51 86 52 87 53 88 54 89 55 90
REMARK H PARENT 76 46 46 57
REMARK Flexibility Score: inf
ROOT
ATOM      1  C   UNL A   1      34.319  29.181  26.923  1.00  0.00     0.202 C 
ENDROOT
BRANCH   1   2
ATOM      2  O   UNL A   1      33.192  29.514  26.109  1.00  0.00    -0.374 OA
BRANCH   2   3
ATOM      3  C   UNL A   1      33.314  29.340  24.699  1.00  0.00     0.202 C 
BRANCH   3   4
ATOM      4  C   UNL A   1      32.553  28.165  24.078  1.00  0.00     0.261 C 
BRANCH   4   5
ATOM      5  O   UNL A   1      33.171  26.904  24.373  1.00  0.00    -0.460 OA
BRANCH   5   6
ATOM      6  C   UNL A   1      32.446  26.101  25.186  1.00  0.00     0.338 C 
ATOM      7  O   UNL A   1      31.373  26.363  25.709  1.00  0.00    -0.246 OA
BRANCH   6   8
ATOM      8  C   UNL A   1      33.070  24.767  25.261  1.00  0.00     0.087 C 
ATOM      9  C   UNL A   1      37.160  22.259  25.702  1.00  0.00    -0.047 A 
ATOM     10  C   UNL A   1      36.466  21.093  25.351  1.00  0.00     0.011 A 
ATOM     11  C   UNL A   1      36.442  23.455  25.819  1.00  0.00     0.015 A 
ATOM     12  C   UNL A   1      35.082  21.113  25.111  1.00  0.00    -0.008 A 
ATOM     13  C   UNL A   1      35.065  23.490  25.575  1.00  0.00     0.018 A 
ATOM     14  C   UNL A   1      34.376  19.855  24.690  1.00  0.00     0.048 C 
ATOM     15  C   UNL A   1      34.380  22.320  25.244  1.00  0.00     0.130 A 
ATOM     16  C   UNL A   1      34.364  24.759  25.602  1.00  0.00     0.027 C 
ATOM     17  O   UNL A   1      33.027  22.282  25.047  1.00  0.00    -0.475 OA
ATOM     18  C   UNL A   1      32.282  23.528  24.940  1.00  0.00     0.316 C 
BRANCH   9  19
ATOM     19  C   UNL A   1      38.647  22.247  25.956  1.00  0.00     0.032 C 
ATOM     20  C   UNL A   1      39.138  23.465  26.726  1.00  0.00     0.009 C 
ENDBRANCH   9  19
BRANCH  18  21
ATOM     21  C   UNL A   1      31.635  23.582  23.549  1.00  0.00     0.430 C 
ATOM     22  F   UNL A   1      32.348  24.372  22.710  1.00  0.00    -0.167 F 
ATOM     23  F   UNL A   1      31.575  22.357  22.977  1.00  0.00    -0.167 F 
ATOM     24  F   UNL A   1      30.375  24.071  23.598  1.00  0.00    -0.167 F 
ENDBRANCH  18  21
ENDBRANCH   6   8
ENDBRANCH   5   6
ENDBRANCH   4   5
ENDBRANCH   3   4
ENDBRANCH   2   3
ENDBRANCH   1   2
BRANCH   1  25
ATOM     25  C   UNL A   1      34.873  30.274  27.843  1.00  0.00     0.261 C 
BRANCH  25  26
ATOM     26  O   UNL A   1      36.313  30.317  27.824  1.00  0.00    -0.460 OA
BRANCH  26  27
ATOM     27  C   UNL A   1      36.919  29.697  28.864  1.00  0.00     0.338 C 
ATOM     28  O   UNL A   1      36.433  29.434  29.957  1.00  0.00    -0.246 OA
BRANCH  27  29
ATOM     29  C   UNL A   1      38.239  29.204  28.444  1.00  0.00     0.060 A 
ATOM     30  C   UNL A   1      39.096  28.687  29.423  1.00  0.00     0.016 A 
ATOM     31  C   UNL A   1      38.669  29.355  27.125  1.00  0.00     0.016 A 
ATOM     32  C   UNL A   1      40.403  28.345  29.091  1.00  0.00     0.010 A 
ATOM     33  C   UNL A   1      39.988  29.029  26.798  1.00  0.00     0.010 A 
ATOM     34  C   UNL A   1      40.868  28.555  27.786  1.00  0.00    -0.014 A 
BRANCH  34  35
ATOM     35  C   UNL A   1      42.318  28.439  27.513  1.00  0.00     0.031 A 
ATOM     36  C   UNL A   1      43.209  29.609  27.836  1.00  0.00     0.074 A 
ATOM     37  C   UNL A   1      42.843  27.290  27.050  1.00  0.00     0.049 A 
ATOM     38  N   UNL A   1      44.506  29.712  27.717  1.00  0.00    -0.248 NA
ATOM     39  C   UNL A   1      42.555  30.816  28.372  1.00  0.00     0.031 C 
ATOM     40  C   UNL A   1      42.087  26.073  26.756  1.00  0.00     0.029 A 
ATOM     41  N   UNL A   1      44.143  26.957  26.760  1.00  0.00    -0.354 N 
ATOM     42  C   UNL A   1      44.824  30.986  28.173  1.00  0.00     0.074 A 
ATOM     43  C   UNL A   1      43.585  31.632  28.541  1.00  0.00     0.031 C 
ATOM     44  C   UNL A   1      42.940  25.121  26.339  1.00  0.00     0.029 A 
ATOM     45  C   UNL A   1      44.296  25.666  26.314  1.00  0.00     0.049 A 
ATOM     46  H   UNL A   1      44.896  27.584  26.864  1.00  0.00     0.167 HD
ATOM     47  C   UNL A   1      46.043  31.558  28.291  1.00  0.00     0.031 A 
ATOM     48  C   UNL A   1      45.404  25.002  25.927  1.00  0.00     0.031 A 
ATOM     49  C   UNL A   1      47.274  30.917  27.923  1.00  0.00     0.049 A 
ATOM     50  C   UNL A   1      46.739  25.697  25.974  1.00  0.00     0.074 A 
ATOM     51  C   UNL A   1      48.560  31.420  28.012  1.00  0.00     0.029 A 
ATOM     52  N   UNL A   1      47.374  29.639  27.400  1.00  0.00    -0.354 N 
ATOM     53  N   UNL A   1      47.022  26.899  26.413  1.00  0.00    -0.248 NA
ATOM     54  C   UNL A   1      47.903  24.950  25.474  1.00  0.00     0.031 C 
ATOM     55  C   UNL A   1      49.436  30.461  27.499  1.00  0.00     0.029 A 
ATOM     56  C   UNL A   1      48.698  29.344  27.137  1.00  0.00     0.049 A 
ATOM     57  H   UNL A   1      46.616  29.031  27.239  1.00  0.00     0.167 HD
ATOM     58  C   UNL A   1      48.397  27.044  26.264  1.00  0.00     0.074 A 
ATOM     59  C   UNL A   1      48.891  25.809  25.693  1.00  0.00     0.031 C 
ATOM     60  C   UNL A   1      49.176  28.106  26.577  1.00  0.00     0.031 A 
BRANCH  47  61
ATOM     61  C   UNL A   1      46.119  32.952  28.844  1.00  0.00    -0.014 A 
ATOM     62  C   UNL A   1      45.988  34.065  27.996  1.00  0.00     0.010 A 
ATOM     63  C   UNL A   1      46.218  33.150  30.233  1.00  0.00     0.010 A 
ATOM     64  C   UNL A   1      45.956  35.355  28.528  1.00  0.00     0.020 A 
ATOM     65  C   UNL A   1      46.169  34.439  30.770  1.00  0.00     0.020 A 
ATOM     66  C   UNL A   1      46.036  35.533  29.913  1.00  0.00     0.054 A 
BRANCH  66  67
ATOM     67  S   UNL A   1      45.936  37.219  30.572  1.00  0.00     0.124 S 
ATOM     68  O   UNL A   1      45.659  36.979  31.987  1.00  0.00    -0.237 OA
ATOM     69  O   UNL A   1      47.263  37.752  30.273  1.00  0.00    -0.237 OA
ATOM     70  O   UNL A   1      44.837  37.823  29.822  1.00  0.00    -0.744 OA
ENDBRANCH  66  67
ENDBRANCH  47  61
BRANCH  48  71
ATOM     71  C   UNL A   1      45.295  23.593  25.463  1.00  0.00    -0.014 A 
ATOM     72  C   UNL A   1      45.342  22.535  26.387  1.00  0.00     0.010 A 
ATOM     73  C   UNL A   1      45.123  23.304  24.098  1.00  0.00     0.010 A 
ATOM     74  C   UNL A   1      45.221  21.212  25.952  1.00  0.00     0.020 A 
ATOM     75  C   UNL A   1      44.980  21.984  23.661  1.00  0.00     0.020 A 
ATOM     76  C   UNL A   1      45.032  20.946  24.593  1.00  0.00     0.054 A 
BRANCH  76  77
ATOM     77  S   UNL A   1      44.838  19.220  24.065  1.00  0.00     0.124 S 
ATOM     78  O   UNL A   1      44.561  19.363  22.639  1.00  0.00    -0.237 OA
ATOM     79  O   UNL A   1      46.139  18.648  24.404  1.00  0.00    -0.237 OA
ATOM     80  O   UNL A   1      43.720  18.736  24.873  1.00  0.00    -0.744 OA
ENDBRANCH  76  77
ENDBRANCH  48  71
BRANCH  60  81
ATOM     81  C   UNL A   1      50.656  28.008  26.336  1.00  0.00    -0.014 A 
ATOM     82  C   UNL A   1      51.505  27.477  27.322  1.00  0.00     0.010 A 
ATOM     83  C   UNL A   1      51.169  28.278  25.053  1.00  0.00     0.010 A 
ATOM     84  C   UNL A   1      52.838  27.192  27.020  1.00  0.00     0.020 A 
ATOM     85  C   UNL A   1      52.497  27.978  24.744  1.00  0.00     0.020 A 
ATOM     86  C   UNL A   1      53.320  27.426  25.727  1.00  0.00     0.054 A 
BRANCH  86  87
ATOM     87  S   UNL A   1      55.023  26.937  25.338  1.00  0.00     0.124 S 
ATOM     88  O   UNL A   1      55.413  27.935  24.345  1.00  0.00    -0.237 OA
ATOM     89  O   UNL A   1      55.686  27.049  26.634  1.00  0.00    -0.237 OA
ATOM     90  O   UNL A   1      54.887  25.575  24.826  1.00  0.00    -0.744 OA
ENDBRANCH  86  87
ENDBRANCH  60  81
ENDBRANCH  34  35
ENDBRANCH  27  29
ENDBRANCH  26  27
ENDBRANCH  25  26
ENDBRANCH   1  25
TORSDOF 19
ENDMDL
