MODEL 1
REMARK VINA RESULT:     -11.1      0.000      0.000
REMARK SMILES O=C(CC[N@@H+]1CCC[C@@]2(CCC(=O)N(CCc3ccccc3)C2)C1)OCCOCCOC(=O)c1ccc(-c2c3nc(c(-c4ccc(S(=O)(=O)[O-])cc4)c4ccc([nH]4)c(-c4ccc(S(=O)(=O)[O-])cc4)c4nc(c(-c5ccc(S(=O)(=O)[O-])cc5)c5ccc2[nH]5)C=C4)C=C3)cc1
REMARK SMILES IDX 27 1 26 2 25 3 2 4 1 5 3 6 4 7 5 8 6 9 24 10 7 12 9 13 8 14
REMARK SMILES IDX 10 15 23 16 11 17 14 18 12 19 13 20 15 21 16 22 17 23 18 24
REMARK SMILES IDX 22 25 19 26 21 27 20 28 28 29 29 30 30 31 31 32 32 33 33 34
REMARK SMILES IDX 34 35 35 36 93 37 36 38 92 39 37 40 38 41 39 42 86 43 40 44
REMARK SMILES IDX 91 45 85 46 87 47 41 48 90 49 84 50 83 51 42 53 72 54 53 55
REMARK SMILES IDX 71 56 54 57 57 58 70 59 88 60 55 61 56 62 69 64 89 65 58 66
REMARK SMILES IDX 43 67 44 68 52 69 45 70 51 71 46 72 47 73 48 74 49 75 50 76
REMARK SMILES IDX 73 77 74 78 82 79 75 80 81 81 76 82 77 83 78 84 79 85 80 86
REMARK SMILES IDX 59 87 60 88 68 89 61 90 67 91 62 92 63 93 64 94 65 95 66 96
REMARK H PARENT 5 11 87 52 57 63
REMARK Flexibility Score: inf
ROOT
ATOM      1  C   UNL A   1      38.085  21.999  25.750  1.00  0.00     0.202 C 
ENDROOT
BRANCH   1   2
ATOM      2  C   UNL A   1      37.291  21.125  24.783  1.00  0.00     0.261 C 
BRANCH   2   3
ATOM      3  O   UNL A   1      35.988  21.626  24.487  1.00  0.00    -0.463 OA
BRANCH   3   4
ATOM      4  C   UNL A   1      34.954  21.187  25.248  1.00  0.00     0.311 C 
ATOM      5  O   UNL A   1      34.991  21.285  26.473  1.00  0.00    -0.252 OA
BRANCH   4   6
ATOM      6  C   UNL A   1      33.848  20.429  24.547  1.00  0.00     0.184 C 
BRANCH   6   7
ATOM      7  C   UNL A   1      32.550  21.217  24.344  1.00  0.00     0.274 C 
BRANCH   7   8
ATOM      8  N   UNL A   1      32.421  22.564  24.946  1.00  0.00    -0.334 N 
ATOM      9  C   UNL A   1      31.336  22.540  25.954  1.00  0.00     0.262 C 
ATOM     10  C   UNL A   1      32.183  23.663  23.996  1.00  0.00     0.271 C 
ATOM     11  H   UNL A   1      33.329  22.765  25.364  1.00  0.00     0.348 HD
ATOM     12  C   UNL A   1      31.145  23.877  26.680  1.00  0.00     0.062 C 
ATOM     13  C   UNL A   1      32.233  25.048  24.714  1.00  0.00     0.038 C 
ATOM     14  C   UNL A   1      31.057  25.058  25.714  1.00  0.00     0.020 C 
ATOM     15  C   UNL A   1      33.598  25.280  25.401  1.00  0.00     0.024 C 
ATOM     16  C   UNL A   1      32.087  26.175  23.673  1.00  0.00     0.132 C 
ATOM     17  C   UNL A   1      33.667  26.629  26.088  1.00  0.00     0.101 C 
ATOM     18  N   UNL A   1      32.354  27.523  24.172  1.00  0.00    -0.342 N 
ATOM     19  C   UNL A   1      33.222  27.789  25.224  1.00  0.00     0.222 C 
ATOM     20  O   UNL A   1      33.570  28.933  25.511  1.00  0.00    -0.275 OA
BRANCH  18  21
ATOM     21  C   UNL A   1      31.783  28.673  23.446  1.00  0.00     0.124 C 
BRANCH  21  22
ATOM     22  C   UNL A   1      30.661  29.461  24.152  1.00  0.00     0.057 C 
BRANCH  22  23
ATOM     23  C   UNL A   1      29.663  30.260  23.338  1.00  0.00    -0.046 A 
ATOM     24  C   UNL A   1      29.614  30.031  21.950  1.00  0.00     0.004 A 
ATOM     25  C   UNL A   1      28.822  31.244  23.866  1.00  0.00     0.004 A 
ATOM     26  C   UNL A   1      28.729  30.733  21.129  1.00  0.00     0.000 A 
ATOM     27  C   UNL A   1      27.922  31.937  23.050  1.00  0.00     0.000 A 
ATOM     28  C   UNL A   1      27.875  31.680  21.683  1.00  0.00     0.000 A 
ENDBRANCH  22  23
ENDBRANCH  21  22
ENDBRANCH  18  21
ENDBRANCH   7   8
ENDBRANCH   6   7
ENDBRANCH   4   6
ENDBRANCH   3   4
ENDBRANCH   2   3
ENDBRANCH   1   2
BRANCH   1  29
ATOM     29  O   UNL A   1      39.445  21.614  25.945  1.00  0.00    -0.374 OA
BRANCH  29  30
ATOM     30  C   UNL A   1      40.071  22.301  27.038  1.00  0.00     0.202 C 
BRANCH  30  31
ATOM     31  C   UNL A   1      40.767  23.597  26.597  1.00  0.00     0.261 C 
BRANCH  31  32
ATOM     32  O   UNL A   1      39.854  24.704  26.710  1.00  0.00    -0.460 OA
BRANCH  32  33
ATOM     33  C   UNL A   1      40.382  25.927  26.483  1.00  0.00     0.338 C 
ATOM     34  O   UNL A   1      41.038  26.270  25.509  1.00  0.00    -0.246 OA
BRANCH  33  35
ATOM     35  C   UNL A   1      39.983  26.838  27.572  1.00  0.00     0.060 A 
ATOM     36  C   UNL A   1      40.272  28.201  27.465  1.00  0.00     0.016 A 
ATOM     37  C   UNL A   1      39.441  26.333  28.753  1.00  0.00     0.016 A 
ATOM     38  C   UNL A   1      40.066  29.049  28.558  1.00  0.00     0.010 A 
ATOM     39  C   UNL A   1      39.247  27.188  29.851  1.00  0.00     0.010 A 
ATOM     40  C   UNL A   1      39.613  28.544  29.783  1.00  0.00    -0.014 A 
BRANCH  40  41
ATOM     41  C   UNL A   1      39.731  29.375  31.022  1.00  0.00     0.031 A 
ATOM     42  C   UNL A   1      40.957  29.221  31.896  1.00  0.00     0.074 A 
ATOM     43  C   UNL A   1      38.837  30.332  31.342  1.00  0.00     0.049 A 
ATOM     44  N   UNL A   1      41.221  29.745  33.067  1.00  0.00    -0.248 NA
ATOM     45  C   UNL A   1      42.037  28.370  31.367  1.00  0.00     0.031 C 
ATOM     46  C   UNL A   1      37.673  30.709  30.543  1.00  0.00     0.029 A 
ATOM     47  N   UNL A   1      38.787  31.182  32.424  1.00  0.00    -0.354 N 
ATOM     48  C   UNL A   1      42.476  29.266  33.428  1.00  0.00     0.074 A 
ATOM     49  C   UNL A   1      42.924  28.408  32.352  1.00  0.00     0.031 C 
ATOM     50  C   UNL A   1      37.042  31.733  31.144  1.00  0.00     0.029 A 
ATOM     51  C   UNL A   1      37.710  32.039  32.408  1.00  0.00     0.049 A 
ATOM     52  H   UNL A   1      39.459  31.176  33.143  1.00  0.00     0.167 HD
ATOM     53  C   UNL A   1      43.191  29.501  34.555  1.00  0.00     0.031 A 
ATOM     54  C   UNL A   1      37.286  32.943  33.317  1.00  0.00     0.031 A 
ATOM     55  C   UNL A   1      42.759  30.346  35.635  1.00  0.00     0.049 A 
ATOM     56  C   UNL A   1      38.044  33.115  34.611  1.00  0.00     0.074 A 
ATOM     57  C   UNL A   1      43.371  30.565  36.858  1.00  0.00     0.029 A 
ATOM     58  N   UNL A   1      41.615  31.127  35.619  1.00  0.00    -0.354 N 
ATOM     59  N   UNL A   1      39.163  32.551  34.997  1.00  0.00    -0.248 NA
ATOM     60  C   UNL A   1      37.464  34.034  35.603  1.00  0.00     0.031 C 
ATOM     61  C   UNL A   1      42.575  31.447  37.598  1.00  0.00     0.029 A 
ATOM     62  C   UNL A   1      41.495  31.818  36.814  1.00  0.00     0.049 A 
ATOM     63  H   UNL A   1      40.980  31.182  34.868  1.00  0.00     0.167 HD
ATOM     64  C   UNL A   1      39.418  33.045  36.273  1.00  0.00     0.074 A 
ATOM     65  C   UNL A   1      38.358  33.983  36.580  1.00  0.00     0.031 C 
ATOM     66  C   UNL A   1      40.431  32.738  37.122  1.00  0.00     0.031 A 
BRANCH  53  67
ATOM     67  C   UNL A   1      44.492  28.761  34.709  1.00  0.00    -0.014 A 
ATOM     68  C   UNL A   1      45.722  29.360  34.385  1.00  0.00     0.010 A 
ATOM     69  C   UNL A   1      44.479  27.443  35.202  1.00  0.00     0.010 A 
ATOM     70  C   UNL A   1      46.914  28.638  34.516  1.00  0.00     0.020 A 
ATOM     71  C   UNL A   1      45.668  26.728  35.358  1.00  0.00     0.020 A 
ATOM     72  C   UNL A   1      46.878  27.325  34.996  1.00  0.00     0.054 A 
BRANCH  72  73
ATOM     73  S   UNL A   1      48.435  26.410  35.162  1.00  0.00     0.124 S 
ATOM     74  O   UNL A   1      49.423  27.484  35.086  1.00  0.00    -0.237 OA
ATOM     75  O   UNL A   1      48.298  25.775  36.470  1.00  0.00    -0.237 OA
ATOM     76  O   UNL A   1      48.423  25.494  34.024  1.00  0.00    -0.744 OA
ENDBRANCH  72  73
ENDBRANCH  53  67
BRANCH  54  77
ATOM     77  C   UNL A   1      36.025  33.705  33.085  1.00  0.00    -0.014 A 
ATOM     78  C   UNL A   1      34.787  33.221  33.544  1.00  0.00     0.010 A 
ATOM     79  C   UNL A   1      36.056  34.912  32.362  1.00  0.00     0.010 A 
ATOM     80  C   UNL A   1      33.605  33.919  33.267  1.00  0.00     0.020 A 
ATOM     81  C   UNL A   1      34.884  35.628  32.112  1.00  0.00     0.020 A 
ATOM     82  C   UNL A   1      33.662  35.119  32.552  1.00  0.00     0.054 A 
BRANCH  82  83
ATOM     83  S   UNL A   1      32.131  36.039  32.239  1.00  0.00     0.124 S 
ATOM     84  O   UNL A   1      31.110  35.032  32.510  1.00  0.00    -0.237 OA
ATOM     85  O   UNL A   1      32.211  37.134  33.204  1.00  0.00    -0.237 OA
ATOM     86  O   UNL A   1      32.258  36.444  30.841  1.00  0.00    -0.744 OA
ENDBRANCH  82  83
ENDBRANCH  54  77
BRANCH  66  87
ATOM     87  C   UNL A   1      40.445  33.424  38.464  1.00  0.00    -0.014 A 
ATOM     88  C   UNL A   1      41.095  34.659  38.640  1.00  0.00     0.010 A 
ATOM     89  C   UNL A   1      39.779  32.842  39.557  1.00  0.00     0.010 A 
ATOM     90  C   UNL A   1      41.119  35.275  39.896  1.00  0.00     0.020 A 
ATOM     91  C   UNL A   1      39.778  33.467  40.808  1.00  0.00     0.020 A 
ATOM     92  C   UNL A   1      40.466  34.671  40.974  1.00  0.00     0.054 A 
BRANCH  92  93
ATOM     93  S   UNL A   1      40.499  35.493  42.591  1.00  0.00     0.124 S 
ATOM     94  O   UNL A   1      39.205  36.170  42.614  1.00  0.00    -0.237 OA
ATOM     95  O   UNL A   1      40.637  34.373  43.521  1.00  0.00    -0.237 OA
ATOM     96  O   UNL A   1      41.661  36.373  42.510  1.00  0.00    -0.744 OA
ENDBRANCH  92  93
ENDBRANCH  66  87
ENDBRANCH  40  41
ENDBRANCH  33  35
ENDBRANCH  32  33
ENDBRANCH  31  32
ENDBRANCH  30  31
ENDBRANCH  29  30
ENDBRANCH   1  29
TORSDOF 22
ENDMDL
MODEL 2
REMARK VINA RESULT:     -10.8      1.540      2.205
REMARK SMILES O=C(CC[N@@H+]1CCC[C@@]2(CCC(=O)N(CCc3ccccc3)C2)C1)OCCOCCOC(=O)c1ccc(-c2c3nc(c(-c4ccc(S(=O)(=O)[O-])cc4)c4ccc([nH]4)c(-c4ccc(S(=O)(=O)[O-])cc4)c4nc(c(-c5ccc(S(=O)(=O)[O-])cc5)c5ccc2[nH]5)C=C4)C=C3)cc1
REMARK SMILES IDX 27 1 26 2 25 3 2 4 1 5 3 6 4 7 5 8 6 9 24 10 7 12 9 13 8 14
REMARK SMILES IDX 10 15 23 16 11 17 14 18 12 19 13 20 15 21 16 22 17 23 18 24
REMARK SMILES IDX 22 25 19 26 21 27 20 28 28 29 29 30 30 31 31 32 32 33 33 34
REMARK SMILES IDX 34 35 35 36 93 37 36 38 92 39 37 40 38 41 39 42 86 43 40 44
REMARK SMILES IDX 91 45 85 46 87 47 41 48 90 49 84 50 83 51 42 53 72 54 53 55
REMARK SMILES IDX 71 56 54 57 57 58 70 59 88 60 55 61 56 62 69 64 89 65 58 66
REMARK SMILES IDX 43 67 44 68 52 69 45 70 51 71 46 72 47 73 48 74 49 75 50 76
REMARK SMILES IDX 73 77 74 78 82 79 75 80 81 81 76 82 77 83 78 84 79 85 80 86
REMARK SMILES IDX 59 87 60 88 68 89 61 90 67 91 62 92 63 93 64 94 65 95 66 96
REMARK H PARENT 5 11 87 52 57 63
REMARK Flexibility Score: inf
ROOT
ATOM      1  C   UNL A   1      38.801  21.452  25.754  1.00  0.00     0.202 C 
ENDROOT
BRANCH   1   2
ATOM      2  C   UNL A   1      37.689  20.711  25.015  1.00  0.00     0.261 C 
BRANCH   2   3
ATOM      3  O   UNL A   1      36.550  21.519  24.723  1.00  0.00    -0.463 OA
BRANCH   3   4
ATOM      4  C   UNL A   1      35.427  21.318  25.458  1.00  0.00     0.311 C 
ATOM      5  O   UNL A   1      35.330  21.781  26.594  1.00  0.00    -0.252 OA
BRANCH   4   6
ATOM      6  C   UNL A   1      34.389  20.373  24.897  1.00  0.00     0.184 C 
BRANCH   6   7
ATOM      7  C   UNL A   1      32.985  20.968  24.745  1.00  0.00     0.274 C 
BRANCH   7   8
ATOM      8  N   UNL A   1      32.750  22.376  25.144  1.00  0.00    -0.334 N 
ATOM      9  C   UNL A   1      31.603  22.427  26.079  1.00  0.00     0.262 C 
ATOM     10  C   UNL A   1      32.523  23.319  24.036  1.00  0.00     0.271 C 
ATOM     11  H   UNL A   1      33.618  22.684  25.583  1.00  0.00     0.348 HD
ATOM     12  C   UNL A   1      31.299  23.838  26.598  1.00  0.00     0.062 C 
ATOM     13  C   UNL A   1      32.458  24.790  24.555  1.00  0.00     0.038 C 
ATOM     14  C   UNL A   1      31.218  24.869  25.472  1.00  0.00     0.020 C 
ATOM     15  C   UNL A   1      33.761  25.192  25.282  1.00  0.00     0.024 C 
ATOM     16  C   UNL A   1      32.327  25.753  23.360  1.00  0.00     0.132 C 
ATOM     17  C   UNL A   1      33.718  26.624  25.777  1.00  0.00     0.101 C 
ATOM     18  N   UNL A   1      32.494  27.170  23.679  1.00  0.00    -0.342 N 
ATOM     19  C   UNL A   1      33.275  27.627  24.733  1.00  0.00     0.222 C 
ATOM     20  O   UNL A   1      33.547  28.818  24.878  1.00  0.00    -0.275 OA
BRANCH  18  21
ATOM     21  C   UNL A   1      31.917  28.175  22.767  1.00  0.00     0.124 C 
BRANCH  21  22
ATOM     22  C   UNL A   1      30.388  28.145  22.568  1.00  0.00     0.057 C 
BRANCH  22  23
ATOM     23  C   UNL A   1      29.555  29.370  22.888  1.00  0.00    -0.046 A 
ATOM     24  C   UNL A   1      28.349  29.546  22.184  1.00  0.00     0.004 A 
ATOM     25  C   UNL A   1      29.928  30.362  23.800  1.00  0.00     0.004 A 
ATOM     26  C   UNL A   1      27.529  30.653  22.414  1.00  0.00     0.000 A 
ATOM     27  C   UNL A   1      29.101  31.463  24.047  1.00  0.00     0.000 A 
ATOM     28  C   UNL A   1      27.902  31.607  23.355  1.00  0.00     0.000 A 
ENDBRANCH  22  23
ENDBRANCH  21  22
ENDBRANCH  18  21
ENDBRANCH   7   8
ENDBRANCH   6   7
ENDBRANCH   4   6
ENDBRANCH   3   4
ENDBRANCH   2   3
ENDBRANCH   1   2
BRANCH   1  29
ATOM     29  O   UNL A   1      39.731  20.622  26.449  1.00  0.00    -0.374 OA
BRANCH  29  30
ATOM     30  C   UNL A   1      40.815  21.360  27.031  1.00  0.00     0.202 C 
BRANCH  30  31
ATOM     31  C   UNL A   1      41.793  21.897  25.975  1.00  0.00     0.261 C 
BRANCH  31  32
ATOM     32  O   UNL A   1      41.585  23.309  25.789  1.00  0.00    -0.460 OA
BRANCH  32  33
ATOM     33  C   UNL A   1      42.580  24.113  26.221  1.00  0.00     0.338 C 
ATOM     34  O   UNL A   1      43.771  24.006  25.961  1.00  0.00    -0.246 OA
BRANCH  33  35
ATOM     35  C   UNL A   1      42.006  25.213  27.018  1.00  0.00     0.060 A 
ATOM     36  C   UNL A   1      42.602  26.477  26.970  1.00  0.00     0.016 A 
ATOM     37  C   UNL A   1      40.960  24.972  27.907  1.00  0.00     0.016 A 
ATOM     38  C   UNL A   1      42.186  27.481  27.850  1.00  0.00     0.010 A 
ATOM     39  C   UNL A   1      40.554  25.982  28.795  1.00  0.00     0.010 A 
ATOM     40  C   UNL A   1      41.204  27.229  28.815  1.00  0.00    -0.014 A 
BRANCH  40  41
ATOM     41  C   UNL A   1      41.019  28.178  29.958  1.00  0.00     0.031 A 
ATOM     42  C   UNL A   1      41.995  28.132  31.114  1.00  0.00     0.074 A 
ATOM     43  C   UNL A   1      40.079  29.143  29.954  1.00  0.00     0.049 A 
ATOM     44  N   UNL A   1      41.967  28.772  32.257  1.00  0.00    -0.248 NA
ATOM     45  C   UNL A   1      43.166  27.255  30.950  1.00  0.00     0.031 C 
ATOM     46  C   UNL A   1      39.147  29.419  28.863  1.00  0.00     0.029 A 
ATOM     47  N   UNL A   1      39.770  30.092  30.903  1.00  0.00    -0.354 N 
ATOM     48  C   UNL A   1      43.094  28.354  32.958  1.00  0.00     0.074 A 
ATOM     49  C   UNL A   1      43.786  27.405  32.113  1.00  0.00     0.031 C 
ATOM     50  C   UNL A   1      38.393  30.484  29.189  1.00  0.00     0.029 A 
ATOM     51  C   UNL A   1      38.734  30.923  30.541  1.00  0.00     0.049 A 
ATOM     52  H   UNL A   1      40.246  30.169  31.761  1.00  0.00     0.167 HD
ATOM     53  C   UNL A   1      43.512  28.710  34.196  1.00  0.00     0.031 A 
ATOM     54  C   UNL A   1      38.105  31.902  31.226  1.00  0.00     0.031 A 
ATOM     55  C   UNL A   1      42.833  29.647  35.051  1.00  0.00     0.049 A 
ATOM     56  C   UNL A   1      38.525  32.212  32.643  1.00  0.00     0.074 A 
ATOM     57  C   UNL A   1      43.129  29.995  36.358  1.00  0.00     0.029 A 
ATOM     58  N   UNL A   1      41.732  30.401  34.680  1.00  0.00    -0.354 N 
ATOM     59  N   UNL A   1      39.513  31.710  33.343  1.00  0.00    -0.248 NA
ATOM     60  C   UNL A   1      37.724  33.212  33.369  1.00  0.00     0.031 C 
ATOM     61  C   UNL A   1      42.181  30.928  36.792  1.00  0.00     0.029 A 
ATOM     62  C   UNL A   1      41.327  31.201  35.736  1.00  0.00     0.049 A 
ATOM     63  H   UNL A   1      41.299  30.371  33.795  1.00  0.00     0.167 HD
ATOM     64  C   UNL A   1      39.450  32.329  34.588  1.00  0.00     0.074 A 
ATOM     65  C   UNL A   1      38.353  33.272  34.534  1.00  0.00     0.031 C 
ATOM     66  C   UNL A   1      40.224  32.126  35.684  1.00  0.00     0.031 A 
BRANCH  53  67
ATOM     67  C   UNL A   1      44.733  28.014  34.735  1.00  0.00    -0.014 A 
ATOM     68  C   UNL A   1      44.639  26.793  35.424  1.00  0.00     0.010 A 
ATOM     69  C   UNL A   1      46.000  28.592  34.530  1.00  0.00     0.010 A 
ATOM     70  C   UNL A   1      45.790  26.181  35.934  1.00  0.00     0.020 A 
ATOM     71  C   UNL A   1      47.153  27.973  35.016  1.00  0.00     0.020 A 
ATOM     72  C   UNL A   1      47.039  26.779  35.731  1.00  0.00     0.054 A 
BRANCH  72  73
ATOM     73  S   UNL A   1      48.517  25.966  36.397  1.00  0.00     0.124 S 
ATOM     74  O   UNL A   1      47.947  24.782  37.035  1.00  0.00    -0.237 OA
ATOM     75  O   UNL A   1      49.312  25.711  35.199  1.00  0.00    -0.237 OA
ATOM     76  O   UNL A   1      49.077  26.957  37.313  1.00  0.00    -0.744 OA
ENDBRANCH  72  73
ENDBRANCH  53  67
BRANCH  54  77
ATOM     77  C   UNL A   1      36.942  32.614  30.621  1.00  0.00    -0.014 A 
ATOM     78  C   UNL A   1      37.128  33.653  29.693  1.00  0.00     0.010 A 
ATOM     79  C   UNL A   1      35.632  32.274  31.007  1.00  0.00     0.010 A 
ATOM     80  C   UNL A   1      36.028  34.351  29.179  1.00  0.00     0.020 A 
ATOM     81  C   UNL A   1      34.531  32.945  30.471  1.00  0.00     0.020 A 
ATOM     82  C   UNL A   1      34.736  33.991  29.573  1.00  0.00     0.054 A 
BRANCH  82  83
ATOM     83  S   UNL A   1      33.315  34.870  28.864  1.00  0.00     0.124 S 
ATOM     84  O   UNL A   1      33.947  36.051  28.285  1.00  0.00    -0.237 OA
ATOM     85  O   UNL A   1      32.784  33.903  27.906  1.00  0.00    -0.237 OA
ATOM     86  O   UNL A   1      32.460  35.119  30.022  1.00  0.00    -0.744 OA
ENDBRANCH  82  83
ENDBRANCH  54  77
BRANCH  66  87
ATOM     87  C   UNL A   1      39.914  32.938  36.915  1.00  0.00    -0.014 A 
ATOM     88  C   UNL A   1      40.646  34.100  37.221  1.00  0.00     0.010 A 
ATOM     89  C   UNL A   1      38.861  32.551  37.763  1.00  0.00     0.010 A 
ATOM     90  C   UNL A   1      40.361  34.832  38.377  1.00  0.00     0.020 A 
ATOM     91  C   UNL A   1      38.556  33.296  38.907  1.00  0.00     0.020 A 
ATOM     92  C   UNL A   1      39.322  34.421  39.218  1.00  0.00     0.054 A 
BRANCH  92  93
ATOM     93  S   UNL A   1      38.961  35.394  40.707  1.00  0.00     0.124 S 
ATOM     94  O   UNL A   1      37.746  34.753  41.201  1.00  0.00    -0.237 OA
ATOM     95  O   UNL A   1      40.155  35.190  41.524  1.00  0.00    -0.237 OA
ATOM     96  O   UNL A   1      38.787  36.753  40.200  1.00  0.00    -0.744 OA
ENDBRANCH  92  93
ENDBRANCH  66  87
ENDBRANCH  40  41
ENDBRANCH  33  35
ENDBRANCH  32  33
ENDBRANCH  31  32
ENDBRANCH  30  31
ENDBRANCH  29  30
ENDBRANCH   1  29
TORSDOF 22
ENDMDL
MODEL 3
REMARK VINA RESULT:     -10.2      6.049     11.962
REMARK SMILES O=C(CC[N@@H+]1CCC[C@@]2(CCC(=O)N(CCc3ccccc3)C2)C1)OCCOCCOC(=O)c1ccc(-c2c3nc(c(-c4ccc(S(=O)(=O)[O-])cc4)c4ccc([nH]4)c(-c4ccc(S(=O)(=O)[O-])cc4)c4nc(c(-c5ccc(S(=O)(=O)[O-])cc5)c5ccc2[nH]5)C=C4)C=C3)cc1
REMARK SMILES IDX 27 1 26 2 25 3 2 4 1 5 3 6 4 7 5 8 6 9 24 10 7 12 9 13 8 14
REMARK SMILES IDX 10 15 23 16 11 17 14 18 12 19 13 20 15 21 16 22 17 23 18 24
REMARK SMILES IDX 22 25 19 26 21 27 20 28 28 29 29 30 30 31 31 32 32 33 33 34
REMARK SMILES IDX 34 35 35 36 93 37 36 38 92 39 37 40 38 41 39 42 86 43 40 44
REMARK SMILES IDX 91 45 85 46 87 47 41 48 90 49 84 50 83 51 42 53 72 54 53 55
REMARK SMILES IDX 71 56 54 57 57 58 70 59 88 60 55 61 56 62 69 64 89 65 58 66
REMARK SMILES IDX 43 67 44 68 52 69 45 70 51 71 46 72 47 73 48 74 49 75 50 76
REMARK SMILES IDX 73 77 74 78 82 79 75 80 81 81 76 82 77 83 78 84 79 85 80 86
REMARK SMILES IDX 59 87 60 88 68 89 61 90 67 91 62 92 63 93 64 94 65 95 66 96
REMARK H PARENT 5 11 87 52 57 63
REMARK Flexibility Score: inf
ROOT
ATOM      1  C   UNL A   1      34.498  33.982  29.981  1.00  0.00     0.202 C 
ENDROOT
BRANCH   1   2
ATOM      2  C   UNL A   1      35.423  33.443  28.893  1.00  0.00     0.261 C 
BRANCH   2   3
ATOM      3  O   UNL A   1      34.746  33.049  27.700  1.00  0.00    -0.463 OA
BRANCH   3   4
ATOM      4  C   UNL A   1      34.303  31.769  27.618  1.00  0.00     0.311 C 
ATOM      5  O   UNL A   1      33.116  31.503  27.795  1.00  0.00    -0.252 OA
BRANCH   4   6
ATOM      6  C   UNL A   1      35.345  30.682  27.473  1.00  0.00     0.184 C 
BRANCH   6   7
ATOM      7  C   UNL A   1      34.830  29.257  27.702  1.00  0.00     0.274 C 
BRANCH   7   8
ATOM      8  N   UNL A   1      33.828  28.692  26.768  1.00  0.00    -0.334 N 
ATOM      9  C   UNL A   1      32.548  28.505  27.489  1.00  0.00     0.262 C 
ATOM     10  C   UNL A   1      34.212  27.429  26.115  1.00  0.00     0.271 C 
ATOM     11  H   UNL A   1      33.747  29.370  26.010  1.00  0.00     0.348 HD
ATOM     12  C   UNL A   1      31.419  27.968  26.602  1.00  0.00     0.062 C 
ATOM     13  C   UNL A   1      33.166  27.015  25.033  1.00  0.00     0.038 C 
ATOM     14  C   UNL A   1      31.846  26.746  25.788  1.00  0.00     0.020 C 
ATOM     15  C   UNL A   1      33.016  28.104  23.946  1.00  0.00     0.024 C 
ATOM     16  C   UNL A   1      33.654  25.751  24.299  1.00  0.00     0.132 C 
ATOM     17  C   UNL A   1      32.015  27.708  22.878  1.00  0.00     0.101 C 
ATOM     18  N   UNL A   1      32.893  25.390  23.104  1.00  0.00    -0.342 N 
ATOM     19  C   UNL A   1      32.226  26.319  22.316  1.00  0.00     0.222 C 
ATOM     20  O   UNL A   1      31.744  26.023  21.224  1.00  0.00    -0.275 OA
BRANCH  18  21
ATOM     21  C   UNL A   1      32.939  23.994  22.631  1.00  0.00     0.124 C 
BRANCH  21  22
ATOM     22  C   UNL A   1      32.211  22.938  23.489  1.00  0.00     0.057 C 
BRANCH  22  23
ATOM     23  C   UNL A   1      32.925  21.665  23.896  1.00  0.00    -0.046 A 
ATOM     24  C   UNL A   1      32.333  20.438  23.543  1.00  0.00     0.004 A 
ATOM     25  C   UNL A   1      34.106  21.627  24.643  1.00  0.00     0.004 A 
ATOM     26  C   UNL A   1      32.923  19.221  23.890  1.00  0.00     0.000 A 
ATOM     27  C   UNL A   1      34.711  20.411  24.976  1.00  0.00     0.000 A 
ATOM     28  C   UNL A   1      34.119  19.209  24.599  1.00  0.00     0.000 A 
ENDBRANCH  22  23
ENDBRANCH  21  22
ENDBRANCH  18  21
ENDBRANCH   7   8
ENDBRANCH   6   7
ENDBRANCH   4   6
ENDBRANCH   3   4
ENDBRANCH   2   3
ENDBRANCH   1   2
BRANCH   1  29
ATOM     29  O   UNL A   1      35.127  34.271  31.230  1.00  0.00    -0.374 OA
BRANCH  29  30
ATOM     30  C   UNL A   1      35.262  33.117  32.070  1.00  0.00     0.202 C 
BRANCH  30  31
ATOM     31  C   UNL A   1      36.718  32.640  32.183  1.00  0.00     0.261 C 
BRANCH  31  32
ATOM     32  O   UNL A   1      36.981  31.635  31.186  1.00  0.00    -0.460 OA
BRANCH  32  33
ATOM     33  C   UNL A   1      37.146  30.377  31.648  1.00  0.00     0.338 C 
ATOM     34  O   UNL A   1      36.464  29.814  32.493  1.00  0.00    -0.246 OA
BRANCH  33  35
ATOM     35  C   UNL A   1      38.253  29.732  30.917  1.00  0.00     0.060 A 
ATOM     36  C   UNL A   1      39.221  29.019  31.630  1.00  0.00     0.016 A 
ATOM     37  C   UNL A   1      38.408  29.934  29.547  1.00  0.00     0.016 A 
ATOM     38  C   UNL A   1      40.369  28.555  30.981  1.00  0.00     0.010 A 
ATOM     39  C   UNL A   1      39.569  29.475  28.903  1.00  0.00     0.010 A 
ATOM     40  C   UNL A   1      40.590  28.832  29.626  1.00  0.00    -0.014 A 
BRANCH  40  41
ATOM     41  C   UNL A   1      41.953  28.644  29.038  1.00  0.00     0.031 A 
ATOM     42  C   UNL A   1      42.332  27.288  28.482  1.00  0.00     0.074 A 
ATOM     43  C   UNL A   1      42.825  29.661  28.889  1.00  0.00     0.049 A 
ATOM     44  N   UNL A   1      43.486  26.862  28.033  1.00  0.00    -0.248 NA
ATOM     45  C   UNL A   1      41.257  26.284  28.412  1.00  0.00     0.031 C 
ATOM     46  C   UNL A   1      42.572  31.056  29.242  1.00  0.00     0.029 A 
ATOM     47  N   UNL A   1      44.102  29.673  28.376  1.00  0.00    -0.354 N 
ATOM     48  C   UNL A   1      43.286  25.537  27.658  1.00  0.00     0.074 A 
ATOM     49  C   UNL A   1      41.899  25.228  27.931  1.00  0.00     0.031 C 
ATOM     50  C   UNL A   1      43.645  31.794  28.905  1.00  0.00     0.029 A 
ATOM     51  C   UNL A   1      44.692  30.917  28.383  1.00  0.00     0.049 A 
ATOM     52  H   UNL A   1      44.552  28.867  28.035  1.00  0.00     0.167 HD
ATOM     53  C   UNL A   1      44.173  24.649  27.147  1.00  0.00     0.031 A 
ATOM     54  C   UNL A   1      45.939  31.306  28.042  1.00  0.00     0.031 A 
ATOM     55  C   UNL A   1      45.555  24.938  26.876  1.00  0.00     0.049 A 
ATOM     56  C   UNL A   1      46.940  30.280  27.570  1.00  0.00     0.074 A 
ATOM     57  C   UNL A   1      46.551  24.074  26.451  1.00  0.00     0.029 A 
ATOM     58  N   UNL A   1      46.137  26.190  26.983  1.00  0.00    -0.354 N 
ATOM     59  N   UNL A   1      46.772  28.999  27.348  1.00  0.00    -0.248 NA
ATOM     60  C   UNL A   1      48.312  30.755  27.324  1.00  0.00     0.031 C 
ATOM     61  C   UNL A   1      47.744  24.796  26.342  1.00  0.00     0.029 A 
ATOM     62  C   UNL A   1      47.479  26.121  26.648  1.00  0.00     0.049 A 
ATOM     63  H   UNL A   1      45.665  27.010  27.259  1.00  0.00     0.167 HD
ATOM     64  C   UNL A   1      48.012  28.517  26.940  1.00  0.00     0.074 A 
ATOM     65  C   UNL A   1      48.913  29.650  26.908  1.00  0.00     0.031 C 
ATOM     66  C   UNL A   1      48.377  27.247  26.633  1.00  0.00     0.031 A 
BRANCH  53  67
ATOM     67  C   UNL A   1      43.684  23.243  26.923  1.00  0.00    -0.014 A 
ATOM     68  C   UNL A   1      43.127  22.483  27.967  1.00  0.00     0.010 A 
ATOM     69  C   UNL A   1      43.773  22.682  25.636  1.00  0.00     0.010 A 
ATOM     70  C   UNL A   1      42.703  21.170  27.732  1.00  0.00     0.020 A 
ATOM     71  C   UNL A   1      43.329  21.381  25.393  1.00  0.00     0.020 A 
ATOM     72  C   UNL A   1      42.813  20.626  26.448  1.00  0.00     0.054 A 
BRANCH  72  73
ATOM     73  S   UNL A   1      42.253  18.924  26.168  1.00  0.00     0.124 S 
ATOM     74  O   UNL A   1      43.162  18.479  25.114  1.00  0.00    -0.237 OA
ATOM     75  O   UNL A   1      42.452  18.299  27.473  1.00  0.00    -0.237 OA
ATOM     76  O   UNL A   1      40.858  19.079  25.761  1.00  0.00    -0.744 OA
ENDBRANCH  72  73
ENDBRANCH  53  67
BRANCH  54  77
ATOM     77  C   UNL A   1      46.355  32.729  28.216  1.00  0.00    -0.014 A 
ATOM     78  C   UNL A   1      46.379  33.618  27.127  1.00  0.00     0.010 A 
ATOM     79  C   UNL A   1      46.769  33.190  29.480  1.00  0.00     0.010 A 
ATOM     80  C   UNL A   1      46.829  34.933  27.295  1.00  0.00     0.020 A 
ATOM     81  C   UNL A   1      47.186  34.510  29.659  1.00  0.00     0.020 A 
ATOM     82  C   UNL A   1      47.230  35.371  28.562  1.00  0.00     0.054 A 
BRANCH  82  83
ATOM     83  S   UNL A   1      47.765  37.090  28.778  1.00  0.00     0.124 S 
ATOM     84  O   UNL A   1      47.846  37.203  30.231  1.00  0.00    -0.237 OA
ATOM     85  O   UNL A   1      49.043  37.121  28.070  1.00  0.00    -0.237 OA
ATOM     86  O   UNL A   1      46.696  37.860  28.147  1.00  0.00    -0.744 OA
ENDBRANCH  82  83
ENDBRANCH  54  77
BRANCH  66  87
ATOM     87  C   UNL A   1      49.811  27.013  26.232  1.00  0.00    -0.014 A 
ATOM     88  C   UNL A   1      50.208  27.082  24.884  1.00  0.00     0.010 A 
ATOM     89  C   UNL A   1      50.779  26.747  27.216  1.00  0.00     0.010 A 
ATOM     90  C   UNL A   1      51.538  26.842  24.525  1.00  0.00     0.020 A 
ATOM     91  C   UNL A   1      52.115  26.532  26.863  1.00  0.00     0.020 A 
ATOM     92  C   UNL A   1      52.482  26.561  25.515  1.00  0.00     0.054 A 
BRANCH  92  93
ATOM     93  S   UNL A   1      54.205  26.265  25.028  1.00  0.00     0.124 S 
ATOM     94  O   UNL A   1      54.327  27.089  23.829  1.00  0.00    -0.237 OA
ATOM     95  O   UNL A   1      54.955  26.734  26.191  1.00  0.00    -0.237 OA
ATOM     96  O   UNL A   1      54.258  24.823  24.801  1.00  0.00    -0.744 OA
ENDBRANCH  92  93
ENDBRANCH  66  87
ENDBRANCH  40  41
ENDBRANCH  33  35
ENDBRANCH  32  33
ENDBRANCH  31  32
ENDBRANCH  30  31
ENDBRANCH  29  30
ENDBRANCH   1  29
TORSDOF 22
ENDMDL
