MODEL 1
REMARK VINA RESULT:     -10.6      0.000      0.000
REMARK SMILES Cc1ccc(Cl)c(Nc2ccccc2C(=O)N[C@@H](C)C(=O)OCCOCCOC(=O)c2ccc(-c3c4nc(c(-c5ccc(S(=O)(=O)[O-])cc5)c5ccc([nH]5)c(-c5ccc(S(=O)(=O)[O-])cc5)c5nc(c(-c6ccc(S(=O)(=O)[O-])cc6)c6ccc3[nH]6)C=C5)C=C4)cc2)c1Cl
REMARK SMILES IDX 24 1 23 2 22 3 20 4 21 5 18 6 19 7 17 8 15 9 16 10 14 12
REMARK SMILES IDX 9 13 10 14 11 15 13 16 12 17 8 18 7 20 1 21 2 22 3 23 91 24
REMARK SMILES IDX 4 25 92 26 5 27 6 28 25 29 26 30 27 31 28 32 29 33 30 34
REMARK SMILES IDX 31 35 32 36 90 37 33 38 89 39 34 40 35 41 36 42 83 43 37 44
REMARK SMILES IDX 88 45 82 46 84 47 38 48 87 49 81 50 80 51 39 53 69 54 50 55
REMARK SMILES IDX 68 56 51 57 54 58 67 59 85 60 52 61 53 62 66 64 86 65 55 66
REMARK SMILES IDX 40 67 41 68 49 69 42 70 48 71 43 72 44 73 45 74 46 75 47 76
REMARK SMILES IDX 70 77 71 78 79 79 72 80 78 81 73 82 74 83 75 84 76 85 77 86
REMARK SMILES IDX 56 87 57 88 65 89 58 90 64 91 59 92 60 93 61 94 62 95 63 96
REMARK H PARENT 17 11 8 19 84 52 54 63
REMARK Flexibility Score: inf
ROOT
ATOM      1  C   UNL A   1      33.381  33.222  27.645  1.00  0.00     0.202 C 
ENDROOT
BRANCH   1   2
ATOM      2  C   UNL A   1      33.215  31.643  27.526  1.00  0.00     0.261 C 
BRANCH   2   3
ATOM      3  O   UNL A   1      31.921  31.054  27.150  1.00  0.00    -0.462 OA
BRANCH   3   4
ATOM      4  C   UNL A   1      31.964  29.935  26.339  1.00  0.00     0.328 C 
ATOM      5  O   UNL A   1      31.912  30.015  25.112  1.00  0.00    -0.250 OA
BRANCH   4   6
ATOM      6  C   UNL A   1      32.306  28.556  27.056  1.00  0.00     0.189 C 
ATOM      7  C   UNL A   1      33.672  28.045  26.585  1.00  0.00     0.043 C 
BRANCH   6   8
ATOM      8  N   UNL A   1      31.359  27.444  27.011  1.00  0.00    -0.339 N 
ATOM      9  C   UNL A   1      30.872  26.561  26.071  1.00  0.00     0.254 C 
ATOM     10  O   UNL A   1      29.871  25.968  26.514  1.00  0.00    -0.269 OA
ATOM     11  H   UNL A   1      30.958  27.280  27.895  1.00  0.00     0.164 HD
BRANCH   9  12
ATOM     12  C   UNL A   1      31.340  26.145  24.664  1.00  0.00     0.063 A 
ATOM     13  C   UNL A   1      32.000  25.012  24.115  1.00  0.00     0.051 A 
ATOM     14  C   UNL A   1      32.263  24.952  22.708  1.00  0.00     0.027 A 
ATOM     15  C   UNL A   1      31.837  25.929  21.818  1.00  0.00     0.002 A 
ATOM     16  C   UNL A   1      30.976  27.144  23.703  1.00  0.00     0.016 A 
ATOM     17  C   UNL A   1      31.192  27.036  22.321  1.00  0.00     0.001 A 
BRANCH  13  18
ATOM     18  N   UNL A   1      32.225  23.761  24.736  1.00  0.00    -0.352 N 
ATOM     19  H   UNL A   1      31.914  22.950  24.272  1.00  0.00     0.167 HD
BRANCH  18  20
ATOM     20  C   UNL A   1      32.884  23.608  26.008  1.00  0.00     0.077 A 
ATOM     21  C   UNL A   1      35.964  22.046  25.500  1.00  0.00     0.046 C 
ATOM     22  C   UNL A   1      34.884  22.481  26.442  1.00  0.00    -0.030 A 
ATOM     23  C   UNL A   1      34.258  21.706  27.425  1.00  0.00     0.006 A 
ATOM     24  C   UNL A   1      34.269  23.644  26.058  1.00  0.00     0.069 A 
ATOM     25  C   UNL A   1      32.942  21.984  27.796  1.00  0.00     0.023 A 
ATOM     26  Cl  UNL A   1      35.239  24.954  25.479  1.00  0.00    -0.082 Cl
ATOM     27  C   UNL A   1      32.227  22.888  27.018  1.00  0.00     0.066 A 
ATOM     28  Cl  UNL A   1      30.516  22.996  27.198  1.00  0.00    -0.082 Cl
ENDBRANCH  18  20
ENDBRANCH  13  18
ENDBRANCH   9  12
ENDBRANCH   6   8
ENDBRANCH   4   6
ENDBRANCH   3   4
ENDBRANCH   2   3
ENDBRANCH   1   2
BRANCH   1  29
ATOM     29  O   UNL A   1      32.586  33.969  28.571  1.00  0.00    -0.374 OA
BRANCH  29  30
ATOM     30  C   UNL A   1      33.225  35.064  29.267  1.00  0.00     0.202 C 
BRANCH  30  31
ATOM     31  C   UNL A   1      33.641  34.808  30.736  1.00  0.00     0.261 C 
BRANCH  31  32
ATOM     32  O   UNL A   1      34.794  33.970  30.734  1.00  0.00    -0.460 OA
BRANCH  32  33
ATOM     33  C   UNL A   1      34.776  32.894  31.531  1.00  0.00     0.338 C 
ATOM     34  O   UNL A   1      33.960  32.601  32.399  1.00  0.00    -0.246 OA
BRANCH  33  35
ATOM     35  C   UNL A   1      35.799  32.002  30.986  1.00  0.00     0.060 A 
ATOM     36  C   UNL A   1      36.619  31.353  31.919  1.00  0.00     0.016 A 
ATOM     37  C   UNL A   1      36.023  31.868  29.619  1.00  0.00     0.016 A 
ATOM     38  C   UNL A   1      37.681  30.575  31.502  1.00  0.00     0.010 A 
ATOM     39  C   UNL A   1      37.131  31.127  29.195  1.00  0.00     0.010 A 
ATOM     40  C   UNL A   1      37.993  30.534  30.142  1.00  0.00    -0.014 A 
BRANCH  40  41
ATOM     41  C   UNL A   1      39.394  30.208  29.800  1.00  0.00     0.031 A 
ATOM     42  C   UNL A   1      40.433  31.277  30.028  1.00  0.00     0.074 A 
ATOM     43  C   UNL A   1      39.773  28.967  29.450  1.00  0.00     0.049 A 
ATOM     44  N   UNL A   1      41.723  31.233  29.829  1.00  0.00    -0.248 NA
ATOM     45  C   UNL A   1      39.951  32.561  30.572  1.00  0.00     0.031 C 
ATOM     46  C   UNL A   1      38.890  27.810  29.314  1.00  0.00     0.029 A 
ATOM     47  N   UNL A   1      41.021  28.480  29.159  1.00  0.00    -0.354 N 
ATOM     48  C   UNL A   1      42.202  32.485  30.198  1.00  0.00     0.074 A 
ATOM     49  C   UNL A   1      41.066  33.271  30.620  1.00  0.00     0.031 C 
ATOM     50  C   UNL A   1      39.629  26.745  28.952  1.00  0.00     0.029 A 
ATOM     51  C   UNL A   1      41.025  27.157  28.799  1.00  0.00     0.049 A 
ATOM     52  H   UNL A   1      41.838  29.028  29.206  1.00  0.00     0.167 HD
ATOM     53  C   UNL A   1      43.474  32.944  30.188  1.00  0.00     0.031 A 
ATOM     54  C   UNL A   1      42.035  26.374  28.367  1.00  0.00     0.031 A 
ATOM     55  C   UNL A   1      44.611  32.172  29.768  1.00  0.00     0.049 A 
ATOM     56  C   UNL A   1      43.430  26.938  28.267  1.00  0.00     0.074 A 
ATOM     57  C   UNL A   1      45.937  32.564  29.709  1.00  0.00     0.029 A 
ATOM     58  N   UNL A   1      44.561  30.858  29.337  1.00  0.00    -0.354 N 
ATOM     59  N   UNL A   1      43.866  28.134  28.586  1.00  0.00    -0.248 NA
ATOM     60  C   UNL A   1      44.472  26.037  27.753  1.00  0.00     0.031 C 
ATOM     61  C   UNL A   1      46.682  31.503  29.189  1.00  0.00     0.029 A 
ATOM     62  C   UNL A   1      45.831  30.428  28.988  1.00  0.00     0.049 A 
ATOM     63  H   UNL A   1      43.745  30.310  29.284  1.00  0.00     0.167 HD
ATOM     64  C   UNL A   1      45.237  28.115  28.344  1.00  0.00     0.074 A 
ATOM     65  C   UNL A   1      45.559  26.789  27.862  1.00  0.00     0.031 C 
ATOM     66  C   UNL A   1      46.149  29.106  28.513  1.00  0.00     0.031 A 
BRANCH  53  67
ATOM     67  C   UNL A   1      43.692  34.376  30.594  1.00  0.00    -0.014 A 
ATOM     68  C   UNL A   1      43.937  34.732  31.931  1.00  0.00     0.010 A 
ATOM     69  C   UNL A   1      43.679  35.377  29.606  1.00  0.00     0.010 A 
ATOM     70  C   UNL A   1      44.135  36.071  32.278  1.00  0.00     0.020 A 
ATOM     71  C   UNL A   1      43.905  36.712  29.944  1.00  0.00     0.020 A 
ATOM     72  C   UNL A   1      44.117  37.052  31.281  1.00  0.00     0.054 A 
BRANCH  72  73
ATOM     73  S   UNL A   1      44.405  38.779  31.753  1.00  0.00     0.124 S 
ATOM     74  O   UNL A   1      43.414  39.482  30.941  1.00  0.00    -0.237 OA
ATOM     75  O   UNL A   1      44.143  38.766  33.191  1.00  0.00    -0.237 OA
ATOM     76  O   UNL A   1      45.797  39.013  31.379  1.00  0.00    -0.744 OA
ENDBRANCH  72  73
ENDBRANCH  53  67
BRANCH  54  77
ATOM     77  C   UNL A   1      41.759  24.972  27.957  1.00  0.00    -0.014 A 
ATOM     78  C   UNL A   1      42.136  23.894  28.775  1.00  0.00     0.010 A 
ATOM     79  C   UNL A   1      41.134  24.711  26.724  1.00  0.00     0.010 A 
ATOM     80  C   UNL A   1      41.909  22.578  28.359  1.00  0.00     0.020 A 
ATOM     81  C   UNL A   1      40.878  23.400  26.319  1.00  0.00     0.020 A 
ATOM     82  C   UNL A   1      41.278  22.340  27.135  1.00  0.00     0.054 A 
BRANCH  82  83
ATOM     83  S   UNL A   1      40.943  20.629  26.640  1.00  0.00     0.124 S 
ATOM     84  O   UNL A   1      42.049  20.354  25.729  1.00  0.00    -0.237 OA
ATOM     85  O   UNL A   1      40.982  19.920  27.917  1.00  0.00    -0.237 OA
ATOM     86  O   UNL A   1      39.623  20.705  26.019  1.00  0.00    -0.744 OA
ENDBRANCH  82  83
ENDBRANCH  54  77
BRANCH  66  87
ATOM     87  C   UNL A   1      47.595  28.787  28.229  1.00  0.00    -0.014 A 
ATOM     88  C   UNL A   1      48.120  28.832  26.925  1.00  0.00     0.010 A 
ATOM     89  C   UNL A   1      48.455  28.473  29.299  1.00  0.00     0.010 A 
ATOM     90  C   UNL A   1      49.465  28.524  26.692  1.00  0.00     0.020 A 
ATOM     91  C   UNL A   1      49.805  28.192  29.074  1.00  0.00     0.020 A 
ATOM     92  C   UNL A   1      50.298  28.199  27.768  1.00  0.00     0.054 A 
BRANCH  92  93
ATOM     93  S   UNL A   1      52.042  27.818  27.444  1.00  0.00     0.124 S 
ATOM     94  O   UNL A   1      52.299  28.587  26.229  1.00  0.00    -0.237 OA
ATOM     95  O   UNL A   1      52.709  28.307  28.649  1.00  0.00    -0.237 OA
ATOM     96  O   UNL A   1      52.055  26.367  27.277  1.00  0.00    -0.744 OA
ENDBRANCH  92  93
ENDBRANCH  66  87
ENDBRANCH  40  41
ENDBRANCH  33  35
ENDBRANCH  32  33
ENDBRANCH  31  32
ENDBRANCH  30  31
ENDBRANCH  29  30
ENDBRANCH   1  29
TORSDOF 21
ENDMDL
MODEL 2
REMARK VINA RESULT:     -10.5      2.616      9.150
REMARK SMILES Cc1ccc(Cl)c(Nc2ccccc2C(=O)N[C@@H](C)C(=O)OCCOCCOC(=O)c2ccc(-c3c4nc(c(-c5ccc(S(=O)(=O)[O-])cc5)c5ccc([nH]5)c(-c5ccc(S(=O)(=O)[O-])cc5)c5nc(c(-c6ccc(S(=O)(=O)[O-])cc6)c6ccc3[nH]6)C=C5)C=C4)cc2)c1Cl
REMARK SMILES IDX 24 1 23 2 22 3 20 4 21 5 18 6 19 7 17 8 15 9 16 10 14 12
REMARK SMILES IDX 9 13 10 14 11 15 13 16 12 17 8 18 7 20 1 21 2 22 3 23 91 24
REMARK SMILES IDX 4 25 92 26 5 27 6 28 25 29 26 30 27 31 28 32 29 33 30 34
REMARK SMILES IDX 31 35 32 36 90 37 33 38 89 39 34 40 35 41 36 42 83 43 37 44
REMARK SMILES IDX 88 45 82 46 84 47 38 48 87 49 81 50 80 51 39 53 69 54 50 55
REMARK SMILES IDX 68 56 51 57 54 58 67 59 85 60 52 61 53 62 66 64 86 65 55 66
REMARK SMILES IDX 40 67 41 68 49 69 42 70 48 71 43 72 44 73 45 74 46 75 47 76
REMARK SMILES IDX 70 77 71 78 79 79 72 80 78 81 73 82 74 83 75 84 76 85 77 86
REMARK SMILES IDX 56 87 57 88 65 89 58 90 64 91 59 92 60 93 61 94 62 95 63 96
REMARK H PARENT 17 11 8 19 84 52 54 63
REMARK Flexibility Score: inf
ROOT
ATOM      1  C   UNL A   1      35.224  21.447  26.323  1.00  0.00     0.202 C 
ENDROOT
BRANCH   1   2
ATOM      2  C   UNL A   1      33.697  20.998  26.290  1.00  0.00     0.261 C 
BRANCH   2   3
ATOM      3  O   UNL A   1      32.655  21.928  25.832  1.00  0.00    -0.462 OA
BRANCH   3   4
ATOM      4  C   UNL A   1      31.989  22.642  26.812  1.00  0.00     0.328 C 
ATOM      5  O   UNL A   1      32.318  22.588  27.997  1.00  0.00    -0.250 OA
BRANCH   4   6
ATOM      6  C   UNL A   1      30.919  23.707  26.306  1.00  0.00     0.189 C 
ATOM      7  C   UNL A   1      29.591  23.506  27.043  1.00  0.00     0.043 C 
BRANCH   6   8
ATOM      8  N   UNL A   1      30.636  23.851  24.880  1.00  0.00    -0.339 N 
ATOM      9  C   UNL A   1      30.317  24.866  24.005  1.00  0.00     0.254 C 
ATOM     10  O   UNL A   1      29.919  24.395  22.924  1.00  0.00    -0.269 OA
ATOM     11  H   UNL A   1      30.685  22.983  24.417  1.00  0.00     0.164 HD
BRANCH   9  12
ATOM     12  C   UNL A   1      30.410  26.401  24.083  1.00  0.00     0.063 A 
ATOM     13  C   UNL A   1      31.377  27.331  24.554  1.00  0.00     0.051 A 
ATOM     14  C   UNL A   1      31.129  28.738  24.441  1.00  0.00     0.027 A 
ATOM     15  C   UNL A   1      30.002  29.257  23.818  1.00  0.00     0.002 A 
ATOM     16  C   UNL A   1      29.244  26.999  23.501  1.00  0.00     0.016 A 
ATOM     17  C   UNL A   1      29.050  28.380  23.349  1.00  0.00     0.001 A 
BRANCH  13  18
ATOM     18  N   UNL A   1      32.722  27.071  24.906  1.00  0.00    -0.352 N 
ATOM     19  H   UNL A   1      33.040  27.380  25.786  1.00  0.00     0.167 HD
BRANCH  18  20
ATOM     20  C   UNL A   1      33.652  26.378  24.051  1.00  0.00     0.077 A 
ATOM     21  C   UNL A   1      32.187  25.941  20.913  1.00  0.00     0.046 C 
ATOM     22  C   UNL A   1      33.270  25.588  21.885  1.00  0.00    -0.030 A 
ATOM     23  C   UNL A   1      33.685  24.305  22.258  1.00  0.00     0.006 A 
ATOM     24  C   UNL A   1      33.636  26.637  22.689  1.00  0.00     0.069 A 
ATOM     25  C   UNL A   1      34.220  24.089  23.528  1.00  0.00     0.023 A 
ATOM     26  Cl  UNL A   1      33.835  28.204  21.984  1.00  0.00    -0.082 Cl
ATOM     27  C   UNL A   1      34.122  25.119  24.457  1.00  0.00     0.066 A 
ATOM     28  Cl  UNL A   1      34.426  24.794  26.121  1.00  0.00    -0.082 Cl
ENDBRANCH  18  20
ENDBRANCH  13  18
ENDBRANCH   9  12
ENDBRANCH   6   8
ENDBRANCH   4   6
ENDBRANCH   3   4
ENDBRANCH   2   3
ENDBRANCH   1   2
BRANCH   1  29
ATOM     29  O   UNL A   1      35.871  21.913  25.135  1.00  0.00    -0.374 OA
BRANCH  29  30
ATOM     30  C   UNL A   1      36.979  21.134  24.629  1.00  0.00     0.202 C 
BRANCH  30  31
ATOM     31  C   UNL A   1      38.155  20.881  25.603  1.00  0.00     0.261 C 
BRANCH  31  32
ATOM     32  O   UNL A   1      38.654  22.143  26.040  1.00  0.00    -0.460 OA
BRANCH  32  33
ATOM     33  C   UNL A   1      39.961  22.227  26.319  1.00  0.00     0.338 C 
ATOM     34  O   UNL A   1      40.882  21.558  25.862  1.00  0.00    -0.246 OA
BRANCH  33  35
ATOM     35  C   UNL A   1      40.103  23.455  27.100  1.00  0.00     0.060 A 
ATOM     36  C   UNL A   1      39.379  24.566  26.647  1.00  0.00     0.016 A 
ATOM     37  C   UNL A   1      40.979  23.561  28.176  1.00  0.00     0.016 A 
ATOM     38  C   UNL A   1      39.528  25.799  27.252  1.00  0.00     0.010 A 
ATOM     39  C   UNL A   1      41.176  24.819  28.754  1.00  0.00     0.010 A 
ATOM     40  C   UNL A   1      40.496  25.947  28.248  1.00  0.00    -0.014 A 
BRANCH  40  41
ATOM     41  C   UNL A   1      41.027  27.312  28.449  1.00  0.00     0.031 A 
ATOM     42  C   UNL A   1      42.368  27.634  27.840  1.00  0.00     0.074 A 
ATOM     43  C   UNL A   1      40.292  28.288  29.010  1.00  0.00     0.049 A 
ATOM     44  N   UNL A   1      43.037  28.757  27.856  1.00  0.00    -0.248 NA
ATOM     45  C   UNL A   1      43.034  26.547  27.098  1.00  0.00     0.031 C 
ATOM     46  C   UNL A   1      38.933  28.144  29.527  1.00  0.00     0.029 A 
ATOM     47  N   UNL A   1      40.600  29.607  29.219  1.00  0.00    -0.354 N 
ATOM     48  C   UNL A   1      44.208  28.505  27.152  1.00  0.00     0.074 A 
ATOM     49  C   UNL A   1      44.168  27.123  26.732  1.00  0.00     0.031 C 
ATOM     50  C   UNL A   1      38.527  29.334  30.008  1.00  0.00     0.029 A 
ATOM     51  C   UNL A   1      39.611  30.307  29.862  1.00  0.00     0.049 A 
ATOM     52  H   UNL A   1      41.450  30.014  28.934  1.00  0.00     0.167 HD
ATOM     53  C   UNL A   1      45.229  29.347  26.875  1.00  0.00     0.031 A 
ATOM     54  C   UNL A   1      39.593  31.579  30.308  1.00  0.00     0.031 A 
ATOM     55  C   UNL A   1      45.282  30.721  27.289  1.00  0.00     0.049 A 
ATOM     56  C   UNL A   1      40.787  32.472  30.078  1.00  0.00     0.074 A 
ATOM     57  C   UNL A   1      46.289  31.644  27.067  1.00  0.00     0.029 A 
ATOM     58  N   UNL A   1      44.292  31.371  28.006  1.00  0.00    -0.354 N 
ATOM     59  N   UNL A   1      41.904  32.213  29.440  1.00  0.00    -0.248 NA
ATOM     60  C   UNL A   1      40.710  33.834  30.625  1.00  0.00     0.031 C 
ATOM     61  C   UNL A   1      45.932  32.839  27.700  1.00  0.00     0.029 A 
ATOM     62  C   UNL A   1      44.673  32.679  28.256  1.00  0.00     0.049 A 
ATOM     63  H   UNL A   1      43.444  30.964  28.297  1.00  0.00     0.167 HD
ATOM     64  C   UNL A   1      42.645  33.392  29.480  1.00  0.00     0.074 A 
ATOM     65  C   UNL A   1      41.847  34.364  30.195  1.00  0.00     0.031 C 
ATOM     66  C   UNL A   1      43.875  33.647  28.964  1.00  0.00     0.031 A 
BRANCH  53  67
ATOM     67  C   UNL A   1      46.407  28.778  26.132  1.00  0.00    -0.014 A 
ATOM     68  C   UNL A   1      47.617  28.484  26.786  1.00  0.00     0.010 A 
ATOM     69  C   UNL A   1      46.284  28.507  24.758  1.00  0.00     0.010 A 
ATOM     70  C   UNL A   1      48.694  27.957  26.069  1.00  0.00     0.020 A 
ATOM     71  C   UNL A   1      47.348  27.954  24.044  1.00  0.00     0.020 A 
ATOM     72  C   UNL A   1      48.552  27.696  24.701  1.00  0.00     0.054 A 
BRANCH  72  73
ATOM     73  S   UNL A   1      49.955  26.985  23.800  1.00  0.00     0.124 S 
ATOM     74  O   UNL A   1      50.747  28.175  23.491  1.00  0.00    -0.237 OA
ATOM     75  O   UNL A   1      50.542  26.079  24.784  1.00  0.00    -0.237 OA
ATOM     76  O   UNL A   1      49.335  26.334  22.650  1.00  0.00    -0.744 OA
ENDBRANCH  72  73
ENDBRANCH  53  67
BRANCH  54  77
ATOM     77  C   UNL A   1      38.411  32.083  31.057  1.00  0.00    -0.014 A 
ATOM     78  C   UNL A   1      38.310  31.906  32.447  1.00  0.00     0.010 A 
ATOM     79  C   UNL A   1      37.365  32.726  30.370  1.00  0.00     0.010 A 
ATOM     80  C   UNL A   1      37.176  32.348  33.135  1.00  0.00     0.020 A 
ATOM     81  C   UNL A   1      36.244  33.196  31.057  1.00  0.00     0.020 A 
ATOM     82  C   UNL A   1      36.151  32.993  32.435  1.00  0.00     0.054 A 
BRANCH  82  83
ATOM     83  S   UNL A   1      34.714  33.606  33.354  1.00  0.00     0.124 S 
ATOM     84  O   UNL A   1      34.615  34.983  32.881  1.00  0.00    -0.237 OA
ATOM     85  O   UNL A   1      33.651  32.706  32.911  1.00  0.00    -0.237 OA
ATOM     86  O   UNL A   1      35.109  33.449  34.751  1.00  0.00    -0.744 OA
ENDBRANCH  82  83
ENDBRANCH  54  77
BRANCH  66  87
ATOM     87  C   UNL A   1      44.418  35.047  29.101  1.00  0.00    -0.014 A 
ATOM     88  C   UNL A   1      45.339  35.387  30.108  1.00  0.00     0.010 A 
ATOM     89  C   UNL A   1      44.026  36.033  28.175  1.00  0.00     0.010 A 
ATOM     90  C   UNL A   1      45.821  36.696  30.213  1.00  0.00     0.020 A 
ATOM     91  C   UNL A   1      44.526  37.334  28.261  1.00  0.00     0.020 A 
ATOM     92  C   UNL A   1      45.406  37.663  29.293  1.00  0.00     0.054 A 
BRANCH  92  93
ATOM     93  S   UNL A   1      46.055  39.352  29.440  1.00  0.00     0.124 S 
ATOM     94  O   UNL A   1      44.841  40.122  29.695  1.00  0.00    -0.237 OA
ATOM     95  O   UNL A   1      46.979  39.245  30.566  1.00  0.00    -0.237 OA
ATOM     96  O   UNL A   1      46.686  39.595  28.145  1.00  0.00    -0.744 OA
ENDBRANCH  92  93
ENDBRANCH  66  87
ENDBRANCH  40  41
ENDBRANCH  33  35
ENDBRANCH  32  33
ENDBRANCH  31  32
ENDBRANCH  30  31
ENDBRANCH  29  30
ENDBRANCH   1  29
TORSDOF 21
ENDMDL
MODEL 3
REMARK VINA RESULT:     -10.4      4.005     10.347
REMARK SMILES Cc1ccc(Cl)c(Nc2ccccc2C(=O)N[C@@H](C)C(=O)OCCOCCOC(=O)c2ccc(-c3c4nc(c(-c5ccc(S(=O)(=O)[O-])cc5)c5ccc([nH]5)c(-c5ccc(S(=O)(=O)[O-])cc5)c5nc(c(-c6ccc(S(=O)(=O)[O-])cc6)c6ccc3[nH]6)C=C5)C=C4)cc2)c1Cl
REMARK SMILES IDX 24 1 23 2 22 3 20 4 21 5 18 6 19 7 17 8 15 9 16 10 14 12
REMARK SMILES IDX 9 13 10 14 11 15 13 16 12 17 8 18 7 20 1 21 2 22 3 23 91 24
REMARK SMILES IDX 4 25 92 26 5 27 6 28 25 29 26 30 27 31 28 32 29 33 30 34
REMARK SMILES IDX 31 35 32 36 90 37 33 38 89 39 34 40 35 41 36 42 83 43 37 44
REMARK SMILES IDX 88 45 82 46 84 47 38 48 87 49 81 50 80 51 39 53 69 54 50 55
REMARK SMILES IDX 68 56 51 57 54 58 67 59 85 60 52 61 53 62 66 64 86 65 55 66
REMARK SMILES IDX 40 67 41 68 49 69 42 70 48 71 43 72 44 73 45 74 46 75 47 76
REMARK SMILES IDX 70 77 71 78 79 79 72 80 78 81 73 82 74 83 75 84 76 85 77 86
REMARK SMILES IDX 56 87 57 88 65 89 58 90 64 91 59 92 60 93 61 94 62 95 63 96
REMARK H PARENT 17 11 8 19 84 52 54 63
REMARK Flexibility Score: inf
ROOT
ATOM      1  C   UNL A   1      40.460  19.722  26.085  1.00  0.00     0.202 C 
ENDROOT
BRANCH   1   2
ATOM      2  C   UNL A   1      39.172  20.281  25.332  1.00  0.00     0.261 C 
BRANCH   2   3
ATOM      3  O   UNL A   1      38.410  21.406  25.891  1.00  0.00    -0.462 OA
BRANCH   3   4
ATOM      4  C   UNL A   1      37.280  21.794  25.196  1.00  0.00     0.328 C 
ATOM      5  O   UNL A   1      36.448  20.980  24.795  1.00  0.00    -0.250 OA
BRANCH   4   6
ATOM      6  C   UNL A   1      36.993  23.358  25.131  1.00  0.00     0.189 C 
ATOM      7  C   UNL A   1      36.558  23.868  26.509  1.00  0.00     0.043 C 
BRANCH   6   8
ATOM      8  N   UNL A   1      36.078  23.902  24.130  1.00  0.00    -0.339 N 
ATOM      9  C   UNL A   1      34.718  23.936  23.908  1.00  0.00     0.254 C 
ATOM     10  O   UNL A   1      34.480  24.316  22.747  1.00  0.00    -0.269 OA
ATOM     11  H   UNL A   1      36.568  24.373  23.417  1.00  0.00     0.164 HD
BRANCH   9  12
ATOM     12  C   UNL A   1      33.492  23.662  24.797  1.00  0.00     0.063 A 
ATOM     13  C   UNL A   1      32.819  24.368  25.833  1.00  0.00     0.051 A 
ATOM     14  C   UNL A   1      31.653  23.800  26.442  1.00  0.00     0.027 A 
ATOM     15  C   UNL A   1      31.089  22.603  26.020  1.00  0.00     0.002 A 
ATOM     16  C   UNL A   1      32.893  22.408  24.446  1.00  0.00     0.016 A 
ATOM     17  C   UNL A   1      31.717  21.900  25.017  1.00  0.00     0.001 A 
BRANCH  13  18
ATOM     18  N   UNL A   1      32.984  25.723  26.199  1.00  0.00    -0.352 N 
ATOM     19  H   UNL A   1      33.419  25.923  27.059  1.00  0.00     0.167 HD
BRANCH  18  20
ATOM     20  C   UNL A   1      32.551  26.829  25.383  1.00  0.00     0.077 A 
ATOM     21  C   UNL A   1      31.423  25.596  22.318  1.00  0.00     0.046 C 
ATOM     22  C   UNL A   1      31.859  26.762  23.152  1.00  0.00    -0.030 A 
ATOM     23  C   UNL A   1      32.798  27.741  22.810  1.00  0.00     0.006 A 
ATOM     24  C   UNL A   1      31.521  26.635  24.475  1.00  0.00     0.069 A 
ATOM     25  C   UNL A   1      33.541  28.372  23.809  1.00  0.00     0.023 A 
ATOM     26  Cl  UNL A   1      29.946  26.052  24.886  1.00  0.00    -0.082 Cl
ATOM     27  C   UNL A   1      33.473  27.848  25.095  1.00  0.00     0.066 A 
ATOM     28  Cl  UNL A   1      34.627  28.342  26.275  1.00  0.00    -0.082 Cl
ENDBRANCH  18  20
ENDBRANCH  13  18
ENDBRANCH   9  12
ENDBRANCH   6   8
ENDBRANCH   4   6
ENDBRANCH   3   4
ENDBRANCH   2   3
ENDBRANCH   1   2
BRANCH   1  29
ATOM     29  O   UNL A   1      41.575  19.219  25.343  1.00  0.00    -0.374 OA
BRANCH  29  30
ATOM     30  C   UNL A   1      42.868  19.233  25.989  1.00  0.00     0.202 C 
BRANCH  30  31
ATOM     31  C   UNL A   1      44.013  19.959  25.242  1.00  0.00     0.261 C 
BRANCH  31  32
ATOM     32  O   UNL A   1      44.111  21.286  25.754  1.00  0.00    -0.460 OA
BRANCH  32  33
ATOM     33  C   UNL A   1      43.809  22.292  24.923  1.00  0.00     0.338 C 
ATOM     34  O   UNL A   1      43.879  22.317  23.699  1.00  0.00    -0.246 OA
BRANCH  33  35
ATOM     35  C   UNL A   1      43.133  23.283  25.760  1.00  0.00     0.060 A 
ATOM     36  C   UNL A   1      43.539  24.614  25.596  1.00  0.00     0.016 A 
ATOM     37  C   UNL A   1      42.206  22.932  26.736  1.00  0.00     0.016 A 
ATOM     38  C   UNL A   1      43.039  25.609  26.412  1.00  0.00     0.010 A 
ATOM     39  C   UNL A   1      41.741  23.927  27.602  1.00  0.00     0.010 A 
ATOM     40  C   UNL A   1      42.207  25.252  27.476  1.00  0.00    -0.014 A 
BRANCH  40  41
ATOM     41  C   UNL A   1      42.169  26.188  28.621  1.00  0.00     0.031 A 
ATOM     42  C   UNL A   1      43.292  26.106  29.623  1.00  0.00     0.074 A 
ATOM     43  C   UNL A   1      41.268  27.182  28.700  1.00  0.00     0.049 A 
ATOM     44  N   UNL A   1      43.499  26.823  30.696  1.00  0.00    -0.248 NA
ATOM     45  C   UNL A   1      44.331  25.090  29.369  1.00  0.00     0.031 C 
ATOM     46  C   UNL A   1      40.206  27.451  27.734  1.00  0.00     0.029 A 
ATOM     47  N   UNL A   1      41.126  28.162  29.648  1.00  0.00    -0.354 N 
ATOM     48  C   UNL A   1      44.672  26.331  31.255  1.00  0.00     0.074 A 
ATOM     49  C   UNL A   1      45.127  25.248  30.415  1.00  0.00     0.031 C 
ATOM     50  C   UNL A   1      39.509  28.525  28.150  1.00  0.00     0.029 A 
ATOM     51  C   UNL A   1      40.057  28.992  29.424  1.00  0.00     0.049 A 
ATOM     52  H   UNL A   1      41.734  28.262  30.416  1.00  0.00     0.167 HD
ATOM     53  C   UNL A   1      45.318  26.742  32.370  1.00  0.00     0.031 A 
ATOM     54  C   UNL A   1      39.561  29.995  30.176  1.00  0.00     0.031 A 
ATOM     55  C   UNL A   1      44.875  27.817  33.214  1.00  0.00     0.049 A 
ATOM     56  C   UNL A   1      40.240  30.370  31.469  1.00  0.00     0.074 A 
ATOM     57  C   UNL A   1      45.459  28.290  34.376  1.00  0.00     0.029 A 
ATOM     58  N   UNL A   1      43.743  28.583  32.993  1.00  0.00    -0.354 N 
ATOM     59  N   UNL A   1      41.330  29.876  32.007  1.00  0.00    -0.248 NA
ATOM     60  C   UNL A   1      39.620  31.448  32.253  1.00  0.00     0.031 C 
ATOM     61  C   UNL A   1      44.650  29.308  34.888  1.00  0.00     0.029 A 
ATOM     62  C   UNL A   1      43.598  29.513  34.009  1.00  0.00     0.049 A 
ATOM     63  H   UNL A   1      43.131  28.482  32.229  1.00  0.00     0.167 HD
ATOM     64  C   UNL A   1      41.543  30.607  33.173  1.00  0.00     0.074 A 
ATOM     65  C   UNL A   1      40.477  31.582  33.257  1.00  0.00     0.031 C 
ATOM     66  C   UNL A   1      42.538  30.485  34.088  1.00  0.00     0.031 A 
BRANCH  53  67
ATOM     67  C   UNL A   1      46.552  25.980  32.771  1.00  0.00    -0.014 A 
ATOM     68  C   UNL A   1      47.818  26.310  32.258  1.00  0.00     0.010 A 
ATOM     69  C   UNL A   1      46.437  24.933  33.703  1.00  0.00     0.010 A 
ATOM     70  C   UNL A   1      48.946  25.583  32.649  1.00  0.00     0.020 A 
ATOM     71  C   UNL A   1      47.565  24.224  34.117  1.00  0.00     0.020 A 
ATOM     72  C   UNL A   1      48.811  24.544  33.576  1.00  0.00     0.054 A 
BRANCH  72  73
ATOM     73  S   UNL A   1      50.294  23.635  34.088  1.00  0.00     0.124 S 
ATOM     74  O   UNL A   1      50.627  22.895  32.872  1.00  0.00    -0.237 OA
ATOM     75  O   UNL A   1      51.220  24.708  34.443  1.00  0.00    -0.237 OA
ATOM     76  O   UNL A   1      49.832  22.819  35.207  1.00  0.00    -0.744 OA
ENDBRANCH  72  73
ENDBRANCH  53  67
BRANCH  54  77
ATOM     77  C   UNL A   1      38.325  30.701  29.744  1.00  0.00    -0.014 A 
ATOM     78  C   UNL A   1      38.392  31.959  29.123  1.00  0.00     0.010 A 
ATOM     79  C   UNL A   1      37.066  30.118  29.976  1.00  0.00     0.010 A 
ATOM     80  C   UNL A   1      37.221  32.630  28.758  1.00  0.00     0.020 A 
ATOM     81  C   UNL A   1      35.895  30.771  29.587  1.00  0.00     0.020 A 
ATOM     82  C   UNL A   1      35.980  32.030  28.990  1.00  0.00     0.054 A 
BRANCH  82  83
ATOM     83  S   UNL A   1      34.477  32.894  28.460  1.00  0.00     0.124 S 
ATOM     84  O   UNL A   1      33.942  33.379  29.728  1.00  0.00    -0.237 OA
ATOM     85  O   UNL A   1      35.004  33.918  27.561  1.00  0.00    -0.237 OA
ATOM     86  O   UNL A   1      33.694  31.847  27.808  1.00  0.00    -0.744 OA
ENDBRANCH  82  83
ENDBRANCH  54  77
BRANCH  66  87
ATOM     87  C   UNL A   1      42.561  31.463  35.236  1.00  0.00    -0.014 A 
ATOM     88  C   UNL A   1      43.198  32.713  35.129  1.00  0.00     0.010 A 
ATOM     89  C   UNL A   1      41.895  31.139  36.433  1.00  0.00     0.010 A 
ATOM     90  C   UNL A   1      43.207  33.597  36.213  1.00  0.00     0.020 A 
ATOM     91  C   UNL A   1      41.879  32.031  37.508  1.00  0.00     0.020 A 
ATOM     92  C   UNL A   1      42.553  33.247  37.399  1.00  0.00     0.054 A 
BRANCH  92  93
ATOM     93  S   UNL A   1      42.566  34.416  38.787  1.00  0.00     0.124 S 
ATOM     94  O   UNL A   1      41.139  34.627  39.018  1.00  0.00    -0.237 OA
ATOM     95  O   UNL A   1      43.268  33.672  39.830  1.00  0.00    -0.237 OA
ATOM     96  O   UNL A   1      43.288  35.572  38.261  1.00  0.00    -0.744 OA
ENDBRANCH  92  93
ENDBRANCH  66  87
ENDBRANCH  40  41
ENDBRANCH  33  35
ENDBRANCH  32  33
ENDBRANCH  31  32
ENDBRANCH  30  31
ENDBRANCH  29  30
ENDBRANCH   1  29
TORSDOF 21
ENDMDL
