MODEL 1
REMARK VINA RESULT:     -10.1      0.000      0.000
REMARK SMILES CCOc1ncnc(N[C@@H]2C=C[C@H](C(=O)OCCOCCOC(=O)c3ccc(-c4c5nc(c(-c6ccc(S(=O)(=O)[O-])cc6)c6ccc([nH]6)c(-c6ccc(S(=O)(=O)[O-])cc6)c6nc(c(-c7ccc(S(=O)(=O)[O-])cc7)c7ccc4[nH]7)C=C6)C=C5)cc3)C2)c1C
REMARK SMILES IDX 18 1 17 2 16 3 14 4 15 5 13 6 10 7 11 8 85 9 12 10 9 11 8 13
REMARK SMILES IDX 4 14 5 15 86 16 6 17 87 18 7 19 3 20 2 21 1 22 19 23 20 24
REMARK SMILES IDX 21 25 22 26 23 27 24 28 25 29 26 30 84 31 27 32 83 33 28 34
REMARK SMILES IDX 29 35 30 36 77 37 31 38 82 39 76 40 78 41 32 42 81 43 75 44
REMARK SMILES IDX 74 45 33 47 63 48 44 49 62 50 45 51 48 52 61 53 79 54 46 55
REMARK SMILES IDX 47 56 60 58 80 59 49 60 34 61 35 62 43 63 36 64 42 65 37 66
REMARK SMILES IDX 38 67 39 68 40 69 41 70 64 71 65 72 73 73 66 74 72 75 67 76
REMARK SMILES IDX 68 77 69 78 70 79 71 80 50 81 51 82 59 83 52 84 58 85 53 86
REMARK SMILES IDX 54 87 55 88 56 89 57 90
REMARK H PARENT 9 12 78 46 48 57
REMARK Flexibility Score: inf
ROOT
ATOM      1  C   UNL A   1      32.997  28.601  26.658  1.00  0.00     0.202 C 
ENDROOT
BRANCH   1   2
ATOM      2  C   UNL A   1      33.674  27.598  25.709  1.00  0.00     0.261 C 
BRANCH   2   3
ATOM      3  O   UNL A   1      32.819  26.553  25.230  1.00  0.00    -0.463 OA
BRANCH   3   4
ATOM      4  C   UNL A   1      33.512  25.417  24.938  1.00  0.00     0.312 C 
ATOM      5  O   UNL A   1      34.392  24.963  25.656  1.00  0.00    -0.252 OA
BRANCH   4   6
ATOM      6  C   UNL A   1      32.933  24.705  23.729  1.00  0.00     0.124 C 
ATOM      7  C   UNL A   1      31.011  25.886  22.770  1.00  0.00     0.104 C 
ATOM      8  C   UNL A   1      30.593  24.676  23.530  1.00  0.00    -0.006 C 
ATOM      9  C   UNL A   1      32.533  25.738  22.658  1.00  0.00     0.048 C 
ATOM     10  C   UNL A   1      31.641  24.011  24.033  1.00  0.00    -0.014 C 
BRANCH   7  11
ATOM     11  N   UNL A   1      30.566  27.138  23.346  1.00  0.00    -0.363 N 
ATOM     12  H   UNL A   1      31.227  27.615  23.898  1.00  0.00     0.162 HD
BRANCH  11  13
ATOM     13  C   UNL A   1      29.331  27.753  23.221  1.00  0.00     0.136 A 
ATOM     14  C   UNL A   1      27.987  29.588  22.624  1.00  0.00     0.221 A 
ATOM     15  N   UNL A   1      26.880  29.023  23.120  1.00  0.00    -0.201 NA
ATOM     16  C   UNL A   1      29.254  29.027  22.664  1.00  0.00     0.054 A 
ATOM     17  C   UNL A   1      27.075  27.814  23.647  1.00  0.00     0.228 A 
ATOM     18  C   UNL A   1      30.439  29.726  22.076  1.00  0.00     0.054 C 
ATOM     19  N   UNL A   1      28.232  27.130  23.674  1.00  0.00    -0.219 NA
BRANCH  14  20
ATOM     20  O   UNL A   1      27.836  30.847  22.085  1.00  0.00    -0.478 OA
BRANCH  20  21
ATOM     21  C   UNL A   1      27.806  31.836  23.116  1.00  0.00     0.228 C 
ATOM     22  C   UNL A   1      28.749  32.969  22.739  1.00  0.00     0.049 C 
ENDBRANCH  20  21
ENDBRANCH  14  20
ENDBRANCH  11  13
ENDBRANCH   7  11
ENDBRANCH   4   6
ENDBRANCH   3   4
ENDBRANCH   2   3
ENDBRANCH   1   2
BRANCH   1  23
ATOM     23  O   UNL A   1      33.496  29.931  26.784  1.00  0.00    -0.374 OA
BRANCH  23  24
ATOM     24  C   UNL A   1      34.641  30.156  27.606  1.00  0.00     0.202 C 
BRANCH  24  25
ATOM     25  C   UNL A   1      34.955  31.598  28.002  1.00  0.00     0.261 C 
BRANCH  25  26
ATOM     26  O   UNL A   1      36.369  31.810  28.115  1.00  0.00    -0.460 OA
BRANCH  26  27
ATOM     27  C   UNL A   1      36.891  31.414  29.302  1.00  0.00     0.338 C 
ATOM     28  O   UNL A   1      36.402  31.559  30.407  1.00  0.00    -0.246 OA
BRANCH  27  29
ATOM     29  C   UNL A   1      38.073  30.565  29.054  1.00  0.00     0.060 A 
ATOM     30  C   UNL A   1      39.003  30.440  30.096  1.00  0.00     0.016 A 
ATOM     31  C   UNL A   1      38.283  29.931  27.829  1.00  0.00     0.016 A 
ATOM     32  C   UNL A   1      40.187  29.745  29.892  1.00  0.00     0.010 A 
ATOM     33  C   UNL A   1      39.481  29.246  27.619  1.00  0.00     0.010 A 
ATOM     34  C   UNL A   1      40.455  29.195  28.633  1.00  0.00    -0.014 A 
BRANCH  34  35
ATOM     35  C   UNL A   1      41.828  28.748  28.319  1.00  0.00     0.031 A 
ATOM     36  C   UNL A   1      42.926  29.777  28.309  1.00  0.00     0.074 A 
ATOM     37  C   UNL A   1      42.096  27.451  28.089  1.00  0.00     0.049 A 
ATOM     38  N   UNL A   1      44.190  29.634  28.012  1.00  0.00    -0.248 NA
ATOM     39  C   UNL A   1      42.546  31.152  28.679  1.00  0.00     0.031 C 
ATOM     40  C   UNL A   1      41.118  26.363  28.132  1.00  0.00     0.029 A 
ATOM     41  N   UNL A   1      43.276  26.831  27.769  1.00  0.00    -0.354 N 
ATOM     42  C   UNL A   1      44.753  30.898  28.149  1.00  0.00     0.074 A 
ATOM     43  C   UNL A   1      43.691  31.801  28.524  1.00  0.00     0.031 C 
ATOM     44  C   UNL A   1      41.739  25.209  27.834  1.00  0.00     0.029 A 
ATOM     45  C   UNL A   1      43.145  25.483  27.543  1.00  0.00     0.049 A 
ATOM     46  H   UNL A   1      44.135  27.308  27.705  1.00  0.00     0.167 HD
ATOM     47  C   UNL A   1      46.045  31.267  27.986  1.00  0.00     0.031 A 
ATOM     48  C   UNL A   1      44.052  24.581  27.122  1.00  0.00     0.031 A 
ATOM     49  C   UNL A   1      47.093  30.359  27.604  1.00  0.00     0.049 A 
ATOM     50  C   UNL A   1      45.467  25.035  26.865  1.00  0.00     0.074 A 
ATOM     51  C   UNL A   1      48.436  30.629  27.415  1.00  0.00     0.029 A 
ATOM     52  N   UNL A   1      46.916  29.008  27.353  1.00  0.00    -0.354 N 
ATOM     53  N   UNL A   1      45.990  26.231  27.011  1.00  0.00    -0.248 NA
ATOM     54  C   UNL A   1      46.415  24.017  26.394  1.00  0.00     0.031 C 
ATOM     55  C   UNL A   1      49.060  29.452  26.989  1.00  0.00     0.029 A 
ATOM     56  C   UNL A   1      48.120  28.434  26.984  1.00  0.00     0.049 A 
ATOM     57  H   UNL A   1      46.059  28.527  27.425  1.00  0.00     0.167 HD
ATOM     58  C   UNL A   1      47.337  26.098  26.683  1.00  0.00     0.074 A 
ATOM     59  C   UNL A   1      47.548  24.705  26.348  1.00  0.00     0.031 C 
ATOM     60  C   UNL A   1      48.311  27.042  26.662  1.00  0.00     0.031 A 
BRANCH  47  61
ATOM     61  C   UNL A   1      46.393  32.718  28.188  1.00  0.00    -0.014 A 
ATOM     62  C   UNL A   1      46.370  33.631  27.118  1.00  0.00     0.010 A 
ATOM     63  C   UNL A   1      46.688  33.187  29.481  1.00  0.00     0.010 A 
ATOM     64  C   UNL A   1      46.656  34.981  27.334  1.00  0.00     0.020 A 
ATOM     65  C   UNL A   1      46.946  34.543  29.707  1.00  0.00     0.020 A 
ATOM     66  C   UNL A   1      46.938  35.430  28.628  1.00  0.00     0.054 A 
BRANCH  66  67
ATOM     67  S   UNL A   1      47.252  37.197  28.886  1.00  0.00     0.124 S 
ATOM     68  O   UNL A   1      48.195  37.177  30.002  1.00  0.00    -0.237 OA
ATOM     69  O   UNL A   1      47.808  37.613  27.601  1.00  0.00    -0.237 OA
ATOM     70  O   UNL A   1      45.933  37.744  29.198  1.00  0.00    -0.744 OA
ENDBRANCH  66  67
ENDBRANCH  47  61
BRANCH  48  71
ATOM     71  C   UNL A   1      43.649  23.168  26.879  1.00  0.00    -0.014 A 
ATOM     72  C   UNL A   1      43.771  22.590  25.603  1.00  0.00     0.010 A 
ATOM     73  C   UNL A   1      43.112  22.398  27.928  1.00  0.00     0.010 A 
ATOM     74  C   UNL A   1      43.333  21.282  25.374  1.00  0.00     0.020 A 
ATOM     75  C   UNL A   1      42.705  21.079  27.710  1.00  0.00     0.020 A 
ATOM     76  C   UNL A   1      42.802  20.535  26.429  1.00  0.00     0.054 A 
BRANCH  76  77
ATOM     77  S   UNL A   1      42.260  18.834  26.112  1.00  0.00     0.124 S 
ATOM     78  O   UNL A   1      40.871  19.028  25.709  1.00  0.00    -0.237 OA
ATOM     79  O   UNL A   1      43.172  18.404  25.055  1.00  0.00    -0.237 OA
ATOM     80  O   UNL A   1      42.452  18.168  27.398  1.00  0.00    -0.744 OA
ENDBRANCH  76  77
ENDBRANCH  48  71
BRANCH  60  81
ATOM     81  C   UNL A   1      49.705  26.594  26.311  1.00  0.00    -0.014 A 
ATOM     82  C   UNL A   1      50.222  26.754  25.013  1.00  0.00     0.010 A 
ATOM     83  C   UNL A   1      50.530  26.056  27.317  1.00  0.00     0.010 A 
ATOM     84  C   UNL A   1      51.529  26.351  24.720  1.00  0.00     0.020 A 
ATOM     85  C   UNL A   1      51.847  25.684  27.036  1.00  0.00     0.020 A 
ATOM     86  C   UNL A   1      52.333  25.820  25.734  1.00  0.00     0.054 A 
BRANCH  86  87
ATOM     87  S   UNL A   1      54.036  25.345  25.336  1.00  0.00     0.124 S 
ATOM     88  O   UNL A   1      54.795  26.021  26.386  1.00  0.00    -0.237 OA
ATOM     89  O   UNL A   1      53.992  23.888  25.431  1.00  0.00    -0.237 OA
ATOM     90  O   UNL A   1      54.237  25.869  23.987  1.00  0.00    -0.744 OA
ENDBRANCH  86  87
ENDBRANCH  60  81
ENDBRANCH  34  35
ENDBRANCH  27  29
ENDBRANCH  26  27
ENDBRANCH  25  26
ENDBRANCH  24  25
ENDBRANCH  23  24
ENDBRANCH   1  23
TORSDOF 21
ENDMDL
MODEL 2
REMARK VINA RESULT:      -9.7      2.076      8.209
REMARK SMILES CCOc1ncnc(N[C@@H]2C=C[C@H](C(=O)OCCOCCOC(=O)c3ccc(-c4c5nc(c(-c6ccc(S(=O)(=O)[O-])cc6)c6ccc([nH]6)c(-c6ccc(S(=O)(=O)[O-])cc6)c6nc(c(-c7ccc(S(=O)(=O)[O-])cc7)c7ccc4[nH]7)C=C6)C=C5)cc3)C2)c1C
REMARK SMILES IDX 18 1 17 2 16 3 14 4 15 5 13 6 10 7 11 8 85 9 12 10 9 11 8 13
REMARK SMILES IDX 4 14 5 15 86 16 6 17 87 18 7 19 3 20 2 21 1 22 19 23 20 24
REMARK SMILES IDX 21 25 22 26 23 27 24 28 25 29 26 30 84 31 27 32 83 33 28 34
REMARK SMILES IDX 29 35 30 36 77 37 31 38 82 39 76 40 78 41 32 42 81 43 75 44
REMARK SMILES IDX 74 45 33 47 63 48 44 49 62 50 45 51 48 52 61 53 79 54 46 55
REMARK SMILES IDX 47 56 60 58 80 59 49 60 34 61 35 62 43 63 36 64 42 65 37 66
REMARK SMILES IDX 38 67 39 68 40 69 41 70 64 71 65 72 73 73 66 74 72 75 67 76
REMARK SMILES IDX 68 77 69 78 70 79 71 80 50 81 51 82 59 83 52 84 58 85 53 86
REMARK SMILES IDX 54 87 55 88 56 89 57 90
REMARK H PARENT 9 12 78 46 48 57
REMARK Flexibility Score: inf
ROOT
ATOM      1  C   UNL A   1      36.391  20.275  25.043  1.00  0.00     0.202 C 
ENDROOT
BRANCH   1   2
ATOM      2  C   UNL A   1      35.305  21.354  24.897  1.00  0.00     0.261 C 
BRANCH   2   3
ATOM      3  O   UNL A   1      35.233  21.963  23.602  1.00  0.00    -0.463 OA
BRANCH   3   4
ATOM      4  C   UNL A   1      34.379  23.024  23.580  1.00  0.00     0.312 C 
ATOM      5  O   UNL A   1      34.002  23.562  22.549  1.00  0.00    -0.252 OA
BRANCH   4   6
ATOM      6  C   UNL A   1      33.826  23.323  24.961  1.00  0.00     0.124 C 
ATOM      7  C   UNL A   1      32.064  25.027  24.922  1.00  0.00     0.104 C 
ATOM      8  C   UNL A   1      33.345  25.568  25.452  1.00  0.00    -0.006 C 
ATOM      9  C   UNL A   1      32.299  23.512  24.881  1.00  0.00     0.048 C 
ATOM     10  C   UNL A   1      34.304  24.635  25.501  1.00  0.00    -0.014 C 
BRANCH   7  11
ATOM     11  N   UNL A   1      31.642  25.608  23.664  1.00  0.00    -0.363 N 
ATOM     12  H   UNL A   1      31.595  24.988  22.901  1.00  0.00     0.162 HD
BRANCH  11  13
ATOM     13  C   UNL A   1      31.296  26.921  23.396  1.00  0.00     0.136 A 
ATOM     14  C   UNL A   1      29.699  28.633  23.164  1.00  0.00     0.221 A 
ATOM     15  N   UNL A   1      30.604  29.507  22.708  1.00  0.00    -0.201 NA
ATOM     16  C   UNL A   1      29.964  27.314  23.500  1.00  0.00     0.054 A 
ATOM     17  C   UNL A   1      31.842  29.017  22.630  1.00  0.00     0.228 A 
ATOM     18  C   UNL A   1      28.892  26.405  24.012  1.00  0.00     0.054 C 
ATOM     19  N   UNL A   1      32.242  27.788  23.000  1.00  0.00    -0.219 NA
BRANCH  14  20
ATOM     20  O   UNL A   1      28.402  29.090  23.245  1.00  0.00    -0.478 OA
BRANCH  20  21
ATOM     21  C   UNL A   1      28.212  30.220  22.391  1.00  0.00     0.228 C 
ATOM     22  C   UNL A   1      27.469  31.301  23.163  1.00  0.00     0.049 C 
ENDBRANCH  20  21
ENDBRANCH  14  20
ENDBRANCH  11  13
ENDBRANCH   7  11
ENDBRANCH   4   6
ENDBRANCH   3   4
ENDBRANCH   2   3
ENDBRANCH   1   2
BRANCH   1  23
ATOM     23  O   UNL A   1      37.766  20.639  25.145  1.00  0.00    -0.374 OA
BRANCH  23  24
ATOM     24  C   UNL A   1      38.751  19.606  25.099  1.00  0.00     0.202 C 
BRANCH  24  25
ATOM     25  C   UNL A   1      39.928  19.708  26.070  1.00  0.00     0.261 C 
BRANCH  25  26
ATOM     26  O   UNL A   1      41.175  19.482  25.399  1.00  0.00    -0.460 OA
BRANCH  26  27
ATOM     27  C   UNL A   1      42.258  19.550  26.213  1.00  0.00     0.338 C 
ATOM     28  O   UNL A   1      43.050  18.661  26.460  1.00  0.00    -0.246 OA
BRANCH  27  29
ATOM     29  C   UNL A   1      42.480  20.955  26.608  1.00  0.00     0.060 A 
ATOM     30  C   UNL A   1      42.524  21.910  25.583  1.00  0.00     0.016 A 
ATOM     31  C   UNL A   1      42.670  21.325  27.940  1.00  0.00     0.016 A 
ATOM     32  C   UNL A   1      42.836  23.231  25.877  1.00  0.00     0.010 A 
ATOM     33  C   UNL A   1      43.000  22.650  28.232  1.00  0.00     0.010 A 
ATOM     34  C   UNL A   1      43.132  23.592  27.196  1.00  0.00    -0.014 A 
BRANCH  34  35
ATOM     35  C   UNL A   1      43.774  24.898  27.460  1.00  0.00     0.031 A 
ATOM     36  C   UNL A   1      42.909  26.029  27.945  1.00  0.00     0.074 A 
ATOM     37  C   UNL A   1      45.099  25.058  27.309  1.00  0.00     0.049 A 
ATOM     38  N   UNL A   1      43.233  27.270  28.192  1.00  0.00    -0.248 NA
ATOM     39  C   UNL A   1      41.487  25.720  28.180  1.00  0.00     0.031 C 
ATOM     40  C   UNL A   1      46.038  24.012  26.901  1.00  0.00     0.029 A 
ATOM     41  N   UNL A   1      45.884  26.169  27.481  1.00  0.00    -0.354 N 
ATOM     42  C   UNL A   1      42.058  27.891  28.600  1.00  0.00     0.074 A 
ATOM     43  C   UNL A   1      41.007  26.902  28.538  1.00  0.00     0.031 C 
ATOM     44  C   UNL A   1      47.274  24.539  26.840  1.00  0.00     0.029 A 
ATOM     45  C   UNL A   1      47.206  25.961  27.167  1.00  0.00     0.049 A 
ATOM     46  H   UNL A   1      45.534  27.033  27.797  1.00  0.00     0.167 HD
ATOM     47  C   UNL A   1      41.876  29.171  28.999  1.00  0.00     0.031 A 
ATOM     48  C   UNL A   1      48.233  26.830  27.123  1.00  0.00     0.031 A 
ATOM     49  C   UNL A   1      42.929  30.150  29.049  1.00  0.00     0.049 A 
ATOM     50  C   UNL A   1      47.987  28.272  27.492  1.00  0.00     0.074 A 
ATOM     51  C   UNL A   1      42.853  31.474  29.443  1.00  0.00     0.029 A 
ATOM     52  N   UNL A   1      44.247  29.911  28.693  1.00  0.00    -0.354 N 
ATOM     53  N   UNL A   1      46.874  28.844  27.889  1.00  0.00    -0.248 NA
ATOM     54  C   UNL A   1      49.137  29.182  27.414  1.00  0.00     0.031 C 
ATOM     55  C   UNL A   1      44.115  32.052  29.266  1.00  0.00     0.029 A 
ATOM     56  C   UNL A   1      44.991  31.070  28.832  1.00  0.00     0.049 A 
ATOM     57  H   UNL A   1      44.602  29.045  28.386  1.00  0.00     0.167 HD
ATOM     58  C   UNL A   1      47.200  30.173  28.141  1.00  0.00     0.074 A 
ATOM     59  C   UNL A   1      48.615  30.314  27.868  1.00  0.00     0.031 C 
ATOM     60  C   UNL A   1      46.402  31.187  28.562  1.00  0.00     0.031 A 
BRANCH  47  61
ATOM     61  C   UNL A   1      40.485  29.597  29.385  1.00  0.00    -0.014 A 
ATOM     62  C   UNL A   1      40.101  29.699  30.735  1.00  0.00     0.010 A 
ATOM     63  C   UNL A   1      39.565  29.957  28.384  1.00  0.00     0.010 A 
ATOM     64  C   UNL A   1      38.817  30.135  31.074  1.00  0.00     0.020 A 
ATOM     65  C   UNL A   1      38.290  30.422  28.720  1.00  0.00     0.020 A 
ATOM     66  C   UNL A   1      37.921  30.499  30.064  1.00  0.00     0.054 A 
BRANCH  66  67
ATOM     67  S   UNL A   1      36.281  31.113  30.537  1.00  0.00     0.124 S 
ATOM     68  O   UNL A   1      36.563  32.510  30.858  1.00  0.00    -0.237 OA
ATOM     69  O   UNL A   1      35.497  30.893  29.324  1.00  0.00    -0.237 OA
ATOM     70  O   UNL A   1      35.911  30.276  31.676  1.00  0.00    -0.744 OA
ENDBRANCH  66  67
ENDBRANCH  47  61
BRANCH  48  71
ATOM     71  C   UNL A   1      49.581  26.376  26.679  1.00  0.00    -0.014 A 
ATOM     72  C   UNL A   1      49.953  26.434  25.325  1.00  0.00     0.010 A 
ATOM     73  C   UNL A   1      50.493  25.855  27.616  1.00  0.00     0.010 A 
ATOM     74  C   UNL A   1      51.198  25.950  24.911  1.00  0.00     0.020 A 
ATOM     75  C   UNL A   1      51.751  25.402  27.211  1.00  0.00     0.020 A 
ATOM     76  C   UNL A   1      52.089  25.435  25.857  1.00  0.00     0.054 A 
BRANCH  76  77
ATOM     77  S   UNL A   1      53.706  24.831  25.301  1.00  0.00     0.124 S 
ATOM     78  O   UNL A   1      53.422  23.431  25.007  1.00  0.00    -0.237 OA
ATOM     79  O   UNL A   1      53.977  25.679  24.142  1.00  0.00    -0.237 OA
ATOM     80  O   UNL A   1      54.574  25.067  26.452  1.00  0.00    -0.744 OA
ENDBRANCH  76  77
ENDBRANCH  48  71
BRANCH  60  81
ATOM     81  C   UNL A   1      47.048  32.526  28.801  1.00  0.00    -0.014 A 
ATOM     82  C   UNL A   1      47.637  32.847  30.035  1.00  0.00     0.010 A 
ATOM     83  C   UNL A   1      47.113  33.457  27.746  1.00  0.00     0.010 A 
ATOM     84  C   UNL A   1      48.251  34.090  30.222  1.00  0.00     0.020 A 
ATOM     85  C   UNL A   1      47.755  34.685  27.919  1.00  0.00     0.020 A 
ATOM     86  C   UNL A   1      48.307  35.000  29.162  1.00  0.00     0.054 A 
BRANCH  86  87
ATOM     87  S   UNL A   1      49.145  36.587  29.419  1.00  0.00     0.124 S 
ATOM     88  O   UNL A   1      48.397  37.475  28.533  1.00  0.00    -0.237 OA
ATOM     89  O   UNL A   1      48.956  36.820  30.848  1.00  0.00    -0.237 OA
ATOM     90  O   UNL A   1      50.524  36.321  29.014  1.00  0.00    -0.744 OA
ENDBRANCH  86  87
ENDBRANCH  60  81
ENDBRANCH  34  35
ENDBRANCH  27  29
ENDBRANCH  26  27
ENDBRANCH  25  26
ENDBRANCH  24  25
ENDBRANCH  23  24
ENDBRANCH   1  23
TORSDOF 21
ENDMDL
MODEL 3
REMARK VINA RESULT:      -9.0      5.350      6.950
REMARK SMILES CCOc1ncnc(N[C@@H]2C=C[C@H](C(=O)OCCOCCOC(=O)c3ccc(-c4c5nc(c(-c6ccc(S(=O)(=O)[O-])cc6)c6ccc([nH]6)c(-c6ccc(S(=O)(=O)[O-])cc6)c6nc(c(-c7ccc(S(=O)(=O)[O-])cc7)c7ccc4[nH]7)C=C6)C=C5)cc3)C2)c1C
REMARK SMILES IDX 18 1 17 2 16 3 14 4 15 5 13 6 10 7 11 8 85 9 12 10 9 11 8 13
REMARK SMILES IDX 4 14 5 15 86 16 6 17 87 18 7 19 3 20 2 21 1 22 19 23 20 24
REMARK SMILES IDX 21 25 22 26 23 27 24 28 25 29 26 30 84 31 27 32 83 33 28 34
REMARK SMILES IDX 29 35 30 36 77 37 31 38 82 39 76 40 78 41 32 42 81 43 75 44
REMARK SMILES IDX 74 45 33 47 63 48 44 49 62 50 45 51 48 52 61 53 79 54 46 55
REMARK SMILES IDX 47 56 60 58 80 59 49 60 34 61 35 62 43 63 36 64 42 65 37 66
REMARK SMILES IDX 38 67 39 68 40 69 41 70 64 71 65 72 73 73 66 74 72 75 67 76
REMARK SMILES IDX 68 77 69 78 70 79 71 80 50 81 51 82 59 83 52 84 58 85 53 86
REMARK SMILES IDX 54 87 55 88 56 89 57 90
REMARK H PARENT 9 12 78 46 48 57
REMARK Flexibility Score: inf
ROOT
ATOM      1  C   UNL A   1      32.154  29.897  26.926  1.00  0.00     0.202 C 
ENDROOT
BRANCH   1   2
ATOM      2  C   UNL A   1      31.424  30.072  25.584  1.00  0.00     0.261 C 
BRANCH   2   3
ATOM      3  O   UNL A   1      30.952  28.855  24.992  1.00  0.00    -0.463 OA
BRANCH   3   4
ATOM      4  C   UNL A   1      31.677  28.503  23.894  1.00  0.00     0.312 C 
ATOM      5  O   UNL A   1      32.881  28.690  23.795  1.00  0.00    -0.252 OA
BRANCH   4   6
ATOM      6  C   UNL A   1      30.845  27.700  22.911  1.00  0.00     0.124 C 
ATOM      7  C   UNL A   1      30.428  25.410  23.679  1.00  0.00     0.104 C 
ATOM      8  C   UNL A   1      31.448  25.452  22.595  1.00  0.00    -0.006 C 
ATOM      9  C   UNL A   1      29.835  26.824  23.676  1.00  0.00     0.048 C 
ATOM     10  C   UNL A   1      31.660  26.698  22.152  1.00  0.00    -0.014 C 
BRANCH   7  11
ATOM     11  N   UNL A   1      30.936  24.970  24.962  1.00  0.00    -0.363 N 
ATOM     12  H   UNL A   1      30.629  25.485  25.744  1.00  0.00     0.162 HD
BRANCH  11  13
ATOM     13  C   UNL A   1      31.795  23.919  25.234  1.00  0.00     0.136 A 
ATOM     14  C   UNL A   1      33.934  23.070  25.720  1.00  0.00     0.221 A 
ATOM     15  N   UNL A   1      33.525  21.800  25.623  1.00  0.00    -0.201 NA
ATOM     16  C   UNL A   1      33.134  24.183  25.511  1.00  0.00     0.054 A 
ATOM     17  C   UNL A   1      32.230  21.666  25.334  1.00  0.00     0.228 A 
ATOM     18  C   UNL A   1      33.672  25.573  25.650  1.00  0.00     0.054 C 
ATOM     19  N   UNL A   1      31.336  22.658  25.188  1.00  0.00    -0.219 NA
BRANCH  14  20
ATOM     20  O   UNL A   1      35.270  23.258  26.000  1.00  0.00    -0.478 OA
BRANCH  20  21
ATOM     21  C   UNL A   1      36.068  22.285  25.323  1.00  0.00     0.228 C 
ATOM     22  C   UNL A   1      36.749  22.947  24.135  1.00  0.00     0.049 C 
ENDBRANCH  20  21
ENDBRANCH  14  20
ENDBRANCH  11  13
ENDBRANCH   7  11
ENDBRANCH   4   6
ENDBRANCH   3   4
ENDBRANCH   2   3
ENDBRANCH   1   2
BRANCH   1  23
ATOM     23  O   UNL A   1      33.541  29.566  26.959  1.00  0.00    -0.374 OA
BRANCH  23  24
ATOM     24  C   UNL A   1      34.474  30.574  27.348  1.00  0.00     0.202 C 
BRANCH  24  25
ATOM     25  C   UNL A   1      33.917  31.843  27.992  1.00  0.00     0.261 C 
BRANCH  25  26
ATOM     26  O   UNL A   1      34.960  32.620  28.595  1.00  0.00    -0.460 OA
BRANCH  26  27
ATOM     27  C   UNL A   1      35.176  32.331  29.903  1.00  0.00     0.338 C 
ATOM     28  O   UNL A   1      34.393  32.464  30.825  1.00  0.00    -0.246 OA
BRANCH  27  29
ATOM     29  C   UNL A   1      36.457  31.610  30.036  1.00  0.00     0.060 A 
ATOM     30  C   UNL A   1      36.488  30.518  30.914  1.00  0.00     0.016 A 
ATOM     31  C   UNL A   1      37.603  32.008  29.347  1.00  0.00     0.016 A 
ATOM     32  C   UNL A   1      37.687  29.863  31.167  1.00  0.00     0.010 A 
ATOM     33  C   UNL A   1      38.811  31.360  29.614  1.00  0.00     0.010 A 
ATOM     34  C   UNL A   1      38.862  30.321  30.561  1.00  0.00    -0.014 A 
BRANCH  34  35
ATOM     35  C   UNL A   1      40.167  29.848  31.070  1.00  0.00     0.031 A 
ATOM     36  C   UNL A   1      40.703  30.464  32.334  1.00  0.00     0.074 A 
ATOM     37  C   UNL A   1      40.836  28.865  30.444  1.00  0.00     0.049 A 
ATOM     38  N   UNL A   1      41.841  30.251  32.939  1.00  0.00    -0.248 NA
ATOM     39  C   UNL A   1      39.843  31.457  33.001  1.00  0.00     0.031 C 
ATOM     40  C   UNL A   1      40.380  28.158  29.247  1.00  0.00     0.029 A 
ATOM     41  N   UNL A   1      42.050  28.294  30.732  1.00  0.00    -0.354 N 
ATOM     42  C   UNL A   1      41.838  31.087  34.050  1.00  0.00     0.074 A 
ATOM     43  C   UNL A   1      40.602  31.835  34.019  1.00  0.00     0.031 C 
ATOM     44  C   UNL A   1      41.312  27.255  28.894  1.00  0.00     0.029 A 
ATOM     45  C   UNL A   1      42.442  27.349  29.816  1.00  0.00     0.049 A 
ATOM     46  H   UNL A   1      42.588  28.540  31.518  1.00  0.00     0.167 HD
ATOM     47  C   UNL A   1      42.779  31.213  35.014  1.00  0.00     0.031 A 
ATOM     48  C   UNL A   1      43.596  26.660  29.720  1.00  0.00     0.031 A 
ATOM     49  C   UNL A   1      44.010  30.469  35.029  1.00  0.00     0.049 A 
ATOM     50  C   UNL A   1      44.665  26.880  30.760  1.00  0.00     0.074 A 
ATOM     51  C   UNL A   1      45.030  30.516  35.962  1.00  0.00     0.029 A 
ATOM     52  N   UNL A   1      44.387  29.543  34.068  1.00  0.00    -0.354 N 
ATOM     53  N   UNL A   1      44.645  27.664  31.813  1.00  0.00    -0.248 NA
ATOM     54  C   UNL A   1      45.910  26.115  30.604  1.00  0.00     0.031 C 
ATOM     55  C   UNL A   1      46.052  29.664  35.530  1.00  0.00     0.029 A 
ATOM     56  C   UNL A   1      45.636  29.032  34.369  1.00  0.00     0.049 A 
ATOM     57  H   UNL A   1      43.845  29.289  33.286  1.00  0.00     0.167 HD
ATOM     58  C   UNL A   1      45.859  27.459  32.462  1.00  0.00     0.074 A 
ATOM     59  C   UNL A   1      46.580  26.467  31.692  1.00  0.00     0.031 C 
ATOM     60  C   UNL A   1      46.335  28.038  33.593  1.00  0.00     0.031 A 
BRANCH  47  61
ATOM     61  C   UNL A   1      42.531  32.209  36.115  1.00  0.00    -0.014 A 
ATOM     62  C   UNL A   1      41.920  31.826  37.322  1.00  0.00     0.010 A 
ATOM     63  C   UNL A   1      42.971  33.536  35.963  1.00  0.00     0.010 A 
ATOM     64  C   UNL A   1      41.735  32.756  38.348  1.00  0.00     0.020 A 
ATOM     65  C   UNL A   1      42.815  34.463  36.998  1.00  0.00     0.020 A 
ATOM     66  C   UNL A   1      42.189  34.068  38.181  1.00  0.00     0.054 A 
BRANCH  66  67
ATOM     67  S   UNL A   1      41.984  35.240  39.551  1.00  0.00     0.124 S 
ATOM     68  O   UNL A   1      42.042  36.526  38.860  1.00  0.00    -0.237 OA
ATOM     69  O   UNL A   1      40.677  34.874  40.090  1.00  0.00    -0.237 OA
ATOM     70  O   UNL A   1      43.118  34.953  40.427  1.00  0.00    -0.744 OA
ENDBRANCH  66  67
ENDBRANCH  47  61
BRANCH  48  71
ATOM     71  C   UNL A   1      43.820  25.727  28.580  1.00  0.00    -0.014 A 
ATOM     72  C   UNL A   1      44.194  26.210  27.314  1.00  0.00     0.010 A 
ATOM     73  C   UNL A   1      43.631  24.343  28.755  1.00  0.00     0.010 A 
ATOM     74  C   UNL A   1      44.343  25.330  26.237  1.00  0.00     0.020 A 
ATOM     75  C   UNL A   1      43.813  23.458  27.689  1.00  0.00     0.020 A 
ATOM     76  C   UNL A   1      44.151  23.959  26.431  1.00  0.00     0.054 A 
BRANCH  76  77
ATOM     77  S   UNL A   1      44.369  22.836  25.025  1.00  0.00     0.124 S 
ATOM     78  O   UNL A   1      44.941  21.656  25.666  1.00  0.00    -0.237 OA
ATOM     79  O   UNL A   1      43.004  22.686  24.526  1.00  0.00    -0.237 OA
ATOM     80  O   UNL A   1      45.270  23.567  24.139  1.00  0.00    -0.744 OA
ENDBRANCH  76  77
ENDBRANCH  48  71
BRANCH  60  81
ATOM     81  C   UNL A   1      47.678  27.580  34.096  1.00  0.00    -0.014 A 
ATOM     82  C   UNL A   1      48.864  28.234  33.720  1.00  0.00     0.010 A 
ATOM     83  C   UNL A   1      47.745  26.510  35.008  1.00  0.00     0.010 A 
ATOM     84  C   UNL A   1      50.097  27.803  34.220  1.00  0.00     0.020 A 
ATOM     85  C   UNL A   1      48.971  26.098  35.536  1.00  0.00     0.020 A 
ATOM     86  C   UNL A   1      50.142  26.738  35.127  1.00  0.00     0.054 A 
BRANCH  86  87
ATOM     87  S   UNL A   1      51.748  26.228  35.792  1.00  0.00     0.124 S 
ATOM     88  O   UNL A   1      51.374  25.141  36.693  1.00  0.00    -0.237 OA
ATOM     89  O   UNL A   1      52.478  25.826  34.592  1.00  0.00    -0.237 OA
ATOM     90  O   UNL A   1      52.253  27.433  36.446  1.00  0.00    -0.744 OA
ENDBRANCH  86  87
ENDBRANCH  60  81
ENDBRANCH  34  35
ENDBRANCH  27  29
ENDBRANCH  26  27
ENDBRANCH  25  26
ENDBRANCH  24  25
ENDBRANCH  23  24
ENDBRANCH   1  23
TORSDOF 21
ENDMDL
