MODEL 1
REMARK VINA RESULT:     -11.3      0.000      0.000
REMARK SMILES O=C(C[C@H]1C(=O)N[NH+]=C2c3ccc(F)cc3N=CN21)OCCOCCOC(=O)c1ccc(-c2c3nc(c(-c4ccc(S(=O)(=O)[O-])cc4)c4ccc([nH]4)c(-c4ccc(S(=O)(=O)[O-])cc4)c4nc(c(-c5ccc(S(=O)(=O)[O-])cc5)c5ccc2[nH]5)C=C4)C=C3)cc1
REMARK SMILES IDX 24 1 23 2 22 3 21 4 20 5 2 6 1 7 3 8 4 9 5 10 19 11 6 12
REMARK SMILES IDX 7 13 9 14 18 15 8 16 10 18 17 19 11 21 16 22 12 23 15 24
REMARK SMILES IDX 13 25 14 26 25 27 26 28 27 29 28 30 29 31 30 32 88 33 31 34
REMARK SMILES IDX 87 35 32 36 33 37 34 38 81 39 35 40 86 41 80 42 82 43 36 44
REMARK SMILES IDX 85 45 79 46 78 47 37 49 67 50 48 51 66 52 49 53 52 54 65 55
REMARK SMILES IDX 83 56 50 57 51 58 64 60 84 61 53 62 38 63 39 64 47 65 40 66
REMARK SMILES IDX 46 67 41 68 42 69 43 70 44 71 45 72 68 73 69 74 77 75 70 76
REMARK SMILES IDX 76 77 71 78 72 79 73 80 74 81 75 82 54 83 55 84 63 85 56 86
REMARK SMILES IDX 62 87 57 88 58 89 59 90 60 91 61 92
REMARK H PARENT 7 17 8 20 82 48 52 59
REMARK Flexibility Score: inf
ROOT
ATOM      1  C   UNL A   1      36.755  20.934  25.331  1.00  0.00     0.202 C 
ENDROOT
BRANCH   1   2
ATOM      2  O   UNL A   1      35.472  20.783  24.705  1.00  0.00    -0.374 OA
BRANCH   2   3
ATOM      3  C   UNL A   1      34.851  19.514  24.869  1.00  0.00     0.202 C 
BRANCH   3   4
ATOM      4  C   UNL A   1      33.332  19.598  24.732  1.00  0.00     0.261 C 
BRANCH   4   5
ATOM      5  O   UNL A   1      32.924  20.605  23.784  1.00  0.00    -0.463 OA
BRANCH   5   6
ATOM      6  C   UNL A   1      32.251  21.756  23.946  1.00  0.00     0.310 C 
ATOM      7  O   UNL A   1      31.742  22.255  22.936  1.00  0.00    -0.252 OA
BRANCH   6   8
ATOM      8  C   UNL A   1      31.868  22.358  25.289  1.00  0.00     0.183 C 
BRANCH   8   9
ATOM      9  C   UNL A   1      31.102  23.667  25.395  1.00  0.00     0.286 C 
ATOM     10  C   UNL A   1      30.224  23.698  26.659  1.00  0.00     0.300 C 
ATOM     11  N   UNL A   1      31.901  24.915  25.439  1.00  0.00    -0.202 N 
ATOM     12  O   UNL A   1      30.206  22.864  27.557  1.00  0.00    -0.267 OA
ATOM     13  N   UNL A   1      29.429  24.829  26.673  1.00  0.00    -0.193 N 
ATOM     14  C   UNL A   1      31.218  26.019  25.961  1.00  0.00     0.309 C 
ATOM     15  C   UNL A   1      33.151  25.066  24.885  1.00  0.00     0.317 C 
ATOM     16  N   UNL A   1      29.996  26.041  26.414  1.00  0.00    -0.169 N 
ATOM     17  H   UNL A   1      28.466  24.760  26.867  1.00  0.00     0.216 HD
ATOM     18  C   UNL A   1      32.030  27.242  26.152  1.00  0.00     0.092 A 
ATOM     19  N   UNL A   1      33.900  26.121  24.982  1.00  0.00    -0.216 NA
ATOM     20  H   UNL A   1      29.510  26.885  26.560  1.00  0.00     0.340 HD
ATOM     21  C   UNL A   1      31.545  28.261  26.981  1.00  0.00     0.022 A 
ATOM     22  C   UNL A   1      33.377  27.181  25.756  1.00  0.00     0.085 A 
ATOM     23  C   UNL A   1      32.433  29.201  27.483  1.00  0.00     0.040 A 
ATOM     24  C   UNL A   1      34.244  28.158  26.235  1.00  0.00     0.068 A 
ATOM     25  C   UNL A   1      33.774  29.133  27.114  1.00  0.00     0.125 A 
ATOM     26  F   UNL A   1      34.639  30.000  27.657  1.00  0.00    -0.207 F 
ENDBRANCH   8   9
ENDBRANCH   6   8
ENDBRANCH   5   6
ENDBRANCH   4   5
ENDBRANCH   3   4
ENDBRANCH   2   3
ENDBRANCH   1   2
BRANCH   1  27
ATOM     27  C   UNL A   1      37.539  22.091  24.712  1.00  0.00     0.261 C 
BRANCH  27  28
ATOM     28  O   UNL A   1      37.917  22.998  25.753  1.00  0.00    -0.460 OA
BRANCH  28  29
ATOM     29  C   UNL A   1      39.172  22.859  26.240  1.00  0.00     0.338 C 
ATOM     30  O   UNL A   1      39.950  21.942  26.029  1.00  0.00    -0.246 OA
BRANCH  29  31
ATOM     31  C   UNL A   1      39.535  24.143  26.879  1.00  0.00     0.060 A 
ATOM     32  C   UNL A   1      39.156  24.422  28.197  1.00  0.00     0.016 A 
ATOM     33  C   UNL A   1      40.183  25.119  26.108  1.00  0.00     0.016 A 
ATOM     34  C   UNL A   1      39.422  25.674  28.740  1.00  0.00     0.010 A 
ATOM     35  C   UNL A   1      40.469  26.367  26.661  1.00  0.00     0.010 A 
ATOM     36  C   UNL A   1      40.104  26.643  27.985  1.00  0.00    -0.014 A 
BRANCH  36  37
ATOM     37  C   UNL A   1      40.591  27.860  28.669  1.00  0.00     0.031 A 
ATOM     38  C   UNL A   1      42.010  28.001  29.117  1.00  0.00     0.074 A 
ATOM     39  C   UNL A   1      39.704  28.858  28.844  1.00  0.00     0.049 A 
ATOM     40  N   UNL A   1      42.599  29.051  29.624  1.00  0.00    -0.248 NA
ATOM     41  C   UNL A   1      42.881  26.823  28.987  1.00  0.00     0.031 C 
ATOM     42  C   UNL A   1      38.295  28.797  28.442  1.00  0.00     0.029 A 
ATOM     43  N   UNL A   1      39.847  30.116  29.365  1.00  0.00    -0.354 N 
ATOM     44  C   UNL A   1      43.914  28.673  29.858  1.00  0.00     0.074 A 
ATOM     45  C   UNL A   1      44.026  27.279  29.481  1.00  0.00     0.031 C 
ATOM     46  C   UNL A   1      37.719  29.981  28.684  1.00  0.00     0.029 A 
ATOM     47  C   UNL A   1      38.697  30.868  29.303  1.00  0.00     0.049 A 
ATOM     48  H   UNL A   1      40.691  30.450  29.747  1.00  0.00     0.167 HD
ATOM     49  C   UNL A   1      44.929  29.435  30.332  1.00  0.00     0.031 A 
ATOM     50  C   UNL A   1      38.454  32.134  29.693  1.00  0.00     0.031 A 
ATOM     51  C   UNL A   1      44.779  30.819  30.710  1.00  0.00     0.049 A 
ATOM     52  C   UNL A   1      39.589  32.941  30.252  1.00  0.00     0.074 A 
ATOM     53  C   UNL A   1      45.754  31.688  31.169  1.00  0.00     0.029 A 
ATOM     54  N   UNL A   1      43.589  31.533  30.686  1.00  0.00    -0.354 N 
ATOM     55  N   UNL A   1      40.846  32.593  30.399  1.00  0.00    -0.248 NA
ATOM     56  C   UNL A   1      39.286  34.311  30.684  1.00  0.00     0.031 C 
ATOM     57  C   UNL A   1      45.138  32.896  31.503  1.00  0.00     0.029 A 
ATOM     58  C   UNL A   1      43.797  32.818  31.163  1.00  0.00     0.049 A 
ATOM     59  H   UNL A   1      42.724  31.180  30.375  1.00  0.00     0.167 HD
ATOM     60  C   UNL A   1      41.488  33.705  30.926  1.00  0.00     0.074 A 
ATOM     61  C   UNL A   1      40.487  34.746  31.048  1.00  0.00     0.031 C 
ATOM     62  C   UNL A   1      42.789  33.846  31.282  1.00  0.00     0.031 A 
BRANCH  49  63
ATOM     63  C   UNL A   1      46.299  28.817  30.465  1.00  0.00    -0.014 A 
ATOM     64  C   UNL A   1      47.164  28.789  29.354  1.00  0.00     0.010 A 
ATOM     65  C   UNL A   1      46.674  28.134  31.635  1.00  0.00     0.010 A 
ATOM     66  C   UNL A   1      48.353  28.054  29.395  1.00  0.00     0.020 A 
ATOM     67  C   UNL A   1      47.878  27.424  31.692  1.00  0.00     0.020 A 
ATOM     68  C   UNL A   1      48.696  27.366  30.561  1.00  0.00     0.054 A 
BRANCH  68  69
ATOM     69  S   UNL A   1      50.216  26.375  30.576  1.00  0.00     0.124 S 
ATOM     70  O   UNL A   1      49.717  25.047  30.915  1.00  0.00    -0.237 OA
ATOM     71  O   UNL A   1      50.712  26.537  29.211  1.00  0.00    -0.237 OA
ATOM     72  O   UNL A   1      51.032  27.017  31.605  1.00  0.00    -0.744 OA
ENDBRANCH  68  69
ENDBRANCH  49  63
BRANCH  50  73
ATOM     73  C   UNL A   1      37.086  32.696  29.512  1.00  0.00    -0.014 A 
ATOM     74  C   UNL A   1      36.745  33.361  28.318  1.00  0.00     0.010 A 
ATOM     75  C   UNL A   1      36.155  32.668  30.564  1.00  0.00     0.010 A 
ATOM     76  C   UNL A   1      35.533  34.045  28.205  1.00  0.00     0.020 A 
ATOM     77  C   UNL A   1      34.922  33.319  30.440  1.00  0.00     0.020 A 
ATOM     78  C   UNL A   1      34.635  34.030  29.274  1.00  0.00     0.054 A 
BRANCH  78  79
ATOM     79  S   UNL A   1      33.097  34.981  29.125  1.00  0.00     0.124 S 
ATOM     80  O   UNL A   1      32.357  34.199  28.139  1.00  0.00    -0.237 OA
ATOM     81  O   UNL A   1      32.568  34.943  30.486  1.00  0.00    -0.237 OA
ATOM     82  O   UNL A   1      33.549  36.294  28.671  1.00  0.00    -0.744 OA
ENDBRANCH  78  79
ENDBRANCH  50  73
BRANCH  62  83
ATOM     83  C   UNL A   1      43.230  35.171  31.851  1.00  0.00    -0.014 A 
ATOM     84  C   UNL A   1      43.025  35.448  33.216  1.00  0.00     0.010 A 
ATOM     85  C   UNL A   1      43.708  36.192  31.011  1.00  0.00     0.010 A 
ATOM     86  C   UNL A   1      43.233  36.734  33.718  1.00  0.00     0.020 A 
ATOM     87  C   UNL A   1      43.954  37.470  31.518  1.00  0.00     0.020 A 
ATOM     88  C   UNL A   1      43.684  37.741  32.862  1.00  0.00     0.054 A 
BRANCH  88  89
ATOM     89  S   UNL A   1      43.886  39.419  33.519  1.00  0.00     0.124 S 
ATOM     90  O   UNL A   1      42.735  40.113  32.949  1.00  0.00    -0.237 OA
ATOM     91  O   UNL A   1      43.841  39.203  34.963  1.00  0.00    -0.237 OA
ATOM     92  O   UNL A   1      45.187  39.837  33.000  1.00  0.00    -0.744 OA
ENDBRANCH  88  89
ENDBRANCH  62  83
ENDBRANCH  36  37
ENDBRANCH  29  31
ENDBRANCH  28  29
ENDBRANCH  27  28
ENDBRANCH   1  27
TORSDOF 18
ENDMDL
MODEL 2
REMARK VINA RESULT:     -11.0      2.083      8.423
REMARK SMILES O=C(C[C@H]1C(=O)N[NH+]=C2c3ccc(F)cc3N=CN21)OCCOCCOC(=O)c1ccc(-c2c3nc(c(-c4ccc(S(=O)(=O)[O-])cc4)c4ccc([nH]4)c(-c4ccc(S(=O)(=O)[O-])cc4)c4nc(c(-c5ccc(S(=O)(=O)[O-])cc5)c5ccc2[nH]5)C=C4)C=C3)cc1
REMARK SMILES IDX 24 1 23 2 22 3 21 4 20 5 2 6 1 7 3 8 4 9 5 10 19 11 6 12
REMARK SMILES IDX 7 13 9 14 18 15 8 16 10 18 17 19 11 21 16 22 12 23 15 24
REMARK SMILES IDX 13 25 14 26 25 27 26 28 27 29 28 30 29 31 30 32 88 33 31 34
REMARK SMILES IDX 87 35 32 36 33 37 34 38 81 39 35 40 86 41 80 42 82 43 36 44
REMARK SMILES IDX 85 45 79 46 78 47 37 49 67 50 48 51 66 52 49 53 52 54 65 55
REMARK SMILES IDX 83 56 50 57 51 58 64 60 84 61 53 62 38 63 39 64 47 65 40 66
REMARK SMILES IDX 46 67 41 68 42 69 43 70 44 71 45 72 68 73 69 74 77 75 70 76
REMARK SMILES IDX 76 77 71 78 72 79 73 80 74 81 75 82 54 83 55 84 63 85 56 86
REMARK SMILES IDX 62 87 57 88 58 89 59 90 60 91 61 92
REMARK H PARENT 7 17 8 20 82 48 52 59
REMARK Flexibility Score: inf
ROOT
ATOM      1  C   UNL A   1      36.538  20.849  25.047  1.00  0.00     0.202 C 
ENDROOT
BRANCH   1   2
ATOM      2  O   UNL A   1      35.286  21.544  25.157  1.00  0.00    -0.374 OA
BRANCH   2   3
ATOM      3  C   UNL A   1      34.697  21.550  26.452  1.00  0.00     0.202 C 
BRANCH   3   4
ATOM      4  C   UNL A   1      34.525  22.968  26.995  1.00  0.00     0.261 C 
BRANCH   4   5
ATOM      5  O   UNL A   1      33.741  23.798  26.115  1.00  0.00    -0.463 OA
BRANCH   5   6
ATOM      6  C   UNL A   1      34.074  24.871  25.376  1.00  0.00     0.310 C 
ATOM      7  O   UNL A   1      35.122  24.800  24.726  1.00  0.00    -0.252 OA
BRANCH   6   8
ATOM      8  C   UNL A   1      33.158  26.050  25.095  1.00  0.00     0.183 C 
BRANCH   8   9
ATOM      9  C   UNL A   1      31.741  25.863  24.575  1.00  0.00     0.286 C 
ATOM     10  C   UNL A   1      30.750  25.629  25.731  1.00  0.00     0.300 C 
ATOM     11  N   UNL A   1      31.162  26.970  23.777  1.00  0.00    -0.202 N 
ATOM     12  O   UNL A   1      30.995  25.704  26.929  1.00  0.00    -0.267 OA
ATOM     13  N   UNL A   1      29.494  25.321  25.241  1.00  0.00    -0.193 N 
ATOM     14  C   UNL A   1      29.765  26.954  23.695  1.00  0.00     0.309 C 
ATOM     15  C   UNL A   1      31.893  27.866  23.033  1.00  0.00     0.317 C 
ATOM     16  N   UNL A   1      28.959  26.096  24.256  1.00  0.00    -0.169 N 
ATOM     17  H   UNL A   1      28.994  24.553  25.599  1.00  0.00     0.216 HD
ATOM     18  C   UNL A   1      29.149  28.123  23.028  1.00  0.00     0.092 A 
ATOM     19  N   UNL A   1      31.415  28.888  22.394  1.00  0.00    -0.216 NA
ATOM     20  H   UNL A   1      28.017  26.013  23.983  1.00  0.00     0.340 HD
ATOM     21  C   UNL A   1      27.783  28.371  23.210  1.00  0.00     0.022 A 
ATOM     22  C   UNL A   1      30.023  29.096  22.515  1.00  0.00     0.085 A 
ATOM     23  C   UNL A   1      27.288  29.639  22.942  1.00  0.00     0.040 A 
ATOM     24  C   UNL A   1      29.498  30.348  22.210  1.00  0.00     0.068 A 
ATOM     25  C   UNL A   1      28.151  30.616  22.455  1.00  0.00     0.125 A 
ATOM     26  F   UNL A   1      27.683  31.856  22.264  1.00  0.00    -0.207 F 
ENDBRANCH   8   9
ENDBRANCH   6   8
ENDBRANCH   5   6
ENDBRANCH   4   5
ENDBRANCH   3   4
ENDBRANCH   2   3
ENDBRANCH   1   2
BRANCH   1  27
ATOM     27  C   UNL A   1      37.669  21.806  24.671  1.00  0.00     0.261 C 
BRANCH  27  28
ATOM     28  O   UNL A   1      37.906  22.692  25.770  1.00  0.00    -0.460 OA
BRANCH  28  29
ATOM     29  C   UNL A   1      39.109  22.579  26.378  1.00  0.00     0.338 C 
ATOM     30  O   UNL A   1      39.875  21.629  26.335  1.00  0.00    -0.246 OA
BRANCH  29  31
ATOM     31  C   UNL A   1      39.455  23.916  26.910  1.00  0.00     0.060 A 
ATOM     32  C   UNL A   1      39.067  24.300  28.199  1.00  0.00     0.016 A 
ATOM     33  C   UNL A   1      40.094  24.833  26.062  1.00  0.00     0.016 A 
ATOM     34  C   UNL A   1      39.316  25.595  28.636  1.00  0.00     0.010 A 
ATOM     35  C   UNL A   1      40.362  26.126  26.511  1.00  0.00     0.010 A 
ATOM     36  C   UNL A   1      39.989  26.507  27.806  1.00  0.00    -0.014 A 
BRANCH  36  37
ATOM     37  C   UNL A   1      40.458  27.782  28.388  1.00  0.00     0.031 A 
ATOM     38  C   UNL A   1      39.542  28.947  28.578  1.00  0.00     0.074 A 
ATOM     39  C   UNL A   1      41.748  27.841  28.771  1.00  0.00     0.049 A 
ATOM     40  N   UNL A   1      39.788  30.082  29.177  1.00  0.00    -0.248 NA
ATOM     41  C   UNL A   1      38.181  28.836  28.031  1.00  0.00     0.031 C 
ATOM     42  C   UNL A   1      42.712  26.748  28.612  1.00  0.00     0.029 A 
ATOM     43  N   UNL A   1      42.463  28.827  29.396  1.00  0.00    -0.354 N 
ATOM     44  C   UNL A   1      38.613  30.817  29.098  1.00  0.00     0.074 A 
ATOM     45  C   UNL A   1      37.665  30.017  28.351  1.00  0.00     0.031 C 
ATOM     46  C   UNL A   1      43.875  27.105  29.170  1.00  0.00     0.029 A 
ATOM     47  C   UNL A   1      43.758  28.466  29.681  1.00  0.00     0.049 A 
ATOM     48  H   UNL A   1      42.086  29.710  29.619  1.00  0.00     0.167 HD
ATOM     49  C   UNL A   1      38.358  32.040  29.620  1.00  0.00     0.031 A 
ATOM     50  C   UNL A   1      44.746  29.149  30.293  1.00  0.00     0.031 A 
ATOM     51  C   UNL A   1      39.331  32.817  30.350  1.00  0.00     0.049 A 
ATOM     52  C   UNL A   1      44.444  30.519  30.825  1.00  0.00     0.074 A 
ATOM     53  C   UNL A   1      39.161  34.053  30.948  1.00  0.00     0.029 A 
ATOM     54  N   UNL A   1      40.649  32.444  30.573  1.00  0.00    -0.354 N 
ATOM     55  N   UNL A   1      43.306  31.172  30.808  1.00  0.00    -0.248 NA
ATOM     56  C   UNL A   1      45.547  31.243  31.470  1.00  0.00     0.031 C 
ATOM     57  C   UNL A   1      40.395  34.464  31.455  1.00  0.00     0.029 A 
ATOM     58  C   UNL A   1      41.315  33.446  31.262  1.00  0.00     0.049 A 
ATOM     59  H   UNL A   1      41.053  31.594  30.286  1.00  0.00     0.167 HD
ATOM     60  C   UNL A   1      43.549  32.377  31.453  1.00  0.00     0.074 A 
ATOM     61  C   UNL A   1      44.937  32.352  31.872  1.00  0.00     0.031 C 
ATOM     62  C   UNL A   1      42.700  33.411  31.672  1.00  0.00     0.031 A 
BRANCH  49  63
ATOM     63  C   UNL A   1      36.981  32.631  29.445  1.00  0.00    -0.014 A 
ATOM     64  C   UNL A   1      36.660  33.323  28.261  1.00  0.00     0.010 A 
ATOM     65  C   UNL A   1      36.056  32.635  30.505  1.00  0.00     0.010 A 
ATOM     66  C   UNL A   1      35.466  34.042  28.156  1.00  0.00     0.020 A 
ATOM     67  C   UNL A   1      34.846  33.328  30.392  1.00  0.00     0.020 A 
ATOM     68  C   UNL A   1      34.572  34.050  29.229  1.00  0.00     0.054 A 
BRANCH  68  69
ATOM     69  S   UNL A   1      33.053  35.033  29.092  1.00  0.00     0.124 S 
ATOM     70  O   UNL A   1      33.565  36.341  28.697  1.00  0.00    -0.237 OA
ATOM     71  O   UNL A   1      32.300  34.311  28.069  1.00  0.00    -0.237 OA
ATOM     72  O   UNL A   1      32.481  34.966  30.436  1.00  0.00    -0.744 OA
ENDBRANCH  68  69
ENDBRANCH  49  63
BRANCH  50  73
ATOM     73  C   UNL A   1      46.077  28.501  30.458  1.00  0.00    -0.014 A 
ATOM     74  C   UNL A   1      47.068  28.655  29.469  1.00  0.00     0.010 A 
ATOM     75  C   UNL A   1      46.326  27.642  31.542  1.00  0.00     0.010 A 
ATOM     76  C   UNL A   1      48.249  27.911  29.522  1.00  0.00     0.020 A 
ATOM     77  C   UNL A   1      47.525  26.925  31.620  1.00  0.00     0.020 A 
ATOM     78  C   UNL A   1      48.463  27.040  30.592  1.00  0.00     0.054 A 
BRANCH  78  79
ATOM     79  S   UNL A   1      49.976  26.039  30.602  1.00  0.00     0.124 S 
ATOM     80  O   UNL A   1      49.718  25.120  31.707  1.00  0.00    -0.237 OA
ATOM     81  O   UNL A   1      49.969  25.440  29.270  1.00  0.00    -0.237 OA
ATOM     82  O   UNL A   1      51.033  27.018  30.838  1.00  0.00    -0.744 OA
ENDBRANCH  78  79
ENDBRANCH  50  73
BRANCH  62  83
ATOM     83  C   UNL A   1      43.229  34.625  32.392  1.00  0.00    -0.014 A 
ATOM     84  C   UNL A   1      43.029  34.758  33.779  1.00  0.00     0.010 A 
ATOM     85  C   UNL A   1      43.788  35.699  31.676  1.00  0.00     0.010 A 
ATOM     86  C   UNL A   1      43.323  35.959  34.427  1.00  0.00     0.020 A 
ATOM     87  C   UNL A   1      44.120  36.889  32.328  1.00  0.00     0.020 A 
ATOM     88  C   UNL A   1      43.854  37.022  33.693  1.00  0.00     0.054 A 
BRANCH  88  89
ATOM     89  S   UNL A   1      44.170  38.595  34.541  1.00  0.00     0.124 S 
ATOM     90  O   UNL A   1      45.502  38.943  34.055  1.00  0.00    -0.237 OA
ATOM     91  O   UNL A   1      43.081  39.441  34.058  1.00  0.00    -0.237 OA
ATOM     92  O   UNL A   1      44.093  38.243  35.957  1.00  0.00    -0.744 OA
ENDBRANCH  88  89
ENDBRANCH  62  83
ENDBRANCH  36  37
ENDBRANCH  29  31
ENDBRANCH  28  29
ENDBRANCH  27  28
ENDBRANCH   1  27
TORSDOF 18
ENDMDL
MODEL 3
REMARK VINA RESULT:     -10.8      2.986      9.594
REMARK SMILES O=C(C[C@H]1C(=O)N[NH+]=C2c3ccc(F)cc3N=CN21)OCCOCCOC(=O)c1ccc(-c2c3nc(c(-c4ccc(S(=O)(=O)[O-])cc4)c4ccc([nH]4)c(-c4ccc(S(=O)(=O)[O-])cc4)c4nc(c(-c5ccc(S(=O)(=O)[O-])cc5)c5ccc2[nH]5)C=C4)C=C3)cc1
REMARK SMILES IDX 24 1 23 2 22 3 21 4 20 5 2 6 1 7 3 8 4 9 5 10 19 11 6 12
REMARK SMILES IDX 7 13 9 14 18 15 8 16 10 18 17 19 11 21 16 22 12 23 15 24
REMARK SMILES IDX 13 25 14 26 25 27 26 28 27 29 28 30 29 31 30 32 88 33 31 34
REMARK SMILES IDX 87 35 32 36 33 37 34 38 81 39 35 40 86 41 80 42 82 43 36 44
REMARK SMILES IDX 85 45 79 46 78 47 37 49 67 50 48 51 66 52 49 53 52 54 65 55
REMARK SMILES IDX 83 56 50 57 51 58 64 60 84 61 53 62 38 63 39 64 47 65 40 66
REMARK SMILES IDX 46 67 41 68 42 69 43 70 44 71 45 72 68 73 69 74 77 75 70 76
REMARK SMILES IDX 76 77 71 78 72 79 73 80 74 81 75 82 54 83 55 84 63 85 56 86
REMARK SMILES IDX 62 87 57 88 58 89 59 90 60 91 61 92
REMARK H PARENT 7 17 8 20 82 48 52 59
REMARK Flexibility Score: inf
ROOT
ATOM      1  C   UNL A   1      31.769  28.522  27.048  1.00  0.00     0.202 C 
ENDROOT
BRANCH   1   2
ATOM      2  O   UNL A   1      31.749  28.138  25.665  1.00  0.00    -0.374 OA
BRANCH   2   3
ATOM      3  C   UNL A   1      32.008  26.765  25.404  1.00  0.00     0.202 C 
BRANCH   3   4
ATOM      4  C   UNL A   1      31.123  25.845  26.244  1.00  0.00     0.261 C 
BRANCH   4   5
ATOM      5  O   UNL A   1      30.634  24.719  25.488  1.00  0.00    -0.463 OA
BRANCH   5   6
ATOM      6  C   UNL A   1      30.539  24.512  24.164  1.00  0.00     0.310 C 
ATOM      7  O   UNL A   1      29.814  25.285  23.527  1.00  0.00    -0.252 OA
BRANCH   6   8
ATOM      8  C   UNL A   1      31.423  23.569  23.365  1.00  0.00     0.183 C 
BRANCH   8   9
ATOM      9  C   UNL A   1      32.019  22.311  23.978  1.00  0.00     0.286 C 
ATOM     10  C   UNL A   1      32.150  21.190  22.932  1.00  0.00     0.300 C 
ATOM     11  N   UNL A   1      33.359  22.432  24.599  1.00  0.00    -0.202 N 
ATOM     12  O   UNL A   1      31.941  21.286  21.728  1.00  0.00    -0.267 OA
ATOM     13  N   UNL A   1      32.560  20.012  23.529  1.00  0.00    -0.193 N 
ATOM     14  C   UNL A   1      34.036  21.217  24.751  1.00  0.00     0.309 C 
ATOM     15  C   UNL A   1      33.873  23.588  25.138  1.00  0.00     0.317 C 
ATOM     16  N   UNL A   1      33.617  20.037  24.388  1.00  0.00    -0.169 N 
ATOM     17  H   UNL A   1      32.094  19.166  23.335  1.00  0.00     0.216 HD
ATOM     18  C   UNL A   1      35.432  21.318  25.233  1.00  0.00     0.092 A 
ATOM     19  N   UNL A   1      35.071  23.736  25.612  1.00  0.00    -0.216 NA
ATOM     20  H   UNL A   1      34.039  19.211  24.717  1.00  0.00     0.340 HD
ATOM     21  C   UNL A   1      36.289  20.220  25.078  1.00  0.00     0.022 A 
ATOM     22  C   UNL A   1      35.914  22.605  25.525  1.00  0.00     0.085 A 
ATOM     23  C   UNL A   1      37.660  20.423  25.145  1.00  0.00     0.040 A 
ATOM     24  C   UNL A   1      37.290  22.779  25.632  1.00  0.00     0.068 A 
ATOM     25  C   UNL A   1      38.146  21.700  25.411  1.00  0.00     0.125 A 
ATOM     26  F   UNL A   1      39.470  21.902  25.405  1.00  0.00    -0.207 F 
ENDBRANCH   8   9
ENDBRANCH   6   8
ENDBRANCH   5   6
ENDBRANCH   4   5
ENDBRANCH   3   4
ENDBRANCH   2   3
ENDBRANCH   1   2
BRANCH   1  27
ATOM     27  C   UNL A   1      32.431  29.888  27.233  1.00  0.00     0.261 C 
BRANCH  27  28
ATOM     28  O   UNL A   1      33.848  29.704  27.314  1.00  0.00    -0.460 OA
BRANCH  28  29
ATOM     29  C   UNL A   1      34.566  30.777  27.721  1.00  0.00     0.338 C 
ATOM     30  O   UNL A   1      34.153  31.903  27.946  1.00  0.00    -0.246 OA
BRANCH  29  31
ATOM     31  C   UNL A   1      35.913  30.284  28.089  1.00  0.00     0.060 A 
ATOM     32  C   UNL A   1      36.956  30.280  27.156  1.00  0.00     0.016 A 
ATOM     33  C   UNL A   1      36.101  29.728  29.362  1.00  0.00     0.016 A 
ATOM     34  C   UNL A   1      38.182  29.720  27.496  1.00  0.00     0.010 A 
ATOM     35  C   UNL A   1      37.338  29.186  29.710  1.00  0.00     0.010 A 
ATOM     36  C   UNL A   1      38.388  29.195  28.783  1.00  0.00    -0.014 A 
BRANCH  36  37
ATOM     37  C   UNL A   1      39.765  28.841  29.191  1.00  0.00     0.031 A 
ATOM     38  C   UNL A   1      40.596  29.750  30.037  1.00  0.00     0.074 A 
ATOM     39  C   UNL A   1      40.230  27.642  28.792  1.00  0.00     0.049 A 
ATOM     40  N   UNL A   1      41.770  29.519  30.563  1.00  0.00    -0.248 NA
ATOM     41  C   UNL A   1      40.053  31.084  30.334  1.00  0.00     0.031 C 
ATOM     42  C   UNL A   1      39.483  26.698  27.956  1.00  0.00     0.029 A 
ATOM     43  N   UNL A   1      41.408  26.995  29.054  1.00  0.00    -0.354 N 
ATOM     44  C   UNL A   1      42.104  30.668  31.267  1.00  0.00     0.074 A 
ATOM     45  C   UNL A   1      41.027  31.614  31.065  1.00  0.00     0.031 C 
ATOM     46  C   UNL A   1      40.199  25.575  27.816  1.00  0.00     0.029 A 
ATOM     47  C   UNL A   1      41.473  25.735  28.507  1.00  0.00     0.049 A 
ATOM     48  H   UNL A   1      42.138  27.394  29.581  1.00  0.00     0.167 HD
ATOM     49  C   UNL A   1      43.205  30.891  32.023  1.00  0.00     0.031 A 
ATOM     50  C   UNL A   1      42.447  24.805  28.559  1.00  0.00     0.031 A 
ATOM     51  C   UNL A   1      44.267  29.929  32.193  1.00  0.00     0.049 A 
ATOM     52  C   UNL A   1      43.673  25.098  29.371  1.00  0.00     0.074 A 
ATOM     53  C   UNL A   1      45.409  30.046  32.966  1.00  0.00     0.029 A 
ATOM     54  N   UNL A   1      44.326  28.684  31.582  1.00  0.00    -0.354 N 
ATOM     55  N   UNL A   1      43.942  26.160  30.094  1.00  0.00    -0.248 NA
ATOM     56  C   UNL A   1      44.722  24.071  29.393  1.00  0.00     0.031 C 
ATOM     57  C   UNL A   1      46.196  28.913  32.754  1.00  0.00     0.029 A 
ATOM     58  C   UNL A   1      45.506  28.043  31.926  1.00  0.00     0.049 A 
ATOM     59  H   UNL A   1      43.633  28.310  30.991  1.00  0.00     0.167 HD
ATOM     60  C   UNL A   1      45.184  25.924  30.669  1.00  0.00     0.074 A 
ATOM     61  C   UNL A   1      45.601  24.606  30.231  1.00  0.00     0.031 C 
ATOM     62  C   UNL A   1      45.912  26.729  31.480  1.00  0.00     0.031 A 
BRANCH  49  63
ATOM     63  C   UNL A   1      43.337  32.212  32.741  1.00  0.00    -0.014 A 
ATOM     64  C   UNL A   1      42.747  32.382  34.008  1.00  0.00     0.010 A 
ATOM     65  C   UNL A   1      43.910  33.327  32.104  1.00  0.00     0.010 A 
ATOM     66  C   UNL A   1      42.686  33.645  34.603  1.00  0.00     0.020 A 
ATOM     67  C   UNL A   1      43.880  34.588  32.710  1.00  0.00     0.020 A 
ATOM     68  C   UNL A   1      43.243  34.743  33.943  1.00  0.00     0.054 A 
BRANCH  68  69
ATOM     69  S   UNL A   1      43.107  36.383  34.708  1.00  0.00     0.124 S 
ATOM     70  O   UNL A   1      44.171  36.348  35.706  1.00  0.00    -0.237 OA
ATOM     71  O   UNL A   1      43.330  37.279  33.575  1.00  0.00    -0.237 OA
ATOM     72  O   UNL A   1      41.748  36.398  35.244  1.00  0.00    -0.744 OA
ENDBRANCH  68  69
ENDBRANCH  49  63
BRANCH  50  73
ATOM     73  C   UNL A   1      42.246  23.510  27.851  1.00  0.00    -0.014 A 
ATOM     74  C   UNL A   1      41.573  22.449  28.488  1.00  0.00     0.010 A 
ATOM     75  C   UNL A   1      42.816  23.290  26.586  1.00  0.00     0.010 A 
ATOM     76  C   UNL A   1      41.536  21.179  27.910  1.00  0.00     0.020 A 
ATOM     77  C   UNL A   1      42.747  22.028  25.984  1.00  0.00     0.020 A 
ATOM     78  C   UNL A   1      42.136  20.974  26.666  1.00  0.00     0.054 A 
BRANCH  78  79
ATOM     79  S   UNL A   1      42.130  19.300  25.967  1.00  0.00     0.124 S 
ATOM     80  O   UNL A   1      40.708  19.088  25.713  1.00  0.00    -0.237 OA
ATOM     81  O   UNL A   1      42.967  19.448  24.780  1.00  0.00    -0.237 OA
ATOM     82  O   UNL A   1      42.703  18.482  27.033  1.00  0.00    -0.744 OA
ENDBRANCH  78  79
ENDBRANCH  50  73
BRANCH  62  83
ATOM     83  C   UNL A   1      47.253  26.232  31.958  1.00  0.00    -0.014 A 
ATOM     84  C   UNL A   1      48.384  26.370  31.133  1.00  0.00     0.010 A 
ATOM     85  C   UNL A   1      47.364  25.498  33.152  1.00  0.00     0.010 A 
ATOM     86  C   UNL A   1      49.585  25.738  31.462  1.00  0.00     0.020 A 
ATOM     87  C   UNL A   1      48.574  24.894  33.504  1.00  0.00     0.020 A 
ATOM     88  C   UNL A   1      49.667  24.992  32.640  1.00  0.00     0.054 A 
BRANCH  88  89
ATOM     89  S   UNL A   1      51.215  24.124  33.017  1.00  0.00     0.124 S 
ATOM     90  O   UNL A   1      52.219  25.058  32.514  1.00  0.00    -0.237 OA
ATOM     91  O   UNL A   1      51.156  23.983  34.469  1.00  0.00    -0.237 OA
ATOM     92  O   UNL A   1      51.098  22.873  32.271  1.00  0.00    -0.744 OA
ENDBRANCH  88  89
ENDBRANCH  62  83
ENDBRANCH  36  37
ENDBRANCH  29  31
ENDBRANCH  28  29
ENDBRANCH  27  28
ENDBRANCH   1  27
TORSDOF 18
ENDMDL
