MODEL 1
REMARK VINA RESULT:     -10.4      0.000      0.000
REMARK SMILES CC(C)(C)OC(=O)N[C@H](Cc1ccc(N=[N+]=[N-])cc1)C(=O)OCCOCCOC(=O)c1ccc(-c2c3nc(c(-c4ccc(S(=O)(=O)[O-])cc4)c4ccc([nH]4)c(-c4ccc(S(=O)(=O)[O-])cc4)c4nc(c(-c5ccc(S(=O)(=O)[O-])cc5)c5ccc2[nH]5)C=C4)C=C3)cc1
REMARK SMILES IDX 25 1 24 2 23 3 22 4 20 5 21 6 9 7 8 8 6 9 7 10 5 12 2 13
REMARK SMILES IDX 1 14 3 15 4 16 10 17 11 18 12 19 19 20 13 21 18 22 14 23
REMARK SMILES IDX 15 24 16 25 17 26 26 27 27 28 28 29 29 30 30 31 31 32 32 33
REMARK SMILES IDX 90 34 33 35 89 36 34 37 35 38 36 39 83 40 37 41 88 42 82 43
REMARK SMILES IDX 84 44 38 45 87 46 81 47 80 48 39 50 69 51 50 52 68 53 51 54
REMARK SMILES IDX 54 55 67 56 85 57 52 58 53 59 66 61 86 62 55 63 40 64 41 65
REMARK SMILES IDX 49 66 42 67 48 68 43 69 44 70 45 71 46 72 47 73 70 74 71 75
REMARK SMILES IDX 79 76 72 77 78 78 73 79 74 80 75 81 76 82 77 83 56 84 57 85
REMARK SMILES IDX 65 86 58 87 64 88 59 89 60 90 61 91 62 92 63 93
REMARK H PARENT 8 11 84 49 54 60
REMARK Flexibility Score: inf
ROOT
ATOM      1  O   UNL A   1      37.698  21.983  24.906  1.00  0.00    -0.374 OA
ENDROOT
BRANCH   1   2
ATOM      2  C   UNL A   1      37.427  23.152  25.674  1.00  0.00     0.202 C 
BRANCH   2   3
ATOM      3  C   UNL A   1      36.064  23.829  25.503  1.00  0.00     0.261 C 
BRANCH   3   4
ATOM      4  O   UNL A   1      34.992  22.880  25.384  1.00  0.00    -0.462 OA
BRANCH   4   5
ATOM      5  C   UNL A   1      34.401  22.842  24.163  1.00  0.00     0.329 C 
ATOM      6  O   UNL A   1      35.004  22.884  23.092  1.00  0.00    -0.250 OA
BRANCH   5   7
ATOM      7  C   UNL A   1      32.870  22.792  24.207  1.00  0.00     0.199 C 
BRANCH   7   8
ATOM      8  N   UNL A   1      32.462  22.988  25.591  1.00  0.00    -0.308 N 
ATOM      9  C   UNL A   1      31.973  24.128  26.148  1.00  0.00     0.408 C 
ATOM     10  O   UNL A   1      31.527  24.108  27.285  1.00  0.00    -0.225 OA
ATOM     11  H   UNL A   1      32.549  22.211  26.189  1.00  0.00     0.168 HD
BRANCH   9  12
ATOM     12  O   UNL A   1      32.057  25.202  25.329  1.00  0.00    -0.444 OA
BRANCH  12  13
ATOM     13  C   UNL A   1      31.132  26.311  25.501  1.00  0.00     0.106 C 
ATOM     14  C   UNL A   1      29.766  25.668  25.791  1.00  0.00     0.056 C 
ATOM     15  C   UNL A   1      31.004  27.136  24.213  1.00  0.00     0.056 C 
ATOM     16  C   UNL A   1      31.531  27.169  26.706  1.00  0.00     0.056 C 
ENDBRANCH  12  13
ENDBRANCH   9  12
ENDBRANCH   7   8
BRANCH   7  17
ATOM     17  C   UNL A   1      32.121  21.675  23.441  1.00  0.00     0.072 C 
BRANCH  17  18
ATOM     18  C   UNL A   1      32.383  20.217  23.834  1.00  0.00    -0.045 A 
ATOM     19  C   UNL A   1      32.544  19.924  25.200  1.00  0.00     0.004 A 
ATOM     20  C   UNL A   1      32.433  19.140  22.942  1.00  0.00     0.004 A 
ATOM     21  C   UNL A   1      32.754  18.608  25.643  1.00  0.00     0.010 A 
ATOM     22  C   UNL A   1      32.649  17.827  23.388  1.00  0.00     0.010 A 
ATOM     23  C   UNL A   1      32.808  17.538  24.747  1.00  0.00     0.038 A 
BRANCH  23  24
ATOM     24  N   UNL A   1      33.031  16.253  25.282  1.00  0.00    -0.061 NA
ATOM     25  N   UNL A   1      34.201  15.838  25.246  1.00  0.00     0.005 N 
ATOM     26  N   UNL A   1      35.276  15.446  25.221  1.00  0.00    -0.003 NA
ENDBRANCH  23  24
ENDBRANCH  17  18
ENDBRANCH   7  17
ENDBRANCH   5   7
ENDBRANCH   4   5
ENDBRANCH   3   4
ENDBRANCH   2   3
ENDBRANCH   1   2
BRANCH   1  27
ATOM     27  C   UNL A   1      38.432  20.922  25.512  1.00  0.00     0.202 C 
BRANCH  27  28
ATOM     28  C   UNL A   1      39.791  21.228  26.160  1.00  0.00     0.261 C 
BRANCH  28  29
ATOM     29  O   UNL A   1      40.436  20.076  26.734  1.00  0.00    -0.460 OA
BRANCH  29  30
ATOM     30  C   UNL A   1      41.694  19.853  26.274  1.00  0.00     0.338 C 
ATOM     31  O   UNL A   1      42.081  18.892  25.629  1.00  0.00    -0.246 OA
BRANCH  30  32
ATOM     32  C   UNL A   1      42.539  21.043  26.482  1.00  0.00     0.060 A 
ATOM     33  C   UNL A   1      42.664  21.532  27.790  1.00  0.00     0.016 A 
ATOM     34  C   UNL A   1      43.099  21.736  25.408  1.00  0.00     0.016 A 
ATOM     35  C   UNL A   1      43.318  22.738  28.025  1.00  0.00     0.010 A 
ATOM     36  C   UNL A   1      43.748  22.953  25.648  1.00  0.00     0.010 A 
ATOM     37  C   UNL A   1      43.832  23.475  26.951  1.00  0.00    -0.014 A 
BRANCH  37  38
ATOM     38  C   UNL A   1      44.356  24.844  27.185  1.00  0.00     0.031 A 
ATOM     39  C   UNL A   1      43.414  25.934  27.620  1.00  0.00     0.074 A 
ATOM     40  C   UNL A   1      45.668  25.105  27.036  1.00  0.00     0.049 A 
ATOM     41  N   UNL A   1      43.657  27.201  27.833  1.00  0.00    -0.248 NA
ATOM     42  C   UNL A   1      42.011  25.545  27.842  1.00  0.00     0.031 C 
ATOM     43  C   UNL A   1      46.687  24.122  26.669  1.00  0.00     0.029 A 
ATOM     44  N   UNL A   1      46.365  26.278  27.170  1.00  0.00    -0.354 N 
ATOM     45  C   UNL A   1      42.439  27.765  28.199  1.00  0.00     0.074 A 
ATOM     46  C   UNL A   1      41.454  26.707  28.153  1.00  0.00     0.031 C 
ATOM     47  C   UNL A   1      47.881  24.736  26.604  1.00  0.00     0.029 A 
ATOM     48  C   UNL A   1      47.703  26.161  26.878  1.00  0.00     0.049 A 
ATOM     49  H   UNL A   1      45.946  27.126  27.448  1.00  0.00     0.167 HD
ATOM     50  C   UNL A   1      42.168  29.047  28.545  1.00  0.00     0.031 A 
ATOM     51  C   UNL A   1      48.669  27.098  26.812  1.00  0.00     0.031 A 
ATOM     52  C   UNL A   1      43.153  30.099  28.577  1.00  0.00     0.049 A 
ATOM     53  C   UNL A   1      48.326  28.532  27.119  1.00  0.00     0.074 A 
ATOM     54  C   UNL A   1      42.982  31.426  28.932  1.00  0.00     0.029 A 
ATOM     55  N   UNL A   1      44.488  29.948  28.233  1.00  0.00    -0.354 N 
ATOM     56  N   UNL A   1      47.176  29.045  27.485  1.00  0.00    -0.248 NA
ATOM     57  C   UNL A   1      49.416  29.512  27.010  1.00  0.00     0.031 C 
ATOM     58  C   UNL A   1      44.195  32.092  28.732  1.00  0.00     0.029 A 
ATOM     59  C   UNL A   1      45.143  31.164  28.331  1.00  0.00     0.049 A 
ATOM     60  H   UNL A   1      44.908  29.101  27.959  1.00  0.00     0.167 HD
ATOM     61  C   UNL A   1      47.411  30.403  27.679  1.00  0.00     0.074 A 
ATOM     62  C   UNL A   1      48.816  30.627  27.406  1.00  0.00     0.031 C 
ATOM     63  C   UNL A   1      46.542  31.377  28.051  1.00  0.00     0.031 A 
BRANCH  50  64
ATOM     64  C   UNL A   1      40.739  29.399  28.877  1.00  0.00    -0.014 A 
ATOM     65  C   UNL A   1      39.751  29.481  27.879  1.00  0.00     0.010 A 
ATOM     66  C   UNL A   1      40.370  29.600  30.220  1.00  0.00     0.010 A 
ATOM     67  C   UNL A   1      38.430  29.796  28.215  1.00  0.00     0.020 A 
ATOM     68  C   UNL A   1      39.045  29.884  30.563  1.00  0.00     0.020 A 
ATOM     69  C   UNL A   1      38.086  29.995  29.555  1.00  0.00     0.054 A 
BRANCH  69  70
ATOM     70  S   UNL A   1      36.360  30.377  29.962  1.00  0.00     0.124 S 
ATOM     71  O   UNL A   1      35.646  29.780  28.835  1.00  0.00    -0.237 OA
ATOM     72  O   UNL A   1      36.180  29.704  31.246  1.00  0.00    -0.237 OA
ATOM     73  O   UNL A   1      36.328  31.836  30.015  1.00  0.00    -0.744 OA
ENDBRANCH  69  70
ENDBRANCH  50  64
BRANCH  51  74
ATOM     74  C   UNL A   1      50.050  26.711  26.411  1.00  0.00    -0.014 A 
ATOM     75  C   UNL A   1      50.441  26.734  25.061  1.00  0.00     0.010 A 
ATOM     76  C   UNL A   1      50.986  26.319  27.385  1.00  0.00     0.010 A 
ATOM     77  C   UNL A   1      51.736  26.357  24.692  1.00  0.00     0.020 A 
ATOM     78  C   UNL A   1      52.290  25.972  27.025  1.00  0.00     0.020 A 
ATOM     79  C   UNL A   1      52.653  25.983  25.677  1.00  0.00     0.054 A 
BRANCH  79  80
ATOM     80  S   UNL A   1      54.342  25.548  25.179  1.00  0.00     0.124 S 
ATOM     81  O   UNL A   1      55.131  26.073  26.288  1.00  0.00    -0.237 OA
ATOM     82  O   UNL A   1      54.275  24.092  25.082  1.00  0.00    -0.237 OA
ATOM     83  O   UNL A   1      54.512  26.244  23.905  1.00  0.00    -0.744 OA
ENDBRANCH  79  80
ENDBRANCH  51  74
BRANCH  63  84
ATOM     84  C   UNL A   1      47.089  32.772  28.222  1.00  0.00    -0.014 A 
ATOM     85  C   UNL A   1      47.634  33.202  29.446  1.00  0.00     0.010 A 
ATOM     86  C   UNL A   1      47.104  33.650  27.122  1.00  0.00     0.010 A 
ATOM     87  C   UNL A   1      48.151  34.495  29.574  1.00  0.00     0.020 A 
ATOM     88  C   UNL A   1      47.650  34.931  27.237  1.00  0.00     0.020 A 
ATOM     89  C   UNL A   1      48.157  35.350  28.468  1.00  0.00     0.054 A 
BRANCH  89  90
ATOM     90  S   UNL A   1      48.871  37.008  28.653  1.00  0.00     0.124 S 
ATOM     91  O   UNL A   1      48.529  37.336  30.034  1.00  0.00    -0.237 OA
ATOM     92  O   UNL A   1      50.290  36.775  28.394  1.00  0.00    -0.237 OA
ATOM     93  O   UNL A   1      48.180  37.799  27.636  1.00  0.00    -0.744 OA
ENDBRANCH  89  90
ENDBRANCH  63  84
ENDBRANCH  37  38
ENDBRANCH  30  32
ENDBRANCH  29  30
ENDBRANCH  28  29
ENDBRANCH  27  28
ENDBRANCH   1  27
TORSDOF 23
ENDMDL
MODEL 2
REMARK VINA RESULT:     -10.0      3.309      8.822
REMARK SMILES CC(C)(C)OC(=O)N[C@H](Cc1ccc(N=[N+]=[N-])cc1)C(=O)OCCOCCOC(=O)c1ccc(-c2c3nc(c(-c4ccc(S(=O)(=O)[O-])cc4)c4ccc([nH]4)c(-c4ccc(S(=O)(=O)[O-])cc4)c4nc(c(-c5ccc(S(=O)(=O)[O-])cc5)c5ccc2[nH]5)C=C4)C=C3)cc1
REMARK SMILES IDX 25 1 24 2 23 3 22 4 20 5 21 6 9 7 8 8 6 9 7 10 5 12 2 13
REMARK SMILES IDX 1 14 3 15 4 16 10 17 11 18 12 19 19 20 13 21 18 22 14 23
REMARK SMILES IDX 15 24 16 25 17 26 26 27 27 28 28 29 29 30 30 31 31 32 32 33
REMARK SMILES IDX 90 34 33 35 89 36 34 37 35 38 36 39 83 40 37 41 88 42 82 43
REMARK SMILES IDX 84 44 38 45 87 46 81 47 80 48 39 50 69 51 50 52 68 53 51 54
REMARK SMILES IDX 54 55 67 56 85 57 52 58 53 59 66 61 86 62 55 63 40 64 41 65
REMARK SMILES IDX 49 66 42 67 48 68 43 69 44 70 45 71 46 72 47 73 70 74 71 75
REMARK SMILES IDX 79 76 72 77 78 78 73 79 74 80 75 81 76 82 77 83 56 84 57 85
REMARK SMILES IDX 65 86 58 87 64 88 59 89 60 90 61 91 62 92 63 93
REMARK H PARENT 8 11 84 49 54 60
REMARK Flexibility Score: inf
ROOT
ATOM      1  O   UNL A   1      31.248  28.777  27.638  1.00  0.00    -0.374 OA
ENDROOT
BRANCH   1   2
ATOM      2  C   UNL A   1      31.167  27.360  27.509  1.00  0.00     0.202 C 
BRANCH   2   3
ATOM      3  C   UNL A   1      31.942  26.693  26.369  1.00  0.00     0.261 C 
BRANCH   3   4
ATOM      4  O   UNL A   1      31.185  25.658  25.724  1.00  0.00    -0.462 OA
BRANCH   4   5
ATOM      5  C   UNL A   1      31.506  24.396  26.106  1.00  0.00     0.329 C 
ATOM      6  O   UNL A   1      31.276  23.922  27.218  1.00  0.00    -0.250 OA
BRANCH   5   7
ATOM      7  C   UNL A   1      32.250  23.586  25.040  1.00  0.00     0.199 C 
BRANCH   7   8
ATOM      8  N   UNL A   1      32.963  24.528  24.188  1.00  0.00    -0.308 N 
ATOM      9  C   UNL A   1      33.982  24.250  23.333  1.00  0.00     0.408 C 
ATOM     10  O   UNL A   1      34.387  25.111  22.565  1.00  0.00    -0.225 OA
ATOM     11  H   UNL A   1      32.676  25.468  24.236  1.00  0.00     0.168 HD
BRANCH   9  12
ATOM     12  O   UNL A   1      34.453  22.987  23.453  1.00  0.00    -0.444 OA
BRANCH  12  13
ATOM     13  C   UNL A   1      35.762  22.760  24.044  1.00  0.00     0.106 C 
ATOM     14  C   UNL A   1      35.909  23.824  25.144  1.00  0.00     0.056 C 
ATOM     15  C   UNL A   1      36.883  22.979  23.018  1.00  0.00     0.056 C 
ATOM     16  C   UNL A   1      35.830  21.374  24.695  1.00  0.00     0.056 C 
ENDBRANCH  12  13
ENDBRANCH   9  12
ENDBRANCH   7   8
BRANCH   7  17
ATOM     17  C   UNL A   1      31.515  22.440  24.302  1.00  0.00     0.072 C 
BRANCH  17  18
ATOM     18  C   UNL A   1      32.016  21.005  24.498  1.00  0.00    -0.045 A 
ATOM     19  C   UNL A   1      32.104  20.178  23.365  1.00  0.00     0.004 A 
ATOM     20  C   UNL A   1      32.435  20.460  25.718  1.00  0.00     0.004 A 
ATOM     21  C   UNL A   1      32.585  18.862  23.459  1.00  0.00     0.010 A 
ATOM     22  C   UNL A   1      32.910  19.142  25.808  1.00  0.00     0.010 A 
ATOM     23  C   UNL A   1      32.998  18.322  24.679  1.00  0.00     0.038 A 
BRANCH  23  24
ATOM     24  N   UNL A   1      33.458  16.990  24.679  1.00  0.00    -0.061 NA
ATOM     25  N   UNL A   1      33.951  16.579  23.615  1.00  0.00     0.005 N 
ATOM     26  N   UNL A   1      34.410  16.190  22.642  1.00  0.00    -0.003 NA
ENDBRANCH  23  24
ENDBRANCH  17  18
ENDBRANCH   7  17
ENDBRANCH   5   7
ENDBRANCH   4   5
ENDBRANCH   3   4
ENDBRANCH   2   3
ENDBRANCH   1   2
BRANCH   1  27
ATOM     27  C   UNL A   1      31.756  29.534  26.542  1.00  0.00     0.202 C 
BRANCH  27  28
ATOM     28  C   UNL A   1      33.045  30.350  26.730  1.00  0.00     0.261 C 
BRANCH  28  29
ATOM     29  O   UNL A   1      33.985  29.749  27.641  1.00  0.00    -0.460 OA
BRANCH  29  30
ATOM     30  C   UNL A   1      34.834  30.631  28.229  1.00  0.00     0.338 C 
ATOM     31  O   UNL A   1      34.544  31.700  28.741  1.00  0.00    -0.246 OA
BRANCH  30  32
ATOM     32  C   UNL A   1      36.181  30.045  28.359  1.00  0.00     0.060 A 
ATOM     33  C   UNL A   1      36.563  29.570  29.622  1.00  0.00     0.016 A 
ATOM     34  C   UNL A   1      37.091  30.068  27.303  1.00  0.00     0.016 A 
ATOM     35  C   UNL A   1      37.873  29.153  29.843  1.00  0.00     0.010 A 
ATOM     36  C   UNL A   1      38.408  29.655  27.531  1.00  0.00     0.010 A 
ATOM     37  C   UNL A   1      38.814  29.226  28.808  1.00  0.00    -0.014 A 
BRANCH  37  38
ATOM     38  C   UNL A   1      40.245  28.961  29.098  1.00  0.00     0.031 A 
ATOM     39  C   UNL A   1      40.840  27.628  28.732  1.00  0.00     0.074 A 
ATOM     40  C   UNL A   1      41.013  29.913  29.660  1.00  0.00     0.049 A 
ATOM     41  N   UNL A   1      42.051  27.178  28.938  1.00  0.00    -0.248 NA
ATOM     42  C   UNL A   1      39.953  26.675  28.044  1.00  0.00     0.031 C 
ATOM     43  C   UNL A   1      40.565  31.260  30.012  1.00  0.00     0.029 A 
ATOM     44  N   UNL A   1      42.332  29.887  30.037  1.00  0.00    -0.354 N 
ATOM     45  C   UNL A   1      42.069  25.886  28.421  1.00  0.00     0.074 A 
ATOM     46  C   UNL A   1      40.741  25.617  27.916  1.00  0.00     0.031 C 
ATOM     47  C   UNL A   1      41.593  31.931  30.559  1.00  0.00     0.029 A 
ATOM     48  C   UNL A   1      42.756  31.049  30.637  1.00  0.00     0.049 A 
ATOM     49  H   UNL A   1      42.919  29.110  29.892  1.00  0.00     0.167 HD
ATOM     50  C   UNL A   1      43.100  25.008  28.370  1.00  0.00     0.031 A 
ATOM     51  C   UNL A   1      43.936  31.357  31.208  1.00  0.00     0.031 A 
ATOM     52  C   UNL A   1      44.418  25.281  28.886  1.00  0.00     0.049 A 
ATOM     53  C   UNL A   1      45.042  30.334  31.213  1.00  0.00     0.074 A 
ATOM     54  C   UNL A   1      45.535  24.463  28.865  1.00  0.00     0.029 A 
ATOM     55  N   UNL A   1      44.794  26.453  29.524  1.00  0.00    -0.354 N 
ATOM     56  N   UNL A   1      45.051  29.127  30.701  1.00  0.00    -0.248 NA
ATOM     57  C   UNL A   1      46.299  30.720  31.869  1.00  0.00     0.031 C 
ATOM     58  C   UNL A   1      46.564  25.111  29.555  1.00  0.00     0.029 A 
ATOM     59  C   UNL A   1      46.114  26.366  29.935  1.00  0.00     0.049 A 
ATOM     60  H   UNL A   1      44.209  27.232  29.665  1.00  0.00     0.167 HD
ATOM     61  C   UNL A   1      46.323  28.620  30.947  1.00  0.00     0.074 A 
ATOM     62  C   UNL A   1      47.060  29.658  31.638  1.00  0.00     0.031 C 
ATOM     63  C   UNL A   1      46.837  27.405  30.628  1.00  0.00     0.031 A 
BRANCH  50  64
ATOM     64  C   UNL A   1      42.837  23.650  27.771  1.00  0.00    -0.014 A 
ATOM     65  C   UNL A   1      43.236  23.334  26.459  1.00  0.00     0.010 A 
ATOM     66  C   UNL A   1      42.223  22.654  28.554  1.00  0.00     0.010 A 
ATOM     67  C   UNL A   1      42.991  22.062  25.931  1.00  0.00     0.020 A 
ATOM     68  C   UNL A   1      42.006  21.372  28.041  1.00  0.00     0.020 A 
ATOM     69  C   UNL A   1      42.377  21.090  26.726  1.00  0.00     0.054 A 
BRANCH  69  70
ATOM     70  S   UNL A   1      42.096  19.442  26.022  1.00  0.00     0.124 S 
ATOM     71  O   UNL A   1      42.857  19.513  24.777  1.00  0.00    -0.237 OA
ATOM     72  O   UNL A   1      42.650  18.559  27.046  1.00  0.00    -0.237 OA
ATOM     73  O   UNL A   1      40.646  19.373  25.862  1.00  0.00    -0.744 OA
ENDBRANCH  69  70
ENDBRANCH  50  64
BRANCH  51  74
ATOM     74  C   UNL A   1      44.124  32.688  31.849  1.00  0.00    -0.014 A 
ATOM     75  C   UNL A   1      43.688  32.922  33.165  1.00  0.00     0.010 A 
ATOM     76  C   UNL A   1      44.746  33.734  31.141  1.00  0.00     0.010 A 
ATOM     77  C   UNL A   1      43.856  34.179  33.754  1.00  0.00     0.020 A 
ATOM     78  C   UNL A   1      44.946  34.980  31.737  1.00  0.00     0.020 A 
ATOM     79  C   UNL A   1      44.488  35.199  33.037  1.00  0.00     0.054 A 
BRANCH  79  80
ATOM     80  S   UNL A   1      44.742  36.804  33.842  1.00  0.00     0.124 S 
ATOM     81  O   UNL A   1      44.826  36.428  35.249  1.00  0.00    -0.237 OA
ATOM     82  O   UNL A   1      45.988  37.265  33.234  1.00  0.00    -0.237 OA
ATOM     83  O   UNL A   1      43.553  37.567  33.467  1.00  0.00    -0.744 OA
ENDBRANCH  79  80
ENDBRANCH  51  74
BRANCH  63  84
ATOM     84  C   UNL A   1      48.277  27.140  30.989  1.00  0.00    -0.014 A 
ATOM     85  C   UNL A   1      49.328  27.495  30.125  1.00  0.00     0.010 A 
ATOM     86  C   UNL A   1      48.584  26.569  32.239  1.00  0.00     0.010 A 
ATOM     87  C   UNL A   1      50.656  27.253  30.490  1.00  0.00     0.020 A 
ATOM     88  C   UNL A   1      49.911  26.358  32.621  1.00  0.00     0.020 A 
ATOM     89  C   UNL A   1      50.938  26.688  31.737  1.00  0.00     0.054 A 
BRANCH  89  90
ATOM     90  S   UNL A   1      52.673  26.424  32.201  1.00  0.00     0.124 S 
ATOM     91  O   UNL A   1      53.124  27.783  32.482  1.00  0.00    -0.237 OA
ATOM     92  O   UNL A   1      52.561  25.545  33.363  1.00  0.00    -0.237 OA
ATOM     93  O   UNL A   1      53.259  25.806  31.013  1.00  0.00    -0.744 OA
ENDBRANCH  89  90
ENDBRANCH  63  84
ENDBRANCH  37  38
ENDBRANCH  30  32
ENDBRANCH  29  30
ENDBRANCH  28  29
ENDBRANCH  27  28
ENDBRANCH   1  27
TORSDOF 23
ENDMDL
MODEL 3
REMARK VINA RESULT:      -9.9      6.636      8.633
REMARK SMILES CC(C)(C)OC(=O)N[C@H](Cc1ccc(N=[N+]=[N-])cc1)C(=O)OCCOCCOC(=O)c1ccc(-c2c3nc(c(-c4ccc(S(=O)(=O)[O-])cc4)c4ccc([nH]4)c(-c4ccc(S(=O)(=O)[O-])cc4)c4nc(c(-c5ccc(S(=O)(=O)[O-])cc5)c5ccc2[nH]5)C=C4)C=C3)cc1
REMARK SMILES IDX 25 1 24 2 23 3 22 4 20 5 21 6 9 7 8 8 6 9 7 10 5 12 2 13
REMARK SMILES IDX 1 14 3 15 4 16 10 17 11 18 12 19 19 20 13 21 18 22 14 23
REMARK SMILES IDX 15 24 16 25 17 26 26 27 27 28 28 29 29 30 30 31 31 32 32 33
REMARK SMILES IDX 90 34 33 35 89 36 34 37 35 38 36 39 83 40 37 41 88 42 82 43
REMARK SMILES IDX 84 44 38 45 87 46 81 47 80 48 39 50 69 51 50 52 68 53 51 54
REMARK SMILES IDX 54 55 67 56 85 57 52 58 53 59 66 61 86 62 55 63 40 64 41 65
REMARK SMILES IDX 49 66 42 67 48 68 43 69 44 70 45 71 46 72 47 73 70 74 71 75
REMARK SMILES IDX 79 76 72 77 78 78 73 79 74 80 75 81 76 82 77 83 56 84 57 85
REMARK SMILES IDX 65 86 58 87 64 88 59 89 60 90 61 91 62 92 63 93
REMARK H PARENT 8 11 84 49 54 60
REMARK Flexibility Score: inf
ROOT
ATOM      1  O   UNL A   1      36.116  24.096  25.504  1.00  0.00    -0.374 OA
ENDROOT
BRANCH   1   2
ATOM      2  C   UNL A   1      35.018  23.687  26.316  1.00  0.00     0.202 C 
BRANCH   2   3
ATOM      3  C   UNL A   1      33.677  24.402  26.128  1.00  0.00     0.261 C 
BRANCH   3   4
ATOM      4  O   UNL A   1      32.578  23.484  26.020  1.00  0.00    -0.462 OA
BRANCH   4   5
ATOM      5  C   UNL A   1      31.871  23.578  24.865  1.00  0.00     0.329 C 
ATOM      6  O   UNL A   1      30.648  23.482  24.783  1.00  0.00    -0.250 OA
BRANCH   5   7
ATOM      7  C   UNL A   1      32.735  23.766  23.613  1.00  0.00     0.199 C 
BRANCH   7   8
ATOM      8  N   UNL A   1      31.927  24.461  22.620  1.00  0.00    -0.308 N 
ATOM      9  C   UNL A   1      32.042  25.759  22.234  1.00  0.00     0.408 C 
ATOM     10  O   UNL A   1      31.399  26.171  21.280  1.00  0.00    -0.225 OA
ATOM     11  H   UNL A   1      31.222  23.935  22.181  1.00  0.00     0.168 HD
BRANCH   9  12
ATOM     12  O   UNL A   1      32.896  26.474  23.004  1.00  0.00    -0.444 OA
BRANCH  12  13
ATOM     13  C   UNL A   1      32.391  27.575  23.808  1.00  0.00     0.106 C 
ATOM     14  C   UNL A   1      33.555  27.988  24.722  1.00  0.00     0.056 C 
ATOM     15  C   UNL A   1      31.224  27.127  24.699  1.00  0.00     0.056 C 
ATOM     16  C   UNL A   1      32.021  28.769  22.921  1.00  0.00     0.056 C 
ENDBRANCH  12  13
ENDBRANCH   9  12
ENDBRANCH   7   8
BRANCH   7  17
ATOM     17  C   UNL A   1      33.574  22.579  23.080  1.00  0.00     0.072 C 
BRANCH  17  18
ATOM     18  C   UNL A   1      33.318  21.184  23.662  1.00  0.00    -0.045 A 
ATOM     19  C   UNL A   1      32.288  20.413  23.094  1.00  0.00     0.004 A 
ATOM     20  C   UNL A   1      34.059  20.595  24.693  1.00  0.00     0.004 A 
ATOM     21  C   UNL A   1      32.014  19.114  23.550  1.00  0.00     0.010 A 
ATOM     22  C   UNL A   1      33.778  19.297  25.149  1.00  0.00     0.010 A 
ATOM     23  C   UNL A   1      32.754  18.533  24.582  1.00  0.00     0.038 A 
BRANCH  23  24
ATOM     24  N   UNL A   1      32.402  17.227  24.979  1.00  0.00    -0.061 NA
ATOM     25  N   UNL A   1      33.327  16.398  25.025  1.00  0.00     0.005 N 
ATOM     26  N   UNL A   1      34.171  15.627  25.074  1.00  0.00    -0.003 NA
ENDBRANCH  23  24
ENDBRANCH  17  18
ENDBRANCH   7  17
ENDBRANCH   5   7
ENDBRANCH   4   5
ENDBRANCH   3   4
ENDBRANCH   2   3
ENDBRANCH   1   2
BRANCH   1  27
ATOM     27  C   UNL A   1      37.209  23.196  25.330  1.00  0.00     0.202 C 
BRANCH  27  28
ATOM     28  C   UNL A   1      38.537  23.487  26.044  1.00  0.00     0.261 C 
BRANCH  28  29
ATOM     29  O   UNL A   1      38.664  24.844  26.507  1.00  0.00    -0.460 OA
BRANCH  29  30
ATOM     30  C   UNL A   1      39.944  25.289  26.590  1.00  0.00     0.338 C 
ATOM     31  O   UNL A   1      40.791  25.257  25.711  1.00  0.00    -0.246 OA
BRANCH  30  32
ATOM     32  C   UNL A   1      40.157  26.023  27.851  1.00  0.00     0.060 A 
ATOM     33  C   UNL A   1      39.193  25.878  28.858  1.00  0.00     0.016 A 
ATOM     34  C   UNL A   1      41.212  26.923  28.001  1.00  0.00     0.016 A 
ATOM     35  C   UNL A   1      39.258  26.665  30.004  1.00  0.00     0.010 A 
ATOM     36  C   UNL A   1      41.269  27.718  29.151  1.00  0.00     0.010 A 
ATOM     37  C   UNL A   1      40.276  27.616  30.143  1.00  0.00    -0.014 A 
BRANCH  37  38
ATOM     38  C   UNL A   1      40.233  28.579  31.271  1.00  0.00     0.031 A 
ATOM     39  C   UNL A   1      39.249  29.718  31.236  1.00  0.00     0.074 A 
ATOM     40  C   UNL A   1      41.047  28.422  32.331  1.00  0.00     0.049 A 
ATOM     41  N   UNL A   1      39.080  30.691  32.094  1.00  0.00    -0.248 NA
ATOM     42  C   UNL A   1      38.338  29.768  30.081  1.00  0.00     0.031 C 
ATOM     43  C   UNL A   1      42.005  27.330  32.505  1.00  0.00     0.029 A 
ATOM     44  N   UNL A   1      41.200  29.186  33.460  1.00  0.00    -0.354 N 
ATOM     45  C   UNL A   1      38.055  31.478  31.578  1.00  0.00     0.074 A 
ATOM     46  C   UNL A   1      37.661  30.883  30.320  1.00  0.00     0.031 C 
ATOM     47  C   UNL A   1      42.650  27.498  33.672  1.00  0.00     0.029 A 
ATOM     48  C   UNL A   1      42.184  28.731  34.304  1.00  0.00     0.049 A 
ATOM     49  H   UNL A   1      40.656  29.986  33.647  1.00  0.00     0.167 HD
ATOM     50  C   UNL A   1      37.494  32.592  32.106  1.00  0.00     0.031 A 
ATOM     51  C   UNL A   1      42.674  29.261  35.441  1.00  0.00     0.031 A 
ATOM     52  C   UNL A   1      37.901  33.186  33.354  1.00  0.00     0.049 A 
ATOM     53  C   UNL A   1      42.090  30.547  35.967  1.00  0.00     0.074 A 
ATOM     54  C   UNL A   1      37.381  34.304  33.985  1.00  0.00     0.029 A 
ATOM     55  N   UNL A   1      38.930  32.719  34.158  1.00  0.00    -0.354 N 
ATOM     56  N   UNL A   1      41.107  31.266  35.480  1.00  0.00    -0.248 NA
ATOM     57  C   UNL A   1      42.679  31.088  37.200  1.00  0.00     0.031 C 
ATOM     58  C   UNL A   1      38.144  34.555  35.129  1.00  0.00     0.029 A 
ATOM     59  C   UNL A   1      39.086  33.547  35.257  1.00  0.00     0.049 A 
ATOM     60  H   UNL A   1      39.470  31.917  33.974  1.00  0.00     0.167 HD
ATOM     61  C   UNL A   1      40.941  32.328  36.363  1.00  0.00     0.074 A 
ATOM     62  C   UNL A   1      41.912  32.147  37.422  1.00  0.00     0.031 C 
ATOM     63  C   UNL A   1      40.061  33.360  36.303  1.00  0.00     0.031 A 
BRANCH  50  64
ATOM     64  C   UNL A   1      36.403  33.272  31.316  1.00  0.00    -0.014 A 
ATOM     65  C   UNL A   1      35.064  33.259  31.749  1.00  0.00     0.010 A 
ATOM     66  C   UNL A   1      36.734  33.979  30.145  1.00  0.00     0.010 A 
ATOM     67  C   UNL A   1      34.074  33.908  31.004  1.00  0.00     0.020 A 
ATOM     68  C   UNL A   1      35.752  34.656  29.416  1.00  0.00     0.020 A 
ATOM     69  C   UNL A   1      34.425  34.602  29.843  1.00  0.00     0.054 A 
BRANCH  69  70
ATOM     70  S   UNL A   1      33.122  35.456  28.913  1.00  0.00     0.124 S 
ATOM     71  O   UNL A   1      32.416  36.172  29.973  1.00  0.00    -0.237 OA
ATOM     72  O   UNL A   1      33.885  36.293  27.990  1.00  0.00    -0.237 OA
ATOM     73  O   UNL A   1      32.370  34.370  28.288  1.00  0.00    -0.744 OA
ENDBRANCH  69  70
ENDBRANCH  50  64
BRANCH  51  74
ATOM     74  C   UNL A   1      43.800  28.589  36.148  1.00  0.00    -0.014 A 
ATOM     75  C   UNL A   1      43.559  27.532  37.043  1.00  0.00     0.010 A 
ATOM     76  C   UNL A   1      45.126  29.005  35.925  1.00  0.00     0.010 A 
ATOM     77  C   UNL A   1      44.621  26.915  37.713  1.00  0.00     0.020 A 
ATOM     78  C   UNL A   1      46.191  28.370  36.566  1.00  0.00     0.020 A 
ATOM     79  C   UNL A   1      45.931  27.336  37.466  1.00  0.00     0.054 A 
BRANCH  79  80
ATOM     80  S   UNL A   1      47.294  26.486  38.307  1.00  0.00     0.124 S 
ATOM     81  O   UNL A   1      46.630  25.300  38.838  1.00  0.00    -0.237 OA
ATOM     82  O   UNL A   1      48.236  26.250  37.216  1.00  0.00    -0.237 OA
ATOM     83  O   UNL A   1      47.738  27.455  39.306  1.00  0.00    -0.744 OA
ENDBRANCH  79  80
ENDBRANCH  51  74
BRANCH  63  84
ATOM     84  C   UNL A   1      40.080  34.358  37.434  1.00  0.00    -0.014 A 
ATOM     85  C   UNL A   1      39.404  34.112  38.642  1.00  0.00     0.010 A 
ATOM     86  C   UNL A   1      40.832  35.541  37.301  1.00  0.00     0.010 A 
ATOM     87  C   UNL A   1      39.450  35.047  39.682  1.00  0.00     0.020 A 
ATOM     88  C   UNL A   1      40.908  36.461  38.350  1.00  0.00     0.020 A 
ATOM     89  C   UNL A   1      40.204  36.214  39.529  1.00  0.00     0.054 A 
BRANCH  89  90
ATOM     90  S   UNL A   1      40.280  37.389  40.910  1.00  0.00     0.124 S 
ATOM     91  O   UNL A   1      39.025  38.119  40.758  1.00  0.00    -0.237 OA
ATOM     92  O   UNL A   1      40.361  36.509  42.073  1.00  0.00    -0.237 OA
ATOM     93  O   UNL A   1      41.488  38.166  40.638  1.00  0.00    -0.744 OA
ENDBRANCH  89  90
ENDBRANCH  63  84
ENDBRANCH  37  38
ENDBRANCH  30  32
ENDBRANCH  29  30
ENDBRANCH  28  29
ENDBRANCH  27  28
ENDBRANCH   1  27
TORSDOF 23
ENDMDL
