MODEL 1
REMARK VINA RESULT:     -10.3      0.000      0.000
REMARK SMILES O=C(OCCOCCOC(=O)[C@@H](NC(=O)c1cscn1)c1ccccc1C(F)(F)F)c1ccc(-c2c3nc(c(-c4ccc(S(=O)(=O)[O-])cc4)c4ccc([nH]4)c(-c4ccc(S(=O)(=O)[O-])cc4)c4nc(c(-c5ccc(S(=O)(=O)[O-])cc5)c5ccc2[nH]5)C=C4)C=C3)cc1
REMARK SMILES IDX 5 1 4 2 3 3 2 4 1 5 31 6 32 7 90 8 33 9 89 10 34 11 35 12
REMARK SMILES IDX 36 13 83 14 37 15 88 16 82 17 84 18 38 19 87 20 81 21 80 22
REMARK SMILES IDX 39 24 69 25 50 26 68 27 51 28 54 29 67 30 85 31 52 32 53 33
REMARK SMILES IDX 66 35 86 36 55 37 40 38 41 39 49 40 42 41 48 42 43 43 44 44
REMARK SMILES IDX 45 45 46 46 47 47 70 48 71 49 79 50 72 51 78 52 73 53 74 54
REMARK SMILES IDX 75 55 76 56 77 57 56 58 57 59 65 60 58 61 64 62 59 63 60 64
REMARK SMILES IDX 61 65 62 66 63 67 6 68 7 69 8 70 9 71 10 72 11 73 12 74
REMARK SMILES IDX 13 75 14 76 15 78 16 79 17 80 20 81 18 82 19 83 21 84 22 85
REMARK SMILES IDX 26 86 23 87 25 88 24 89 27 90 28 91 29 92 30 93
REMARK H PARENT 84 23 54 34 13 77
REMARK Flexibility Score: inf
ROOT
ATOM      1  C   UNL A   1      32.086  27.856  27.140  1.00  0.00     0.202 C 
ENDROOT
BRANCH   1   2
ATOM      2  C   UNL A   1      33.490  28.092  26.585  1.00  0.00     0.261 C 
BRANCH   2   3
ATOM      3  O   UNL A   1      33.692  29.511  26.443  1.00  0.00    -0.460 OA
BRANCH   3   4
ATOM      4  C   UNL A   1      34.318  30.368  27.276  1.00  0.00     0.338 C 
ATOM      5  O   UNL A   1      33.748  31.411  27.598  1.00  0.00    -0.246 OA
BRANCH   4   6
ATOM      6  C   UNL A   1      35.648  30.085  27.878  1.00  0.00     0.060 A 
ATOM      7  C   UNL A   1      36.871  30.418  27.289  1.00  0.00     0.016 A 
ATOM      8  C   UNL A   1      35.645  29.569  29.184  1.00  0.00     0.016 A 
ATOM      9  C   UNL A   1      38.074  30.167  27.955  1.00  0.00     0.010 A 
ATOM     10  C   UNL A   1      36.842  29.366  29.873  1.00  0.00     0.010 A 
ATOM     11  C   UNL A   1      38.066  29.650  29.256  1.00  0.00    -0.014 A 
BRANCH  11  12
ATOM     12  C   UNL A   1      39.333  29.423  29.986  1.00  0.00     0.031 A 
ATOM     13  C   UNL A   1      40.264  28.336  29.534  1.00  0.00     0.074 A 
ATOM     14  C   UNL A   1      39.627  30.177  31.061  1.00  0.00     0.049 A 
ATOM     15  N   UNL A   1      41.352  27.892  30.107  1.00  0.00    -0.248 NA
ATOM     16  C   UNL A   1      39.926  27.659  28.271  1.00  0.00     0.031 C 
ATOM     17  C   UNL A   1      38.811  31.286  31.564  1.00  0.00     0.029 A 
ATOM     18  N   UNL A   1      40.686  30.124  31.931  1.00  0.00    -0.354 N 
ATOM     19  C   UNL A   1      41.816  26.869  29.290  1.00  0.00     0.074 A 
ATOM     20  C   UNL A   1      40.896  26.759  28.179  1.00  0.00     0.031 C 
ATOM     21  C   UNL A   1      39.403  31.810  32.650  1.00  0.00     0.029 A 
ATOM     22  C   UNL A   1      40.606  31.041  32.952  1.00  0.00     0.049 A 
ATOM     23  H   UNL A   1      41.432  29.489  31.832  1.00  0.00     0.167 HD
ATOM     24  C   UNL A   1      42.905  26.084  29.462  1.00  0.00     0.031 A 
ATOM     25  C   UNL A   1      41.392  31.213  34.031  1.00  0.00     0.031 A 
ATOM     26  C   UNL A   1      43.805  26.193  30.576  1.00  0.00     0.049 A 
ATOM     27  C   UNL A   1      42.557  30.283  34.235  1.00  0.00     0.074 A 
ATOM     28  C   UNL A   1      44.932  25.441  30.853  1.00  0.00     0.029 A 
ATOM     29  N   UNL A   1      43.673  27.114  31.605  1.00  0.00    -0.354 N 
ATOM     30  N   UNL A   1      42.982  29.317  33.455  1.00  0.00    -0.248 NA
ATOM     31  C   UNL A   1      43.330  30.446  35.473  1.00  0.00     0.031 C 
ATOM     32  C   UNL A   1      45.460  25.883  32.073  1.00  0.00     0.029 A 
ATOM     33  C   UNL A   1      44.677  26.929  32.536  1.00  0.00     0.049 A 
ATOM     34  H   UNL A   1      42.967  27.798  31.662  1.00  0.00     0.167 HD
ATOM     35  C   UNL A   1      44.063  28.746  34.115  1.00  0.00     0.074 A 
ATOM     36  C   UNL A   1      44.247  29.497  35.343  1.00  0.00     0.031 C 
ATOM     37  C   UNL A   1      44.825  27.687  33.752  1.00  0.00     0.031 A 
BRANCH  24  38
ATOM     38  C   UNL A   1      43.140  25.004  28.445  1.00  0.00    -0.014 A 
ATOM     39  C   UNL A   1      44.046  25.188  27.386  1.00  0.00     0.010 A 
ATOM     40  C   UNL A   1      42.444  23.787  28.554  1.00  0.00     0.010 A 
ATOM     41  C   UNL A   1      44.225  24.184  26.431  1.00  0.00     0.020 A 
ATOM     42  C   UNL A   1      42.630  22.776  27.607  1.00  0.00     0.020 A 
ATOM     43  C   UNL A   1      43.506  22.989  26.540  1.00  0.00     0.054 A 
BRANCH  43  44
ATOM     44  S   UNL A   1      43.747  21.701  25.284  1.00  0.00     0.124 S 
ATOM     45  O   UNL A   1      45.121  21.282  25.544  1.00  0.00    -0.237 OA
ATOM     46  O   UNL A   1      42.718  20.721  25.622  1.00  0.00    -0.237 OA
ATOM     47  O   UNL A   1      43.539  22.407  24.022  1.00  0.00    -0.744 OA
ENDBRANCH  43  44
ENDBRANCH  24  38
BRANCH  25  48
ATOM     48  C   UNL A   1      41.059  32.252  35.044  1.00  0.00    -0.014 A 
ATOM     49  C   UNL A   1      40.165  31.972  36.092  1.00  0.00     0.010 A 
ATOM     50  C   UNL A   1      41.635  33.532  34.959  1.00  0.00     0.010 A 
ATOM     51  C   UNL A   1      39.843  32.961  37.029  1.00  0.00     0.020 A 
ATOM     52  C   UNL A   1      41.333  34.514  35.906  1.00  0.00     0.020 A 
ATOM     53  C   UNL A   1      40.427  34.227  36.927  1.00  0.00     0.054 A 
BRANCH  53  54
ATOM     54  S   UNL A   1      40.040  35.489  38.173  1.00  0.00     0.124 S 
ATOM     55  O   UNL A   1      41.248  35.485  38.992  1.00  0.00    -0.237 OA
ATOM     56  O   UNL A   1      39.827  36.688  37.366  1.00  0.00    -0.237 OA
ATOM     57  O   UNL A   1      38.839  34.965  38.821  1.00  0.00    -0.744 OA
ENDBRANCH  53  54
ENDBRANCH  25  48
BRANCH  37  58
ATOM     58  C   UNL A   1      45.907  27.267  34.702  1.00  0.00    -0.014 A 
ATOM     59  C   UNL A   1      47.182  27.854  34.625  1.00  0.00     0.010 A 
ATOM     60  C   UNL A   1      45.630  26.339  35.720  1.00  0.00     0.010 A 
ATOM     61  C   UNL A   1      48.170  27.512  35.550  1.00  0.00     0.020 A 
ATOM     62  C   UNL A   1      46.613  26.006  36.656  1.00  0.00     0.020 A 
ATOM     63  C   UNL A   1      47.879  26.590  36.560  1.00  0.00     0.054 A 
BRANCH  63  64
ATOM     64  S   UNL A   1      49.151  26.212  37.797  1.00  0.00     0.124 S 
ATOM     65  O   UNL A   1      48.752  24.881  38.245  1.00  0.00    -0.237 OA
ATOM     66  O   UNL A   1      50.388  26.270  37.022  1.00  0.00    -0.237 OA
ATOM     67  O   UNL A   1      48.994  27.277  38.785  1.00  0.00    -0.744 OA
ENDBRANCH  63  64
ENDBRANCH  37  58
ENDBRANCH  11  12
ENDBRANCH   4   6
ENDBRANCH   3   4
ENDBRANCH   2   3
ENDBRANCH   1   2
BRANCH   1  68
ATOM     68  O   UNL A   1      31.489  26.665  26.631  1.00  0.00    -0.374 OA
BRANCH  68  69
ATOM     69  C   UNL A   1      32.365  25.537  26.534  1.00  0.00     0.202 C 
BRANCH  69  70
ATOM     70  C   UNL A   1      31.532  24.255  26.602  1.00  0.00     0.261 C 
BRANCH  70  71
ATOM     71  O   UNL A   1      32.413  23.124  26.461  1.00  0.00    -0.461 OA
BRANCH  71  72
ATOM     72  C   UNL A   1      31.861  22.037  25.846  1.00  0.00     0.333 C 
ATOM     73  O   UNL A   1      30.664  21.772  25.813  1.00  0.00    -0.249 OA
BRANCH  72  74
ATOM     74  C   UNL A   1      32.910  21.235  25.080  1.00  0.00     0.224 C 
BRANCH  74  75
ATOM     75  N   UNL A   1      32.160  20.480  24.050  1.00  0.00    -0.334 N 
ATOM     76  C   UNL A   1      32.439  19.255  23.484  1.00  0.00     0.271 C 
ATOM     77  H   UNL A   1      31.340  20.916  23.723  1.00  0.00     0.165 HD
ATOM     78  O   UNL A   1      32.195  19.109  22.284  1.00  0.00    -0.267 OA
BRANCH  76  79
ATOM     79  C   UNL A   1      32.966  18.154  24.284  1.00  0.00     0.139 A 
ATOM     80  C   UNL A   1      34.157  17.505  24.009  1.00  0.00     0.100 A 
ATOM     81  N   UNL A   1      32.203  17.538  25.275  1.00  0.00    -0.240 NA
ATOM     82  S   UNL A   1      34.383  16.183  25.080  1.00  0.00    -0.130 S 
ATOM     83  C   UNL A   1      32.858  16.519  25.781  1.00  0.00     0.176 A 
ENDBRANCH  76  79
ENDBRANCH  74  75
BRANCH  74  84
ATOM     84  C   UNL A   1      34.241  21.871  24.680  1.00  0.00    -0.002 A 
ATOM     85  C   UNL A   1      35.329  21.628  25.554  1.00  0.00     0.007 A 
ATOM     86  C   UNL A   1      34.462  22.791  23.619  1.00  0.00     0.061 A 
ATOM     87  C   UNL A   1      36.605  22.143  25.328  1.00  0.00     0.000 A 
ATOM     88  C   UNL A   1      35.772  23.281  23.393  1.00  0.00     0.013 A 
ATOM     89  C   UNL A   1      36.834  22.952  24.229  1.00  0.00     0.001 A 
BRANCH  86  90
ATOM     90  C   UNL A   1      33.384  23.360  22.714  1.00  0.00     0.416 C 
ATOM     91  F   UNL A   1      32.996  22.500  21.729  1.00  0.00    -0.166 F 
ATOM     92  F   UNL A   1      32.246  23.679  23.384  1.00  0.00    -0.166 F 
ATOM     93  F   UNL A   1      33.792  24.480  22.066  1.00  0.00    -0.166 F 
ENDBRANCH  86  90
ENDBRANCH  74  84
ENDBRANCH  72  74
ENDBRANCH  71  72
ENDBRANCH  70  71
ENDBRANCH  69  70
ENDBRANCH  68  69
ENDBRANCH   1  68
TORSDOF 21
ENDMDL
MODEL 2
REMARK VINA RESULT:     -10.2      1.052      8.093
REMARK SMILES O=C(OCCOCCOC(=O)[C@@H](NC(=O)c1cscn1)c1ccccc1C(F)(F)F)c1ccc(-c2c3nc(c(-c4ccc(S(=O)(=O)[O-])cc4)c4ccc([nH]4)c(-c4ccc(S(=O)(=O)[O-])cc4)c4nc(c(-c5ccc(S(=O)(=O)[O-])cc5)c5ccc2[nH]5)C=C4)C=C3)cc1
REMARK SMILES IDX 5 1 4 2 3 3 2 4 1 5 31 6 32 7 90 8 33 9 89 10 34 11 35 12
REMARK SMILES IDX 36 13 83 14 37 15 88 16 82 17 84 18 38 19 87 20 81 21 80 22
REMARK SMILES IDX 39 24 69 25 50 26 68 27 51 28 54 29 67 30 85 31 52 32 53 33
REMARK SMILES IDX 66 35 86 36 55 37 40 38 41 39 49 40 42 41 48 42 43 43 44 44
REMARK SMILES IDX 45 45 46 46 47 47 70 48 71 49 79 50 72 51 78 52 73 53 74 54
REMARK SMILES IDX 75 55 76 56 77 57 56 58 57 59 65 60 58 61 64 62 59 63 60 64
REMARK SMILES IDX 61 65 62 66 63 67 6 68 7 69 8 70 9 71 10 72 11 73 12 74
REMARK SMILES IDX 13 75 14 76 15 78 16 79 17 80 20 81 18 82 19 83 21 84 22 85
REMARK SMILES IDX 26 86 23 87 25 88 24 89 27 90 28 91 29 92 30 93
REMARK H PARENT 84 23 54 34 13 77
REMARK Flexibility Score: inf
ROOT
ATOM      1  C   UNL A   1      32.324  27.853  25.369  1.00  0.00     0.202 C 
ENDROOT
BRANCH   1   2
ATOM      2  C   UNL A   1      33.211  28.204  26.563  1.00  0.00     0.261 C 
BRANCH   2   3
ATOM      3  O   UNL A   1      33.599  29.588  26.453  1.00  0.00    -0.460 OA
BRANCH   3   4
ATOM      4  C   UNL A   1      34.281  30.351  27.332  1.00  0.00     0.338 C 
ATOM      5  O   UNL A   1      33.775  31.401  27.729  1.00  0.00    -0.246 OA
BRANCH   4   6
ATOM      6  C   UNL A   1      35.598  29.955  27.896  1.00  0.00     0.060 A 
ATOM      7  C   UNL A   1      36.823  30.133  27.247  1.00  0.00     0.016 A 
ATOM      8  C   UNL A   1      35.597  29.494  29.222  1.00  0.00     0.016 A 
ATOM      9  C   UNL A   1      38.021  29.785  27.879  1.00  0.00     0.010 A 
ATOM     10  C   UNL A   1      36.794  29.194  29.874  1.00  0.00     0.010 A 
ATOM     11  C   UNL A   1      38.014  29.324  29.200  1.00  0.00    -0.014 A 
BRANCH  11  12
ATOM     12  C   UNL A   1      39.280  28.994  29.892  1.00  0.00     0.031 A 
ATOM     13  C   UNL A   1      39.697  29.790  31.095  1.00  0.00     0.074 A 
ATOM     14  C   UNL A   1      40.056  27.999  29.423  1.00  0.00     0.049 A 
ATOM     15  N   UNL A   1      40.820  29.748  31.761  1.00  0.00    -0.248 NA
ATOM     16  C   UNL A   1      38.721  30.761  31.615  1.00  0.00     0.031 C 
ATOM     17  C   UNL A   1      39.727  27.137  28.284  1.00  0.00     0.029 A 
ATOM     18  N   UNL A   1      41.283  27.548  29.837  1.00  0.00    -0.354 N 
ATOM     19  C   UNL A   1      40.698  30.701  32.763  1.00  0.00     0.074 A 
ATOM     20  C   UNL A   1      39.390  31.304  32.623  1.00  0.00     0.031 C 
ATOM     21  C   UNL A   1      40.726  26.259  28.095  1.00  0.00     0.029 A 
ATOM     22  C   UNL A   1      41.787  26.532  29.060  1.00  0.00     0.049 A 
ATOM     23  H   UNL A   1      41.756  27.918  30.617  1.00  0.00     0.167 HD
ATOM     24  C   UNL A   1      41.604  31.050  33.707  1.00  0.00     0.031 A 
ATOM     25  C   UNL A   1      42.985  25.920  29.098  1.00  0.00     0.031 A 
ATOM     26  C   UNL A   1      42.904  30.453  33.831  1.00  0.00     0.049 A 
ATOM     27  C   UNL A   1      43.999  26.374  30.112  1.00  0.00     0.074 A 
ATOM     28  C   UNL A   1      43.903  30.740  34.743  1.00  0.00     0.029 A 
ATOM     29  N   UNL A   1      43.389  29.450  33.005  1.00  0.00    -0.354 N 
ATOM     30  N   UNL A   1      43.871  27.280  31.053  1.00  0.00    -0.248 NA
ATOM     31  C   UNL A   1      45.325  25.745  30.054  1.00  0.00     0.031 C 
ATOM     32  C   UNL A   1      45.009  29.934  34.444  1.00  0.00     0.029 A 
ATOM     33  C   UNL A   1      44.684  29.127  33.364  1.00  0.00     0.049 A 
ATOM     34  H   UNL A   1      42.884  29.029  32.272  1.00  0.00     0.167 HD
ATOM     35  C   UNL A   1      45.104  27.341  31.688  1.00  0.00     0.074 A 
ATOM     36  C   UNL A   1      45.955  26.357  31.048  1.00  0.00     0.031 C 
ATOM     37  C   UNL A   1      45.506  28.149  32.699  1.00  0.00     0.031 A 
BRANCH  24  38
ATOM     38  C   UNL A   1      41.228  32.167  34.638  1.00  0.00    -0.014 A 
ATOM     39  C   UNL A   1      41.357  33.512  34.249  1.00  0.00     0.010 A 
ATOM     40  C   UNL A   1      40.737  31.864  35.920  1.00  0.00     0.010 A 
ATOM     41  C   UNL A   1      41.033  34.537  35.142  1.00  0.00     0.020 A 
ATOM     42  C   UNL A   1      40.402  32.887  36.812  1.00  0.00     0.020 A 
ATOM     43  C   UNL A   1      40.570  34.218  36.423  1.00  0.00     0.054 A 
BRANCH  43  44
ATOM     44  S   UNL A   1      40.165  35.564  37.571  1.00  0.00     0.124 S 
ATOM     45  O   UNL A   1      41.366  35.622  38.400  1.00  0.00    -0.237 OA
ATOM     46  O   UNL A   1      39.964  36.703  36.677  1.00  0.00    -0.237 OA
ATOM     47  O   UNL A   1      38.962  35.089  38.249  1.00  0.00    -0.744 OA
ENDBRANCH  43  44
ENDBRANCH  24  38
BRANCH  25  48
ATOM     48  C   UNL A   1      43.324  24.874  28.095  1.00  0.00    -0.014 A 
ATOM     49  C   UNL A   1      43.051  23.519  28.350  1.00  0.00     0.010 A 
ATOM     50  C   UNL A   1      43.929  25.233  26.876  1.00  0.00     0.010 A 
ATOM     51  C   UNL A   1      43.390  22.540  27.409  1.00  0.00     0.020 A 
ATOM     52  C   UNL A   1      44.247  24.260  25.925  1.00  0.00     0.020 A 
ATOM     53  C   UNL A   1      43.990  22.917  26.204  1.00  0.00     0.054 A 
BRANCH  53  54
ATOM     54  S   UNL A   1      44.384  21.647  24.969  1.00  0.00     0.124 S 
ATOM     55  O   UNL A   1      44.259  22.391  23.720  1.00  0.00    -0.237 OA
ATOM     56  O   UNL A   1      45.740  21.247  25.335  1.00  0.00    -0.237 OA
ATOM     57  O   UNL A   1      43.362  20.627  25.198  1.00  0.00    -0.744 OA
ENDBRANCH  53  54
ENDBRANCH  25  48
BRANCH  37  58
ATOM     58  C   UNL A   1      46.929  28.016  33.154  1.00  0.00    -0.014 A 
ATOM     59  C   UNL A   1      47.930  28.827  32.593  1.00  0.00     0.010 A 
ATOM     60  C   UNL A   1      47.256  27.132  34.197  1.00  0.00     0.010 A 
ATOM     61  C   UNL A   1      49.242  28.751  33.061  1.00  0.00     0.020 A 
ATOM     62  C   UNL A   1      48.566  27.064  34.678  1.00  0.00     0.020 A 
ATOM     63  C   UNL A   1      49.552  27.870  34.101  1.00  0.00     0.054 A 
BRANCH  63  64
ATOM     64  S   UNL A   1      51.247  27.835  34.748  1.00  0.00     0.124 S 
ATOM     65  O   UNL A   1      51.208  26.681  35.640  1.00  0.00    -0.237 OA
ATOM     66  O   UNL A   1      52.053  27.670  33.541  1.00  0.00    -0.237 OA
ATOM     67  O   UNL A   1      51.387  29.131  35.408  1.00  0.00    -0.744 OA
ENDBRANCH  63  64
ENDBRANCH  37  58
ENDBRANCH  11  12
ENDBRANCH   4   6
ENDBRANCH   3   4
ENDBRANCH   2   3
ENDBRANCH   1   2
BRANCH   1  68
ATOM     68  O   UNL A   1      32.162  26.447  25.202  1.00  0.00    -0.374 OA
BRANCH  68  69
ATOM     69  C   UNL A   1      32.777  25.639  26.211  1.00  0.00     0.202 C 
BRANCH  69  70
ATOM     70  C   UNL A   1      31.864  24.448  26.518  1.00  0.00     0.261 C 
BRANCH  70  71
ATOM     71  O   UNL A   1      32.645  23.239  26.454  1.00  0.00    -0.461 OA
BRANCH  71  72
ATOM     72  C   UNL A   1      32.008  22.173  25.889  1.00  0.00     0.333 C 
ATOM     73  O   UNL A   1      30.794  21.997  25.872  1.00  0.00    -0.249 OA
BRANCH  72  74
ATOM     74  C   UNL A   1      32.989  21.263  25.153  1.00  0.00     0.224 C 
BRANCH  74  75
ATOM     75  N   UNL A   1      32.174  20.514  24.167  1.00  0.00    -0.334 N 
ATOM     76  C   UNL A   1      32.408  19.286  23.588  1.00  0.00     0.271 C 
ATOM     77  H   UNL A   1      31.341  20.958  23.886  1.00  0.00     0.165 HD
ATOM     78  O   UNL A   1      32.095  19.142  22.404  1.00  0.00    -0.267 OA
BRANCH  76  79
ATOM     79  C   UNL A   1      32.968  18.180  24.359  1.00  0.00     0.139 A 
ATOM     80  C   UNL A   1      34.195  17.599  24.089  1.00  0.00     0.100 A 
ATOM     81  N   UNL A   1      32.213  17.492  25.306  1.00  0.00    -0.240 NA
ATOM     82  S   UNL A   1      34.458  16.248  25.115  1.00  0.00    -0.130 S 
ATOM     83  C   UNL A   1      32.903  16.485  25.790  1.00  0.00     0.176 A 
ENDBRANCH  76  79
ENDBRANCH  74  75
BRANCH  74  84
ATOM     84  C   UNL A   1      34.355  21.783  24.709  1.00  0.00    -0.002 A 
ATOM     85  C   UNL A   1      35.441  21.472  25.564  1.00  0.00     0.007 A 
ATOM     86  C   UNL A   1      34.623  22.662  23.624  1.00  0.00     0.061 A 
ATOM     87  C   UNL A   1      36.748  21.879  25.299  1.00  0.00     0.000 A 
ATOM     88  C   UNL A   1      35.962  23.041  23.359  1.00  0.00     0.013 A 
ATOM     89  C   UNL A   1      37.014  22.645  24.178  1.00  0.00     0.001 A 
BRANCH  86  90
ATOM     90  C   UNL A   1      33.572  23.297  22.731  1.00  0.00     0.416 C 
ATOM     91  F   UNL A   1      32.573  23.912  23.427  1.00  0.00    -0.166 F 
ATOM     92  F   UNL A   1      34.083  24.251  21.910  1.00  0.00    -0.166 F 
ATOM     93  F   UNL A   1      32.945  22.386  21.944  1.00  0.00    -0.166 F 
ENDBRANCH  86  90
ENDBRANCH  74  84
ENDBRANCH  72  74
ENDBRANCH  71  72
ENDBRANCH  70  71
ENDBRANCH  69  70
ENDBRANCH  68  69
ENDBRANCH   1  68
TORSDOF 21
ENDMDL
MODEL 3
REMARK VINA RESULT:     -10.1      3.619      8.788
REMARK SMILES O=C(OCCOCCOC(=O)[C@@H](NC(=O)c1cscn1)c1ccccc1C(F)(F)F)c1ccc(-c2c3nc(c(-c4ccc(S(=O)(=O)[O-])cc4)c4ccc([nH]4)c(-c4ccc(S(=O)(=O)[O-])cc4)c4nc(c(-c5ccc(S(=O)(=O)[O-])cc5)c5ccc2[nH]5)C=C4)C=C3)cc1
REMARK SMILES IDX 5 1 4 2 3 3 2 4 1 5 31 6 32 7 90 8 33 9 89 10 34 11 35 12
REMARK SMILES IDX 36 13 83 14 37 15 88 16 82 17 84 18 38 19 87 20 81 21 80 22
REMARK SMILES IDX 39 24 69 25 50 26 68 27 51 28 54 29 67 30 85 31 52 32 53 33
REMARK SMILES IDX 66 35 86 36 55 37 40 38 41 39 49 40 42 41 48 42 43 43 44 44
REMARK SMILES IDX 45 45 46 46 47 47 70 48 71 49 79 50 72 51 78 52 73 53 74 54
REMARK SMILES IDX 75 55 76 56 77 57 56 58 57 59 65 60 58 61 64 62 59 63 60 64
REMARK SMILES IDX 61 65 62 66 63 67 6 68 7 69 8 70 9 71 10 72 11 73 12 74
REMARK SMILES IDX 13 75 14 76 15 78 16 79 17 80 20 81 18 82 19 83 21 84 22 85
REMARK SMILES IDX 26 86 23 87 25 88 24 89 27 90 28 91 29 92 30 93
REMARK H PARENT 84 23 54 34 13 77
REMARK Flexibility Score: inf
ROOT
ATOM      1  C   UNL A   1      37.138  23.608  25.677  1.00  0.00     0.202 C 
ENDROOT
BRANCH   1   2
ATOM      2  C   UNL A   1      38.532  23.205  26.154  1.00  0.00     0.261 C 
BRANCH   2   3
ATOM      3  O   UNL A   1      39.384  24.366  26.110  1.00  0.00    -0.460 OA
BRANCH   3   4
ATOM      4  C   UNL A   1      40.527  24.606  26.785  1.00  0.00     0.338 C 
ATOM      5  O   UNL A   1      41.539  23.970  26.489  1.00  0.00    -0.246 OA
BRANCH   4   6
ATOM      6  C   UNL A   1      40.642  25.649  27.838  1.00  0.00     0.060 A 
ATOM      7  C   UNL A   1      41.684  26.576  27.924  1.00  0.00     0.016 A 
ATOM      8  C   UNL A   1      39.552  25.776  28.713  1.00  0.00     0.016 A 
ATOM      9  C   UNL A   1      41.680  27.562  28.916  1.00  0.00     0.010 A 
ATOM     10  C   UNL A   1      39.520  26.791  29.671  1.00  0.00     0.010 A 
ATOM     11  C   UNL A   1      40.592  27.682  29.787  1.00  0.00    -0.014 A 
BRANCH  11  12
ATOM     12  C   UNL A   1      40.559  28.751  30.811  1.00  0.00     0.031 A 
ATOM     13  C   UNL A   1      41.488  28.678  31.988  1.00  0.00     0.074 A 
ATOM     14  C   UNL A   1      39.681  29.763  30.689  1.00  0.00     0.049 A 
ATOM     15  N   UNL A   1      41.529  29.436  33.052  1.00  0.00    -0.248 NA
ATOM     16  C   UNL A   1      42.504  27.613  31.963  1.00  0.00     0.031 C 
ATOM     17  C   UNL A   1      38.760  29.951  29.565  1.00  0.00     0.029 A 
ATOM     18  N   UNL A   1      39.413  30.821  31.519  1.00  0.00    -0.354 N 
ATOM     19  C   UNL A   1      42.556  28.926  33.836  1.00  0.00     0.074 A 
ATOM     20  C   UNL A   1      43.117  27.798  33.125  1.00  0.00     0.031 C 
ATOM     21  C   UNL A   1      38.031  31.060  29.775  1.00  0.00     0.029 A 
ATOM     22  C   UNL A   1      38.394  31.628  31.070  1.00  0.00     0.049 A 
ATOM     23  H   UNL A   1      39.903  30.987  32.355  1.00  0.00     0.167 HD
ATOM     24  C   UNL A   1      42.982  29.355  35.048  1.00  0.00     0.031 A 
ATOM     25  C   UNL A   1      37.794  32.680  31.657  1.00  0.00     0.031 A 
ATOM     26  C   UNL A   1      42.410  30.469  35.751  1.00  0.00     0.049 A 
ATOM     27  C   UNL A   1      38.240  33.094  33.032  1.00  0.00     0.074 A 
ATOM     28  C   UNL A   1      42.758  30.981  36.988  1.00  0.00     0.029 A 
ATOM     29  N   UNL A   1      41.359  31.241  35.277  1.00  0.00    -0.354 N 
ATOM     30  N   UNL A   1      39.211  32.601  33.764  1.00  0.00    -0.248 NA
ATOM     31  C   UNL A   1      37.494  34.186  33.673  1.00  0.00     0.031 C 
ATOM     32  C   UNL A   1      41.889  32.040  37.279  1.00  0.00     0.029 A 
ATOM     33  C   UNL A   1      41.022  32.204  36.209  1.00  0.00     0.049 A 
ATOM     34  H   UNL A   1      40.919  31.120  34.404  1.00  0.00     0.167 HD
ATOM     35  C   UNL A   1      39.183  33.310  34.957  1.00  0.00     0.074 A 
ATOM     36  C   UNL A   1      38.121  34.291  34.837  1.00  0.00     0.031 C 
ATOM     37  C   UNL A   1      39.953  33.157  36.061  1.00  0.00     0.031 A 
BRANCH  24  38
ATOM     38  C   UNL A   1      44.084  28.574  35.704  1.00  0.00    -0.014 A 
ATOM     39  C   UNL A   1      43.800  27.481  36.541  1.00  0.00     0.010 A 
ATOM     40  C   UNL A   1      45.422  28.938  35.475  1.00  0.00     0.010 A 
ATOM     41  C   UNL A   1      44.839  26.787  37.168  1.00  0.00     0.020 A 
ATOM     42  C   UNL A   1      46.463  28.240  36.092  1.00  0.00     0.020 A 
ATOM     43  C   UNL A   1      46.164  27.179  36.950  1.00  0.00     0.054 A 
BRANCH  43  44
ATOM     44  S   UNL A   1      47.497  26.271  37.782  1.00  0.00     0.124 S 
ATOM     45  O   UNL A   1      46.820  25.776  38.978  1.00  0.00    -0.237 OA
ATOM     46  O   UNL A   1      47.859  25.253  36.799  1.00  0.00    -0.237 OA
ATOM     47  O   UNL A   1      48.514  27.292  38.020  1.00  0.00    -0.744 OA
ENDBRANCH  43  44
ENDBRANCH  24  38
BRANCH  25  48
ATOM     48  C   UNL A   1      36.653  33.363  30.986  1.00  0.00    -0.014 A 
ATOM     49  C   UNL A   1      36.835  34.033  29.765  1.00  0.00     0.010 A 
ATOM     50  C   UNL A   1      35.376  33.347  31.575  1.00  0.00     0.010 A 
ATOM     51  C   UNL A   1      35.761  34.688  29.150  1.00  0.00     0.020 A 
ATOM     52  C   UNL A   1      34.297  33.981  30.952  1.00  0.00     0.020 A 
ATOM     53  C   UNL A   1      34.500  34.661  29.751  1.00  0.00     0.054 A 
BRANCH  53  54
ATOM     54  S   UNL A   1      33.102  35.473  28.925  1.00  0.00     0.124 S 
ATOM     55  O   UNL A   1      32.324  35.961  30.059  1.00  0.00    -0.237 OA
ATOM     56  O   UNL A   1      33.754  36.499  28.116  1.00  0.00    -0.237 OA
ATOM     57  O   UNL A   1      32.488  34.388  28.161  1.00  0.00    -0.744 OA
ENDBRANCH  53  54
ENDBRANCH  25  48
BRANCH  37  58
ATOM     58  C   UNL A   1      39.657  34.052  37.229  1.00  0.00    -0.014 A 
ATOM     59  C   UNL A   1      38.915  33.569  38.320  1.00  0.00     0.010 A 
ATOM     60  C   UNL A   1      40.185  35.354  37.270  1.00  0.00     0.010 A 
ATOM     61  C   UNL A   1      38.695  34.379  39.435  1.00  0.00     0.020 A 
ATOM     62  C   UNL A   1      39.979  36.161  38.391  1.00  0.00     0.020 A 
ATOM     63  C   UNL A   1      39.229  35.671  39.464  1.00  0.00     0.054 A 
BRANCH  63  64
ATOM     64  S   UNL A   1      38.996  36.684  40.950  1.00  0.00     0.124 S 
ATOM     65  O   UNL A   1      38.473  37.927  40.391  1.00  0.00    -0.237 OA
ATOM     66  O   UNL A   1      38.048  35.899  41.736  1.00  0.00    -0.237 OA
ATOM     67  O   UNL A   1      40.341  36.772  41.518  1.00  0.00    -0.744 OA
ENDBRANCH  63  64
ENDBRANCH  37  58
ENDBRANCH  11  12
ENDBRANCH   4   6
ENDBRANCH   3   4
ENDBRANCH   2   3
ENDBRANCH   1   2
BRANCH   1  68
ATOM     68  O   UNL A   1      36.587  22.679  24.746  1.00  0.00    -0.374 OA
BRANCH  68  69
ATOM     69  C   UNL A   1      36.228  23.231  23.475  1.00  0.00     0.202 C 
BRANCH  69  70
ATOM     70  C   UNL A   1      34.704  23.193  23.331  1.00  0.00     0.261 C 
BRANCH  70  71
ATOM     71  O   UNL A   1      34.269  24.417  22.708  1.00  0.00    -0.461 OA
BRANCH  71  72
ATOM     72  C   UNL A   1      32.923  24.642  22.760  1.00  0.00     0.333 C 
ATOM     73  O   UNL A   1      32.059  23.881  22.338  1.00  0.00    -0.249 OA
BRANCH  72  74
ATOM     74  C   UNL A   1      32.600  25.920  23.530  1.00  0.00     0.224 C 
BRANCH  74  75
ATOM     75  N   UNL A   1      33.761  26.816  23.321  1.00  0.00    -0.334 N 
ATOM     76  C   UNL A   1      33.965  28.105  23.762  1.00  0.00     0.271 C 
ATOM     77  H   UNL A   1      34.497  26.434  22.789  1.00  0.00     0.165 HD
ATOM     78  O   UNL A   1      34.541  28.887  23.002  1.00  0.00    -0.267 OA
BRANCH  76  79
ATOM     79  C   UNL A   1      33.550  28.522  25.098  1.00  0.00     0.139 A 
ATOM     80  C   UNL A   1      32.569  29.470  25.338  1.00  0.00     0.100 A 
ATOM     81  N   UNL A   1      34.257  28.140  26.236  1.00  0.00    -0.240 NA
ATOM     82  S   UNL A   1      32.448  29.796  27.019  1.00  0.00    -0.130 S 
ATOM     83  C   UNL A   1      33.748  28.718  27.299  1.00  0.00     0.176 A 
ENDBRANCH  76  79
ENDBRANCH  74  75
BRANCH  74  84
ATOM     84  C   UNL A   1      31.200  26.531  23.478  1.00  0.00    -0.002 A 
ATOM     85  C   UNL A   1      31.010  27.554  22.516  1.00  0.00     0.007 A 
ATOM     86  C   UNL A   1      30.129  26.290  24.381  1.00  0.00     0.061 A 
ATOM     87  C   UNL A   1      29.791  28.211  22.349  1.00  0.00     0.000 A 
ATOM     88  C   UNL A   1      28.893  26.951  24.175  1.00  0.00     0.013 A 
ATOM     89  C   UNL A   1      28.720  27.891  23.165  1.00  0.00     0.001 A 
BRANCH  86  90
ATOM     90  C   UNL A   1      30.205  25.409  25.615  1.00  0.00     0.416 C 
ATOM     91  F   UNL A   1      31.114  25.844  26.534  1.00  0.00    -0.166 F 
ATOM     92  F   UNL A   1      29.024  25.331  26.282  1.00  0.00    -0.166 F 
ATOM     93  F   UNL A   1      30.582  24.139  25.320  1.00  0.00    -0.166 F 
ENDBRANCH  86  90
ENDBRANCH  74  84
ENDBRANCH  72  74
ENDBRANCH  71  72
ENDBRANCH  70  71
ENDBRANCH  69  70
ENDBRANCH  68  69
ENDBRANCH   1  68
TORSDOF 21
ENDMDL
