MODEL 1
REMARK VINA RESULT:     -11.1      0.000      0.000
REMARK SMILES Cc1cc(C)cc(Oc2nc3ccccn3c(=O)c2/C=C2\SC(=S)N(CCC(=O)OCCOCCOC(=O)c3ccc(-c4c5nc(c(-c6ccc(S(=O)(=O)[O-])cc6)c6ccc([nH]6)c(-c6ccc(S(=O)(=O)[O-])cc6)c6nc(c(-c7ccc(S(=O)(=O)[O-])cc7)c7ccc4[nH]7)C=C6)C=C5)cc3)C2=O)c1
REMARK SMILES IDX 32 1 31 2 30 3 28 4 29 5 27 6 26 7 25 8 20 9 21 10 22 11
REMARK SMILES IDX 99 12 23 13 100 14 24 15 19 16 9 17 10 18 11 19 17 20 12 21
REMARK SMILES IDX 16 22 18 23 13 24 15 25 14 26 8 27 7 28 1 29 2 30 3 31
REMARK SMILES IDX 101 32 4 33 5 34 6 35 33 36 34 37 35 38 36 39 37 40 38 41
REMARK SMILES IDX 39 42 40 43 98 44 41 45 97 46 42 47 43 48 44 49 91 50 45 51
REMARK SMILES IDX 96 52 90 53 92 54 46 55 95 56 89 57 88 58 47 60 77 61 58 62
REMARK SMILES IDX 76 63 59 64 62 65 75 66 93 67 60 68 61 69 74 71 94 72 63 73
REMARK SMILES IDX 48 74 49 75 57 76 50 77 56 78 51 79 52 80 53 81 54 82 55 83
REMARK SMILES IDX 78 84 79 85 87 86 80 87 86 88 81 89 82 90 83 91 84 92 85 93
REMARK SMILES IDX 64 94 65 95 73 96 66 97 72 98 67 99 68 100 69 101 70 102
REMARK SMILES IDX 71 103
REMARK H PARENT 92 59 62 70
REMARK Flexibility Score: inf
ROOT
ATOM      1  C   UNL A   1      32.436  30.661  27.233  1.00  0.00     0.202 C 
ENDROOT
BRANCH   1   2
ATOM      2  C   UNL A   1      31.936  30.596  25.778  1.00  0.00     0.261 C 
BRANCH   2   3
ATOM      3  O   UNL A   1      31.361  29.322  25.418  1.00  0.00    -0.463 OA
BRANCH   3   4
ATOM      4  C   UNL A   1      32.161  28.423  24.802  1.00  0.00     0.307 C 
ATOM      5  O   UNL A   1      33.159  27.909  25.292  1.00  0.00    -0.252 OA
BRANCH   4   6
ATOM      6  C   UNL A   1      31.694  28.127  23.393  1.00  0.00     0.144 C 
BRANCH   6   7
ATOM      7  C   UNL A   1      30.570  27.091  23.269  1.00  0.00     0.139 C 
BRANCH   7   8
ATOM      8  N   UNL A   1      30.931  25.743  23.735  1.00  0.00    -0.292 N 
ATOM      9  C   UNL A   1      33.037  22.919  23.091  1.00  0.00     0.041 C 
ATOM     10  C   UNL A   1      32.051  23.679  23.586  1.00  0.00     0.081 C 
ATOM     11  S   UNL A   1      31.163  23.522  25.041  1.00  0.00    -0.054 SA
ATOM     12  C   UNL A   1      31.658  24.921  22.906  1.00  0.00     0.266 C 
ATOM     13  C   UNL A   1      30.507  25.155  24.910  1.00  0.00     0.148 C 
ATOM     14  O   UNL A   1      31.917  25.135  21.732  1.00  0.00    -0.268 OA
ATOM     15  S   UNL A   1      29.528  25.810  26.091  1.00  0.00    -0.052 S 
BRANCH   9  16
ATOM     16  C   UNL A   1      33.544  21.690  23.673  1.00  0.00     0.104 A 
ATOM     17  C   UNL A   1      34.665  21.590  24.423  1.00  0.00     0.234 A 
ATOM     18  N   UNL A   1      35.150  20.393  24.879  1.00  0.00    -0.194 NA
ATOM     19  C   UNL A   1      34.586  19.295  24.494  1.00  0.00     0.143 A 
ATOM     20  C   UNL A   1      32.845  20.418  23.308  1.00  0.00     0.269 A 
ATOM     21  C   UNL A   1      35.181  17.994  24.908  1.00  0.00     0.048 A 
ATOM     22  N   UNL A   1      33.444  19.243  23.717  1.00  0.00    -0.267 N 
ATOM     23  O   UNL A   1      31.819  20.460  22.623  1.00  0.00    -0.268 OA
ATOM     24  C   UNL A   1      34.609  16.847  24.524  1.00  0.00     0.005 A 
ATOM     25  C   UNL A   1      32.883  18.027  23.343  1.00  0.00     0.096 A 
ATOM     26  C   UNL A   1      33.418  16.860  23.720  1.00  0.00     0.019 A 
BRANCH  17  27
ATOM     27  O   UNL A   1      35.545  22.652  24.654  1.00  0.00    -0.438 OA
BRANCH  27  28
ATOM     28  C   UNL A   1      36.790  22.504  25.206  1.00  0.00     0.130 A 
ATOM     29  C   UNL A   1      39.608  20.010  25.611  1.00  0.00     0.044 C 
ATOM     30  C   UNL A   1      38.804  21.268  25.713  1.00  0.00    -0.047 A 
ATOM     31  C   UNL A   1      39.269  22.352  26.469  1.00  0.00     0.007 A 
ATOM     32  C   UNL A   1      37.588  21.380  25.034  1.00  0.00     0.050 A 
ATOM     33  C   UNL A   1      38.524  23.535  26.560  1.00  0.00    -0.047 A 
ATOM     34  C   UNL A   1      39.100  24.729  27.263  1.00  0.00     0.044 C 
ATOM     35  C   UNL A   1      37.270  23.592  25.941  1.00  0.00     0.050 A 
ENDBRANCH  27  28
ENDBRANCH  17  27
ENDBRANCH   9  16
ENDBRANCH   7   8
ENDBRANCH   6   7
ENDBRANCH   4   6
ENDBRANCH   3   4
ENDBRANCH   2   3
ENDBRANCH   1   2
BRANCH   1  36
ATOM     36  O   UNL A   1      33.824  30.379  27.429  1.00  0.00    -0.374 OA
BRANCH  36  37
ATOM     37  C   UNL A   1      34.604  31.451  27.953  1.00  0.00     0.202 C 
BRANCH  37  38
ATOM     38  C   UNL A   1      35.670  31.085  29.000  1.00  0.00     0.261 C 
BRANCH  38  39
ATOM     39  O   UNL A   1      36.118  29.721  28.908  1.00  0.00    -0.460 OA
BRANCH  39  40
ATOM     40  C   UNL A   1      36.922  29.307  29.914  1.00  0.00     0.338 C 
ATOM     41  O   UNL A   1      36.594  29.130  31.077  1.00  0.00    -0.246 OA
BRANCH  40  42
ATOM     42  C   UNL A   1      38.260  28.931  29.397  1.00  0.00     0.060 A 
ATOM     43  C   UNL A   1      39.180  28.401  30.311  1.00  0.00     0.016 A 
ATOM     44  C   UNL A   1      38.644  29.125  28.072  1.00  0.00     0.016 A 
ATOM     45  C   UNL A   1      40.494  28.113  29.922  1.00  0.00     0.010 A 
ATOM     46  C   UNL A   1      39.959  28.825  27.685  1.00  0.00     0.010 A 
ATOM     47  C   UNL A   1      40.914  28.339  28.606  1.00  0.00    -0.014 A 
BRANCH  47  48
ATOM     48  C   UNL A   1      42.354  28.203  28.211  1.00  0.00     0.031 A 
ATOM     49  C   UNL A   1      43.246  29.423  28.257  1.00  0.00     0.074 A 
ATOM     50  C   UNL A   1      42.899  27.030  27.817  1.00  0.00     0.049 A 
ATOM     51  N   UNL A   1      44.488  29.560  27.866  1.00  0.00    -0.248 NA
ATOM     52  C   UNL A   1      42.663  30.648  28.832  1.00  0.00     0.031 C 
ATOM     53  C   UNL A   1      42.219  25.737  27.781  1.00  0.00     0.029 A 
ATOM     54  N   UNL A   1      44.153  26.749  27.317  1.00  0.00    -0.354 N 
ATOM     55  C   UNL A   1      44.840  30.868  28.181  1.00  0.00     0.074 A 
ATOM     56  C   UNL A   1      43.650  31.517  28.684  1.00  0.00     0.031 C 
ATOM     57  C   UNL A   1      43.022  24.827  27.203  1.00  0.00     0.029 A 
ATOM     58  C   UNL A   1      44.277  25.467  26.826  1.00  0.00     0.049 A 
ATOM     59  H   UNL A   1      44.890  27.402  27.312  1.00  0.00     0.167 HD
ATOM     60  C   UNL A   1      46.054  31.465  28.128  1.00  0.00     0.031 A 
ATOM     61  C   UNL A   1      45.265  24.875  26.123  1.00  0.00     0.031 A 
ATOM     62  C   UNL A   1      47.254  30.834  27.650  1.00  0.00     0.049 A 
ATOM     63  C   UNL A   1      46.558  25.616  25.889  1.00  0.00     0.074 A 
ATOM     64  C   UNL A   1      48.538  31.349  27.614  1.00  0.00     0.029 A 
ATOM     65  N   UNL A   1      47.322  29.554  27.128  1.00  0.00    -0.354 N 
ATOM     66  N   UNL A   1      46.883  26.837  26.241  1.00  0.00    -0.248 NA
ATOM     67  C   UNL A   1      47.639  24.879  25.216  1.00  0.00     0.031 C 
ATOM     68  C   UNL A   1      49.373  30.402  27.014  1.00  0.00     0.029 A 
ATOM     69  C   UNL A   1      48.621  29.273  26.738  1.00  0.00     0.049 A 
ATOM     70  H   UNL A   1      46.560  28.935  27.045  1.00  0.00     0.167 HD
ATOM     71  C   UNL A   1      48.231  26.974  25.925  1.00  0.00     0.074 A 
ATOM     72  C   UNL A   1      48.650  25.729  25.318  1.00  0.00     0.031 C 
ATOM     73  C   UNL A   1      49.051  28.028  26.155  1.00  0.00     0.031 A 
BRANCH  60  74
ATOM     74  C   UNL A   1      46.152  32.876  28.647  1.00  0.00    -0.014 A 
ATOM     75  C   UNL A   1      45.933  33.970  27.788  1.00  0.00     0.010 A 
ATOM     76  C   UNL A   1      46.411  33.114  30.007  1.00  0.00     0.010 A 
ATOM     77  C   UNL A   1      46.012  35.277  28.272  1.00  0.00     0.020 A 
ATOM     78  C   UNL A   1      46.457  34.420  30.503  1.00  0.00     0.020 A 
ATOM     79  C   UNL A   1      46.272  35.493  29.628  1.00  0.00     0.054 A 
BRANCH  79  80
ATOM     80  S   UNL A   1      46.329  37.201  30.234  1.00  0.00     0.124 S 
ATOM     81  O   UNL A   1      46.831  37.020  31.594  1.00  0.00    -0.237 OA
ATOM     82  O   UNL A   1      47.256  37.839  29.301  1.00  0.00    -0.237 OA
ATOM     83  O   UNL A   1      44.943  37.650  30.136  1.00  0.00    -0.744 OA
ENDBRANCH  79  80
ENDBRANCH  60  74
BRANCH  61  84
ATOM     84  C   UNL A   1      45.098  23.493  25.581  1.00  0.00    -0.014 A 
ATOM     85  C   UNL A   1      45.462  22.372  26.346  1.00  0.00     0.010 A 
ATOM     86  C   UNL A   1      44.639  23.298  24.265  1.00  0.00     0.010 A 
ATOM     87  C   UNL A   1      45.422  21.088  25.790  1.00  0.00     0.020 A 
ATOM     88  C   UNL A   1      44.575  22.014  23.713  1.00  0.00     0.020 A 
ATOM     89  C   UNL A   1      44.985  20.917  24.473  1.00  0.00     0.054 A 
BRANCH  89  90
ATOM     90  S   UNL A   1      44.955  19.241  23.778  1.00  0.00     0.124 S 
ATOM     91  O   UNL A   1      44.311  19.459  22.486  1.00  0.00    -0.237 OA
ATOM     92  O   UNL A   1      46.374  18.898  23.727  1.00  0.00    -0.237 OA
ATOM     93  O   UNL A   1      44.170  18.479  24.746  1.00  0.00    -0.744 OA
ENDBRANCH  89  90
ENDBRANCH  61  84
BRANCH  73  94
ATOM     94  C   UNL A   1      50.516  27.866  25.840  1.00  0.00    -0.014 A 
ATOM     95  C   UNL A   1      51.074  28.333  24.637  1.00  0.00     0.010 A 
ATOM     96  C   UNL A   1      51.361  27.280  26.802  1.00  0.00     0.010 A 
ATOM     97  C   UNL A   1      52.443  28.187  24.392  1.00  0.00     0.020 A 
ATOM     98  C   UNL A   1      52.735  27.163  26.575  1.00  0.00     0.020 A 
ATOM     99  C   UNL A   1      53.266  27.607  25.364  1.00  0.00     0.054 A 
BRANCH  99 100
ATOM    100  S   UNL A   1      55.045  27.478  25.039  1.00  0.00     0.124 S 
ATOM    101  O   UNL A   1      55.243  28.498  24.013  1.00  0.00    -0.237 OA
ATOM    102  O   UNL A   1      55.630  27.778  26.345  1.00  0.00    -0.237 OA
ATOM    103  O   UNL A   1      55.218  26.098  24.588  1.00  0.00    -0.744 OA
ENDBRANCH  99 100
ENDBRANCH  73  94
ENDBRANCH  47  48
ENDBRANCH  40  42
ENDBRANCH  39  40
ENDBRANCH  38  39
ENDBRANCH  37  38
ENDBRANCH  36  37
ENDBRANCH   1  36
TORSDOF 22
ENDMDL
MODEL 2
REMARK VINA RESULT:      -9.8      4.737      9.446
REMARK SMILES Cc1cc(C)cc(Oc2nc3ccccn3c(=O)c2/C=C2\SC(=S)N(CCC(=O)OCCOCCOC(=O)c3ccc(-c4c5nc(c(-c6ccc(S(=O)(=O)[O-])cc6)c6ccc([nH]6)c(-c6ccc(S(=O)(=O)[O-])cc6)c6nc(c(-c7ccc(S(=O)(=O)[O-])cc7)c7ccc4[nH]7)C=C6)C=C5)cc3)C2=O)c1
REMARK SMILES IDX 32 1 31 2 30 3 28 4 29 5 27 6 26 7 25 8 20 9 21 10 22 11
REMARK SMILES IDX 99 12 23 13 100 14 24 15 19 16 9 17 10 18 11 19 17 20 12 21
REMARK SMILES IDX 16 22 18 23 13 24 15 25 14 26 8 27 7 28 1 29 2 30 3 31
REMARK SMILES IDX 101 32 4 33 5 34 6 35 33 36 34 37 35 38 36 39 37 40 38 41
REMARK SMILES IDX 39 42 40 43 98 44 41 45 97 46 42 47 43 48 44 49 91 50 45 51
REMARK SMILES IDX 96 52 90 53 92 54 46 55 95 56 89 57 88 58 47 60 77 61 58 62
REMARK SMILES IDX 76 63 59 64 62 65 75 66 93 67 60 68 61 69 74 71 94 72 63 73
REMARK SMILES IDX 48 74 49 75 57 76 50 77 56 78 51 79 52 80 53 81 54 82 55 83
REMARK SMILES IDX 78 84 79 85 87 86 80 87 86 88 81 89 82 90 83 91 84 92 85 93
REMARK SMILES IDX 64 94 65 95 73 96 66 97 72 98 67 99 68 100 69 101 70 102
REMARK SMILES IDX 71 103
REMARK H PARENT 92 59 62 70
REMARK Flexibility Score: inf
ROOT
ATOM      1  C   UNL A   1      32.313  28.597  27.308  1.00  0.00     0.202 C 
ENDROOT
BRANCH   1   2
ATOM      2  C   UNL A   1      31.765  28.203  25.925  1.00  0.00     0.261 C 
BRANCH   2   3
ATOM      3  O   UNL A   1      32.315  26.971  25.411  1.00  0.00    -0.463 OA
BRANCH   3   4
ATOM      4  C   UNL A   1      33.147  27.050  24.348  1.00  0.00     0.307 C 
ATOM      5  O   UNL A   1      34.029  27.886  24.199  1.00  0.00    -0.252 OA
BRANCH   4   6
ATOM      6  C   UNL A   1      32.849  25.979  23.321  1.00  0.00     0.144 C 
BRANCH   6   7
ATOM      7  C   UNL A   1      32.469  24.605  23.884  1.00  0.00     0.139 C 
BRANCH   7   8
ATOM      8  N   UNL A   1      33.527  23.959  24.678  1.00  0.00    -0.292 N 
ATOM      9  C   UNL A   1      37.035  23.252  24.806  1.00  0.00     0.041 C 
ATOM     10  C   UNL A   1      35.723  23.212  25.073  1.00  0.00     0.081 C 
ATOM     11  S   UNL A   1      34.902  22.740  26.499  1.00  0.00    -0.054 SA
ATOM     12  C   UNL A   1      34.751  23.724  24.096  1.00  0.00     0.266 C 
ATOM     13  C   UNL A   1      33.380  23.446  25.951  1.00  0.00     0.148 C 
ATOM     14  O   UNL A   1      35.020  23.857  22.913  1.00  0.00    -0.268 OA
ATOM     15  S   UNL A   1      32.015  23.449  26.909  1.00  0.00    -0.052 S 
BRANCH   9  16
ATOM     16  C   UNL A   1      38.101  22.812  25.687  1.00  0.00     0.104 A 
ATOM     17  C   UNL A   1      38.757  23.599  26.569  1.00  0.00     0.234 A 
ATOM     18  N   UNL A   1      39.815  23.156  27.318  1.00  0.00    -0.194 NA
ATOM     19  C   UNL A   1      40.288  21.972  27.105  1.00  0.00     0.143 A 
ATOM     20  C   UNL A   1      38.600  21.411  25.513  1.00  0.00     0.269 A 
ATOM     21  C   UNL A   1      41.502  21.536  27.847  1.00  0.00     0.048 A 
ATOM     22  N   UNL A   1      39.730  21.063  26.225  1.00  0.00    -0.267 N 
ATOM     23  O   UNL A   1      38.034  20.656  24.717  1.00  0.00    -0.268 OA
ATOM     24  C   UNL A   1      42.004  20.312  27.645  1.00  0.00     0.005 A 
ATOM     25  C   UNL A   1      40.285  19.801  26.047  1.00  0.00     0.096 A 
ATOM     26  C   UNL A   1      41.374  19.410  26.719  1.00  0.00     0.019 A 
BRANCH  17  27
ATOM     27  O   UNL A   1      38.558  24.979  26.678  1.00  0.00    -0.438 OA
BRANCH  27  28
ATOM     28  C   UNL A   1      39.505  25.850  27.149  1.00  0.00     0.130 A 
ATOM     29  C   UNL A   1      42.807  27.461  26.240  1.00  0.00     0.044 C 
ATOM     30  C   UNL A   1      41.574  27.092  27.003  1.00  0.00    -0.047 A 
ATOM     31  C   UNL A   1      41.369  27.571  28.303  1.00  0.00     0.007 A 
ATOM     32  C   UNL A   1      40.602  26.279  26.412  1.00  0.00     0.050 A 
ATOM     33  C   UNL A   1      40.211  27.235  29.017  1.00  0.00    -0.047 A 
ATOM     34  C   UNL A   1      39.947  27.864  30.353  1.00  0.00     0.044 C 
ATOM     35  C   UNL A   1      39.293  26.351  28.437  1.00  0.00     0.050 A 
ENDBRANCH  27  28
ENDBRANCH  17  27
ENDBRANCH   9  16
ENDBRANCH   7   8
ENDBRANCH   6   7
ENDBRANCH   4   6
ENDBRANCH   3   4
ENDBRANCH   2   3
ENDBRANCH   1   2
BRANCH   1  36
ATOM     36  O   UNL A   1      33.270  29.660  27.320  1.00  0.00    -0.374 OA
BRANCH  36  37
ATOM     37  C   UNL A   1      32.729  30.978  27.272  1.00  0.00     0.202 C 
BRANCH  37  38
ATOM     38  C   UNL A   1      33.666  32.127  27.684  1.00  0.00     0.261 C 
BRANCH  38  39
ATOM     39  O   UNL A   1      34.456  31.831  28.849  1.00  0.00    -0.460 OA
BRANCH  39  40
ATOM     40  C   UNL A   1      34.662  32.873  29.687  1.00  0.00     0.338 C 
ATOM     41  O   UNL A   1      33.812  33.460  30.337  1.00  0.00    -0.246 OA
BRANCH  40  42
ATOM     42  C   UNL A   1      36.113  33.135  29.852  1.00  0.00     0.060 A 
ATOM     43  C   UNL A   1      36.994  32.433  29.019  1.00  0.00     0.016 A 
ATOM     44  C   UNL A   1      36.624  34.000  30.818  1.00  0.00     0.016 A 
ATOM     45  C   UNL A   1      38.381  32.550  29.179  1.00  0.00     0.010 A 
ATOM     46  C   UNL A   1      38.014  34.121  30.967  1.00  0.00     0.010 A 
ATOM     47  C   UNL A   1      38.916  33.382  30.170  1.00  0.00    -0.014 A 
BRANCH  47  48
ATOM     48  C   UNL A   1      40.385  33.390  30.473  1.00  0.00     0.031 A 
ATOM     49  C   UNL A   1      40.932  32.404  31.480  1.00  0.00     0.074 A 
ATOM     50  C   UNL A   1      41.251  34.241  29.879  1.00  0.00     0.049 A 
ATOM     51  N   UNL A   1      42.143  32.300  31.969  1.00  0.00    -0.248 NA
ATOM     52  C   UNL A   1      39.992  31.393  31.996  1.00  0.00     0.031 C 
ATOM     53  C   UNL A   1      40.924  35.207  28.833  1.00  0.00     0.029 A 
ATOM     54  N   UNL A   1      42.591  34.464  30.116  1.00  0.00    -0.354 N 
ATOM     55  C   UNL A   1      42.114  31.197  32.814  1.00  0.00     0.074 A 
ATOM     56  C   UNL A   1      40.744  30.738  32.865  1.00  0.00     0.031 C 
ATOM     57  C   UNL A   1      41.998  35.978  28.586  1.00  0.00     0.029 A 
ATOM     58  C   UNL A   1      43.094  35.563  29.454  1.00  0.00     0.049 A 
ATOM     59  H   UNL A   1      43.138  33.892  30.703  1.00  0.00     0.167 HD
ATOM     60  C   UNL A   1      43.138  30.570  33.440  1.00  0.00     0.031 A 
ATOM     61  C   UNL A   1      44.284  36.194  29.551  1.00  0.00     0.031 A 
ATOM     62  C   UNL A   1      44.510  30.996  33.389  1.00  0.00     0.049 A 
ATOM     63  C   UNL A   1      45.371  35.600  30.410  1.00  0.00     0.074 A 
ATOM     64  C   UNL A   1      45.619  30.387  33.949  1.00  0.00     0.029 A 
ATOM     65  N   UNL A   1      44.962  32.133  32.741  1.00  0.00    -0.354 N 
ATOM     66  N   UNL A   1      45.334  34.527  31.162  1.00  0.00    -0.248 NA
ATOM     67  C   UNL A   1      46.682  36.268  30.386  1.00  0.00     0.031 C 
ATOM     68  C   UNL A   1      46.736  31.187  33.691  1.00  0.00     0.029 A 
ATOM     69  C   UNL A   1      46.331  32.260  32.914  1.00  0.00     0.049 A 
ATOM     70  H   UNL A   1      44.396  32.759  32.234  1.00  0.00     0.167 HD
ATOM     71  C   UNL A   1      46.636  34.338  31.615  1.00  0.00     0.074 A 
ATOM     72  C   UNL A   1      47.428  35.427  31.087  1.00  0.00     0.031 C 
ATOM     73  C   UNL A   1      47.131  33.328  32.371  1.00  0.00     0.031 A 
BRANCH  60  74
ATOM     74  C   UNL A   1      42.813  29.316  34.209  1.00  0.00    -0.014 A 
ATOM     75  C   UNL A   1      42.799  28.064  33.563  1.00  0.00     0.010 A 
ATOM     76  C   UNL A   1      42.572  29.376  35.592  1.00  0.00     0.010 A 
ATOM     77  C   UNL A   1      42.509  26.902  34.280  1.00  0.00     0.020 A 
ATOM     78  C   UNL A   1      42.315  28.210  36.319  1.00  0.00     0.020 A 
ATOM     79  C   UNL A   1      42.270  26.982  35.654  1.00  0.00     0.054 A 
BRANCH  79  80
ATOM     80  S   UNL A   1      41.936  25.450  36.563  1.00  0.00     0.124 S 
ATOM     81  O   UNL A   1      42.943  25.502  37.621  1.00  0.00    -0.237 OA
ATOM     82  O   UNL A   1      40.554  25.635  37.001  1.00  0.00    -0.237 OA
ATOM     83  O   UNL A   1      42.136  24.403  35.565  1.00  0.00    -0.744 OA
ENDBRANCH  79  80
ENDBRANCH  60  74
BRANCH  61  84
ATOM     84  C   UNL A   1      44.538  37.466  28.811  1.00  0.00    -0.014 A 
ATOM     85  C   UNL A   1      44.144  38.703  29.349  1.00  0.00     0.010 A 
ATOM     86  C   UNL A   1      45.112  37.437  27.526  1.00  0.00     0.010 A 
ATOM     87  C   UNL A   1      44.268  39.878  28.599  1.00  0.00     0.020 A 
ATOM     88  C   UNL A   1      45.260  38.612  26.781  1.00  0.00     0.020 A 
ATOM     89  C   UNL A   1      44.820  39.824  27.315  1.00  0.00     0.054 A 
BRANCH  89  90
ATOM     90  S   UNL A   1      44.959  41.364  26.364  1.00  0.00     0.124 S 
ATOM     91  O   UNL A   1      46.385  41.404  26.057  1.00  0.00    -0.237 OA
ATOM     92  O   UNL A   1      44.075  41.110  25.229  1.00  0.00    -0.237 OA
ATOM     93  O   UNL A   1      44.492  42.388  27.294  1.00  0.00    -0.744 OA
ENDBRANCH  89  90
ENDBRANCH  61  84
BRANCH  73  94
ATOM     94  C   UNL A   1      48.618  33.284  32.607  1.00  0.00    -0.014 A 
ATOM     95  C   UNL A   1      49.212  33.880  33.733  1.00  0.00     0.010 A 
ATOM     96  C   UNL A   1      49.433  32.577  31.700  1.00  0.00     0.010 A 
ATOM     97  C   UNL A   1      50.593  33.796  33.930  1.00  0.00     0.020 A 
ATOM     98  C   UNL A   1      50.809  32.462  31.912  1.00  0.00     0.020 A 
ATOM     99  C   UNL A   1      51.383  33.085  33.020  1.00  0.00     0.054 A 
BRANCH  99 100
ATOM    100  S   UNL A   1      53.165  32.949  33.330  1.00  0.00     0.124 S 
ATOM    101  O   UNL A   1      53.716  33.898  32.366  1.00  0.00    -0.237 OA
ATOM    102  O   UNL A   1      53.275  33.343  34.733  1.00  0.00    -0.237 OA
ATOM    103  O   UNL A   1      53.459  31.543  33.060  1.00  0.00    -0.744 OA
ENDBRANCH  99 100
ENDBRANCH  73  94
ENDBRANCH  47  48
ENDBRANCH  40  42
ENDBRANCH  39  40
ENDBRANCH  38  39
ENDBRANCH  37  38
ENDBRANCH  36  37
ENDBRANCH   1  36
TORSDOF 22
ENDMDL
MODEL 3
REMARK VINA RESULT:      -9.6      4.355      6.509
REMARK SMILES Cc1cc(C)cc(Oc2nc3ccccn3c(=O)c2/C=C2\SC(=S)N(CCC(=O)OCCOCCOC(=O)c3ccc(-c4c5nc(c(-c6ccc(S(=O)(=O)[O-])cc6)c6ccc([nH]6)c(-c6ccc(S(=O)(=O)[O-])cc6)c6nc(c(-c7ccc(S(=O)(=O)[O-])cc7)c7ccc4[nH]7)C=C6)C=C5)cc3)C2=O)c1
REMARK SMILES IDX 32 1 31 2 30 3 28 4 29 5 27 6 26 7 25 8 20 9 21 10 22 11
REMARK SMILES IDX 99 12 23 13 100 14 24 15 19 16 9 17 10 18 11 19 17 20 12 21
REMARK SMILES IDX 16 22 18 23 13 24 15 25 14 26 8 27 7 28 1 29 2 30 3 31
REMARK SMILES IDX 101 32 4 33 5 34 6 35 33 36 34 37 35 38 36 39 37 40 38 41
REMARK SMILES IDX 39 42 40 43 98 44 41 45 97 46 42 47 43 48 44 49 91 50 45 51
REMARK SMILES IDX 96 52 90 53 92 54 46 55 95 56 89 57 88 58 47 60 77 61 58 62
REMARK SMILES IDX 76 63 59 64 62 65 75 66 93 67 60 68 61 69 74 71 94 72 63 73
REMARK SMILES IDX 48 74 49 75 57 76 50 77 56 78 51 79 52 80 53 81 54 82 55 83
REMARK SMILES IDX 78 84 79 85 87 86 80 87 86 88 81 89 82 90 83 91 84 92 85 93
REMARK SMILES IDX 64 94 65 95 73 96 66 97 72 98 67 99 68 100 69 101 70 102
REMARK SMILES IDX 71 103
REMARK H PARENT 92 59 62 70
REMARK Flexibility Score: inf
ROOT
ATOM      1  C   UNL A   1      33.884  28.894  26.670  1.00  0.00     0.202 C 
ENDROOT
BRANCH   1   2
ATOM      2  C   UNL A   1      32.415  28.528  26.946  1.00  0.00     0.261 C 
BRANCH   2   3
ATOM      3  O   UNL A   1      31.659  28.221  25.754  1.00  0.00    -0.463 OA
BRANCH   3   4
ATOM      4  C   UNL A   1      31.410  26.920  25.486  1.00  0.00     0.307 C 
ATOM      5  O   UNL A   1      30.525  26.247  26.000  1.00  0.00    -0.252 OA
BRANCH   4   6
ATOM      6  C   UNL A   1      32.384  26.358  24.473  1.00  0.00     0.144 C 
BRANCH   6   7
ATOM      7  C   UNL A   1      32.331  24.838  24.272  1.00  0.00     0.139 C 
BRANCH   7   8
ATOM      8  N   UNL A   1      33.409  24.098  24.945  1.00  0.00    -0.292 N 
ATOM      9  C   UNL A   1      36.944  23.524  24.991  1.00  0.00     0.041 C 
ATOM     10  C   UNL A   1      35.633  23.380  25.225  1.00  0.00     0.081 C 
ATOM     11  S   UNL A   1      34.823  22.611  26.522  1.00  0.00    -0.054 SA
ATOM     12  C   UNL A   1      34.647  24.028  24.348  1.00  0.00     0.266 C 
ATOM     13  C   UNL A   1      33.276  23.346  26.095  1.00  0.00     0.148 C 
ATOM     14  O   UNL A   1      34.919  24.395  23.217  1.00  0.00    -0.268 OA
ATOM     15  S   UNL A   1      31.904  23.110  27.015  1.00  0.00    -0.052 S 
BRANCH   9  16
ATOM     16  C   UNL A   1      38.021  22.967  25.789  1.00  0.00     0.104 A 
ATOM     17  C   UNL A   1      38.745  23.651  26.703  1.00  0.00     0.234 A 
ATOM     18  N   UNL A   1      39.809  23.103  27.370  1.00  0.00    -0.194 NA
ATOM     19  C   UNL A   1      40.219  21.923  27.043  1.00  0.00     0.143 A 
ATOM     20  C   UNL A   1      38.449  21.566  25.482  1.00  0.00     0.269 A 
ATOM     21  C   UNL A   1      41.440  21.375  27.697  1.00  0.00     0.048 A 
ATOM     22  N   UNL A   1      39.589  21.113  26.116  1.00  0.00    -0.267 N 
ATOM     23  O   UNL A   1      37.819  20.904  24.651  1.00  0.00    -0.268 OA
ATOM     24  C   UNL A   1      41.878  20.152  27.375  1.00  0.00     0.005 A 
ATOM     25  C   UNL A   1      40.078  19.848  25.815  1.00  0.00     0.096 A 
ATOM     26  C   UNL A   1      41.174  19.358  26.407  1.00  0.00     0.019 A 
BRANCH  17  27
ATOM     27  O   UNL A   1      38.613  25.024  26.931  1.00  0.00    -0.438 OA
BRANCH  27  28
ATOM     28  C   UNL A   1      39.460  25.749  27.728  1.00  0.00     0.130 A 
ATOM     29  C   UNL A   1      43.114  26.141  28.636  1.00  0.00     0.044 C 
ATOM     30  C   UNL A   1      41.631  26.345  28.608  1.00  0.00    -0.047 A 
ATOM     31  C   UNL A   1      41.020  27.255  29.480  1.00  0.00     0.007 A 
ATOM     32  C   UNL A   1      40.845  25.641  27.692  1.00  0.00     0.050 A 
ATOM     33  C   UNL A   1      39.633  27.455  29.450  1.00  0.00    -0.047 A 
ATOM     34  C   UNL A   1      39.014  28.528  30.297  1.00  0.00     0.044 C 
ATOM     35  C   UNL A   1      38.857  26.677  28.583  1.00  0.00     0.050 A 
ENDBRANCH  27  28
ENDBRANCH  17  27
ENDBRANCH   9  16
ENDBRANCH   7   8
ENDBRANCH   6   7
ENDBRANCH   4   6
ENDBRANCH   3   4
ENDBRANCH   2   3
ENDBRANCH   1   2
BRANCH   1  36
ATOM     36  O   UNL A   1      34.339  30.122  27.245  1.00  0.00    -0.374 OA
BRANCH  36  37
ATOM     37  C   UNL A   1      33.397  31.192  27.242  1.00  0.00     0.202 C 
BRANCH  37  38
ATOM     38  C   UNL A   1      33.790  32.463  28.015  1.00  0.00     0.261 C 
BRANCH  38  39
ATOM     39  O   UNL A   1      34.267  32.198  29.346  1.00  0.00    -0.460 OA
BRANCH  39  40
ATOM     40  C   UNL A   1      34.888  33.235  29.954  1.00  0.00     0.338 C 
ATOM     41  O   UNL A   1      34.359  34.252  30.373  1.00  0.00    -0.246 OA
BRANCH  40  42
ATOM     42  C   UNL A   1      36.316  32.919  30.202  1.00  0.00     0.060 A 
ATOM     43  C   UNL A   1      36.918  33.493  31.330  1.00  0.00     0.016 A 
ATOM     44  C   UNL A   1      37.079  32.127  29.345  1.00  0.00     0.016 A 
ATOM     45  C   UNL A   1      38.285  33.322  31.579  1.00  0.00     0.010 A 
ATOM     46  C   UNL A   1      38.447  31.952  29.606  1.00  0.00     0.010 A 
ATOM     47  C   UNL A   1      39.080  32.565  30.709  1.00  0.00    -0.014 A 
BRANCH  47  48
ATOM     48  C   UNL A   1      40.571  32.513  30.859  1.00  0.00     0.031 A 
ATOM     49  C   UNL A   1      41.411  33.590  30.210  1.00  0.00     0.074 A 
ATOM     50  C   UNL A   1      41.204  31.544  31.556  1.00  0.00     0.049 A 
ATOM     51  N   UNL A   1      42.715  33.688  30.124  1.00  0.00    -0.248 NA
ATOM     52  C   UNL A   1      40.686  34.711  29.587  1.00  0.00     0.031 C 
ATOM     53  C   UNL A   1      40.562  30.470  32.310  1.00  0.00     0.029 A 
ATOM     54  N   UNL A   1      42.550  31.279  31.700  1.00  0.00    -0.354 N 
ATOM     55  C   UNL A   1      42.959  34.892  29.473  1.00  0.00     0.074 A 
ATOM     56  C   UNL A   1      41.676  35.430  29.083  1.00  0.00     0.031 C 
ATOM     57  C   UNL A   1      41.500  29.614  32.754  1.00  0.00     0.029 A 
ATOM     58  C   UNL A   1      42.813  30.075  32.319  1.00  0.00     0.049 A 
ATOM     59  H   UNL A   1      43.257  31.891  31.390  1.00  0.00     0.167 HD
ATOM     60  C   UNL A   1      44.134  35.536  29.276  1.00  0.00     0.031 A 
ATOM     61  C   UNL A   1      43.967  29.397  32.492  1.00  0.00     0.031 A 
ATOM     62  C   UNL A   1      45.420  35.030  29.672  1.00  0.00     0.049 A 
ATOM     63  C   UNL A   1      45.272  30.035  32.089  1.00  0.00     0.074 A 
ATOM     64  C   UNL A   1      46.655  35.643  29.559  1.00  0.00     0.029 A 
ATOM     65  N   UNL A   1      45.638  33.795  30.257  1.00  0.00    -0.354 N 
ATOM     66  N   UNL A   1      45.479  31.197  31.519  1.00  0.00    -0.248 NA
ATOM     67  C   UNL A   1      46.504  29.296  32.406  1.00  0.00     0.031 C 
ATOM     68  C   UNL A   1      47.629  34.754  30.021  1.00  0.00     0.029 A 
ATOM     69  C   UNL A   1      46.993  33.614  30.483  1.00  0.00     0.049 A 
ATOM     70  H   UNL A   1      44.936  33.141  30.479  1.00  0.00     0.167 HD
ATOM     71  C   UNL A   1      46.860  31.369  31.505  1.00  0.00     0.074 A 
ATOM     72  C   UNL A   1      47.439  30.178  32.086  1.00  0.00     0.031 C 
ATOM     73  C   UNL A   1      47.575  32.440  31.082  1.00  0.00     0.031 A 
BRANCH  60  74
ATOM     74  C   UNL A   1      44.075  36.896  28.630  1.00  0.00    -0.014 A 
ATOM     75  C   UNL A   1      44.159  37.028  27.230  1.00  0.00     0.010 A 
ATOM     76  C   UNL A   1      43.880  38.044  29.415  1.00  0.00     0.010 A 
ATOM     77  C   UNL A   1      44.092  38.287  26.633  1.00  0.00     0.020 A 
ATOM     78  C   UNL A   1      43.778  39.304  28.818  1.00  0.00     0.020 A 
ATOM     79  C   UNL A   1      43.900  39.418  27.431  1.00  0.00     0.054 A 
BRANCH  79  80
ATOM     80  S   UNL A   1      43.777  41.035  26.622  1.00  0.00     0.124 S 
ATOM     81  O   UNL A   1      44.595  40.837  25.428  1.00  0.00    -0.237 OA
ATOM     82  O   UNL A   1      42.341  41.165  26.386  1.00  0.00    -0.237 OA
ATOM     83  O   UNL A   1      44.330  41.960  27.608  1.00  0.00    -0.744 OA
ENDBRANCH  79  80
ENDBRANCH  60  74
BRANCH  61  84
ATOM     84  C   UNL A   1      43.966  28.026  33.087  1.00  0.00    -0.014 A 
ATOM     85  C   UNL A   1      43.994  27.846  34.480  1.00  0.00     0.010 A 
ATOM     86  C   UNL A   1      44.013  26.892  32.254  1.00  0.00     0.010 A 
ATOM     87  C   UNL A   1      44.121  26.565  35.030  1.00  0.00     0.020 A 
ATOM     88  C   UNL A   1      44.117  25.608  32.800  1.00  0.00     0.020 A 
ATOM     89  C   UNL A   1      44.189  25.454  34.185  1.00  0.00     0.054 A 
BRANCH  89  90
ATOM     90  S   UNL A   1      44.364  23.807  34.928  1.00  0.00     0.124 S 
ATOM     91  O   UNL A   1      45.371  23.190  34.070  1.00  0.00    -0.237 OA
ATOM     92  O   UNL A   1      44.798  24.122  36.287  1.00  0.00    -0.237 OA
ATOM     93  O   UNL A   1      43.023  23.237  34.825  1.00  0.00    -0.744 OA
ENDBRANCH  89  90
ENDBRANCH  61  84
BRANCH  73  94
ATOM     94  C   UNL A   1      49.065  32.430  31.308  1.00  0.00    -0.014 A 
ATOM     95  C   UNL A   1      49.638  32.883  32.509  1.00  0.00     0.010 A 
ATOM     96  C   UNL A   1      49.905  31.901  30.308  1.00  0.00     0.010 A 
ATOM     97  C   UNL A   1      51.023  32.835  32.692  1.00  0.00     0.020 A 
ATOM     98  C   UNL A   1      51.286  31.820  30.501  1.00  0.00     0.020 A 
ATOM     99  C   UNL A   1      51.839  32.300  31.688  1.00  0.00     0.054 A 
BRANCH  99 100
ATOM    100  S   UNL A   1      53.627  32.203  31.974  1.00  0.00     0.124 S 
ATOM    101  O   UNL A   1      54.162  32.880  30.797  1.00  0.00    -0.237 OA
ATOM    102  O   UNL A   1      53.786  32.920  33.238  1.00  0.00    -0.237 OA
ATOM    103  O   UNL A   1      53.891  30.767  32.043  1.00  0.00    -0.744 OA
ENDBRANCH  99 100
ENDBRANCH  73  94
ENDBRANCH  47  48
ENDBRANCH  40  42
ENDBRANCH  39  40
ENDBRANCH  38  39
ENDBRANCH  37  38
ENDBRANCH  36  37
ENDBRANCH   1  36
TORSDOF 22
ENDMDL
