MODEL 1
REMARK VINA RESULT:      -9.1      0.000      0.000
REMARK SMILES CCc1nc(COC)cc(OCC(=O)OCCOCCOC(=O)c2ccc(-c3c4nc(c(-c5ccc(S(=O)(=O)[O-])cc5)c5ccc([nH]5)c(-c5ccc(S(=O)(=O)[O-])cc5)c5nc(c(-c6ccc(S(=O)(=O)[O-])cc6)c6ccc3[nH]6)C=C5)C=C4)cc2)n1
REMARK SMILES IDX 17 1 16 2 15 3 13 4 14 5 12 6 11 7 10 8 3 9 4 10 84 11 5 12
REMARK SMILES IDX 9 13 2 14 1 15 6 16 7 17 8 18 18 19 19 20 20 21 21 22 22 23
REMARK SMILES IDX 23 24 24 25 25 26 83 27 26 28 82 29 27 30 28 31 29 32 76 33
REMARK SMILES IDX 30 34 81 35 75 36 77 37 31 38 80 39 74 40 73 41 32 43 62 44
REMARK SMILES IDX 43 45 61 46 44 47 47 48 60 49 78 50 45 51 46 52 59 54 79 55
REMARK SMILES IDX 48 56 33 57 34 58 42 59 35 60 41 61 36 62 37 63 38 64 39 65
REMARK SMILES IDX 40 66 63 67 64 68 72 69 65 70 71 71 66 72 67 73 68 74 69 75
REMARK SMILES IDX 70 76 49 77 50 78 58 79 51 80 57 81 52 82 53 83 54 84 55 85
REMARK SMILES IDX 56 86
REMARK H PARENT 77 42 47 53
REMARK Flexibility Score: inf
ROOT
ATOM      1  C   UNL A   1      33.492  27.900  23.868  1.00  0.00     0.202 C 
ENDROOT
BRANCH   1   2
ATOM      2  C   UNL A   1      32.875  27.468  22.534  1.00  0.00     0.261 C 
BRANCH   2   3
ATOM      3  O   UNL A   1      32.394  26.105  22.508  1.00  0.00    -0.461 OA
BRANCH   3   4
ATOM      4  C   UNL A   1      32.855  25.323  21.494  1.00  0.00     0.344 C 
ATOM      5  O   UNL A   1      33.152  25.735  20.377  1.00  0.00    -0.248 OA
BRANCH   4   6
ATOM      6  C   UNL A   1      32.942  23.829  21.842  1.00  0.00     0.353 C 
BRANCH   6   7
ATOM      7  O   UNL A   1      32.198  23.248  22.889  1.00  0.00    -0.466 OA
BRANCH   7   8
ATOM      8  C   UNL A   1      32.789  22.481  23.849  1.00  0.00     0.217 A 
ATOM      9  C   UNL A   1      34.516  22.512  25.373  1.00  0.00     0.132 A 
ATOM     10  N   UNL A   1      34.485  21.180  25.535  1.00  0.00    -0.235 NA
ATOM     11  N   UNL A   1      33.701  23.182  24.540  1.00  0.00    -0.198 NA
ATOM     12  C   UNL A   1      33.573  20.485  24.825  1.00  0.00     0.074 A 
ATOM     13  C   UNL A   1      32.642  21.119  24.007  1.00  0.00     0.094 A 
BRANCH   9  14
ATOM     14  C   UNL A   1      35.518  23.331  26.146  1.00  0.00     0.074 C 
ATOM     15  C   UNL A   1      36.838  23.573  25.428  1.00  0.00     0.012 C 
ENDBRANCH   9  14
BRANCH  12  16
ATOM     16  C   UNL A   1      33.607  18.966  24.912  1.00  0.00     0.216 C 
BRANCH  16  17
ATOM     17  O   UNL A   1      32.423  18.344  25.430  1.00  0.00    -0.378 OA
ATOM     18  C   UNL A   1      32.486  16.924  25.499  1.00  0.00     0.195 C 
ENDBRANCH  16  17
ENDBRANCH  12  16
ENDBRANCH   7   8
ENDBRANCH   6   7
ENDBRANCH   4   6
ENDBRANCH   3   4
ENDBRANCH   2   3
ENDBRANCH   1   2
BRANCH   1  19
ATOM     19  O   UNL A   1      33.013  29.097  24.461  1.00  0.00    -0.374 OA
BRANCH  19  20
ATOM     20  C   UNL A   1      32.100  29.021  25.542  1.00  0.00     0.202 C 
BRANCH  20  21
ATOM     21  C   UNL A   1      32.597  29.038  26.990  1.00  0.00     0.261 C 
BRANCH  21  22
ATOM     22  O   UNL A   1      33.985  29.139  27.186  1.00  0.00    -0.460 OA
BRANCH  22  23
ATOM     23  C   UNL A   1      34.434  30.222  27.835  1.00  0.00     0.338 C 
ATOM     24  O   UNL A   1      33.843  31.234  28.147  1.00  0.00    -0.246 OA
BRANCH  23  25
ATOM     25  C   UNL A   1      35.809  29.826  28.129  1.00  0.00     0.060 A 
ATOM     26  C   UNL A   1      36.775  29.970  27.134  1.00  0.00     0.016 A 
ATOM     27  C   UNL A   1      36.146  29.520  29.455  1.00  0.00     0.016 A 
ATOM     28  C   UNL A   1      38.107  29.765  27.467  1.00  0.00     0.010 A 
ATOM     29  C   UNL A   1      37.477  29.338  29.788  1.00  0.00     0.010 A 
ATOM     30  C   UNL A   1      38.453  29.430  28.786  1.00  0.00    -0.014 A 
BRANCH  30  31
ATOM     31  C   UNL A   1      39.834  29.031  29.096  1.00  0.00     0.031 A 
ATOM     32  C   UNL A   1      40.719  30.038  29.767  1.00  0.00     0.074 A 
ATOM     33  C   UNL A   1      40.263  27.797  28.785  1.00  0.00     0.049 A 
ATOM     34  N   UNL A   1      41.960  29.918  30.148  1.00  0.00    -0.248 NA
ATOM     35  C   UNL A   1      40.126  31.362  30.037  1.00  0.00     0.031 C 
ATOM     36  C   UNL A   1      39.459  26.761  28.131  1.00  0.00     0.029 A 
ATOM     37  N   UNL A   1      41.481  27.206  28.978  1.00  0.00    -0.354 N 
ATOM     38  C   UNL A   1      42.297  31.147  30.700  1.00  0.00     0.074 A 
ATOM     39  C   UNL A   1      41.149  32.012  30.568  1.00  0.00     0.031 C 
ATOM     40  C   UNL A   1      40.207  25.655  27.988  1.00  0.00     0.029 A 
ATOM     41  C   UNL A   1      41.547  25.917  28.509  1.00  0.00     0.049 A 
ATOM     42  H   UNL A   1      42.239  27.661  29.412  1.00  0.00     0.167 HD
ATOM     43  C   UNL A   1      43.464  31.511  31.279  1.00  0.00     0.031 A 
ATOM     44  C   UNL A   1      42.582  25.056  28.495  1.00  0.00     0.031 A 
ATOM     45  C   UNL A   1      44.597  30.634  31.380  1.00  0.00     0.049 A 
ATOM     46  C   UNL A   1      43.885  25.501  29.102  1.00  0.00     0.074 A 
ATOM     47  C   UNL A   1      45.826  30.878  31.961  1.00  0.00     0.029 A 
ATOM     48  N   UNL A   1      44.635  29.341  30.875  1.00  0.00    -0.354 N 
ATOM     49  N   UNL A   1      44.179  26.649  29.671  1.00  0.00    -0.248 NA
ATOM     50  C   UNL A   1      44.994  24.539  29.075  1.00  0.00     0.031 C 
ATOM     51  C   UNL A   1      46.630  29.752  31.755  1.00  0.00     0.029 A 
ATOM     52  C   UNL A   1      45.879  28.783  31.103  1.00  0.00     0.049 A 
ATOM     53  H   UNL A   1      43.889  28.889  30.421  1.00  0.00     0.167 HD
ATOM     54  C   UNL A   1      45.499  26.539  30.090  1.00  0.00     0.074 A 
ATOM     55  C   UNL A   1      45.940  25.207  29.723  1.00  0.00     0.031 C 
ATOM     56  C   UNL A   1      46.280  27.452  30.718  1.00  0.00     0.031 A 
BRANCH  43  57
ATOM     57  C   UNL A   1      43.570  32.916  31.806  1.00  0.00    -0.014 A 
ATOM     58  C   UNL A   1      43.169  33.236  33.116  1.00  0.00     0.010 A 
ATOM     59  C   UNL A   1      44.091  33.931  30.983  1.00  0.00     0.010 A 
ATOM     60  C   UNL A   1      43.255  34.552  33.581  1.00  0.00     0.020 A 
ATOM     61  C   UNL A   1      44.204  35.242  31.454  1.00  0.00     0.020 A 
ATOM     62  C   UNL A   1      43.772  35.547  32.746  1.00  0.00     0.054 A 
BRANCH  62  63
ATOM     63  S   UNL A   1      43.898  37.239  33.385  1.00  0.00     0.124 S 
ATOM     64  O   UNL A   1      45.115  37.168  34.189  1.00  0.00    -0.237 OA
ATOM     65  O   UNL A   1      43.999  38.034  32.163  1.00  0.00    -0.237 OA
ATOM     66  O   UNL A   1      42.661  37.418  34.141  1.00  0.00    -0.744 OA
ENDBRANCH  62  63
ENDBRANCH  43  57
BRANCH  44  67
ATOM     67  C   UNL A   1      42.423  23.708  27.887  1.00  0.00    -0.014 A 
ATOM     68  C   UNL A   1      42.763  23.477  26.543  1.00  0.00     0.010 A 
ATOM     69  C   UNL A   1      41.947  22.634  28.663  1.00  0.00     0.010 A 
ATOM     70  C   UNL A   1      42.619  22.203  25.983  1.00  0.00     0.020 A 
ATOM     71  C   UNL A   1      41.826  21.354  28.116  1.00  0.00     0.020 A 
ATOM     72  C   UNL A   1      42.153  21.148  26.774  1.00  0.00     0.054 A 
BRANCH  72  73
ATOM     73  S   UNL A   1      42.025  19.493  26.043  1.00  0.00     0.124 S 
ATOM     74  O   UNL A   1      42.856  19.623  24.850  1.00  0.00    -0.237 OA
ATOM     75  O   UNL A   1      42.563  18.640  27.099  1.00  0.00    -0.237 OA
ATOM     76  O   UNL A   1      40.594  19.338  25.796  1.00  0.00    -0.744 OA
ENDBRANCH  72  73
ENDBRANCH  44  67
BRANCH  56  77
ATOM     77  C   UNL A   1      47.681  27.032  31.069  1.00  0.00    -0.014 A 
ATOM     78  C   UNL A   1      48.764  27.352  30.235  1.00  0.00     0.010 A 
ATOM     79  C   UNL A   1      47.919  26.376  32.291  1.00  0.00     0.010 A 
ATOM     80  C   UNL A   1      50.064  27.000  30.604  1.00  0.00     0.020 A 
ATOM     81  C   UNL A   1      49.220  26.049  32.677  1.00  0.00     0.020 A 
ATOM     82  C   UNL A   1      50.283  26.354  31.825  1.00  0.00     0.054 A 
BRANCH  82  83
ATOM     83  S   UNL A   1      51.985  25.960  32.308  1.00  0.00     0.124 S 
ATOM     84  O   UNL A   1      51.804  24.740  33.090  1.00  0.00    -0.237 OA
ATOM     85  O   UNL A   1      52.651  25.786  31.019  1.00  0.00    -0.237 OA
ATOM     86  O   UNL A   1      52.409  27.132  33.069  1.00  0.00    -0.744 OA
ENDBRANCH  82  83
ENDBRANCH  56  77
ENDBRANCH  30  31
ENDBRANCH  23  25
ENDBRANCH  22  23
ENDBRANCH  21  22
ENDBRANCH  20  21
ENDBRANCH  19  20
ENDBRANCH   1  19
TORSDOF 22
ENDMDL
MODEL 2
REMARK VINA RESULT:      -9.0      2.937      9.586
REMARK SMILES CCc1nc(COC)cc(OCC(=O)OCCOCCOC(=O)c2ccc(-c3c4nc(c(-c5ccc(S(=O)(=O)[O-])cc5)c5ccc([nH]5)c(-c5ccc(S(=O)(=O)[O-])cc5)c5nc(c(-c6ccc(S(=O)(=O)[O-])cc6)c6ccc3[nH]6)C=C5)C=C4)cc2)n1
REMARK SMILES IDX 17 1 16 2 15 3 13 4 14 5 12 6 11 7 10 8 3 9 4 10 84 11 5 12
REMARK SMILES IDX 9 13 2 14 1 15 6 16 7 17 8 18 18 19 19 20 20 21 21 22 22 23
REMARK SMILES IDX 23 24 24 25 25 26 83 27 26 28 82 29 27 30 28 31 29 32 76 33
REMARK SMILES IDX 30 34 81 35 75 36 77 37 31 38 80 39 74 40 73 41 32 43 62 44
REMARK SMILES IDX 43 45 61 46 44 47 47 48 60 49 78 50 45 51 46 52 59 54 79 55
REMARK SMILES IDX 48 56 33 57 34 58 42 59 35 60 41 61 36 62 37 63 38 64 39 65
REMARK SMILES IDX 40 66 63 67 64 68 72 69 65 70 71 71 66 72 67 73 68 74 69 75
REMARK SMILES IDX 70 76 49 77 50 78 58 79 51 80 57 81 52 82 53 83 54 84 55 85
REMARK SMILES IDX 56 86
REMARK H PARENT 77 42 47 53
REMARK Flexibility Score: inf
ROOT
ATOM      1  C   UNL A   1      34.354  22.476  26.290  1.00  0.00     0.202 C 
ENDROOT
BRANCH   1   2
ATOM      2  C   UNL A   1      32.954  22.853  25.796  1.00  0.00     0.261 C 
BRANCH   2   3
ATOM      3  O   UNL A   1      32.470  24.128  26.277  1.00  0.00    -0.461 OA
BRANCH   3   4
ATOM      4  C   UNL A   1      31.126  24.234  26.453  1.00  0.00     0.344 C 
ATOM      5  O   UNL A   1      30.460  23.513  27.190  1.00  0.00    -0.248 OA
BRANCH   4   6
ATOM      6  C   UNL A   1      30.466  25.331  25.604  1.00  0.00     0.353 C 
BRANCH   6   7
ATOM      7  O   UNL A   1      31.150  26.012  24.577  1.00  0.00    -0.466 OA
BRANCH   7   8
ATOM      8  C   UNL A   1      31.218  27.374  24.541  1.00  0.00     0.217 A 
ATOM      9  C   UNL A   1      32.069  29.169  25.707  1.00  0.00     0.132 A 
ATOM     10  N   UNL A   1      31.272  30.044  25.072  1.00  0.00    -0.235 NA
ATOM     11  N   UNL A   1      32.057  27.845  25.477  1.00  0.00    -0.198 NA
ATOM     12  C   UNL A   1      30.424  29.556  24.143  1.00  0.00     0.074 A 
ATOM     13  C   UNL A   1      30.416  28.209  23.793  1.00  0.00     0.094 A 
BRANCH   9  14
ATOM     14  C   UNL A   1      33.033  29.667  26.752  1.00  0.00     0.074 C 
ATOM     15  C   UNL A   1      34.309  28.848  26.889  1.00  0.00     0.012 C 
ENDBRANCH   9  14
BRANCH  12  16
ATOM     16  C   UNL A   1      29.436  30.521  23.502  1.00  0.00     0.216 C 
BRANCH  16  17
ATOM     17  O   UNL A   1      28.297  29.919  22.872  1.00  0.00    -0.378 OA
ATOM     18  C   UNL A   1      28.175  30.201  21.483  1.00  0.00     0.195 C 
ENDBRANCH  16  17
ENDBRANCH  12  16
ENDBRANCH   7   8
ENDBRANCH   6   7
ENDBRANCH   4   6
ENDBRANCH   3   4
ENDBRANCH   2   3
ENDBRANCH   1   2
BRANCH   1  19
ATOM     19  O   UNL A   1      35.135  21.618  25.473  1.00  0.00    -0.374 OA
BRANCH  19  20
ATOM     20  C   UNL A   1      36.097  22.178  24.596  1.00  0.00     0.202 C 
BRANCH  20  21
ATOM     21  C   UNL A   1      37.059  23.267  25.079  1.00  0.00     0.261 C 
BRANCH  21  22
ATOM     22  O   UNL A   1      37.712  23.041  26.302  1.00  0.00    -0.460 OA
BRANCH  22  23
ATOM     23  C   UNL A   1      39.044  22.904  26.269  1.00  0.00     0.338 C 
ATOM     24  O   UNL A   1      39.716  22.024  25.774  1.00  0.00    -0.246 OA
BRANCH  23  25
ATOM     25  C   UNL A   1      39.473  24.135  26.929  1.00  0.00     0.060 A 
ATOM     26  C   UNL A   1      40.218  25.061  26.200  1.00  0.00     0.016 A 
ATOM     27  C   UNL A   1      38.942  24.434  28.192  1.00  0.00     0.016 A 
ATOM     28  C   UNL A   1      40.470  26.303  26.767  1.00  0.00     0.010 A 
ATOM     29  C   UNL A   1      39.177  25.681  28.744  1.00  0.00     0.010 A 
ATOM     30  C   UNL A   1      39.968  26.603  28.043  1.00  0.00    -0.014 A 
BRANCH  30  31
ATOM     31  C   UNL A   1      40.390  27.839  28.719  1.00  0.00     0.031 A 
ATOM     32  C   UNL A   1      41.779  27.890  29.279  1.00  0.00     0.074 A 
ATOM     33  C   UNL A   1      39.542  28.877  28.811  1.00  0.00     0.049 A 
ATOM     34  N   UNL A   1      42.379  28.866  29.902  1.00  0.00    -0.248 NA
ATOM     35  C   UNL A   1      42.600  26.674  29.122  1.00  0.00     0.031 C 
ATOM     36  C   UNL A   1      38.173  28.902  28.290  1.00  0.00     0.029 A 
ATOM     37  N   UNL A   1      39.709  30.111  29.378  1.00  0.00    -0.354 N 
ATOM     38  C   UNL A   1      43.644  28.383  30.212  1.00  0.00     0.074 A 
ATOM     39  C   UNL A   1      43.713  27.018  29.750  1.00  0.00     0.031 C 
ATOM     40  C   UNL A   1      37.628  30.101  28.553  1.00  0.00     0.029 A 
ATOM     41  C   UNL A   1      38.597  30.912  29.287  1.00  0.00     0.049 A 
ATOM     42  H   UNL A   1      40.546  30.398  29.809  1.00  0.00     0.167 HD
ATOM     43  C   UNL A   1      44.661  29.036  30.821  1.00  0.00     0.031 A 
ATOM     44  C   UNL A   1      38.390  32.156  29.759  1.00  0.00     0.031 A 
ATOM     45  C   UNL A   1      44.557  30.390  31.287  1.00  0.00     0.049 A 
ATOM     46  C   UNL A   1      39.521  32.843  30.475  1.00  0.00     0.074 A 
ATOM     47  C   UNL A   1      45.522  31.166  31.900  1.00  0.00     0.029 A 
ATOM     48  N   UNL A   1      43.408  31.164  31.198  1.00  0.00    -0.354 N 
ATOM     49  N   UNL A   1      40.734  32.397  30.717  1.00  0.00    -0.248 NA
ATOM     50  C   UNL A   1      39.265  34.199  30.974  1.00  0.00     0.031 C 
ATOM     51  C   UNL A   1      44.938  32.392  32.234  1.00  0.00     0.029 A 
ATOM     52  C   UNL A   1      43.629  32.402  31.772  1.00  0.00     0.049 A 
ATOM     53  H   UNL A   1      42.562  30.876  30.787  1.00  0.00     0.167 HD
ATOM     54  C   UNL A   1      41.392  33.426  31.378  1.00  0.00     0.074 A 
ATOM     55  C   UNL A   1      40.448  34.522  31.481  1.00  0.00     0.031 C 
ATOM     56  C   UNL A   1      42.660  33.467  31.858  1.00  0.00     0.031 A 
BRANCH  43  57
ATOM     57  C   UNL A   1      45.941  28.277  31.037  1.00  0.00    -0.014 A 
ATOM     58  C   UNL A   1      46.146  27.504  32.195  1.00  0.00     0.010 A 
ATOM     59  C   UNL A   1      46.952  28.325  30.060  1.00  0.00     0.010 A 
ATOM     60  C   UNL A   1      47.351  26.822  32.388  1.00  0.00     0.020 A 
ATOM     61  C   UNL A   1      48.148  27.623  30.237  1.00  0.00     0.020 A 
ATOM     62  C   UNL A   1      48.345  26.886  31.407  1.00  0.00     0.054 A 
BRANCH  62  63
ATOM     63  S   UNL A   1      49.887  25.970  31.671  1.00  0.00     0.124 S 
ATOM     64  O   UNL A   1      50.801  27.030  32.087  1.00  0.00    -0.237 OA
ATOM     65  O   UNL A   1      49.516  25.015  32.713  1.00  0.00    -0.237 OA
ATOM     66  O   UNL A   1      50.170  25.382  30.364  1.00  0.00    -0.744 OA
ENDBRANCH  62  63
ENDBRANCH  43  57
BRANCH  44  67
ATOM     67  C   UNL A   1      37.068  32.814  29.571  1.00  0.00    -0.014 A 
ATOM     68  C   UNL A   1      36.034  32.637  30.506  1.00  0.00     0.010 A 
ATOM     69  C   UNL A   1      36.845  33.647  28.458  1.00  0.00     0.010 A 
ATOM     70  C   UNL A   1      34.799  33.268  30.326  1.00  0.00     0.020 A 
ATOM     71  C   UNL A   1      35.622  34.300  28.288  1.00  0.00     0.020 A 
ATOM     72  C   UNL A   1      34.601  34.098  29.218  1.00  0.00     0.054 A 
BRANCH  72  73
ATOM     73  S   UNL A   1      33.010  34.949  29.033  1.00  0.00     0.124 S 
ATOM     74  O   UNL A   1      33.420  36.250  28.514  1.00  0.00    -0.237 OA
ATOM     75  O   UNL A   1      32.300  34.087  28.091  1.00  0.00    -0.237 OA
ATOM     76  O   UNL A   1      32.465  34.957  30.388  1.00  0.00    -0.744 OA
ENDBRANCH  72  73
ENDBRANCH  44  67
BRANCH  56  77
ATOM     77  C   UNL A   1      43.104  34.744  32.516  1.00  0.00    -0.014 A 
ATOM     78  C   UNL A   1      43.657  35.793  31.762  1.00  0.00     0.010 A 
ATOM     79  C   UNL A   1      42.892  34.920  33.895  1.00  0.00     0.010 A 
ATOM     80  C   UNL A   1      44.013  36.992  32.383  1.00  0.00     0.020 A 
ATOM     81  C   UNL A   1      43.220  36.128  34.514  1.00  0.00     0.020 A 
ATOM     82  C   UNL A   1      43.790  37.152  33.755  1.00  0.00     0.054 A 
BRANCH  82  83
ATOM     83  S   UNL A   1      44.208  38.738  34.525  1.00  0.00     0.124 S 
ATOM     84  O   UNL A   1      45.558  38.974  34.021  1.00  0.00    -0.237 OA
ATOM     85  O   UNL A   1      43.177  39.630  34.000  1.00  0.00    -0.237 OA
ATOM     86  O   UNL A   1      44.116  38.463  35.957  1.00  0.00    -0.744 OA
ENDBRANCH  82  83
ENDBRANCH  56  77
ENDBRANCH  30  31
ENDBRANCH  23  25
ENDBRANCH  22  23
ENDBRANCH  21  22
ENDBRANCH  20  21
ENDBRANCH  19  20
ENDBRANCH   1  19
TORSDOF 22
ENDMDL
MODEL 3
REMARK VINA RESULT:      -8.9      2.049      3.773
REMARK SMILES CCc1nc(COC)cc(OCC(=O)OCCOCCOC(=O)c2ccc(-c3c4nc(c(-c5ccc(S(=O)(=O)[O-])cc5)c5ccc([nH]5)c(-c5ccc(S(=O)(=O)[O-])cc5)c5nc(c(-c6ccc(S(=O)(=O)[O-])cc6)c6ccc3[nH]6)C=C5)C=C4)cc2)n1
REMARK SMILES IDX 17 1 16 2 15 3 13 4 14 5 12 6 11 7 10 8 3 9 4 10 84 11 5 12
REMARK SMILES IDX 9 13 2 14 1 15 6 16 7 17 8 18 18 19 19 20 20 21 21 22 22 23
REMARK SMILES IDX 23 24 24 25 25 26 83 27 26 28 82 29 27 30 28 31 29 32 76 33
REMARK SMILES IDX 30 34 81 35 75 36 77 37 31 38 80 39 74 40 73 41 32 43 62 44
REMARK SMILES IDX 43 45 61 46 44 47 47 48 60 49 78 50 45 51 46 52 59 54 79 55
REMARK SMILES IDX 48 56 33 57 34 58 42 59 35 60 41 61 36 62 37 63 38 64 39 65
REMARK SMILES IDX 40 66 63 67 64 68 72 69 65 70 71 71 66 72 67 73 68 74 69 75
REMARK SMILES IDX 70 76 49 77 50 78 58 79 51 80 57 81 52 82 53 83 54 84 55 85
REMARK SMILES IDX 56 86
REMARK H PARENT 77 42 47 53
REMARK Flexibility Score: inf
ROOT
ATOM      1  C   UNL A   1      33.933  25.765  24.979  1.00  0.00     0.202 C 
ENDROOT
BRANCH   1   2
ATOM      2  C   UNL A   1      33.334  24.934  26.118  1.00  0.00     0.261 C 
BRANCH   2   3
ATOM      3  O   UNL A   1      32.205  24.117  25.737  1.00  0.00    -0.461 OA
BRANCH   3   4
ATOM      4  C   UNL A   1      31.053  24.319  26.430  1.00  0.00     0.344 C 
ATOM      5  O   UNL A   1      30.581  23.530  27.244  1.00  0.00    -0.248 OA
BRANCH   4   6
ATOM      6  C   UNL A   1      30.333  25.631  26.084  1.00  0.00     0.353 C 
BRANCH   6   7
ATOM      7  O   UNL A   1      29.403  25.733  25.030  1.00  0.00    -0.466 OA
BRANCH   7   8
ATOM      8  C   UNL A   1      29.631  26.531  23.948  1.00  0.00     0.217 A 
ATOM      9  C   UNL A   1      31.268  27.081  22.424  1.00  0.00     0.132 A 
ATOM     10  N   UNL A   1      30.632  28.200  22.044  1.00  0.00    -0.235 NA
ATOM     11  N   UNL A   1      30.807  26.243  23.368  1.00  0.00    -0.198 NA
ATOM     12  C   UNL A   1      29.457  28.485  22.643  1.00  0.00     0.074 A 
ATOM     13  C   UNL A   1      28.877  27.622  23.568  1.00  0.00     0.094 A 
BRANCH   9  14
ATOM     14  C   UNL A   1      32.583  26.720  21.783  1.00  0.00     0.074 C 
ATOM     15  C   UNL A   1      32.633  25.335  21.156  1.00  0.00     0.012 C 
ENDBRANCH   9  14
BRANCH  12  16
ATOM     16  C   UNL A   1      28.786  29.809  22.305  1.00  0.00     0.216 C 
BRANCH  16  17
ATOM     17  O   UNL A   1      27.699  30.193  23.159  1.00  0.00    -0.378 OA
ATOM     18  C   UNL A   1      27.589  31.594  23.379  1.00  0.00     0.195 C 
ENDBRANCH  16  17
ENDBRANCH  12  16
ENDBRANCH   7   8
ENDBRANCH   6   7
ENDBRANCH   4   6
ENDBRANCH   3   4
ENDBRANCH   2   3
ENDBRANCH   1   2
BRANCH   1  19
ATOM     19  O   UNL A   1      33.882  27.178  25.092  1.00  0.00    -0.374 OA
BRANCH  19  20
ATOM     20  C   UNL A   1      32.836  27.779  25.835  1.00  0.00     0.202 C 
BRANCH  20  21
ATOM     21  C   UNL A   1      33.110  28.981  26.744  1.00  0.00     0.261 C 
BRANCH  21  22
ATOM     22  O   UNL A   1      34.436  29.441  26.808  1.00  0.00    -0.460 OA
BRANCH  22  23
ATOM     23  C   UNL A   1      34.743  30.288  27.799  1.00  0.00     0.338 C 
ATOM     24  O   UNL A   1      34.063  31.150  28.315  1.00  0.00    -0.246 OA
BRANCH  23  25
ATOM     25  C   UNL A   1      36.093  29.846  28.141  1.00  0.00     0.060 A 
ATOM     26  C   UNL A   1      37.115  30.035  27.212  1.00  0.00     0.016 A 
ATOM     27  C   UNL A   1      36.350  29.449  29.461  1.00  0.00     0.016 A 
ATOM     28  C   UNL A   1      38.423  29.783  27.604  1.00  0.00     0.010 A 
ATOM     29  C   UNL A   1      37.657  29.219  29.854  1.00  0.00     0.010 A 
ATOM     30  C   UNL A   1      38.689  29.357  28.914  1.00  0.00    -0.014 A 
BRANCH  30  31
ATOM     31  C   UNL A   1      40.044  28.911  29.273  1.00  0.00     0.031 A 
ATOM     32  C   UNL A   1      40.919  29.870  30.022  1.00  0.00     0.074 A 
ATOM     33  C   UNL A   1      40.457  27.678  28.935  1.00  0.00     0.049 A 
ATOM     34  N   UNL A   1      42.138  29.704  30.455  1.00  0.00    -0.248 NA
ATOM     35  C   UNL A   1      40.347  31.197  30.315  1.00  0.00     0.031 C 
ATOM     36  C   UNL A   1      39.661  26.689  28.206  1.00  0.00     0.029 A 
ATOM     37  N   UNL A   1      41.650  27.050  29.161  1.00  0.00    -0.354 N 
ATOM     38  C   UNL A   1      42.478  30.902  31.070  1.00  0.00     0.074 A 
ATOM     39  C   UNL A   1      41.358  31.801  30.918  1.00  0.00     0.031 C 
ATOM     40  C   UNL A   1      40.389  25.570  28.054  1.00  0.00     0.029 A 
ATOM     41  C   UNL A   1      41.708  25.778  28.647  1.00  0.00     0.049 A 
ATOM     42  H   UNL A   1      42.397  27.469  29.647  1.00  0.00     0.167 HD
ATOM     43  C   UNL A   1      43.625  31.214  31.715  1.00  0.00     0.031 A 
ATOM     44  C   UNL A   1      42.722  24.892  28.648  1.00  0.00     0.031 A 
ATOM     45  C   UNL A   1      44.730  30.305  31.835  1.00  0.00     0.049 A 
ATOM     46  C   UNL A   1      44.005  25.281  29.331  1.00  0.00     0.074 A 
ATOM     47  C   UNL A   1      45.936  30.497  32.482  1.00  0.00     0.029 A 
ATOM     48  N   UNL A   1      44.762  29.031  31.283  1.00  0.00    -0.354 N 
ATOM     49  N   UNL A   1      44.298  26.399  29.958  1.00  0.00    -0.248 NA
ATOM     50  C   UNL A   1      45.090  24.292  29.319  1.00  0.00     0.031 C 
ATOM     51  C   UNL A   1      46.721  29.358  32.271  1.00  0.00     0.029 A 
ATOM     52  C   UNL A   1      45.980  28.434  31.548  1.00  0.00     0.049 A 
ATOM     53  H   UNL A   1      44.027  28.615  30.778  1.00  0.00     0.167 HD
ATOM     54  C   UNL A   1      45.595  26.240  30.432  1.00  0.00     0.074 A 
ATOM     55  C   UNL A   1      46.020  24.911  30.035  1.00  0.00     0.031 C 
ATOM     56  C   UNL A   1      46.367  27.108  31.131  1.00  0.00     0.031 A 
BRANCH  43  57
ATOM     57  C   UNL A   1      43.739  32.595  32.300  1.00  0.00    -0.014 A 
ATOM     58  C   UNL A   1      44.295  33.657  31.564  1.00  0.00     0.010 A 
ATOM     59  C   UNL A   1      43.269  32.839  33.604  1.00  0.00     0.010 A 
ATOM     60  C   UNL A   1      44.411  34.929  32.132  1.00  0.00     0.020 A 
ATOM     61  C   UNL A   1      43.358  34.116  34.165  1.00  0.00     0.020 A 
ATOM     62  C   UNL A   1      43.942  35.150  33.430  1.00  0.00     0.054 A 
BRANCH  62  63
ATOM     63  S   UNL A   1      44.079  36.816  34.133  1.00  0.00     0.124 S 
ATOM     64  O   UNL A   1      43.649  36.600  35.511  1.00  0.00    -0.237 OA
ATOM     65  O   UNL A   1      45.498  37.119  33.958  1.00  0.00    -0.237 OA
ATOM     66  O   UNL A   1      43.170  37.615  33.314  1.00  0.00    -0.744 OA
ENDBRANCH  62  63
ENDBRANCH  43  57
BRANCH  44  67
ATOM     67  C   UNL A   1      42.559  23.572  27.982  1.00  0.00    -0.014 A 
ATOM     68  C   UNL A   1      42.872  23.406  26.622  1.00  0.00     0.010 A 
ATOM     69  C   UNL A   1      42.109  22.459  28.718  1.00  0.00     0.010 A 
ATOM     70  C   UNL A   1      42.725  22.158  26.007  1.00  0.00     0.020 A 
ATOM     71  C   UNL A   1      41.985  21.205  28.115  1.00  0.00     0.020 A 
ATOM     72  C   UNL A   1      42.285  21.064  26.759  1.00  0.00     0.054 A 
BRANCH  72  73
ATOM     73  S   UNL A   1      42.153  19.443  25.955  1.00  0.00     0.124 S 
ATOM     74  O   UNL A   1      42.677  18.550  26.984  1.00  0.00    -0.237 OA
ATOM     75  O   UNL A   1      40.720  19.337  25.694  1.00  0.00    -0.237 OA
ATOM     76  O   UNL A   1      42.986  19.583  24.763  1.00  0.00    -0.744 OA
ENDBRANCH  72  73
ENDBRANCH  44  67
BRANCH  56  77
ATOM     77  C   UNL A   1      47.739  26.640  31.530  1.00  0.00    -0.014 A 
ATOM     78  C   UNL A   1      48.854  26.883  30.712  1.00  0.00     0.010 A 
ATOM     79  C   UNL A   1      47.919  26.017  32.779  1.00  0.00     0.010 A 
ATOM     80  C   UNL A   1      50.128  26.488  31.125  1.00  0.00     0.020 A 
ATOM     81  C   UNL A   1      49.195  25.647  33.207  1.00  0.00     0.020 A 
ATOM     82  C   UNL A   1      50.290  25.875  32.372  1.00  0.00     0.054 A 
BRANCH  82  83
ATOM     83  S   UNL A   1      51.961  25.424  32.909  1.00  0.00     0.124 S 
ATOM     84  O   UNL A   1      51.786  25.277  34.352  1.00  0.00    -0.237 OA
ATOM     85  O   UNL A   1      52.209  24.184  32.178  1.00  0.00    -0.237 OA
ATOM     86  O   UNL A   1      52.778  26.561  32.493  1.00  0.00    -0.744 OA
ENDBRANCH  82  83
ENDBRANCH  56  77
ENDBRANCH  30  31
ENDBRANCH  23  25
ENDBRANCH  22  23
ENDBRANCH  21  22
ENDBRANCH  20  21
ENDBRANCH  19  20
ENDBRANCH   1  19
TORSDOF 22
ENDMDL
