MODEL 1
REMARK VINA RESULT:     -11.8      0.000      0.000
REMARK SMILES Cc1cccc(CNC(=O)N[C@@H](CC2=c3ccccc3=NC2)C(=O)OCCOCCOC(=O)c2ccc(-c3c4nc(c(-c5ccc(S(=O)(=O)[O-])cc5)c5ccc([nH]5)c(-c5ccc(S(=O)(=O)[O-])cc5)c5nc(c(-c6ccc(S(=O)(=O)[O-])cc6)c6ccc3[nH]6)C=C5)C=C4)cc2)c1
REMARK SMILES IDX 28 1 27 2 26 3 25 4 23 5 24 6 12 7 11 8 8 9 9 10 10 12 7 14
REMARK SMILES IDX 6 15 1 16 2 17 3 18 94 19 4 20 5 21 13 22 14 23 15 24 22 25
REMARK SMILES IDX 16 26 20 27 21 28 17 29 19 30 18 31 29 32 30 33 31 34 32 35
REMARK SMILES IDX 33 36 34 37 35 38 93 39 36 40 92 41 37 42 38 43 39 44 86 45
REMARK SMILES IDX 40 46 91 47 85 48 87 49 41 50 90 51 84 52 83 53 42 55 72 56
REMARK SMILES IDX 53 57 71 58 54 59 57 60 70 61 88 62 55 63 56 64 69 66 89 67
REMARK SMILES IDX 58 68 43 69 44 70 52 71 45 72 51 73 46 74 47 75 48 76 49 77
REMARK SMILES IDX 50 78 73 79 74 80 82 81 75 82 81 83 76 84 77 85 78 86 79 87
REMARK SMILES IDX 80 88 59 89 60 90 68 91 61 92 67 93 62 94 63 95 64 96 65 97
REMARK SMILES IDX 66 98
REMARK H PARENT 8 11 11 13 87 54 57 65
REMARK Flexibility Score: inf
ROOT
ATOM      1  O   UNL A   1      35.876  21.272  24.618  1.00  0.00    -0.374 OA
ENDROOT
BRANCH   1   2
ATOM      2  C   UNL A   1      34.634  21.937  24.485  1.00  0.00     0.202 C 
BRANCH   2   3
ATOM      3  C   UNL A   1      34.753  23.429  24.674  1.00  0.00     0.261 C 
BRANCH   3   4
ATOM      4  O   UNL A   1      33.485  24.037  24.847  1.00  0.00    -0.462 OA
BRANCH   4   5
ATOM      5  C   UNL A   1      33.466  25.322  24.458  1.00  0.00     0.329 C 
ATOM      6  O   UNL A   1      33.909  25.719  23.390  1.00  0.00    -0.250 OA
BRANCH   5   7
ATOM      7  C   UNL A   1      32.652  26.161  25.454  1.00  0.00     0.198 C 
BRANCH   7   8
ATOM      8  N   UNL A   1      31.621  25.412  26.177  1.00  0.00    -0.324 N 
ATOM      9  N   UNL A   1      29.629  25.330  24.942  1.00  0.00    -0.334 N 
ATOM     10  C   UNL A   1      30.368  25.018  25.998  1.00  0.00     0.315 C 
ATOM     11  H   UNL A   1      28.691  25.039  25.014  1.00  0.00     0.165 HD
ATOM     12  O   UNL A   1      29.856  24.336  26.887  1.00  0.00    -0.249 OA
ATOM     13  H   UNL A   1      31.956  25.115  27.055  1.00  0.00     0.166 HD
BRANCH   9  14
ATOM     14  C   UNL A   1      29.935  26.010  23.718  1.00  0.00     0.153 C 
BRANCH  14  15
ATOM     15  C   UNL A   1      29.107  27.241  23.485  1.00  0.00    -0.028 A 
ATOM     16  C   UNL A   1      29.569  30.511  21.617  1.00  0.00     0.044 C 
ATOM     17  C   UNL A   1      28.918  29.373  22.335  1.00  0.00    -0.051 A 
ATOM     18  C   UNL A   1      27.548  29.399  22.613  1.00  0.00     0.003 A 
ATOM     19  C   UNL A   1      29.680  28.276  22.745  1.00  0.00     0.009 A 
ATOM     20  C   UNL A   1      26.971  28.388  23.374  1.00  0.00     0.001 A 
ATOM     21  C   UNL A   1      27.756  27.333  23.836  1.00  0.00     0.005 A 
ENDBRANCH  14  15
ENDBRANCH   9  14
ENDBRANCH   7   8
BRANCH   7  22
ATOM     22  C   UNL A   1      33.551  26.931  26.437  1.00  0.00     0.070 C 
BRANCH  22  23
ATOM     23  C   UNL A   1      33.705  28.426  26.389  1.00  0.00    -0.037 C 
ATOM     24  C   UNL A   1      32.976  29.416  25.871  1.00  0.00     0.001 A 
ATOM     25  C   UNL A   1      34.829  28.984  27.222  1.00  0.00     0.174 C 
ATOM     26  C   UNL A   1      31.826  29.591  25.036  1.00  0.00     0.010 A 
ATOM     27  C   UNL A   1      33.437  30.523  26.726  1.00  0.00     0.065 A 
ATOM     28  N   UNL A   1      34.539  30.410  27.401  1.00  0.00    -0.280 NA
ATOM     29  C   UNL A   1      30.980  30.587  25.310  1.00  0.00     0.001 A 
ATOM     30  C   UNL A   1      32.474  31.589  26.960  1.00  0.00     0.028 A 
ATOM     31  C   UNL A   1      31.269  31.465  26.396  1.00  0.00     0.002 A 
ENDBRANCH  22  23
ENDBRANCH   7  22
ENDBRANCH   5   7
ENDBRANCH   4   5
ENDBRANCH   3   4
ENDBRANCH   2   3
ENDBRANCH   1   2
BRANCH   1  32
ATOM     32  C   UNL A   1      36.915  22.195  24.917  1.00  0.00     0.202 C 
BRANCH  32  33
ATOM     33  C   UNL A   1      38.268  21.643  25.422  1.00  0.00     0.261 C 
BRANCH  33  34
ATOM     34  O   UNL A   1      38.740  22.276  26.616  1.00  0.00    -0.460 OA
BRANCH  34  35
ATOM     35  C   UNL A   1      40.002  22.772  26.625  1.00  0.00     0.338 C 
ATOM     36  O   UNL A   1      41.028  22.202  26.261  1.00  0.00    -0.246 OA
BRANCH  35  37
ATOM     37  C   UNL A   1      39.810  24.234  26.623  1.00  0.00     0.060 A 
ATOM     38  C   UNL A   1      40.551  25.118  25.828  1.00  0.00     0.016 A 
ATOM     39  C   UNL A   1      39.179  24.680  27.773  1.00  0.00     0.016 A 
ATOM     40  C   UNL A   1      40.796  26.422  26.281  1.00  0.00     0.010 A 
ATOM     41  C   UNL A   1      39.561  25.903  28.276  1.00  0.00     0.010 A 
ATOM     42  C   UNL A   1      40.391  26.785  27.558  1.00  0.00    -0.014 A 
BRANCH  42  43
ATOM     43  C   UNL A   1      40.879  27.954  28.322  1.00  0.00     0.031 A 
ATOM     44  C   UNL A   1      39.891  29.045  28.570  1.00  0.00     0.074 A 
ATOM     45  C   UNL A   1      42.051  27.861  29.016  1.00  0.00     0.049 A 
ATOM     46  N   UNL A   1      40.117  30.061  29.316  1.00  0.00    -0.248 NA
ATOM     47  C   UNL A   1      38.537  29.095  27.994  1.00  0.00     0.031 C 
ATOM     48  C   UNL A   1      42.416  28.508  30.292  1.00  0.00     0.029 A 
ATOM     49  N   UNL A   1      43.136  27.002  28.799  1.00  0.00    -0.354 N 
ATOM     50  C   UNL A   1      38.934  30.742  29.515  1.00  0.00     0.074 A 
ATOM     51  C   UNL A   1      37.984  30.130  28.634  1.00  0.00     0.031 C 
ATOM     52  C   UNL A   1      43.686  28.186  30.623  1.00  0.00     0.029 A 
ATOM     53  C   UNL A   1      44.270  27.438  29.504  1.00  0.00     0.049 A 
ATOM     54  H   UNL A   1      43.108  26.200  28.228  1.00  0.00     0.167 HD
ATOM     55  C   UNL A   1      38.906  31.695  30.484  1.00  0.00     0.031 A 
ATOM     56  C   UNL A   1      45.414  27.785  28.823  1.00  0.00     0.031 A 
ATOM     57  C   UNL A   1      40.269  31.905  30.994  1.00  0.00     0.049 A 
ATOM     58  C   UNL A   1      45.423  29.323  28.874  1.00  0.00     0.074 A 
ATOM     59  C   UNL A   1      40.914  31.537  32.159  1.00  0.00     0.029 A 
ATOM     60  N   UNL A   1      41.276  32.219  30.077  1.00  0.00    -0.354 N 
ATOM     61  N   UNL A   1      44.322  30.047  28.922  1.00  0.00    -0.248 NA
ATOM     62  C   UNL A   1      46.617  30.131  29.127  1.00  0.00     0.031 C 
ATOM     63  C   UNL A   1      42.323  31.538  31.890  1.00  0.00     0.029 A 
ATOM     64  C   UNL A   1      42.536  31.923  30.569  1.00  0.00     0.049 A 
ATOM     65  H   UNL A   1      41.108  32.605  29.187  1.00  0.00     0.167 HD
ATOM     66  C   UNL A   1      44.619  31.304  29.372  1.00  0.00     0.074 A 
ATOM     67  C   UNL A   1      46.076  31.333  29.405  1.00  0.00     0.031 C 
ATOM     68  C   UNL A   1      43.722  32.258  29.777  1.00  0.00     0.031 A 
BRANCH  55  69
ATOM     69  C   UNL A   1      37.660  32.330  31.079  1.00  0.00    -0.014 A 
ATOM     70  C   UNL A   1      36.809  33.067  30.232  1.00  0.00     0.010 A 
ATOM     71  C   UNL A   1      37.293  32.310  32.445  1.00  0.00     0.010 A 
ATOM     72  C   UNL A   1      35.669  33.739  30.707  1.00  0.00     0.020 A 
ATOM     73  C   UNL A   1      36.143  32.964  32.934  1.00  0.00     0.020 A 
ATOM     74  C   UNL A   1      35.336  33.678  32.057  1.00  0.00     0.054 A 
BRANCH  74  75
ATOM     75  S   UNL A   1      33.842  34.533  32.634  1.00  0.00     0.124 S 
ATOM     76  O   UNL A   1      34.387  35.537  33.546  1.00  0.00    -0.237 OA
ATOM     77  O   UNL A   1      33.276  35.052  31.393  1.00  0.00    -0.237 OA
ATOM     78  O   UNL A   1      33.060  33.478  33.277  1.00  0.00    -0.744 OA
ENDBRANCH  74  75
ENDBRANCH  55  69
BRANCH  56  79
ATOM     79  C   UNL A   1      45.817  26.820  27.677  1.00  0.00    -0.014 A 
ATOM     80  C   UNL A   1      45.080  26.762  26.458  1.00  0.00     0.010 A 
ATOM     81  C   UNL A   1      47.172  26.462  27.558  1.00  0.00     0.010 A 
ATOM     82  C   UNL A   1      45.725  26.699  25.177  1.00  0.00     0.020 A 
ATOM     83  C   UNL A   1      47.824  26.413  26.297  1.00  0.00     0.020 A 
ATOM     84  C   UNL A   1      47.118  26.623  25.112  1.00  0.00     0.054 A 
BRANCH  84  85
ATOM     85  S   UNL A   1      48.032  27.277  23.625  1.00  0.00     0.124 S 
ATOM     86  O   UNL A   1      47.075  28.202  23.035  1.00  0.00    -0.237 OA
ATOM     87  O   UNL A   1      49.227  27.891  24.198  1.00  0.00    -0.237 OA
ATOM     88  O   UNL A   1      48.303  26.069  22.848  1.00  0.00    -0.744 OA
ENDBRANCH  84  85
ENDBRANCH  56  79
BRANCH  68  89
ATOM     89  C   UNL A   1      43.928  33.697  29.367  1.00  0.00    -0.014 A 
ATOM     90  C   UNL A   1      44.068  34.080  28.025  1.00  0.00     0.010 A 
ATOM     91  C   UNL A   1      43.791  34.733  30.322  1.00  0.00     0.010 A 
ATOM     92  C   UNL A   1      44.171  35.421  27.663  1.00  0.00     0.020 A 
ATOM     93  C   UNL A   1      43.807  36.078  29.961  1.00  0.00     0.020 A 
ATOM     94  C   UNL A   1      44.047  36.409  28.635  1.00  0.00     0.054 A 
BRANCH  94  95
ATOM     95  S   UNL A   1      44.212  38.131  28.134  1.00  0.00     0.124 S 
ATOM     96  O   UNL A   1      43.681  38.091  26.774  1.00  0.00    -0.237 OA
ATOM     97  O   UNL A   1      43.381  38.829  29.112  1.00  0.00    -0.237 OA
ATOM     98  O   UNL A   1      45.645  38.389  28.241  1.00  0.00    -0.744 OA
ENDBRANCH  94  95
ENDBRANCH  68  89
ENDBRANCH  42  43
ENDBRANCH  35  37
ENDBRANCH  34  35
ENDBRANCH  33  34
ENDBRANCH  32  33
ENDBRANCH   1  32
TORSDOF 22
ENDMDL
MODEL 2
REMARK VINA RESULT:     -11.6      1.968      3.879
REMARK SMILES Cc1cccc(CNC(=O)N[C@@H](CC2=c3ccccc3=NC2)C(=O)OCCOCCOC(=O)c2ccc(-c3c4nc(c(-c5ccc(S(=O)(=O)[O-])cc5)c5ccc([nH]5)c(-c5ccc(S(=O)(=O)[O-])cc5)c5nc(c(-c6ccc(S(=O)(=O)[O-])cc6)c6ccc3[nH]6)C=C5)C=C4)cc2)c1
REMARK SMILES IDX 28 1 27 2 26 3 25 4 23 5 24 6 12 7 11 8 8 9 9 10 10 12 7 14
REMARK SMILES IDX 6 15 1 16 2 17 3 18 94 19 4 20 5 21 13 22 14 23 15 24 22 25
REMARK SMILES IDX 16 26 20 27 21 28 17 29 19 30 18 31 29 32 30 33 31 34 32 35
REMARK SMILES IDX 33 36 34 37 35 38 93 39 36 40 92 41 37 42 38 43 39 44 86 45
REMARK SMILES IDX 40 46 91 47 85 48 87 49 41 50 90 51 84 52 83 53 42 55 72 56
REMARK SMILES IDX 53 57 71 58 54 59 57 60 70 61 88 62 55 63 56 64 69 66 89 67
REMARK SMILES IDX 58 68 43 69 44 70 52 71 45 72 51 73 46 74 47 75 48 76 49 77
REMARK SMILES IDX 50 78 73 79 74 80 82 81 75 82 81 83 76 84 77 85 78 86 79 87
REMARK SMILES IDX 80 88 59 89 60 90 68 91 61 92 67 93 62 94 63 95 64 96 65 97
REMARK SMILES IDX 66 98
REMARK H PARENT 8 11 11 13 87 54 57 65
REMARK Flexibility Score: inf
ROOT
ATOM      1  O   UNL A   1      36.997  23.673  25.261  1.00  0.00    -0.374 OA
ENDROOT
BRANCH   1   2
ATOM      2  C   UNL A   1      35.692  23.953  25.728  1.00  0.00     0.202 C 
BRANCH   2   3
ATOM      3  C   UNL A   1      34.743  24.316  24.612  1.00  0.00     0.261 C 
BRANCH   3   4
ATOM      4  O   UNL A   1      33.665  25.107  25.080  1.00  0.00    -0.462 OA
BRANCH   4   5
ATOM      5  C   UNL A   1      32.554  24.962  24.340  1.00  0.00     0.329 C 
ATOM      6  O   UNL A   1      32.524  25.079  23.123  1.00  0.00    -0.250 OA
BRANCH   5   7
ATOM      7  C   UNL A   1      31.400  24.453  25.216  1.00  0.00     0.198 C 
BRANCH   7   8
ATOM      8  N   UNL A   1      31.824  23.791  26.453  1.00  0.00    -0.324 N 
ATOM      9  N   UNL A   1      32.300  21.527  26.064  1.00  0.00    -0.334 N 
ATOM     10  C   UNL A   1      32.232  22.594  26.849  1.00  0.00     0.315 C 
ATOM     11  H   UNL A   1      32.528  20.697  26.541  1.00  0.00     0.165 HD
ATOM     12  O   UNL A   1      32.545  22.467  28.035  1.00  0.00    -0.249 OA
ATOM     13  H   UNL A   1      31.798  24.419  27.211  1.00  0.00     0.166 HD
BRANCH   9  14
ATOM     14  C   UNL A   1      32.105  21.353  24.656  1.00  0.00     0.153 C 
BRANCH  14  15
ATOM     15  C   UNL A   1      32.456  19.980  24.160  1.00  0.00    -0.028 A 
ATOM     16  C   UNL A   1      33.398  16.673  25.764  1.00  0.00     0.044 C 
ATOM     17  C   UNL A   1      32.956  17.676  24.748  1.00  0.00    -0.051 A 
ATOM     18  C   UNL A   1      32.715  17.289  23.426  1.00  0.00     0.003 A 
ATOM     19  C   UNL A   1      32.791  19.014  25.111  1.00  0.00     0.009 A 
ATOM     20  C   UNL A   1      32.409  18.245  22.464  1.00  0.00     0.001 A 
ATOM     21  C   UNL A   1      32.315  19.588  22.826  1.00  0.00     0.005 A 
ENDBRANCH  14  15
ENDBRANCH   9  14
ENDBRANCH   7   8
BRANCH   7  22
ATOM     22  C   UNL A   1      30.370  25.556  25.518  1.00  0.00     0.070 C 
BRANCH  22  23
ATOM     23  C   UNL A   1      30.690  27.019  25.380  1.00  0.00    -0.037 C 
ATOM     24  C   UNL A   1      31.441  27.873  26.077  1.00  0.00     0.001 A 
ATOM     25  C   UNL A   1      30.200  27.667  24.112  1.00  0.00     0.174 C 
ATOM     26  C   UNL A   1      32.184  27.912  27.300  1.00  0.00     0.010 A 
ATOM     27  C   UNL A   1      31.711  28.866  25.023  1.00  0.00     0.065 A 
ATOM     28  N   UNL A   1      30.969  28.906  23.960  1.00  0.00    -0.280 NA
ATOM     29  C   UNL A   1      33.338  28.582  27.330  1.00  0.00     0.001 A 
ATOM     30  C   UNL A   1      32.974  29.582  25.132  1.00  0.00     0.028 A 
ATOM     31  C   UNL A   1      33.772  29.269  26.157  1.00  0.00     0.002 A 
ENDBRANCH  22  23
ENDBRANCH   7  22
ENDBRANCH   5   7
ENDBRANCH   4   5
ENDBRANCH   3   4
ENDBRANCH   2   3
ENDBRANCH   1   2
BRANCH   1  32
ATOM     32  C   UNL A   1      37.251  22.274  25.272  1.00  0.00     0.202 C 
BRANCH  32  33
ATOM     33  C   UNL A   1      38.680  21.787  25.599  1.00  0.00     0.261 C 
BRANCH  33  34
ATOM     34  O   UNL A   1      39.182  22.269  26.850  1.00  0.00    -0.460 OA
BRANCH  34  35
ATOM     35  C   UNL A   1      40.381  22.902  26.862  1.00  0.00     0.338 C 
ATOM     36  O   UNL A   1      41.460  22.458  26.478  1.00  0.00    -0.246 OA
BRANCH  35  37
ATOM     37  C   UNL A   1      40.028  24.333  26.894  1.00  0.00     0.060 A 
ATOM     38  C   UNL A   1      40.708  25.321  26.172  1.00  0.00     0.016 A 
ATOM     39  C   UNL A   1      39.289  24.664  28.018  1.00  0.00     0.016 A 
ATOM     40  C   UNL A   1      40.782  26.627  26.678  1.00  0.00     0.010 A 
ATOM     41  C   UNL A   1      39.504  25.901  28.581  1.00  0.00     0.010 A 
ATOM     42  C   UNL A   1      40.269  26.896  27.941  1.00  0.00    -0.014 A 
BRANCH  42  43
ATOM     43  C   UNL A   1      40.582  28.081  28.767  1.00  0.00     0.031 A 
ATOM     44  C   UNL A   1      39.647  29.239  28.648  1.00  0.00     0.074 A 
ATOM     45  C   UNL A   1      41.473  27.968  29.796  1.00  0.00     0.049 A 
ATOM     46  N   UNL A   1      39.705  30.286  29.384  1.00  0.00    -0.248 NA
ATOM     47  C   UNL A   1      38.543  29.327  27.679  1.00  0.00     0.031 C 
ATOM     48  C   UNL A   1      41.474  28.672  31.092  1.00  0.00     0.029 A 
ATOM     49  N   UNL A   1      42.507  27.038  29.964  1.00  0.00    -0.354 N 
ATOM     50  C   UNL A   1      38.571  31.043  29.175  1.00  0.00     0.074 A 
ATOM     51  C   UNL A   1      37.896  30.430  28.069  1.00  0.00     0.031 C 
ATOM     52  C   UNL A   1      42.553  28.302  31.816  1.00  0.00     0.029 A 
ATOM     53  C   UNL A   1      43.397  27.454  30.967  1.00  0.00     0.049 A 
ATOM     54  H   UNL A   1      42.598  26.204  29.447  1.00  0.00     0.167 HD
ATOM     55  C   UNL A   1      38.314  32.055  30.046  1.00  0.00     0.031 A 
ATOM     56  C   UNL A   1      44.717  27.693  30.663  1.00  0.00     0.031 A 
ATOM     57  C   UNL A   1      39.466  32.221  30.945  1.00  0.00     0.049 A 
ATOM     58  C   UNL A   1      44.821  29.229  30.647  1.00  0.00     0.074 A 
ATOM     59  C   UNL A   1      39.693  31.892  32.268  1.00  0.00     0.029 A 
ATOM     60  N   UNL A   1      40.726  32.420  30.374  1.00  0.00    -0.354 N 
ATOM     61  N   UNL A   1      43.814  30.014  30.320  1.00  0.00    -0.248 NA
ATOM     62  C   UNL A   1      45.935  29.984  31.225  1.00  0.00     0.031 C 
ATOM     63  C   UNL A   1      41.112  31.798  32.450  1.00  0.00     0.029 A 
ATOM     64  C   UNL A   1      41.749  32.086  31.246  1.00  0.00     0.049 A 
ATOM     65  H   UNL A   1      40.869  32.758  29.461  1.00  0.00     0.167 HD
ATOM     66  C   UNL A   1      44.048  31.279  30.785  1.00  0.00     0.074 A 
ATOM     67  C   UNL A   1      45.423  31.229  31.269  1.00  0.00     0.031 C 
ATOM     68  C   UNL A   1      43.142  32.305  30.849  1.00  0.00     0.031 A 
BRANCH  55  69
ATOM     69  C   UNL A   1      36.995  32.794  30.196  1.00  0.00    -0.014 A 
ATOM     70  C   UNL A   1      36.631  33.731  29.207  1.00  0.00     0.010 A 
ATOM     71  C   UNL A   1      36.103  32.683  31.288  1.00  0.00     0.010 A 
ATOM     72  C   UNL A   1      35.461  34.504  29.296  1.00  0.00     0.020 A 
ATOM     73  C   UNL A   1      34.916  33.438  31.382  1.00  0.00     0.020 A 
ATOM     74  C   UNL A   1      34.603  34.349  30.380  1.00  0.00     0.054 A 
BRANCH  74  75
ATOM     75  S   UNL A   1      33.084  35.342  30.451  1.00  0.00     0.124 S 
ATOM     76  O   UNL A   1      33.598  36.707  30.372  1.00  0.00    -0.237 OA
ATOM     77  O   UNL A   1      32.349  34.877  29.279  1.00  0.00    -0.237 OA
ATOM     78  O   UNL A   1      32.489  34.981  31.737  1.00  0.00    -0.744 OA
ENDBRANCH  74  75
ENDBRANCH  55  69
BRANCH  56  79
ATOM     79  C   UNL A   1      45.383  26.637  29.741  1.00  0.00    -0.014 A 
ATOM     80  C   UNL A   1      44.649  25.527  29.229  1.00  0.00     0.010 A 
ATOM     81  C   UNL A   1      46.463  27.044  28.938  1.00  0.00     0.010 A 
ATOM     82  C   UNL A   1      44.768  25.098  27.864  1.00  0.00     0.020 A 
ATOM     83  C   UNL A   1      46.581  26.640  27.582  1.00  0.00     0.020 A 
ATOM     84  C   UNL A   1      45.678  25.737  27.018  1.00  0.00     0.054 A 
BRANCH  84  85
ATOM     85  S   UNL A   1      45.384  25.790  25.178  1.00  0.00     0.124 S 
ATOM     86  O   UNL A   1      44.025  25.282  25.051  1.00  0.00    -0.237 OA
ATOM     87  O   UNL A   1      45.560  27.200  24.843  1.00  0.00    -0.237 OA
ATOM     88  O   UNL A   1      46.435  24.922  24.652  1.00  0.00    -0.744 OA
ENDBRANCH  84  85
ENDBRANCH  56  79
BRANCH  68  89
ATOM     89  C   UNL A   1      43.568  33.701  30.463  1.00  0.00    -0.014 A 
ATOM     90  C   UNL A   1      43.889  34.677  31.419  1.00  0.00     0.010 A 
ATOM     91  C   UNL A   1      43.843  34.010  29.110  1.00  0.00     0.010 A 
ATOM     92  C   UNL A   1      44.360  35.931  31.041  1.00  0.00     0.020 A 
ATOM     93  C   UNL A   1      44.396  35.231  28.727  1.00  0.00     0.020 A 
ATOM     94  C   UNL A   1      44.603  36.201  29.698  1.00  0.00     0.054 A 
BRANCH  94  95
ATOM     95  S   UNL A   1      45.188  37.842  29.244  1.00  0.00     0.124 S 
ATOM     96  O   UNL A   1      44.561  38.669  30.271  1.00  0.00    -0.237 OA
ATOM     97  O   UNL A   1      46.639  37.705  29.348  1.00  0.00    -0.237 OA
ATOM     98  O   UNL A   1      44.679  38.031  27.888  1.00  0.00    -0.744 OA
ENDBRANCH  94  95
ENDBRANCH  68  89
ENDBRANCH  42  43
ENDBRANCH  35  37
ENDBRANCH  34  35
ENDBRANCH  33  34
ENDBRANCH  32  33
ENDBRANCH   1  32
TORSDOF 22
ENDMDL
MODEL 3
REMARK VINA RESULT:     -11.5      1.663      2.123
REMARK SMILES Cc1cccc(CNC(=O)N[C@@H](CC2=c3ccccc3=NC2)C(=O)OCCOCCOC(=O)c2ccc(-c3c4nc(c(-c5ccc(S(=O)(=O)[O-])cc5)c5ccc([nH]5)c(-c5ccc(S(=O)(=O)[O-])cc5)c5nc(c(-c6ccc(S(=O)(=O)[O-])cc6)c6ccc3[nH]6)C=C5)C=C4)cc2)c1
REMARK SMILES IDX 28 1 27 2 26 3 25 4 23 5 24 6 12 7 11 8 8 9 9 10 10 12 7 14
REMARK SMILES IDX 6 15 1 16 2 17 3 18 94 19 4 20 5 21 13 22 14 23 15 24 22 25
REMARK SMILES IDX 16 26 20 27 21 28 17 29 19 30 18 31 29 32 30 33 31 34 32 35
REMARK SMILES IDX 33 36 34 37 35 38 93 39 36 40 92 41 37 42 38 43 39 44 86 45
REMARK SMILES IDX 40 46 91 47 85 48 87 49 41 50 90 51 84 52 83 53 42 55 72 56
REMARK SMILES IDX 53 57 71 58 54 59 57 60 70 61 88 62 55 63 56 64 69 66 89 67
REMARK SMILES IDX 58 68 43 69 44 70 52 71 45 72 51 73 46 74 47 75 48 76 49 77
REMARK SMILES IDX 50 78 73 79 74 80 82 81 75 82 81 83 76 84 77 85 78 86 79 87
REMARK SMILES IDX 80 88 59 89 60 90 68 91 61 92 67 93 62 94 63 95 64 96 65 97
REMARK SMILES IDX 66 98
REMARK H PARENT 8 11 11 13 87 54 57 65
REMARK Flexibility Score: inf
ROOT
ATOM      1  O   UNL A   1      35.497  22.331  24.520  1.00  0.00    -0.374 OA
ENDROOT
BRANCH   1   2
ATOM      2  C   UNL A   1      34.432  23.262  24.493  1.00  0.00     0.202 C 
BRANCH   2   3
ATOM      3  C   UNL A   1      34.147  23.854  25.851  1.00  0.00     0.261 C 
BRANCH   3   4
ATOM      4  O   UNL A   1      33.012  24.701  25.824  1.00  0.00    -0.462 OA
BRANCH   4   5
ATOM      5  C   UNL A   1      33.335  26.005  25.822  1.00  0.00     0.329 C 
ATOM      6  O   UNL A   1      34.379  26.449  25.366  1.00  0.00    -0.250 OA
BRANCH   5   7
ATOM      7  C   UNL A   1      32.140  26.844  26.296  1.00  0.00     0.198 C 
BRANCH   7   8
ATOM      8  N   UNL A   1      30.962  26.060  26.679  1.00  0.00    -0.324 N 
ATOM      9  N   UNL A   1      29.868  25.218  24.783  1.00  0.00    -0.334 N 
ATOM     10  C   UNL A   1      30.010  25.347  26.096  1.00  0.00     0.315 C 
ATOM     11  H   UNL A   1      29.052  24.736  24.517  1.00  0.00     0.165 HD
ATOM     12  O   UNL A   1      29.190  24.789  26.828  1.00  0.00    -0.249 OA
ATOM     13  H   UNL A   1      30.843  26.065  27.657  1.00  0.00     0.166 HD
BRANCH   9  14
ATOM     14  C   UNL A   1      30.677  25.646  23.680  1.00  0.00     0.153 C 
BRANCH  14  15
ATOM     15  C   UNL A   1      30.365  27.035  23.204  1.00  0.00    -0.028 A 
ATOM     16  C   UNL A   1      27.266  29.219  23.042  1.00  0.00     0.044 C 
ATOM     17  C   UNL A   1      28.700  28.797  23.032  1.00  0.00    -0.051 A 
ATOM     18  C   UNL A   1      29.711  29.723  22.759  1.00  0.00     0.003 A 
ATOM     19  C   UNL A   1      29.039  27.466  23.286  1.00  0.00     0.009 A 
ATOM     20  C   UNL A   1      31.031  29.301  22.647  1.00  0.00     0.001 A 
ATOM     21  C   UNL A   1      31.349  27.957  22.834  1.00  0.00     0.005 A 
ENDBRANCH  14  15
ENDBRANCH   9  14
ENDBRANCH   7   8
BRANCH   7  22
ATOM     22  C   UNL A   1      32.526  27.824  27.417  1.00  0.00     0.070 C 
BRANCH  22  23
ATOM     23  C   UNL A   1      33.189  29.146  27.142  1.00  0.00    -0.037 C 
ATOM     24  C   UNL A   1      32.758  30.320  26.679  1.00  0.00     0.001 A 
ATOM     25  C   UNL A   1      34.614  29.261  27.616  1.00  0.00     0.174 C 
ATOM     26  C   UNL A   1      31.573  30.892  26.113  1.00  0.00     0.010 A 
ATOM     27  C   UNL A   1      33.792  31.197  27.255  1.00  0.00     0.065 A 
ATOM     28  N   UNL A   1      34.914  30.695  27.669  1.00  0.00    -0.280 NA
ATOM     29  C   UNL A   1      31.244  32.143  26.440  1.00  0.00     0.001 A 
ATOM     30  C   UNL A   1      33.374  32.557  27.562  1.00  0.00     0.028 A 
ATOM     31  C   UNL A   1      32.102  32.882  27.309  1.00  0.00     0.002 A 
ENDBRANCH  22  23
ENDBRANCH   7  22
ENDBRANCH   5   7
ENDBRANCH   4   5
ENDBRANCH   3   4
ENDBRANCH   2   3
ENDBRANCH   1   2
BRANCH   1  32
ATOM     32  C   UNL A   1      36.488  22.721  25.462  1.00  0.00     0.202 C 
BRANCH  32  33
ATOM     33  C   UNL A   1      37.897  22.097  25.351  1.00  0.00     0.261 C 
BRANCH  33  34
ATOM     34  O   UNL A   1      38.639  22.125  26.575  1.00  0.00    -0.460 OA
BRANCH  34  35
ATOM     35  C   UNL A   1      39.920  22.568  26.541  1.00  0.00     0.338 C 
ATOM     36  O   UNL A   1      40.910  21.952  26.154  1.00  0.00    -0.246 OA
BRANCH  35  37
ATOM     37  C   UNL A   1      39.789  24.036  26.527  1.00  0.00     0.060 A 
ATOM     38  C   UNL A   1      40.505  24.876  25.665  1.00  0.00     0.016 A 
ATOM     39  C   UNL A   1      39.263  24.526  27.711  1.00  0.00     0.016 A 
ATOM     40  C   UNL A   1      40.837  26.176  26.075  1.00  0.00     0.010 A 
ATOM     41  C   UNL A   1      39.730  25.739  28.164  1.00  0.00     0.010 A 
ATOM     42  C   UNL A   1      40.542  26.575  27.372  1.00  0.00    -0.014 A 
BRANCH  42  43
ATOM     43  C   UNL A   1      41.132  27.732  28.077  1.00  0.00     0.031 A 
ATOM     44  C   UNL A   1      40.184  28.802  28.508  1.00  0.00     0.074 A 
ATOM     45  C   UNL A   1      42.402  27.643  28.571  1.00  0.00     0.049 A 
ATOM     46  N   UNL A   1      40.515  29.803  29.235  1.00  0.00    -0.248 NA
ATOM     47  C   UNL A   1      38.754  28.843  28.160  1.00  0.00     0.031 C 
ATOM     48  C   UNL A   1      42.960  28.265  29.787  1.00  0.00     0.029 A 
ATOM     49  N   UNL A   1      43.447  26.807  28.160  1.00  0.00    -0.354 N 
ATOM     50  C   UNL A   1      39.371  30.460  29.639  1.00  0.00     0.074 A 
ATOM     51  C   UNL A   1      38.298  29.853  28.907  1.00  0.00     0.031 C 
ATOM     52  C   UNL A   1      44.271  27.956  29.902  1.00  0.00     0.029 A 
ATOM     53  C   UNL A   1      44.675  27.244  28.684  1.00  0.00     0.049 A 
ATOM     54  H   UNL A   1      43.338  26.018  27.580  1.00  0.00     0.167 HD
ATOM     55  C   UNL A   1      39.487  31.389  30.625  1.00  0.00     0.031 A 
ATOM     56  C   UNL A   1      45.690  27.625  27.838  1.00  0.00     0.031 A 
ATOM     57  C   UNL A   1      40.912  31.609  30.914  1.00  0.00     0.049 A 
ATOM     58  C   UNL A   1      45.688  29.162  27.926  1.00  0.00     0.074 A 
ATOM     59  C   UNL A   1      41.741  31.225  31.950  1.00  0.00     0.029 A 
ATOM     60  N   UNL A   1      41.754  31.961  29.855  1.00  0.00    -0.354 N 
ATOM     61  N   UNL A   1      44.601  29.867  28.170  1.00  0.00    -0.248 NA
ATOM     62  C   UNL A   1      46.898  29.983  28.004  1.00  0.00     0.031 C 
ATOM     63  C   UNL A   1      43.088  31.254  31.457  1.00  0.00     0.029 A 
ATOM     64  C   UNL A   1      43.081  31.674  30.130  1.00  0.00     0.049 A 
ATOM     65  H   UNL A   1      41.440  32.365  29.014  1.00  0.00     0.167 HD
ATOM     66  C   UNL A   1      44.950  31.117  28.598  1.00  0.00     0.074 A 
ATOM     67  C   UNL A   1      46.394  31.169  28.397  1.00  0.00     0.031 C 
ATOM     68  C   UNL A   1      44.120  32.047  29.166  1.00  0.00     0.031 A 
BRANCH  55  69
ATOM     69  C   UNL A   1      38.346  31.989  31.428  1.00  0.00    -0.014 A 
ATOM     70  C   UNL A   1      37.828  33.239  31.034  1.00  0.00     0.010 A 
ATOM     71  C   UNL A   1      37.781  31.438  32.602  1.00  0.00     0.010 A 
ATOM     72  C   UNL A   1      36.815  33.897  31.754  1.00  0.00     0.020 A 
ATOM     73  C   UNL A   1      36.752  32.077  33.324  1.00  0.00     0.020 A 
ATOM     74  C   UNL A   1      36.275  33.309  32.893  1.00  0.00     0.054 A 
BRANCH  74  75
ATOM     75  S   UNL A   1      34.949  34.171  33.785  1.00  0.00     0.124 S 
ATOM     76  O   UNL A   1      33.746  33.555  33.230  1.00  0.00    -0.237 OA
ATOM     77  O   UNL A   1      35.240  33.842  35.177  1.00  0.00    -0.237 OA
ATOM     78  O   UNL A   1      35.142  35.576  33.428  1.00  0.00    -0.744 OA
ENDBRANCH  74  75
ENDBRANCH  55  69
BRANCH  56  79
ATOM     79  C   UNL A   1      45.915  26.695  26.617  1.00  0.00    -0.014 A 
ATOM     80  C   UNL A   1      46.809  25.586  26.681  1.00  0.00     0.010 A 
ATOM     81  C   UNL A   1      44.865  26.546  25.694  1.00  0.00     0.010 A 
ATOM     82  C   UNL A   1      46.474  24.302  26.131  1.00  0.00     0.020 A 
ATOM     83  C   UNL A   1      44.514  25.278  25.157  1.00  0.00     0.020 A 
ATOM     84  C   UNL A   1      45.266  24.139  25.451  1.00  0.00     0.054 A 
BRANCH  84  85
ATOM     85  S   UNL A   1      44.433  22.472  25.386  1.00  0.00     0.124 S 
ATOM     86  O   UNL A   1      43.831  22.358  26.707  1.00  0.00    -0.237 OA
ATOM     87  O   UNL A   1      43.493  22.601  24.277  1.00  0.00    -0.237 OA
ATOM     88  O   UNL A   1      45.543  21.561  25.117  1.00  0.00    -0.744 OA
ENDBRANCH  84  85
ENDBRANCH  56  79
BRANCH  68  89
ATOM     89  C   UNL A   1      44.239  33.498  28.766  1.00  0.00    -0.014 A 
ATOM     90  C   UNL A   1      44.762  34.472  29.631  1.00  0.00     0.010 A 
ATOM     91  C   UNL A   1      44.004  33.886  27.426  1.00  0.00     0.010 A 
ATOM     92  C   UNL A   1      44.942  35.788  29.213  1.00  0.00     0.020 A 
ATOM     93  C   UNL A   1      44.262  35.179  26.974  1.00  0.00     0.020 A 
ATOM     94  C   UNL A   1      44.684  36.133  27.890  1.00  0.00     0.054 A 
BRANCH  94  95
ATOM     95  S   UNL A   1      44.904  37.849  27.391  1.00  0.00     0.124 S 
ATOM     96  O   UNL A   1      45.980  37.732  26.411  1.00  0.00    -0.237 OA
ATOM     97  O   UNL A   1      43.593  38.194  26.846  1.00  0.00    -0.237 OA
ATOM     98  O   UNL A   1      45.257  38.530  28.633  1.00  0.00    -0.744 OA
ENDBRANCH  94  95
ENDBRANCH  68  89
ENDBRANCH  42  43
ENDBRANCH  35  37
ENDBRANCH  34  35
ENDBRANCH  33  34
ENDBRANCH  32  33
ENDBRANCH   1  32
TORSDOF 22
ENDMDL
