MODEL 1
REMARK VINA RESULT:     -11.1      0.000      0.000
REMARK SMILES CC[C@@H](C(=O)OCCOCCOC(=O)c1ccc(-c2c3nc(c(-c4ccc(S(=O)(=O)[O-])cc4)c4ccc([nH]4)c(-c4ccc(S(=O)(=O)[O-])cc4)c4nc(c(-c5ccc(S(=O)(=O)[O-])cc5)c5ccc2[nH]5)C=C4)C=C3)cc1)[N@@H+]1CCc2ccc(N)cc2C1
REMARK SMILES IDX 10 1 9 2 8 3 7 4 6 5 4 6 5 7 3 8 2 9 1 10 75 11 76 12 85 13
REMARK SMILES IDX 77 15 84 16 78 17 83 18 79 19 81 20 80 21 82 22 11 25 12 26
REMARK SMILES IDX 13 27 14 28 15 29 16 30 74 31 17 32 73 33 18 34 19 35 20 36
REMARK SMILES IDX 67 37 21 38 72 39 66 40 68 41 22 42 71 43 65 44 64 45 23 47
REMARK SMILES IDX 53 48 34 49 52 50 35 51 38 52 51 53 69 54 36 55 37 56 50 58
REMARK SMILES IDX 70 59 39 60 24 61 25 62 33 63 26 64 32 65 27 66 28 67 29 68
REMARK SMILES IDX 30 69 31 70 54 71 55 72 63 73 56 74 62 75 57 76 58 77 59 78
REMARK SMILES IDX 60 79 61 80 40 81 41 82 49 83 42 84 48 85 43 86 44 87 45 88
REMARK SMILES IDX 46 89 47 90
REMARK H PARENT 75 14 82 23 82 24 68 46 38 57
REMARK Flexibility Score: inf
ROOT
ATOM      1  C   UNL A   1      31.722  29.487  26.750  1.00  0.00     0.202 C 
ENDROOT
BRANCH   1   2
ATOM      2  O   UNL A   1      31.547  28.186  27.361  1.00  0.00    -0.374 OA
BRANCH   2   3
ATOM      3  C   UNL A   1      31.856  27.073  26.495  1.00  0.00     0.202 C 
BRANCH   3   4
ATOM      4  C   UNL A   1      30.601  26.407  25.816  1.00  0.00     0.261 C 
BRANCH   4   5
ATOM      5  O   UNL A   1      30.839  25.060  25.312  1.00  0.00    -0.459 OA
BRANCH   5   6
ATOM      6  C   UNL A   1      31.168  24.038  26.168  1.00  0.00     0.364 C 
ATOM      7  O   UNL A   1      30.438  23.714  27.100  1.00  0.00    -0.245 OA
BRANCH   6   8
ATOM      8  C   UNL A   1      32.525  23.228  25.778  1.00  0.00     0.295 C 
BRANCH   8   9
ATOM      9  C   UNL A   1      33.796  23.447  26.647  1.00  0.00     0.074 C 
ATOM     10  C   UNL A   1      34.130  22.464  27.763  1.00  0.00     0.011 C 
ENDBRANCH   8   9
BRANCH   8  11
ATOM     11  N   UNL A   1      32.713  23.042  24.264  1.00  0.00    -0.319 N 
ATOM     12  C   UNL A   1      31.575  22.662  23.342  1.00  0.00     0.268 C 
ATOM     13  C   UNL A   1      33.742  22.061  24.016  1.00  0.00     0.300 C 
ATOM     14  H   UNL A   1      32.906  24.014  24.019  1.00  0.00     0.349 HD
ATOM     15  C   UNL A   1      31.826  21.382  22.335  1.00  0.00     0.097 C 
ATOM     16  C   UNL A   1      33.147  20.697  24.196  1.00  0.00     0.012 A 
ATOM     17  C   UNL A   1      32.460  20.242  23.104  1.00  0.00    -0.033 A 
ATOM     18  C   UNL A   1      32.912  19.994  25.360  1.00  0.00     0.035 A 
ATOM     19  C   UNL A   1      32.378  18.866  22.953  1.00  0.00     0.006 A 
ATOM     20  C   UNL A   1      32.644  18.647  25.332  1.00  0.00     0.032 A 
ATOM     21  C   UNL A   1      32.603  18.053  24.083  1.00  0.00     0.026 A 
BRANCH  20  22
ATOM     22  N   UNL A   1      32.721  17.960  26.541  1.00  0.00    -0.399 N 
ATOM     23  H   UNL A   1      31.918  17.856  27.100  1.00  0.00     0.156 HD
ATOM     24  H   UNL A   1      33.579  17.580  26.838  1.00  0.00     0.156 HD
ENDBRANCH  20  22
ENDBRANCH   8  11
ENDBRANCH   6   8
ENDBRANCH   5   6
ENDBRANCH   4   5
ENDBRANCH   3   4
ENDBRANCH   2   3
ENDBRANCH   1   2
BRANCH   1  25
ATOM     25  C   UNL A   1      33.120  29.742  26.154  1.00  0.00     0.261 C 
BRANCH  25  26
ATOM     26  O   UNL A   1      34.122  29.665  27.180  1.00  0.00    -0.460 OA
BRANCH  26  27
ATOM     27  C   UNL A   1      34.629  30.871  27.554  1.00  0.00     0.338 C 
ATOM     28  O   UNL A   1      34.021  31.899  27.704  1.00  0.00    -0.246 OA
BRANCH  27  29
ATOM     29  C   UNL A   1      36.019  30.653  28.014  1.00  0.00     0.060 A 
ATOM     30  C   UNL A   1      36.469  29.334  28.048  1.00  0.00     0.016 A 
ATOM     31  C   UNL A   1      36.878  31.698  28.361  1.00  0.00     0.016 A 
ATOM     32  C   UNL A   1      37.764  29.058  28.474  1.00  0.00     0.010 A 
ATOM     33  C   UNL A   1      38.204  31.423  28.719  1.00  0.00     0.010 A 
ATOM     34  C   UNL A   1      38.633  30.095  28.847  1.00  0.00    -0.014 A 
BRANCH  34  35
ATOM     35  C   UNL A   1      39.869  29.714  29.581  1.00  0.00     0.031 A 
ATOM     36  C   UNL A   1      39.978  30.079  31.037  1.00  0.00     0.074 A 
ATOM     37  C   UNL A   1      40.766  28.869  29.033  1.00  0.00     0.049 A 
ATOM     38  N   UNL A   1      40.707  29.524  31.970  1.00  0.00    -0.248 NA
ATOM     39  C   UNL A   1      39.143  31.194  31.514  1.00  0.00     0.031 C 
ATOM     40  C   UNL A   1      40.792  28.442  27.634  1.00  0.00     0.029 A 
ATOM     41  N   UNL A   1      41.793  28.168  29.618  1.00  0.00    -0.354 N 
ATOM     42  C   UNL A   1      40.381  30.189  33.145  1.00  0.00     0.074 A 
ATOM     43  C   UNL A   1      39.447  31.234  32.801  1.00  0.00     0.031 C 
ATOM     44  C   UNL A   1      41.749  27.510  27.480  1.00  0.00     0.029 A 
ATOM     45  C   UNL A   1      42.395  27.267  28.770  1.00  0.00     0.049 A 
ATOM     46  H   UNL A   1      42.071  28.297  30.553  1.00  0.00     0.167 HD
ATOM     47  C   UNL A   1      40.789  29.938  34.410  1.00  0.00     0.031 A 
ATOM     48  C   UNL A   1      43.324  26.320  29.012  1.00  0.00     0.031 A 
ATOM     49  C   UNL A   1      41.741  28.925  34.765  1.00  0.00     0.049 A 
ATOM     50  C   UNL A   1      43.802  26.085  30.423  1.00  0.00     0.074 A 
ATOM     51  C   UNL A   1      42.212  28.592  36.021  1.00  0.00     0.029 A 
ATOM     52  N   UNL A   1      42.376  28.092  33.859  1.00  0.00    -0.354 N 
ATOM     53  N   UNL A   1      43.409  26.660  31.535  1.00  0.00    -0.248 NA
ATOM     54  C   UNL A   1      44.828  25.048  30.609  1.00  0.00     0.031 C 
ATOM     55  C   UNL A   1      43.173  27.585  35.870  1.00  0.00     0.029 A 
ATOM     56  C   UNL A   1      43.258  27.261  34.525  1.00  0.00     0.049 A 
ATOM     57  H   UNL A   1      42.224  28.093  32.887  1.00  0.00     0.167 HD
ATOM     58  C   UNL A   1      44.121  26.034  32.555  1.00  0.00     0.074 A 
ATOM     59  C   UNL A   1      44.956  25.029  31.930  1.00  0.00     0.031 C 
ATOM     60  C   UNL A   1      44.084  26.267  33.891  1.00  0.00     0.031 A 
BRANCH  47  61
ATOM     61  C   UNL A   1      40.202  30.795  35.494  1.00  0.00    -0.014 A 
ATOM     62  C   UNL A   1      38.844  30.679  35.844  1.00  0.00     0.010 A 
ATOM     63  C   UNL A   1      41.012  31.728  36.164  1.00  0.00     0.010 A 
ATOM     64  C   UNL A   1      38.295  31.513  36.820  1.00  0.00     0.020 A 
ATOM     65  C   UNL A   1      40.470  32.549  37.156  1.00  0.00     0.020 A 
ATOM     66  C   UNL A   1      39.111  32.449  37.464  1.00  0.00     0.054 A 
BRANCH  66  67
ATOM     67  S   UNL A   1      38.376  33.520  38.730  1.00  0.00     0.124 S 
ATOM     68  O   UNL A   1      36.996  33.041  38.761  1.00  0.00    -0.237 OA
ATOM     69  O   UNL A   1      39.174  33.214  39.914  1.00  0.00    -0.237 OA
ATOM     70  O   UNL A   1      38.558  34.865  38.191  1.00  0.00    -0.744 OA
ENDBRANCH  66  67
ENDBRANCH  47  61
BRANCH  48  71
ATOM     71  C   UNL A   1      43.850  25.488  27.894  1.00  0.00    -0.014 A 
ATOM     72  C   UNL A   1      43.284  24.237  27.593  1.00  0.00     0.010 A 
ATOM     73  C   UNL A   1      44.948  25.942  27.143  1.00  0.00     0.010 A 
ATOM     74  C   UNL A   1      43.823  23.443  26.575  1.00  0.00     0.020 A 
ATOM     75  C   UNL A   1      45.476  25.161  26.111  1.00  0.00     0.020 A 
ATOM     76  C   UNL A   1      44.919  23.910  25.843  1.00  0.00     0.054 A 
BRANCH  76  77
ATOM     77  S   UNL A   1      45.586  22.883  24.504  1.00  0.00     0.124 S 
ATOM     78  O   UNL A   1      46.244  21.810  25.245  1.00  0.00    -0.237 OA
ATOM     79  O   UNL A   1      44.385  22.501  23.767  1.00  0.00    -0.237 OA
ATOM     80  O   UNL A   1      46.481  23.793  23.793  1.00  0.00    -0.744 OA
ENDBRANCH  76  77
ENDBRANCH  48  71
BRANCH  60  81
ATOM     81  C   UNL A   1      44.951  25.410  34.774  1.00  0.00    -0.014 A 
ATOM     82  C   UNL A   1      44.424  24.295  35.447  1.00  0.00     0.010 A 
ATOM     83  C   UNL A   1      46.325  25.693  34.883  1.00  0.00     0.010 A 
ATOM     84  C   UNL A   1      45.250  23.497  36.244  1.00  0.00     0.020 A 
ATOM     85  C   UNL A   1      47.158  24.884  35.660  1.00  0.00     0.020 A 
ATOM     86  C   UNL A   1      46.611  23.799  36.350  1.00  0.00     0.054 A 
BRANCH  86  87
ATOM     87  S   UNL A   1      47.673  22.731  37.361  1.00  0.00     0.124 S 
ATOM     88  O   UNL A   1      48.003  23.607  38.482  1.00  0.00    -0.237 OA
ATOM     89  O   UNL A   1      46.794  21.608  37.678  1.00  0.00    -0.237 OA
ATOM     90  O   UNL A   1      48.786  22.410  36.471  1.00  0.00    -0.744 OA
ENDBRANCH  86  87
ENDBRANCH  60  81
ENDBRANCH  34  35
ENDBRANCH  27  29
ENDBRANCH  26  27
ENDBRANCH  25  26
ENDBRANCH   1  25
TORSDOF 20
ENDMDL
MODEL 2
REMARK VINA RESULT:     -10.4      4.662      8.787
REMARK SMILES CC[C@@H](C(=O)OCCOCCOC(=O)c1ccc(-c2c3nc(c(-c4ccc(S(=O)(=O)[O-])cc4)c4ccc([nH]4)c(-c4ccc(S(=O)(=O)[O-])cc4)c4nc(c(-c5ccc(S(=O)(=O)[O-])cc5)c5ccc2[nH]5)C=C4)C=C3)cc1)[N@@H+]1CCc2ccc(N)cc2C1
REMARK SMILES IDX 10 1 9 2 8 3 7 4 6 5 4 6 5 7 3 8 2 9 1 10 75 11 76 12 85 13
REMARK SMILES IDX 77 15 84 16 78 17 83 18 79 19 81 20 80 21 82 22 11 25 12 26
REMARK SMILES IDX 13 27 14 28 15 29 16 30 74 31 17 32 73 33 18 34 19 35 20 36
REMARK SMILES IDX 67 37 21 38 72 39 66 40 68 41 22 42 71 43 65 44 64 45 23 47
REMARK SMILES IDX 53 48 34 49 52 50 35 51 38 52 51 53 69 54 36 55 37 56 50 58
REMARK SMILES IDX 70 59 39 60 24 61 25 62 33 63 26 64 32 65 27 66 28 67 29 68
REMARK SMILES IDX 30 69 31 70 54 71 55 72 63 73 56 74 62 75 57 76 58 77 59 78
REMARK SMILES IDX 60 79 61 80 40 81 41 82 49 83 42 84 48 85 43 86 44 87 45 88
REMARK SMILES IDX 46 89 47 90
REMARK H PARENT 75 14 82 23 82 24 68 46 38 57
REMARK Flexibility Score: inf
ROOT
ATOM      1  C   UNL A   1      31.835  30.035  25.904  1.00  0.00     0.202 C 
ENDROOT
BRANCH   1   2
ATOM      2  O   UNL A   1      32.478  29.373  24.788  1.00  0.00    -0.374 OA
BRANCH   2   3
ATOM      3  C   UNL A   1      31.628  28.451  24.071  1.00  0.00     0.202 C 
BRANCH   3   4
ATOM      4  C   UNL A   1      31.492  27.033  24.742  1.00  0.00     0.261 C 
BRANCH   4   5
ATOM      5  O   UNL A   1      32.602  26.131  24.462  1.00  0.00    -0.459 OA
BRANCH   5   6
ATOM      6  C   UNL A   1      32.402  24.776  24.371  1.00  0.00     0.364 C 
ATOM      7  O   UNL A   1      32.016  24.247  23.333  1.00  0.00    -0.245 OA
BRANCH   6   8
ATOM      8  C   UNL A   1      32.825  23.930  25.696  1.00  0.00     0.295 C 
BRANCH   8   9
ATOM      9  C   UNL A   1      31.778  23.758  26.834  1.00  0.00     0.074 C 
ATOM     10  C   UNL A   1      30.469  23.029  26.556  1.00  0.00     0.011 C 
ENDBRANCH   8   9
BRANCH   8  11
ATOM     11  N   UNL A   1      34.297  24.116  26.097  1.00  0.00    -0.319 N 
ATOM     12  C   UNL A   1      35.398  24.326  25.080  1.00  0.00     0.268 C 
ATOM     13  C   UNL A   1      34.732  22.995  26.895  1.00  0.00     0.300 C 
ATOM     14  H   UNL A   1      34.213  25.026  26.550  1.00  0.00     0.349 HD
ATOM     15  C   UNL A   1      36.719  23.349  25.197  1.00  0.00     0.097 C 
ATOM     16  C   UNL A   1      35.038  21.851  25.976  1.00  0.00     0.012 A 
ATOM     17  C   UNL A   1      36.278  21.915  25.403  1.00  0.00    -0.033 A 
ATOM     18  C   UNL A   1      34.174  20.952  25.385  1.00  0.00     0.035 A 
ATOM     19  C   UNL A   1      36.851  20.708  25.030  1.00  0.00     0.006 A 
ATOM     20  C   UNL A   1      34.639  19.790  24.819  1.00  0.00     0.032 A 
ATOM     21  C   UNL A   1      36.008  19.590  24.859  1.00  0.00     0.026 A 
BRANCH  20  22
ATOM     22  N   UNL A   1      33.697  18.808  24.522  1.00  0.00    -0.399 N 
ATOM     23  H   UNL A   1      32.800  18.849  24.923  1.00  0.00     0.156 HD
ATOM     24  H   UNL A   1      33.930  18.071  23.912  1.00  0.00     0.156 HD
ENDBRANCH  20  22
ENDBRANCH   8  11
ENDBRANCH   6   8
ENDBRANCH   5   6
ENDBRANCH   4   5
ENDBRANCH   3   4
ENDBRANCH   2   3
ENDBRANCH   1   2
BRANCH   1  25
ATOM     25  C   UNL A   1      32.489  29.778  27.275  1.00  0.00     0.261 C 
BRANCH  25  26
ATOM     26  O   UNL A   1      33.919  29.734  27.148  1.00  0.00    -0.460 OA
BRANCH  26  27
ATOM     27  C   UNL A   1      34.572  30.679  27.877  1.00  0.00     0.338 C 
ATOM     28  O   UNL A   1      34.092  31.646  28.407  1.00  0.00    -0.246 OA
BRANCH  27  29
ATOM     29  C   UNL A   1      35.939  30.177  28.144  1.00  0.00     0.060 A 
ATOM     30  C   UNL A   1      36.196  29.711  29.432  1.00  0.00     0.016 A 
ATOM     31  C   UNL A   1      36.933  30.121  27.165  1.00  0.00     0.016 A 
ATOM     32  C   UNL A   1      37.460  29.229  29.753  1.00  0.00     0.010 A 
ATOM     33  C   UNL A   1      38.184  29.568  27.470  1.00  0.00     0.010 A 
ATOM     34  C   UNL A   1      38.477  29.186  28.786  1.00  0.00    -0.014 A 
BRANCH  34  35
ATOM     35  C   UNL A   1      39.865  28.963  29.271  1.00  0.00     0.031 A 
ATOM     36  C   UNL A   1      40.530  27.650  28.956  1.00  0.00     0.074 A 
ATOM     37  C   UNL A   1      40.594  29.979  29.775  1.00  0.00     0.049 A 
ATOM     38  N   UNL A   1      41.806  27.373  28.883  1.00  0.00    -0.248 NA
ATOM     39  C   UNL A   1      39.651  26.505  28.660  1.00  0.00     0.031 C 
ATOM     40  C   UNL A   1      40.079  31.299  30.141  1.00  0.00     0.029 A 
ATOM     41  N   UNL A   1      41.947  30.071  30.000  1.00  0.00    -0.354 N 
ATOM     42  C   UNL A   1      41.879  26.043  28.488  1.00  0.00     0.074 A 
ATOM     43  C   UNL A   1      40.526  25.546  28.407  1.00  0.00     0.031 C 
ATOM     44  C   UNL A   1      41.110  32.087  30.493  1.00  0.00     0.029 A 
ATOM     45  C   UNL A   1      42.357  31.333  30.365  1.00  0.00     0.049 A 
ATOM     46  H   UNL A   1      42.563  29.309  29.908  1.00  0.00     0.167 HD
ATOM     47  C   UNL A   1      42.968  25.301  28.181  1.00  0.00     0.031 A 
ATOM     48  C   UNL A   1      43.596  31.839  30.531  1.00  0.00     0.031 A 
ATOM     49  C   UNL A   1      44.319  25.769  28.287  1.00  0.00     0.049 A 
ATOM     50  C   UNL A   1      44.800  30.982  30.228  1.00  0.00     0.074 A 
ATOM     51  C   UNL A   1      45.488  25.093  27.994  1.00  0.00     0.029 A 
ATOM     52  N   UNL A   1      44.681  27.029  28.735  1.00  0.00    -0.354 N 
ATOM     53  N   UNL A   1      44.845  29.757  29.762  1.00  0.00    -0.248 NA
ATOM     54  C   UNL A   1      46.119  31.594  30.448  1.00  0.00     0.031 C 
ATOM     55  C   UNL A   1      46.564  25.930  28.310  1.00  0.00     0.029 A 
ATOM     56  C   UNL A   1      46.059  27.142  28.752  1.00  0.00     0.049 A 
ATOM     57  H   UNL A   1      44.051  27.737  29.002  1.00  0.00     0.167 HD
ATOM     58  C   UNL A   1      46.198  29.462  29.607  1.00  0.00     0.074 A 
ATOM     59  C   UNL A   1      46.934  30.641  30.015  1.00  0.00     0.031 C 
ATOM     60  C   UNL A   1      46.779  28.320  29.162  1.00  0.00     0.031 A 
BRANCH  47  61
ATOM     61  C   UNL A   1      42.721  23.897  27.712  1.00  0.00    -0.014 A 
ATOM     62  C   UNL A   1      42.642  23.602  26.338  1.00  0.00     0.010 A 
ATOM     63  C   UNL A   1      42.559  22.864  28.651  1.00  0.00     0.010 A 
ATOM     64  C   UNL A   1      42.364  22.302  25.911  1.00  0.00     0.020 A 
ATOM     65  C   UNL A   1      42.302  21.557  28.226  1.00  0.00     0.020 A 
ATOM     66  C   UNL A   1      42.188  21.289  26.860  1.00  0.00     0.054 A 
BRANCH  66  67
ATOM     67  S   UNL A   1      41.830  19.608  26.282  1.00  0.00     0.124 S 
ATOM     68  O   UNL A   1      40.374  19.639  26.158  1.00  0.00    -0.237 OA
ATOM     69  O   UNL A   1      42.567  19.535  25.024  1.00  0.00    -0.237 OA
ATOM     70  O   UNL A   1      42.347  18.759  27.352  1.00  0.00    -0.744 OA
ENDBRANCH  66  67
ENDBRANCH  47  61
BRANCH  48  71
ATOM     71  C   UNL A   1      43.772  33.248  30.978  1.00  0.00    -0.014 A 
ATOM     72  C   UNL A   1      43.670  33.597  32.335  1.00  0.00     0.010 A 
ATOM     73  C   UNL A   1      44.015  34.256  30.028  1.00  0.00     0.010 A 
ATOM     74  C   UNL A   1      43.784  34.933  32.733  1.00  0.00     0.020 A 
ATOM     75  C   UNL A   1      44.151  35.589  30.424  1.00  0.00     0.020 A 
ATOM     76  C   UNL A   1      44.020  35.922  31.774  1.00  0.00     0.054 A 
BRANCH  76  77
ATOM     77  S   UNL A   1      44.199  37.646  32.309  1.00  0.00     0.124 S 
ATOM     78  O   UNL A   1      45.627  37.725  32.601  1.00  0.00    -0.237 OA
ATOM     79  O   UNL A   1      43.749  38.392  31.137  1.00  0.00    -0.237 OA
ATOM     80  O   UNL A   1      43.316  37.734  33.470  1.00  0.00    -0.744 OA
ENDBRANCH  76  77
ENDBRANCH  48  71
BRANCH  60  81
ATOM     81  C   UNL A   1      48.281  28.290  29.069  1.00  0.00    -0.014 A 
ATOM     82  C   UNL A   1      48.946  28.732  27.913  1.00  0.00     0.010 A 
ATOM     83  C   UNL A   1      49.038  27.869  30.178  1.00  0.00     0.010 A 
ATOM     84  C   UNL A   1      50.343  28.719  27.853  1.00  0.00     0.020 A 
ATOM     85  C   UNL A   1      50.434  27.877  30.131  1.00  0.00     0.020 A 
ATOM     86  C   UNL A   1      51.077  28.287  28.961  1.00  0.00     0.054 A 
BRANCH  86  87
ATOM     87  S   UNL A   1      52.890  28.311  28.877  1.00  0.00     0.124 S 
ATOM     88  O   UNL A   1      53.216  29.462  29.715  1.00  0.00    -0.237 OA
ATOM     89  O   UNL A   1      53.257  27.008  29.428  1.00  0.00    -0.237 OA
ATOM     90  O   UNL A   1      53.167  28.477  27.453  1.00  0.00    -0.744 OA
ENDBRANCH  86  87
ENDBRANCH  60  81
ENDBRANCH  34  35
ENDBRANCH  27  29
ENDBRANCH  26  27
ENDBRANCH  25  26
ENDBRANCH   1  25
TORSDOF 20
ENDMDL
MODEL 3
REMARK VINA RESULT:     -10.1      5.597      8.137
REMARK SMILES CC[C@@H](C(=O)OCCOCCOC(=O)c1ccc(-c2c3nc(c(-c4ccc(S(=O)(=O)[O-])cc4)c4ccc([nH]4)c(-c4ccc(S(=O)(=O)[O-])cc4)c4nc(c(-c5ccc(S(=O)(=O)[O-])cc5)c5ccc2[nH]5)C=C4)C=C3)cc1)[N@@H+]1CCc2ccc(N)cc2C1
REMARK SMILES IDX 10 1 9 2 8 3 7 4 6 5 4 6 5 7 3 8 2 9 1 10 75 11 76 12 85 13
REMARK SMILES IDX 77 15 84 16 78 17 83 18 79 19 81 20 80 21 82 22 11 25 12 26
REMARK SMILES IDX 13 27 14 28 15 29 16 30 74 31 17 32 73 33 18 34 19 35 20 36
REMARK SMILES IDX 67 37 21 38 72 39 66 40 68 41 22 42 71 43 65 44 64 45 23 47
REMARK SMILES IDX 53 48 34 49 52 50 35 51 38 52 51 53 69 54 36 55 37 56 50 58
REMARK SMILES IDX 70 59 39 60 24 61 25 62 33 63 26 64 32 65 27 66 28 67 29 68
REMARK SMILES IDX 30 69 31 70 54 71 55 72 63 73 56 74 62 75 57 76 58 77 59 78
REMARK SMILES IDX 60 79 61 80 40 81 41 82 49 83 42 84 48 85 43 86 44 87 45 88
REMARK SMILES IDX 46 89 47 90
REMARK H PARENT 75 14 82 23 82 24 68 46 38 57
REMARK Flexibility Score: inf
ROOT
ATOM      1  C   UNL A   1      36.415  32.450  30.868  1.00  0.00     0.202 C 
ENDROOT
BRANCH   1   2
ATOM      2  O   UNL A   1      36.362  32.064  29.473  1.00  0.00    -0.374 OA
BRANCH   2   3
ATOM      3  C   UNL A   1      35.200  32.548  28.765  1.00  0.00     0.202 C 
BRANCH   3   4
ATOM      4  C   UNL A   1      34.103  31.453  28.486  1.00  0.00     0.261 C 
BRANCH   4   5
ATOM      5  O   UNL A   1      33.894  31.163  27.073  1.00  0.00    -0.459 OA
BRANCH   5   6
ATOM      6  C   UNL A   1      32.656  30.794  26.607  1.00  0.00     0.364 C 
ATOM      7  O   UNL A   1      31.644  31.427  26.889  1.00  0.00    -0.245 OA
BRANCH   6   8
ATOM      8  C   UNL A   1      32.662  29.539  25.570  1.00  0.00     0.295 C 
BRANCH   8   9
ATOM      9  C   UNL A   1      33.917  28.622  25.519  1.00  0.00     0.074 C 
ATOM     10  C   UNL A   1      34.010  27.411  26.441  1.00  0.00     0.011 C 
ENDBRANCH   8   9
BRANCH   8  11
ATOM     11  N   UNL A   1      31.932  29.833  24.250  1.00  0.00    -0.319 N 
ATOM     12  C   UNL A   1      30.543  30.430  24.201  1.00  0.00     0.268 C 
ATOM     13  C   UNL A   1      31.853  28.629  23.457  1.00  0.00     0.300 C 
ATOM     14  H   UNL A   1      32.530  30.590  23.916  1.00  0.00     0.349 HD
ATOM     15  C   UNL A   1      29.427  29.650  23.273  1.00  0.00     0.097 C 
ATOM     16  C   UNL A   1      30.731  27.788  23.987  1.00  0.00     0.012 A 
ATOM     17  C   UNL A   1      29.495  28.160  23.535  1.00  0.00    -0.033 A 
ATOM     18  C   UNL A   1      30.716  26.939  25.075  1.00  0.00     0.035 A 
ATOM     19  C   UNL A   1      28.526  27.168  23.493  1.00  0.00     0.006 A 
ATOM     20  C   UNL A   1      29.709  26.020  25.243  1.00  0.00     0.032 A 
ATOM     21  C   UNL A   1      28.714  26.014  24.281  1.00  0.00     0.026 A 
BRANCH  20  22
ATOM     22  N   UNL A   1      29.920  25.012  26.181  1.00  0.00    -0.399 N 
ATOM     23  H   UNL A   1      30.394  25.211  27.020  1.00  0.00     0.156 HD
ATOM     24  H   UNL A   1      29.597  24.100  26.003  1.00  0.00     0.156 HD
ENDBRANCH  20  22
ENDBRANCH   8  11
ENDBRANCH   6   8
ENDBRANCH   5   6
ENDBRANCH   4   5
ENDBRANCH   3   4
ENDBRANCH   2   3
ENDBRANCH   1   2
BRANCH   1  25
ATOM     25  C   UNL A   1      36.004  31.346  31.863  1.00  0.00     0.261 C 
BRANCH  25  26
ATOM     26  O   UNL A   1      36.392  30.056  31.366  1.00  0.00    -0.460 OA
BRANCH  26  27
ATOM     27  C   UNL A   1      37.337  29.431  32.119  1.00  0.00     0.338 C 
ATOM     28  O   UNL A   1      37.163  28.820  33.141  1.00  0.00    -0.246 OA
BRANCH  27  29
ATOM     29  C   UNL A   1      38.589  29.391  31.330  1.00  0.00     0.060 A 
ATOM     30  C   UNL A   1      38.466  29.550  29.950  1.00  0.00     0.016 A 
ATOM     31  C   UNL A   1      39.850  29.246  31.911  1.00  0.00     0.016 A 
ATOM     32  C   UNL A   1      39.602  29.519  29.149  1.00  0.00     0.010 A 
ATOM     33  C   UNL A   1      40.998  29.288  31.109  1.00  0.00     0.010 A 
ATOM     34  C   UNL A   1      40.876  29.353  29.715  1.00  0.00    -0.014 A 
BRANCH  34  35
ATOM     35  C   UNL A   1      41.991  29.015  28.791  1.00  0.00     0.031 A 
ATOM     36  C   UNL A   1      43.103  30.015  28.619  1.00  0.00     0.074 A 
ATOM     37  C   UNL A   1      42.127  27.768  28.297  1.00  0.00     0.049 A 
ATOM     38  N   UNL A   1      44.338  29.811  28.237  1.00  0.00    -0.248 NA
ATOM     39  C   UNL A   1      42.800  31.420  28.939  1.00  0.00     0.031 C 
ATOM     40  C   UNL A   1      41.126  26.704  28.376  1.00  0.00     0.029 A 
ATOM     41  N   UNL A   1      43.205  27.171  27.688  1.00  0.00    -0.354 N 
ATOM     42  C   UNL A   1      44.964  31.048  28.319  1.00  0.00     0.074 A 
ATOM     43  C   UNL A   1      43.963  32.009  28.715  1.00  0.00     0.031 C 
ATOM     44  C   UNL A   1      41.655  25.570  27.886  1.00  0.00     0.029 A 
ATOM     45  C   UNL A   1      43.034  25.823  27.470  1.00  0.00     0.049 A 
ATOM     46  H   UNL A   1      44.020  27.660  27.432  1.00  0.00     0.167 HD
ATOM     47  C   UNL A   1      46.265  31.361  28.122  1.00  0.00     0.031 A 
ATOM     48  C   UNL A   1      43.903  24.889  27.032  1.00  0.00     0.031 A 
ATOM     49  C   UNL A   1      47.265  30.425  27.697  1.00  0.00     0.049 A 
ATOM     50  C   UNL A   1      45.339  25.266  26.772  1.00  0.00     0.074 A 
ATOM     51  C   UNL A   1      48.611  30.647  27.475  1.00  0.00     0.029 A 
ATOM     52  N   UNL A   1      47.023  29.090  27.417  1.00  0.00    -0.354 N 
ATOM     53  N   UNL A   1      45.935  26.422  26.950  1.00  0.00    -0.248 NA
ATOM     54  C   UNL A   1      46.225  24.201  26.281  1.00  0.00     0.031 C 
ATOM     55  C   UNL A   1      49.177  29.454  27.013  1.00  0.00     0.029 A 
ATOM     56  C   UNL A   1      48.191  28.480  26.998  1.00  0.00     0.049 A 
ATOM     57  H   UNL A   1      46.150  28.644  27.503  1.00  0.00     0.167 HD
ATOM     58  C   UNL A   1      47.271  26.213  26.617  1.00  0.00     0.074 A 
ATOM     59  C   UNL A   1      47.398  24.819  26.244  1.00  0.00     0.031 C 
ATOM     60  C   UNL A   1      48.303  27.094  26.626  1.00  0.00     0.031 A 
BRANCH  47  61
ATOM     61  C   UNL A   1      46.661  32.790  28.357  1.00  0.00    -0.014 A 
ATOM     62  C   UNL A   1      47.005  33.236  29.646  1.00  0.00     0.010 A 
ATOM     63  C   UNL A   1      46.683  33.696  27.283  1.00  0.00     0.010 A 
ATOM     64  C   UNL A   1      47.326  34.578  29.865  1.00  0.00     0.020 A 
ATOM     65  C   UNL A   1      47.025  35.034  27.495  1.00  0.00     0.020 A 
ATOM     66  C   UNL A   1      47.326  35.469  28.788  1.00  0.00     0.054 A 
BRANCH  66  67
ATOM     67  S   UNL A   1      47.747  37.206  29.096  1.00  0.00     0.124 S 
ATOM     68  O   UNL A   1      46.436  37.848  29.027  1.00  0.00    -0.237 OA
ATOM     69  O   UNL A   1      48.356  37.160  30.422  1.00  0.00    -0.237 OA
ATOM     70  O   UNL A   1      48.661  37.537  28.006  1.00  0.00    -0.744 OA
ENDBRANCH  66  67
ENDBRANCH  47  61
BRANCH  48  71
ATOM     71  C   UNL A   1      43.451  23.483  26.841  1.00  0.00    -0.014 A 
ATOM     72  C   UNL A   1      43.253  22.628  27.939  1.00  0.00     0.010 A 
ATOM     73  C   UNL A   1      43.245  22.987  25.541  1.00  0.00     0.010 A 
ATOM     74  C   UNL A   1      42.881  21.295  27.740  1.00  0.00     0.020 A 
ATOM     75  C   UNL A   1      42.853  21.661  25.340  1.00  0.00     0.020 A 
ATOM     76  C   UNL A   1      42.687  20.819  26.440  1.00  0.00     0.054 A 
BRANCH  76  77
ATOM     77  S   UNL A   1      42.172  19.095  26.200  1.00  0.00     0.124 S 
ATOM     78  O   UNL A   1      40.781  19.251  25.783  1.00  0.00    -0.237 OA
ATOM     79  O   UNL A   1      43.094  18.628  25.169  1.00  0.00    -0.237 OA
ATOM     80  O   UNL A   1      42.368  18.496  27.517  1.00  0.00    -0.744 OA
ENDBRANCH  76  77
ENDBRANCH  48  71
BRANCH  60  81
ATOM     81  C   UNL A   1      49.664  26.579  26.242  1.00  0.00    -0.014 A 
ATOM     82  C   UNL A   1      50.172  26.766  24.945  1.00  0.00     0.010 A 
ATOM     83  C   UNL A   1      50.469  25.952  27.211  1.00  0.00     0.010 A 
ATOM     84  C   UNL A   1      51.448  26.302  24.613  1.00  0.00     0.020 A 
ATOM     85  C   UNL A   1      51.753  25.507  26.889  1.00  0.00     0.020 A 
ATOM     86  C   UNL A   1      52.229  25.671  25.586  1.00  0.00     0.054 A 
BRANCH  86  87
ATOM     87  S   UNL A   1      53.896  25.106  25.145  1.00  0.00     0.124 S 
ATOM     88  O   UNL A   1      54.167  25.882  23.938  1.00  0.00    -0.237 OA
ATOM     89  O   UNL A   1      54.684  25.475  26.319  1.00  0.00    -0.237 OA
ATOM     90  O   UNL A   1      53.731  23.670  24.941  1.00  0.00    -0.744 OA
ENDBRANCH  86  87
ENDBRANCH  60  81
ENDBRANCH  34  35
ENDBRANCH  27  29
ENDBRANCH  26  27
ENDBRANCH  25  26
ENDBRANCH   1  25
TORSDOF 20
ENDMDL
