MODEL 1
REMARK VINA RESULT:     -11.1      0.000      0.000
REMARK SMILES CC[NH2+][C@@]1(C(=O)OCCOCCOC(=O)c2ccc(-c3c4nc(c(-c5ccc(S(=O)(=O)[O-])cc5)c5ccc([nH]5)c(-c5ccc(S(=O)(=O)[O-])cc5)c5nc(c(-c6ccc(S(=O)(=O)[O-])cc6)c6ccc3[nH]6)C=C5)C=C4)cc2)CC[C@H](Oc2ccc3c(c2)OCO3)C1
REMARK SMILES IDX 11 1 10 2 9 3 8 4 7 5 5 6 6 7 4 8 76 9 89 10 77 11 78 12
REMARK SMILES IDX 3 13 2 16 1 17 79 18 80 19 81 20 85 21 82 22 84 23 83 24
REMARK SMILES IDX 86 25 88 26 87 27 12 28 13 29 14 30 15 31 16 32 17 33 75 34
REMARK SMILES IDX 18 35 74 36 19 37 20 38 21 39 68 40 22 41 73 42 67 43 69 44
REMARK SMILES IDX 23 45 72 46 66 47 65 48 24 50 54 51 35 52 53 53 36 54 39 55
REMARK SMILES IDX 52 56 70 57 37 58 38 59 51 61 71 62 40 63 25 64 26 65 34 66
REMARK SMILES IDX 27 67 33 68 28 69 29 70 30 71 31 72 32 73 55 74 56 75 64 76
REMARK SMILES IDX 57 77 63 78 58 79 59 80 60 81 61 82 62 83 41 84 42 85 50 86
REMARK SMILES IDX 43 87 49 88 44 89 45 90 46 91 47 92 48 93
REMARK H PARENT 3 14 3 15 69 49 39 60
REMARK Flexibility Score: inf
ROOT
ATOM      1  C   UNL A   1      39.299  21.790  26.158  1.00  0.00     0.202 C 
ENDROOT
BRANCH   1   2
ATOM      2  O   UNL A   1      37.925  22.126  25.988  1.00  0.00    -0.374 OA
BRANCH   2   3
ATOM      3  C   UNL A   1      37.419  22.107  24.652  1.00  0.00     0.202 C 
BRANCH   3   4
ATOM      4  C   UNL A   1      36.456  23.238  24.270  1.00  0.00     0.261 C 
BRANCH   4   5
ATOM      5  O   UNL A   1      35.120  22.761  24.028  1.00  0.00    -0.459 OA
BRANCH   5   6
ATOM      6  C   UNL A   1      34.132  23.687  24.067  1.00  0.00     0.368 C 
ATOM      7  O   UNL A   1      34.268  24.835  24.487  1.00  0.00    -0.245 OA
BRANCH   6   8
ATOM      8  C   UNL A   1      32.765  23.173  23.515  1.00  0.00     0.198 C 
ATOM      9  C   UNL A   1      31.658  23.634  24.472  1.00  0.00     0.085 C 
ATOM     10  C   UNL A   1      32.562  21.649  23.497  1.00  0.00     0.126 C 
ATOM     11  C   UNL A   1      31.636  22.574  25.568  1.00  0.00     0.052 C 
ATOM     12  C   UNL A   1      32.033  21.263  24.887  1.00  0.00     0.180 C 
BRANCH   8  13
ATOM     13  N   UNL A   1      32.543  23.844  22.197  1.00  0.00    -0.332 N 
ATOM     14  H   UNL A   1      33.449  24.139  21.835  1.00  0.00     0.347 HD
ATOM     15  H   UNL A   1      32.072  23.160  21.605  1.00  0.00     0.347 HD
BRANCH  13  16
ATOM     16  C   UNL A   1      31.669  25.014  22.238  1.00  0.00     0.257 C 
ATOM     17  C   UNL A   1      32.421  26.264  21.803  1.00  0.00     0.071 C 
ENDBRANCH  13  16
ENDBRANCH   8  13
BRANCH  12  18
ATOM     18  O   UNL A   1      33.085  20.622  25.600  1.00  0.00    -0.490 OA
BRANCH  18  19
ATOM     19  C   UNL A   1      33.434  19.345  25.263  1.00  0.00     0.123 A 
ATOM     20  C   UNL A   1      34.582  18.951  24.554  1.00  0.00     0.050 A 
ATOM     21  C   UNL A   1      32.525  18.379  25.702  1.00  0.00     0.097 A 
ATOM     22  C   UNL A   1      34.843  17.595  24.311  1.00  0.00     0.054 A 
ATOM     23  C   UNL A   1      32.817  17.054  25.464  1.00  0.00     0.169 A 
ATOM     24  C   UNL A   1      33.947  16.668  24.791  1.00  0.00     0.166 A 
ATOM     25  O   UNL A   1      32.073  15.994  25.865  1.00  0.00    -0.453 OA
ATOM     26  O   UNL A   1      34.053  15.317  24.683  1.00  0.00    -0.454 OA
ATOM     27  C   UNL A   1      32.880  14.890  25.412  1.00  0.00     0.468 C 
ENDBRANCH  18  19
ENDBRANCH  12  18
ENDBRANCH   6   8
ENDBRANCH   5   6
ENDBRANCH   4   5
ENDBRANCH   3   4
ENDBRANCH   2   3
ENDBRANCH   1   2
BRANCH   1  28
ATOM     28  C   UNL A   1      40.249  22.923  26.564  1.00  0.00     0.261 C 
BRANCH  28  29
ATOM     29  O   UNL A   1      39.617  24.214  26.534  1.00  0.00    -0.460 OA
BRANCH  29  30
ATOM     30  C   UNL A   1      40.462  25.251  26.320  1.00  0.00     0.338 C 
ATOM     31  O   UNL A   1      40.991  25.563  25.261  1.00  0.00    -0.246 OA
BRANCH  30  32
ATOM     32  C   UNL A   1      40.564  26.088  27.528  1.00  0.00     0.060 A 
ATOM     33  C   UNL A   1      39.557  25.968  28.495  1.00  0.00     0.016 A 
ATOM     34  C   UNL A   1      41.580  27.029  27.679  1.00  0.00     0.016 A 
ATOM     35  C   UNL A   1      39.540  26.819  29.602  1.00  0.00     0.010 A 
ATOM     36  C   UNL A   1      41.553  27.884  28.787  1.00  0.00     0.010 A 
ATOM     37  C   UNL A   1      40.523  27.806  29.744  1.00  0.00    -0.014 A 
BRANCH  37  38
ATOM     38  C   UNL A   1      40.410  28.842  30.809  1.00  0.00     0.031 A 
ATOM     39  C   UNL A   1      41.248  28.699  32.053  1.00  0.00     0.074 A 
ATOM     40  C   UNL A   1      39.563  29.885  30.697  1.00  0.00     0.049 A 
ATOM     41  N   UNL A   1      41.256  29.432  33.137  1.00  0.00    -0.248 NA
ATOM     42  C   UNL A   1      42.196  27.573  32.081  1.00  0.00     0.031 C 
ATOM     43  C   UNL A   1      38.692  30.158  29.553  1.00  0.00     0.029 A 
ATOM     44  N   UNL A   1      39.267  30.892  31.586  1.00  0.00    -0.354 N 
ATOM     45  C   UNL A   1      42.207  28.856  33.973  1.00  0.00     0.074 A 
ATOM     46  C   UNL A   1      42.708  27.681  33.297  1.00  0.00     0.031 C 
ATOM     47  C   UNL A   1      37.933  31.234  29.825  1.00  0.00     0.029 A 
ATOM     48  C   UNL A   1      38.255  31.723  31.164  1.00  0.00     0.049 A 
ATOM     49  H   UNL A   1      39.736  31.007  32.444  1.00  0.00     0.167 HD
ATOM     50  C   UNL A   1      42.650  29.281  35.181  1.00  0.00     0.031 A 
ATOM     51  C   UNL A   1      37.641  32.746  31.790  1.00  0.00     0.031 A 
ATOM     52  C   UNL A   1      42.169  30.456  35.855  1.00  0.00     0.049 A 
ATOM     53  C   UNL A   1      38.101  33.166  33.162  1.00  0.00     0.074 A 
ATOM     54  C   UNL A   1      42.599  30.996  37.054  1.00  0.00     0.029 A 
ATOM     55  N   UNL A   1      41.152  31.272  35.389  1.00  0.00    -0.354 N 
ATOM     56  N   UNL A   1      39.040  32.641  33.913  1.00  0.00    -0.248 NA
ATOM     57  C   UNL A   1      37.434  34.333  33.759  1.00  0.00     0.031 C 
ATOM     58  C   UNL A   1      41.811  32.118  37.335  1.00  0.00     0.029 A 
ATOM     59  C   UNL A   1      40.924  32.302  36.286  1.00  0.00     0.049 A 
ATOM     60  H   UNL A   1      40.662  31.140  34.545  1.00  0.00     0.167 HD
ATOM     61  C   UNL A   1      39.110  33.444  35.048  1.00  0.00     0.074 A 
ATOM     62  C   UNL A   1      38.113  34.482  34.889  1.00  0.00     0.031 C 
ATOM     63  C   UNL A   1      39.938  33.338  36.116  1.00  0.00     0.031 A 
BRANCH  50  64
ATOM     64  C   UNL A   1      43.721  28.459  35.847  1.00  0.00    -0.014 A 
ATOM     65  C   UNL A   1      43.384  27.397  36.707  1.00  0.00     0.010 A 
ATOM     66  C   UNL A   1      45.076  28.739  35.601  1.00  0.00     0.010 A 
ATOM     67  C   UNL A   1      44.384  26.663  37.349  1.00  0.00     0.020 A 
ATOM     68  C   UNL A   1      46.080  27.988  36.220  1.00  0.00     0.020 A 
ATOM     69  C   UNL A   1      45.726  26.968  37.107  1.00  0.00     0.054 A 
BRANCH  69  70
ATOM     70  S   UNL A   1      47.006  25.997  37.948  1.00  0.00     0.124 S 
ATOM     71  O   UNL A   1      47.347  25.006  36.929  1.00  0.00    -0.237 OA
ATOM     72  O   UNL A   1      48.038  26.994  38.223  1.00  0.00    -0.237 OA
ATOM     73  O   UNL A   1      46.323  25.469  39.126  1.00  0.00    -0.744 OA
ENDBRANCH  69  70
ENDBRANCH  50  64
BRANCH  51  74
ATOM     74  C   UNL A   1      36.516  33.457  31.125  1.00  0.00    -0.014 A 
ATOM     75  C   UNL A   1      35.288  33.635  31.786  1.00  0.00     0.010 A 
ATOM     76  C   UNL A   1      36.666  33.951  29.816  1.00  0.00     0.010 A 
ATOM     77  C   UNL A   1      34.224  34.275  31.144  1.00  0.00     0.020 A 
ATOM     78  C   UNL A   1      35.611  34.612  29.179  1.00  0.00     0.020 A 
ATOM     79  C   UNL A   1      34.393  34.759  29.844  1.00  0.00     0.054 A 
BRANCH  79  80
ATOM     80  S   UNL A   1      33.010  35.624  29.047  1.00  0.00     0.124 S 
ATOM     81  O   UNL A   1      32.422  34.568  28.229  1.00  0.00    -0.237 OA
ATOM     82  O   UNL A   1      32.211  36.059  30.190  1.00  0.00    -0.237 OA
ATOM     83  O   UNL A   1      33.662  36.702  28.306  1.00  0.00    -0.744 OA
ENDBRANCH  79  80
ENDBRANCH  51  74
BRANCH  63  84
ATOM     84  C   UNL A   1      39.850  34.403  37.176  1.00  0.00    -0.014 A 
ATOM     85  C   UNL A   1      40.503  35.639  37.032  1.00  0.00     0.010 A 
ATOM     86  C   UNL A   1      39.048  34.179  38.311  1.00  0.00     0.010 A 
ATOM     87  C   UNL A   1      40.378  36.622  38.018  1.00  0.00     0.020 A 
ATOM     88  C   UNL A   1      38.902  35.168  39.287  1.00  0.00     0.020 A 
ATOM     89  C   UNL A   1      39.580  36.379  39.141  1.00  0.00     0.054 A 
BRANCH  89  90
ATOM     90  S   UNL A   1      39.394  37.686  40.385  1.00  0.00     0.124 S 
ATOM     91  O   UNL A   1      40.656  38.411  40.254  1.00  0.00    -0.237 OA
ATOM     92  O   UNL A   1      38.207  38.403  39.925  1.00  0.00    -0.237 OA
ATOM     93  O   UNL A   1      39.225  36.951  41.636  1.00  0.00    -0.744 OA
ENDBRANCH  89  90
ENDBRANCH  63  84
ENDBRANCH  37  38
ENDBRANCH  30  32
ENDBRANCH  29  30
ENDBRANCH  28  29
ENDBRANCH   1  28
TORSDOF 21
ENDMDL
MODEL 2
REMARK VINA RESULT:     -10.4      6.144      8.124
REMARK SMILES CC[NH2+][C@@]1(C(=O)OCCOCCOC(=O)c2ccc(-c3c4nc(c(-c5ccc(S(=O)(=O)[O-])cc5)c5ccc([nH]5)c(-c5ccc(S(=O)(=O)[O-])cc5)c5nc(c(-c6ccc(S(=O)(=O)[O-])cc6)c6ccc3[nH]6)C=C5)C=C4)cc2)CC[C@H](Oc2ccc3c(c2)OCO3)C1
REMARK SMILES IDX 11 1 10 2 9 3 8 4 7 5 5 6 6 7 4 8 76 9 89 10 77 11 78 12
REMARK SMILES IDX 3 13 2 16 1 17 79 18 80 19 81 20 85 21 82 22 84 23 83 24
REMARK SMILES IDX 86 25 88 26 87 27 12 28 13 29 14 30 15 31 16 32 17 33 75 34
REMARK SMILES IDX 18 35 74 36 19 37 20 38 21 39 68 40 22 41 73 42 67 43 69 44
REMARK SMILES IDX 23 45 72 46 66 47 65 48 24 50 54 51 35 52 53 53 36 54 39 55
REMARK SMILES IDX 52 56 70 57 37 58 38 59 51 61 71 62 40 63 25 64 26 65 34 66
REMARK SMILES IDX 27 67 33 68 28 69 29 70 30 71 31 72 32 73 55 74 56 75 64 76
REMARK SMILES IDX 57 77 63 78 58 79 59 80 60 81 61 82 62 83 41 84 42 85 50 86
REMARK SMILES IDX 43 87 49 88 44 89 45 90 46 91 47 92 48 93
REMARK H PARENT 3 14 3 15 69 49 39 60
REMARK Flexibility Score: inf
ROOT
ATOM      1  C   UNL A   1      38.271  20.740  25.176  1.00  0.00     0.202 C 
ENDROOT
BRANCH   1   2
ATOM      2  O   UNL A   1      37.344  21.739  24.762  1.00  0.00    -0.374 OA
BRANCH   2   3
ATOM      3  C   UNL A   1      36.208  21.950  25.603  1.00  0.00     0.202 C 
BRANCH   3   4
ATOM      4  C   UNL A   1      35.508  23.309  25.479  1.00  0.00     0.261 C 
BRANCH   4   5
ATOM      5  O   UNL A   1      34.575  23.346  24.385  1.00  0.00    -0.459 OA
BRANCH   5   6
ATOM      6  C   UNL A   1      33.423  24.028  24.597  1.00  0.00     0.368 C 
ATOM      7  O   UNL A   1      33.337  25.068  25.248  1.00  0.00    -0.245 OA
BRANCH   6   8
ATOM      8  C   UNL A   1      32.174  23.375  23.927  1.00  0.00     0.198 C 
ATOM      9  C   UNL A   1      31.009  23.431  24.925  1.00  0.00     0.085 C 
ATOM     10  C   UNL A   1      32.265  21.870  23.624  1.00  0.00     0.126 C 
ATOM     11  C   UNL A   1      31.203  22.203  25.806  1.00  0.00     0.052 C 
ATOM     12  C   UNL A   1      31.835  21.140  24.906  1.00  0.00     0.180 C 
BRANCH   8  13
ATOM     13  N   UNL A   1      31.812  24.224  22.750  1.00  0.00    -0.332 N 
ATOM     14  H   UNL A   1      31.032  23.780  22.267  1.00  0.00     0.347 HD
ATOM     15  H   UNL A   1      31.587  25.146  23.123  1.00  0.00     0.347 HD
BRANCH  13  16
ATOM     16  C   UNL A   1      32.886  24.430  21.782  1.00  0.00     0.257 C 
ATOM     17  C   UNL A   1      33.208  25.911  21.640  1.00  0.00     0.071 C 
ENDBRANCH  13  16
ENDBRANCH   8  13
BRANCH  12  18
ATOM     18  O   UNL A   1      32.998  20.589  25.514  1.00  0.00    -0.490 OA
BRANCH  18  19
ATOM     19  C   UNL A   1      33.371  19.313  25.199  1.00  0.00     0.123 A 
ATOM     20  C   UNL A   1      34.530  18.929  24.502  1.00  0.00     0.050 A 
ATOM     21  C   UNL A   1      32.479  18.338  25.651  1.00  0.00     0.097 A 
ATOM     22  C   UNL A   1      34.816  17.574  24.282  1.00  0.00     0.054 A 
ATOM     23  C   UNL A   1      32.796  17.015  25.435  1.00  0.00     0.169 A 
ATOM     24  C   UNL A   1      33.935  16.639  24.774  1.00  0.00     0.166 A 
ATOM     25  O   UNL A   1      32.069  15.949  25.851  1.00  0.00    -0.453 OA
ATOM     26  O   UNL A   1      34.065  15.288  24.688  1.00  0.00    -0.454 OA
ATOM     27  C   UNL A   1      32.898  14.853  25.420  1.00  0.00     0.468 C 
ENDBRANCH  18  19
ENDBRANCH  12  18
ENDBRANCH   6   8
ENDBRANCH   5   6
ENDBRANCH   4   5
ENDBRANCH   3   4
ENDBRANCH   2   3
ENDBRANCH   1   2
BRANCH   1  28
ATOM     28  C   UNL A   1      39.446  21.198  26.048  1.00  0.00     0.261 C 
BRANCH  28  29
ATOM     29  O   UNL A   1      40.131  20.100  26.675  1.00  0.00    -0.460 OA
BRANCH  29  30
ATOM     30  C   UNL A   1      41.422  19.950  26.293  1.00  0.00     0.338 C 
ATOM     31  O   UNL A   1      41.918  18.976  25.741  1.00  0.00    -0.246 OA
BRANCH  30  32
ATOM     32  C   UNL A   1      42.166  21.205  26.493  1.00  0.00     0.060 A 
ATOM     33  C   UNL A   1      42.422  21.613  27.810  1.00  0.00     0.016 A 
ATOM     34  C   UNL A   1      42.541  22.010  25.419  1.00  0.00     0.016 A 
ATOM     35  C   UNL A   1      43.018  22.850  28.060  1.00  0.00     0.010 A 
ATOM     36  C   UNL A   1      43.132  23.252  25.677  1.00  0.00     0.010 A 
ATOM     37  C   UNL A   1      43.353  23.696  26.996  1.00  0.00    -0.014 A 
BRANCH  37  38
ATOM     38  C   UNL A   1      43.808  25.092  27.249  1.00  0.00     0.031 A 
ATOM     39  C   UNL A   1      45.263  25.429  27.048  1.00  0.00     0.074 A 
ATOM     40  C   UNL A   1      42.960  26.048  27.676  1.00  0.00     0.049 A 
ATOM     41  N   UNL A   1      45.896  26.550  27.282  1.00  0.00    -0.248 NA
ATOM     42  C   UNL A   1      46.121  24.354  26.520  1.00  0.00     0.031 C 
ATOM     43  C   UNL A   1      41.526  25.873  27.912  1.00  0.00     0.029 A 
ATOM     44  N   UNL A   1      43.197  27.357  28.027  1.00  0.00    -0.354 N 
ATOM     45  C   UNL A   1      47.221  26.316  26.932  1.00  0.00     0.074 A 
ATOM     46  C   UNL A   1      47.312  24.930  26.529  1.00  0.00     0.031 C 
ATOM     47  C   UNL A   1      41.019  27.017  28.406  1.00  0.00     0.029 A 
ATOM     48  C   UNL A   1      42.091  28.003  28.530  1.00  0.00     0.049 A 
ATOM     49  H   UNL A   1      44.075  27.791  27.928  1.00  0.00     0.167 HD
ATOM     50  C   UNL A   1      48.264  27.179  26.915  1.00  0.00     0.031 A 
ATOM     51  C   UNL A   1      41.957  29.238  29.053  1.00  0.00     0.031 A 
ATOM     52  C   UNL A   1      48.182  28.562  27.299  1.00  0.00     0.049 A 
ATOM     53  C   UNL A   1      43.144  30.165  29.087  1.00  0.00     0.074 A 
ATOM     54  C   UNL A   1      49.172  29.527  27.259  1.00  0.00     0.029 A 
ATOM     55  N   UNL A   1      47.042  29.176  27.793  1.00  0.00    -0.354 N 
ATOM     56  N   UNL A   1      44.377  29.941  28.700  1.00  0.00    -0.248 NA
ATOM     57  C   UNL A   1      42.913  31.522  29.606  1.00  0.00     0.031 C 
ATOM     58  C   UNL A   1      48.643  30.717  27.770  1.00  0.00     0.029 A 
ATOM     59  C   UNL A   1      47.310  30.503  28.082  1.00  0.00     0.049 A 
ATOM     60  H   UNL A   1      46.171  28.734  27.919  1.00  0.00     0.167 HD
ATOM     61  C   UNL A   1      45.056  31.143  28.882  1.00  0.00     0.074 A 
ATOM     62  C   UNL A   1      44.100  32.086  29.422  1.00  0.00     0.031 C 
ATOM     63  C   UNL A   1      46.350  31.439  28.609  1.00  0.00     0.031 A 
BRANCH  50  64
ATOM     64  C   UNL A   1      49.594  26.641  26.455  1.00  0.00    -0.014 A 
ATOM     65  C   UNL A   1      50.395  25.868  27.316  1.00  0.00     0.010 A 
ATOM     66  C   UNL A   1      50.040  26.895  25.147  1.00  0.00     0.010 A 
ATOM     67  C   UNL A   1      51.642  25.404  26.894  1.00  0.00     0.020 A 
ATOM     68  C   UNL A   1      51.276  26.408  24.711  1.00  0.00     0.020 A 
ATOM     69  C   UNL A   1      52.078  25.682  25.595  1.00  0.00     0.054 A 
BRANCH  69  70
ATOM     70  S   UNL A   1      53.699  25.063  25.068  1.00  0.00     0.124 S 
ATOM     71  O   UNL A   1      53.533  23.620  25.225  1.00  0.00    -0.237 OA
ATOM     72  O   UNL A   1      53.791  25.536  23.689  1.00  0.00    -0.237 OA
ATOM     73  O   UNL A   1      54.630  25.689  26.002  1.00  0.00    -0.744 OA
ENDBRANCH  69  70
ENDBRANCH  50  64
BRANCH  51  74
ATOM     74  C   UNL A   1      40.642  29.681  29.589  1.00  0.00    -0.014 A 
ATOM     75  C   UNL A   1      39.675  30.248  28.740  1.00  0.00     0.010 A 
ATOM     76  C   UNL A   1      40.355  29.548  30.960  1.00  0.00     0.010 A 
ATOM     77  C   UNL A   1      38.454  30.692  29.254  1.00  0.00     0.020 A 
ATOM     78  C   UNL A   1      39.125  29.970  31.474  1.00  0.00     0.020 A 
ATOM     79  C   UNL A   1      38.187  30.550  30.619  1.00  0.00     0.054 A 
BRANCH  79  80
ATOM     80  S   UNL A   1      36.577  31.096  31.255  1.00  0.00     0.124 S 
ATOM     81  O   UNL A   1      36.259  30.047  32.219  1.00  0.00    -0.237 OA
ATOM     82  O   UNL A   1      36.891  32.404  31.824  1.00  0.00    -0.237 OA
ATOM     83  O   UNL A   1      35.731  31.129  30.063  1.00  0.00    -0.744 OA
ENDBRANCH  79  80
ENDBRANCH  51  74
BRANCH  63  84
ATOM     84  C   UNL A   1      46.803  32.857  28.832  1.00  0.00    -0.014 A 
ATOM     85  C   UNL A   1      47.383  33.262  30.046  1.00  0.00     0.010 A 
ATOM     86  C   UNL A   1      46.696  33.787  27.779  1.00  0.00     0.010 A 
ATOM     87  C   UNL A   1      47.823  34.577  30.214  1.00  0.00     0.020 A 
ATOM     88  C   UNL A   1      47.157  35.096  27.935  1.00  0.00     0.020 A 
ATOM     89  C   UNL A   1      47.706  35.487  29.158  1.00  0.00     0.054 A 
BRANCH  89  90
ATOM     90  S   UNL A   1      48.327  37.177  29.382  1.00  0.00     0.124 S 
ATOM     91  O   UNL A   1      48.497  37.248  30.830  1.00  0.00    -0.237 OA
ATOM     92  O   UNL A   1      49.563  37.172  28.604  1.00  0.00    -0.237 OA
ATOM     93  O   UNL A   1      47.259  38.013  28.838  1.00  0.00    -0.744 OA
ENDBRANCH  89  90
ENDBRANCH  63  84
ENDBRANCH  37  38
ENDBRANCH  30  32
ENDBRANCH  29  30
ENDBRANCH  28  29
ENDBRANCH   1  28
TORSDOF 21
ENDMDL
MODEL 3
REMARK VINA RESULT:     -10.3      1.564      2.124
REMARK SMILES CC[NH2+][C@@]1(C(=O)OCCOCCOC(=O)c2ccc(-c3c4nc(c(-c5ccc(S(=O)(=O)[O-])cc5)c5ccc([nH]5)c(-c5ccc(S(=O)(=O)[O-])cc5)c5nc(c(-c6ccc(S(=O)(=O)[O-])cc6)c6ccc3[nH]6)C=C5)C=C4)cc2)CC[C@H](Oc2ccc3c(c2)OCO3)C1
REMARK SMILES IDX 11 1 10 2 9 3 8 4 7 5 5 6 6 7 4 8 76 9 89 10 77 11 78 12
REMARK SMILES IDX 3 13 2 16 1 17 79 18 80 19 81 20 85 21 82 22 84 23 83 24
REMARK SMILES IDX 86 25 88 26 87 27 12 28 13 29 14 30 15 31 16 32 17 33 75 34
REMARK SMILES IDX 18 35 74 36 19 37 20 38 21 39 68 40 22 41 73 42 67 43 69 44
REMARK SMILES IDX 23 45 72 46 66 47 65 48 24 50 54 51 35 52 53 53 36 54 39 55
REMARK SMILES IDX 52 56 70 57 37 58 38 59 51 61 71 62 40 63 25 64 26 65 34 66
REMARK SMILES IDX 27 67 33 68 28 69 29 70 30 71 31 72 32 73 55 74 56 75 64 76
REMARK SMILES IDX 57 77 63 78 58 79 59 80 60 81 61 82 62 83 41 84 42 85 50 86
REMARK SMILES IDX 43 87 49 88 44 89 45 90 46 91 47 92 48 93
REMARK H PARENT 3 14 3 15 69 49 39 60
REMARK Flexibility Score: inf
ROOT
ATOM      1  C   UNL A   1      40.507  22.456  26.561  1.00  0.00     0.202 C 
ENDROOT
BRANCH   1   2
ATOM      2  O   UNL A   1      39.270  21.879  26.152  1.00  0.00    -0.374 OA
BRANCH   2   3
ATOM      3  C   UNL A   1      38.210  22.786  25.842  1.00  0.00     0.202 C 
BRANCH   3   4
ATOM      4  C   UNL A   1      36.820  22.169  25.639  1.00  0.00     0.261 C 
BRANCH   4   5
ATOM      5  O   UNL A   1      35.763  23.059  26.040  1.00  0.00    -0.459 OA
BRANCH   5   6
ATOM      6  C   UNL A   1      34.772  23.263  25.139  1.00  0.00     0.368 C 
ATOM      7  O   UNL A   1      34.952  23.550  23.956  1.00  0.00    -0.245 OA
BRANCH   6   8
ATOM      8  C   UNL A   1      33.338  23.097  25.732  1.00  0.00     0.198 C 
ATOM      9  C   UNL A   1      33.454  22.339  27.062  1.00  0.00     0.085 C 
ATOM     10  C   UNL A   1      32.366  22.209  24.939  1.00  0.00     0.126 C 
ATOM     11  C   UNL A   1      33.479  20.869  26.661  1.00  0.00     0.052 C 
ATOM     12  C   UNL A   1      32.616  20.765  25.402  1.00  0.00     0.180 C 
BRANCH   8  13
ATOM     13  N   UNL A   1      32.824  24.470  26.029  1.00  0.00    -0.332 N 
ATOM     14  H   UNL A   1      32.398  24.455  26.955  1.00  0.00     0.347 HD
ATOM     15  H   UNL A   1      33.626  25.095  25.960  1.00  0.00     0.347 HD
BRANCH  13  16
ATOM     16  C   UNL A   1      31.832  24.978  25.084  1.00  0.00     0.257 C 
ATOM     17  C   UNL A   1      30.526  25.302  25.795  1.00  0.00     0.071 C 
ENDBRANCH  13  16
ENDBRANCH   8  13
BRANCH  12  18
ATOM     18  O   UNL A   1      33.314  20.082  24.366  1.00  0.00    -0.490 OA
BRANCH  18  19
ATOM     19  C   UNL A   1      33.639  18.766  24.540  1.00  0.00     0.123 A 
ATOM     20  C   UNL A   1      34.922  18.203  24.441  1.00  0.00     0.050 A 
ATOM     21  C   UNL A   1      32.546  17.954  24.854  1.00  0.00     0.097 A 
ATOM     22  C   UNL A   1      35.125  16.837  24.687  1.00  0.00     0.054 A 
ATOM     23  C   UNL A   1      32.779  16.620  25.107  1.00  0.00     0.169 A 
ATOM     24  C   UNL A   1      34.033  16.073  25.031  1.00  0.00     0.166 A 
ATOM     25  O   UNL A   1      31.845  15.709  25.473  1.00  0.00    -0.453 OA
ATOM     26  O   UNL A   1      34.043  14.749  25.338  1.00  0.00    -0.454 OA
ATOM     27  C   UNL A   1      32.653  14.532  25.667  1.00  0.00     0.468 C 
ENDBRANCH  18  19
ENDBRANCH  12  18
ENDBRANCH   6   8
ENDBRANCH   5   6
ENDBRANCH   4   5
ENDBRANCH   3   4
ENDBRANCH   2   3
ENDBRANCH   1   2
BRANCH   1  28
ATOM     28  C   UNL A   1      40.468  23.413  27.759  1.00  0.00     0.261 C 
BRANCH  28  29
ATOM     29  O   UNL A   1      41.299  24.570  27.570  1.00  0.00    -0.460 OA
BRANCH  29  30
ATOM     30  C   UNL A   1      40.654  25.654  27.077  1.00  0.00     0.338 C 
ATOM     31  O   UNL A   1      40.189  25.785  25.951  1.00  0.00    -0.246 OA
BRANCH  30  32
ATOM     32  C   UNL A   1      40.433  26.649  28.140  1.00  0.00     0.060 A 
ATOM     33  C   UNL A   1      41.242  27.794  28.144  1.00  0.00     0.016 A 
ATOM     34  C   UNL A   1      39.510  26.434  29.161  1.00  0.00     0.016 A 
ATOM     35  C   UNL A   1      41.158  28.712  29.193  1.00  0.00     0.010 A 
ATOM     36  C   UNL A   1      39.435  27.353  30.213  1.00  0.00     0.010 A 
ATOM     37  C   UNL A   1      40.273  28.486  30.254  1.00  0.00    -0.014 A 
BRANCH  37  38
ATOM     38  C   UNL A   1      40.308  29.347  31.469  1.00  0.00     0.031 A 
ATOM     39  C   UNL A   1      41.360  29.083  32.515  1.00  0.00     0.074 A 
ATOM     40  C   UNL A   1      39.412  30.334  31.665  1.00  0.00     0.049 A 
ATOM     41  N   UNL A   1      41.531  29.650  33.682  1.00  0.00    -0.248 NA
ATOM     42  C   UNL A   1      42.345  28.032  32.208  1.00  0.00     0.031 C 
ATOM     43  C   UNL A   1      38.341  30.710  30.742  1.00  0.00     0.029 A 
ATOM     44  N   UNL A   1      39.238  31.180  32.737  1.00  0.00    -0.354 N 
ATOM     45  C   UNL A   1      42.639  29.026  34.245  1.00  0.00     0.074 A 
ATOM     46  C   UNL A   1      43.060  27.998  33.320  1.00  0.00     0.031 C 
ATOM     47  C   UNL A   1      37.598  31.681  31.302  1.00  0.00     0.029 A 
ATOM     48  C   UNL A   1      38.133  31.992  32.626  1.00  0.00     0.049 A 
ATOM     49  H   UNL A   1      39.848  31.202  33.510  1.00  0.00     0.167 HD
ATOM     50  C   UNL A   1      43.272  29.301  35.411  1.00  0.00     0.031 A 
ATOM     51  C   UNL A   1      37.598  32.870  33.498  1.00  0.00     0.031 A 
ATOM     52  C   UNL A   1      42.871  30.331  36.330  1.00  0.00     0.049 A 
ATOM     53  C   UNL A   1      38.278  33.117  34.819  1.00  0.00     0.074 A 
ATOM     54  C   UNL A   1      43.485  30.721  37.508  1.00  0.00     0.029 A 
ATOM     55  N   UNL A   1      41.754  31.135  36.175  1.00  0.00    -0.354 N 
ATOM     56  N   UNL A   1      39.356  32.555  35.309  1.00  0.00    -0.248 NA
ATOM     57  C   UNL A   1      37.680  34.137  35.694  1.00  0.00     0.031 C 
ATOM     58  C   UNL A   1      42.713  31.734  38.088  1.00  0.00     0.029 A 
ATOM     59  C   UNL A   1      41.647  32.006  37.246  1.00  0.00     0.049 A 
ATOM     60  H   UNL A   1      41.127  31.093  35.417  1.00  0.00     0.167 HD
ATOM     61  C   UNL A   1      39.594  33.188  36.526  1.00  0.00     0.074 A 
ATOM     62  C   UNL A   1      38.543  34.168  36.701  1.00  0.00     0.031 C 
ATOM     63  C   UNL A   1      40.603  32.986  37.408  1.00  0.00     0.031 A 
BRANCH  50  64
ATOM     64  C   UNL A   1      44.479  28.467  35.751  1.00  0.00    -0.014 A 
ATOM     65  C   UNL A   1      45.766  28.858  35.339  1.00  0.00     0.010 A 
ATOM     66  C   UNL A   1      44.328  27.288  36.502  1.00  0.00     0.010 A 
ATOM     67  C   UNL A   1      46.874  28.060  35.627  1.00  0.00     0.020 A 
ATOM     68  C   UNL A   1      45.439  26.500  36.817  1.00  0.00     0.020 A 
ATOM     69  C   UNL A   1      46.703  26.881  36.359  1.00  0.00     0.054 A 
BRANCH  69  70
ATOM     70  S   UNL A   1      48.158  25.864  36.727  1.00  0.00     0.124 S 
ATOM     71  O   UNL A   1      49.097  26.302  35.696  1.00  0.00    -0.237 OA
ATOM     72  O   UNL A   1      48.494  26.264  38.091  1.00  0.00    -0.237 OA
ATOM     73  O   UNL A   1      47.670  24.495  36.583  1.00  0.00    -0.744 OA
ENDBRANCH  69  70
ENDBRANCH  50  64
BRANCH  51  74
ATOM     74  C   UNL A   1      36.343  33.591  33.151  1.00  0.00    -0.014 A 
ATOM     75  C   UNL A   1      36.389  34.873  32.577  1.00  0.00     0.010 A 
ATOM     76  C   UNL A   1      35.093  32.999  33.407  1.00  0.00     0.010 A 
ATOM     77  C   UNL A   1      35.207  35.560  32.283  1.00  0.00     0.020 A 
ATOM     78  C   UNL A   1      33.909  33.674  33.094  1.00  0.00     0.020 A 
ATOM     79  C   UNL A   1      33.974  34.955  32.544  1.00  0.00     0.054 A 
BRANCH  79  80
ATOM     80  S   UNL A   1      32.454  35.850  32.115  1.00  0.00     0.124 S 
ATOM     81  O   UNL A   1      32.543  35.921  30.660  1.00  0.00    -0.237 OA
ATOM     82  O   UNL A   1      31.413  34.972  32.643  1.00  0.00    -0.237 OA
ATOM     83  O   UNL A   1      32.599  37.125  32.815  1.00  0.00    -0.744 OA
ENDBRANCH  79  80
ENDBRANCH  51  74
BRANCH  63  84
ATOM     84  C   UNL A   1      40.661  33.878  38.619  1.00  0.00    -0.014 A 
ATOM     85  C   UNL A   1      39.860  33.638  39.748  1.00  0.00     0.010 A 
ATOM     86  C   UNL A   1      41.581  34.944  38.644  1.00  0.00     0.010 A 
ATOM     87  C   UNL A   1      39.957  34.465  40.870  1.00  0.00     0.020 A 
ATOM     88  C   UNL A   1      41.698  35.757  39.774  1.00  0.00     0.020 A 
ATOM     89  C   UNL A   1      40.874  35.521  40.876  1.00  0.00     0.054 A 
BRANCH  89  90
ATOM     90  S   UNL A   1      41.017  36.552  42.362  1.00  0.00     0.124 S 
ATOM     91  O   UNL A   1      42.308  37.202  42.157  1.00  0.00    -0.237 OA
ATOM     92  O   UNL A   1      39.851  37.426  42.262  1.00  0.00    -0.237 OA
ATOM     93  O   UNL A   1      40.972  35.587  43.458  1.00  0.00    -0.744 OA
ENDBRANCH  89  90
ENDBRANCH  63  84
ENDBRANCH  37  38
ENDBRANCH  30  32
ENDBRANCH  29  30
ENDBRANCH  28  29
ENDBRANCH   1  28
TORSDOF 21
ENDMDL
