MODEL 1
REMARK VINA RESULT:      -9.6      0.000      0.000
REMARK SMILES CC(C)(C)[N@@H+](CCC(=O)OCCOCCOC(=O)c1ccc(-c2c3nc(c(-c4ccc(S(=O)(=O)[O-])cc4)c4ccc([nH]4)c(-c4ccc(S(=O)(=O)[O-])cc4)c4nc(c(-c5ccc(S(=O)(=O)[O-])cc5)c5ccc2[nH]5)C=C4)C=C3)cc1)C[C@H]1COc2ccccc21
REMARK SMILES IDX 12 1 11 2 10 3 8 4 9 5 7 6 6 7 5 8 2 10 1 11 3 12 4 13 79 14
REMARK SMILES IDX 80 15 81 16 88 17 82 18 83 19 87 20 84 21 86 22 85 23 13 24
REMARK SMILES IDX 14 25 15 26 16 27 17 28 18 29 19 30 20 31 78 32 21 33 77 34
REMARK SMILES IDX 22 35 23 36 24 37 71 38 25 39 76 40 70 41 72 42 26 43 75 44
REMARK SMILES IDX 69 45 68 46 27 48 57 49 38 50 56 51 39 52 42 53 55 54 73 55
REMARK SMILES IDX 40 56 41 57 54 59 74 60 43 61 28 62 29 63 37 64 30 65 36 66
REMARK SMILES IDX 31 67 32 68 33 69 34 70 35 71 58 72 59 73 67 74 60 75 66 76
REMARK SMILES IDX 61 77 62 78 63 79 64 80 65 81 44 82 45 83 53 84 46 85 52 86
REMARK SMILES IDX 47 87 48 88 49 89 50 90 51 91
REMARK H PARENT 5 9 72 47 42 58
REMARK Flexibility Score: inf
ROOT
ATOM      1  C   UNL A   1      36.600  22.200  24.296  1.00  0.00     0.202 C 
ENDROOT
BRANCH   1   2
ATOM      2  C   UNL A   1      35.889  23.561  24.447  1.00  0.00     0.261 C 
BRANCH   2   3
ATOM      3  O   UNL A   1      34.740  23.699  23.588  1.00  0.00    -0.463 OA
BRANCH   3   4
ATOM      4  C   UNL A   1      34.208  24.938  23.437  1.00  0.00     0.311 C 
ATOM      5  O   UNL A   1      33.944  25.455  22.358  1.00  0.00    -0.252 OA
BRANCH   4   6
ATOM      6  C   UNL A   1      34.064  25.679  24.754  1.00  0.00     0.184 C 
BRANCH   6   7
ATOM      7  C   UNL A   1      32.951  26.732  24.854  1.00  0.00     0.274 C 
BRANCH   7   8
ATOM      8  N   UNL A   1      31.542  26.345  24.673  1.00  0.00    -0.330 N 
ATOM      9  H   UNL A   1      31.629  25.703  23.885  1.00  0.00     0.348 HD
BRANCH   8  10
ATOM     10  C   UNL A   1      30.649  27.140  23.807  1.00  0.00     0.089 C 
ATOM     11  C   UNL A   1      31.036  26.987  22.313  1.00  0.00     0.078 C 
ATOM     12  C   UNL A   1      30.703  28.638  24.153  1.00  0.00     0.078 C 
ATOM     13  C   UNL A   1      29.183  26.643  23.880  1.00  0.00     0.078 C 
ENDBRANCH   8  10
BRANCH   8  14
ATOM     14  C   UNL A   1      30.986  25.437  25.693  1.00  0.00     0.274 C 
BRANCH  14  15
ATOM     15  C   UNL A   1      30.959  23.929  25.395  1.00  0.00     0.116 C 
ATOM     16  C   UNL A   1      31.121  23.469  23.942  1.00  0.00     0.244 C 
ATOM     17  C   UNL A   1      32.073  23.114  25.965  1.00  0.00     0.006 A 
ATOM     18  O   UNL A   1      31.599  22.096  23.961  1.00  0.00    -0.492 OA
ATOM     19  C   UNL A   1      32.311  22.036  25.130  1.00  0.00     0.123 A 
ATOM     20  C   UNL A   1      32.741  23.209  27.166  1.00  0.00     0.008 A 
ATOM     21  C   UNL A   1      33.156  21.002  25.484  1.00  0.00     0.047 A 
ATOM     22  C   UNL A   1      33.602  22.179  27.552  1.00  0.00     0.001 A 
ATOM     23  C   UNL A   1      33.803  21.074  26.718  1.00  0.00     0.004 A 
ENDBRANCH  14  15
ENDBRANCH   8  14
ENDBRANCH   7   8
ENDBRANCH   6   7
ENDBRANCH   4   6
ENDBRANCH   3   4
ENDBRANCH   2   3
ENDBRANCH   1   2
BRANCH   1  24
ATOM     24  O   UNL A   1      37.203  21.684  25.487  1.00  0.00    -0.374 OA
BRANCH  24  25
ATOM     25  C   UNL A   1      38.402  20.945  25.247  1.00  0.00     0.202 C 
BRANCH  25  26
ATOM     26  C   UNL A   1      39.495  21.145  26.298  1.00  0.00     0.261 C 
BRANCH  26  27
ATOM     27  O   UNL A   1      40.167  19.883  26.554  1.00  0.00    -0.460 OA
BRANCH  27  28
ATOM     28  C   UNL A   1      41.476  19.833  26.208  1.00  0.00     0.338 C 
ATOM     29  O   UNL A   1      42.028  18.883  25.670  1.00  0.00    -0.246 OA
BRANCH  28  30
ATOM     30  C   UNL A   1      42.158  21.143  26.415  1.00  0.00     0.060 A 
ATOM     31  C   UNL A   1      42.327  21.561  27.742  1.00  0.00     0.016 A 
ATOM     32  C   UNL A   1      42.646  21.950  25.379  1.00  0.00     0.016 A 
ATOM     33  C   UNL A   1      42.987  22.753  28.044  1.00  0.00     0.010 A 
ATOM     34  C   UNL A   1      43.273  23.174  25.681  1.00  0.00     0.010 A 
ATOM     35  C   UNL A   1      43.435  23.588  27.016  1.00  0.00    -0.014 A 
BRANCH  35  36
ATOM     36  C   UNL A   1      43.859  24.968  27.373  1.00  0.00     0.031 A 
ATOM     37  C   UNL A   1      45.305  25.338  27.158  1.00  0.00     0.074 A 
ATOM     38  C   UNL A   1      42.978  25.908  27.764  1.00  0.00     0.049 A 
ATOM     39  N   UNL A   1      45.899  26.492  27.309  1.00  0.00    -0.248 NA
ATOM     40  C   UNL A   1      46.191  24.260  26.688  1.00  0.00     0.031 C 
ATOM     41  C   UNL A   1      41.537  25.711  27.917  1.00  0.00     0.029 A 
ATOM     42  N   UNL A   1      43.171  27.233  28.082  1.00  0.00    -0.354 N 
ATOM     43  C   UNL A   1      47.224  26.284  26.942  1.00  0.00     0.074 A 
ATOM     44  C   UNL A   1      47.352  24.889  26.586  1.00  0.00     0.031 C 
ATOM     45  C   UNL A   1      40.977  26.872  28.304  1.00  0.00     0.029 A 
ATOM     46  C   UNL A   1      42.019  27.891  28.450  1.00  0.00     0.049 A 
ATOM     47  H   UNL A   1      44.052  27.670  28.051  1.00  0.00     0.167 HD
ATOM     48  C   UNL A   1      48.246  27.172  26.902  1.00  0.00     0.031 A 
ATOM     49  C   UNL A   1      41.830  29.162  28.864  1.00  0.00     0.031 A 
ATOM     50  C   UNL A   1      48.134  28.550  27.299  1.00  0.00     0.049 A 
ATOM     51  C   UNL A   1      43.011  30.101  28.933  1.00  0.00     0.074 A 
ATOM     52  C   UNL A   1      49.122  29.518  27.327  1.00  0.00     0.029 A 
ATOM     53  N   UNL A   1      46.970  29.150  27.752  1.00  0.00    -0.354 N 
ATOM     54  N   UNL A   1      44.257  29.889  28.577  1.00  0.00    -0.248 NA
ATOM     55  C   UNL A   1      42.760  31.454  29.453  1.00  0.00     0.031 C 
ATOM     56  C   UNL A   1      48.569  30.687  27.863  1.00  0.00     0.029 A 
ATOM     57  C   UNL A   1      47.221  30.467  28.096  1.00  0.00     0.049 A 
ATOM     58  H   UNL A   1      46.094  28.705  27.819  1.00  0.00     0.167 HD
ATOM     59  C   UNL A   1      44.928  31.090  28.801  1.00  0.00     0.074 A 
ATOM     60  C   UNL A   1      43.948  32.026  29.310  1.00  0.00     0.031 C 
ATOM     61  C   UNL A   1      46.235  31.391  28.601  1.00  0.00     0.031 A 
BRANCH  48  62
ATOM     62  C   UNL A   1      49.592  26.653  26.472  1.00  0.00    -0.014 A 
ATOM     63  C   UNL A   1      50.462  26.024  27.382  1.00  0.00     0.010 A 
ATOM     64  C   UNL A   1      49.988  26.788  25.128  1.00  0.00     0.010 A 
ATOM     65  C   UNL A   1      51.719  25.579  26.965  1.00  0.00     0.020 A 
ATOM     66  C   UNL A   1      51.233  26.318  24.701  1.00  0.00     0.020 A 
ATOM     67  C   UNL A   1      52.098  25.733  25.627  1.00  0.00     0.054 A 
BRANCH  67  68
ATOM     68  S   UNL A   1      53.734  25.141  25.111  1.00  0.00     0.124 S 
ATOM     69  O   UNL A   1      54.565  25.527  26.249  1.00  0.00    -0.237 OA
ATOM     70  O   UNL A   1      53.517  23.706  24.950  1.00  0.00    -0.237 OA
ATOM     71  O   UNL A   1      53.994  25.874  23.875  1.00  0.00    -0.744 OA
ENDBRANCH  67  68
ENDBRANCH  48  62
BRANCH  49  72
ATOM     72  C   UNL A   1      40.474  29.623  29.289  1.00  0.00    -0.014 A 
ATOM     73  C   UNL A   1      39.472  29.912  28.345  1.00  0.00     0.010 A 
ATOM     74  C   UNL A   1      40.192  29.812  30.655  1.00  0.00     0.010 A 
ATOM     75  C   UNL A   1      38.225  30.398  28.757  1.00  0.00     0.020 A 
ATOM     76  C   UNL A   1      38.937  30.268  31.073  1.00  0.00     0.020 A 
ATOM     77  C   UNL A   1      37.964  30.570  30.119  1.00  0.00     0.054 A 
BRANCH  77  78
ATOM     78  S   UNL A   1      36.327  31.161  30.636  1.00  0.00     0.124 S 
ATOM     79  O   UNL A   1      35.602  31.198  29.369  1.00  0.00    -0.237 OA
ATOM     80  O   UNL A   1      35.903  30.128  31.578  1.00  0.00    -0.237 OA
ATOM     81  O   UNL A   1      36.607  32.464  31.235  1.00  0.00    -0.744 OA
ENDBRANCH  77  78
ENDBRANCH  49  72
BRANCH  61  82
ATOM     82  C   UNL A   1      46.689  32.799  28.895  1.00  0.00    -0.014 A 
ATOM     83  C   UNL A   1      46.615  33.813  27.925  1.00  0.00     0.010 A 
ATOM     84  C   UNL A   1      47.128  33.127  30.193  1.00  0.00     0.010 A 
ATOM     85  C   UNL A   1      46.997  35.122  28.238  1.00  0.00     0.020 A 
ATOM     86  C   UNL A   1      47.482  34.438  30.519  1.00  0.00     0.020 A 
ATOM     87  C   UNL A   1      47.427  35.426  29.534  1.00  0.00     0.054 A 
BRANCH  87  88
ATOM     88  S   UNL A   1      47.869  37.141  29.928  1.00  0.00     0.124 S 
ATOM     89  O   UNL A   1      47.586  37.825  28.669  1.00  0.00    -0.237 OA
ATOM     90  O   UNL A   1      46.967  37.459  31.033  1.00  0.00    -0.237 OA
ATOM     91  O   UNL A   1      49.282  37.061  30.289  1.00  0.00    -0.744 OA
ENDBRANCH  87  88
ENDBRANCH  61  82
ENDBRANCH  35  36
ENDBRANCH  28  30
ENDBRANCH  27  28
ENDBRANCH  26  27
ENDBRANCH  25  26
ENDBRANCH  24  25
ENDBRANCH   1  24
TORSDOF 22
ENDMDL
MODEL 2
REMARK VINA RESULT:      -8.8      6.168     11.523
REMARK SMILES CC(C)(C)[N@@H+](CCC(=O)OCCOCCOC(=O)c1ccc(-c2c3nc(c(-c4ccc(S(=O)(=O)[O-])cc4)c4ccc([nH]4)c(-c4ccc(S(=O)(=O)[O-])cc4)c4nc(c(-c5ccc(S(=O)(=O)[O-])cc5)c5ccc2[nH]5)C=C4)C=C3)cc1)C[C@H]1COc2ccccc21
REMARK SMILES IDX 12 1 11 2 10 3 8 4 9 5 7 6 6 7 5 8 2 10 1 11 3 12 4 13 79 14
REMARK SMILES IDX 80 15 81 16 88 17 82 18 83 19 87 20 84 21 86 22 85 23 13 24
REMARK SMILES IDX 14 25 15 26 16 27 17 28 18 29 19 30 20 31 78 32 21 33 77 34
REMARK SMILES IDX 22 35 23 36 24 37 71 38 25 39 76 40 70 41 72 42 26 43 75 44
REMARK SMILES IDX 69 45 68 46 27 48 57 49 38 50 56 51 39 52 42 53 55 54 73 55
REMARK SMILES IDX 40 56 41 57 54 59 74 60 43 61 28 62 29 63 37 64 30 65 36 66
REMARK SMILES IDX 31 67 32 68 33 69 34 70 35 71 58 72 59 73 67 74 60 75 66 76
REMARK SMILES IDX 61 77 62 78 63 79 64 80 65 81 44 82 45 83 53 84 46 85 52 86
REMARK SMILES IDX 47 87 48 88 49 89 50 90 51 91
REMARK H PARENT 5 9 72 47 42 58
REMARK Flexibility Score: inf
ROOT
ATOM      1  C   UNL A   1      35.311  31.383  28.931  1.00  0.00     0.202 C 
ENDROOT
BRANCH   1   2
ATOM      2  C   UNL A   1      35.797  29.986  28.494  1.00  0.00     0.261 C 
BRANCH   2   3
ATOM      3  O   UNL A   1      35.492  29.684  27.117  1.00  0.00    -0.463 OA
BRANCH   3   4
ATOM      4  C   UNL A   1      34.197  29.440  26.795  1.00  0.00     0.311 C 
ATOM      5  O   UNL A   1      33.263  30.190  27.054  1.00  0.00    -0.252 OA
BRANCH   4   6
ATOM      6  C   UNL A   1      33.997  28.076  26.160  1.00  0.00     0.184 C 
BRANCH   6   7
ATOM      7  C   UNL A   1      33.820  28.025  24.636  1.00  0.00     0.274 C 
BRANCH   7   8
ATOM      8  N   UNL A   1      32.880  27.070  24.026  1.00  0.00    -0.330 N 
ATOM      9  H   UNL A   1      32.918  27.373  23.053  1.00  0.00     0.348 HD
BRANCH   8  10
ATOM     10  C   UNL A   1      31.436  27.370  23.967  1.00  0.00     0.089 C 
ATOM     11  C   UNL A   1      30.884  27.183  22.530  1.00  0.00     0.078 C 
ATOM     12  C   UNL A   1      31.135  28.816  24.400  1.00  0.00     0.078 C 
ATOM     13  C   UNL A   1      30.607  26.387  24.831  1.00  0.00     0.078 C 
ENDBRANCH   8  10
BRANCH   8  14
ATOM     14  C   UNL A   1      33.365  25.684  23.891  1.00  0.00     0.274 C 
BRANCH  14  15
ATOM     15  C   UNL A   1      34.169  25.073  25.051  1.00  0.00     0.116 C 
ATOM     16  C   UNL A   1      33.402  24.414  26.202  1.00  0.00     0.244 C 
ATOM     17  C   UNL A   1      35.036  23.903  24.721  1.00  0.00     0.006 A 
ATOM     18  O   UNL A   1      34.301  23.475  26.854  1.00  0.00    -0.492 OA
ATOM     19  C   UNL A   1      35.132  23.088  25.836  1.00  0.00     0.123 A 
ATOM     20  C   UNL A   1      35.790  23.622  23.602  1.00  0.00     0.008 A 
ATOM     21  C   UNL A   1      36.013  22.027  25.900  1.00  0.00     0.047 A 
ATOM     22  C   UNL A   1      36.691  22.555  23.637  1.00  0.00     0.001 A 
ATOM     23  C   UNL A   1      36.809  21.764  24.784  1.00  0.00     0.004 A 
ENDBRANCH  14  15
ENDBRANCH   8  14
ENDBRANCH   7   8
ENDBRANCH   6   7
ENDBRANCH   4   6
ENDBRANCH   3   4
ENDBRANCH   2   3
ENDBRANCH   1   2
BRANCH   1  24
ATOM     24  O   UNL A   1      35.969  32.488  28.304  1.00  0.00    -0.374 OA
BRANCH  24  25
ATOM     25  C   UNL A   1      35.083  33.550  27.940  1.00  0.00     0.202 C 
BRANCH  25  26
ATOM     26  C   UNL A   1      33.757  33.563  28.703  1.00  0.00     0.261 C 
BRANCH  26  27
ATOM     27  O   UNL A   1      33.567  34.857  29.334  1.00  0.00    -0.460 OA
BRANCH  27  28
ATOM     28  C   UNL A   1      33.461  34.844  30.684  1.00  0.00     0.338 C 
ATOM     29  O   UNL A   1      32.470  35.178  31.319  1.00  0.00    -0.246 OA
BRANCH  28  30
ATOM     30  C   UNL A   1      34.651  34.218  31.331  1.00  0.00     0.060 A 
ATOM     31  C   UNL A   1      35.855  34.931  31.256  1.00  0.00     0.016 A 
ATOM     32  C   UNL A   1      34.626  32.993  32.010  1.00  0.00     0.016 A 
ATOM     33  C   UNL A   1      37.016  34.451  31.861  1.00  0.00     0.010 A 
ATOM     34  C   UNL A   1      35.807  32.486  32.584  1.00  0.00     0.010 A 
ATOM     35  C   UNL A   1      37.012  33.208  32.500  1.00  0.00    -0.014 A 
BRANCH  35  36
ATOM     36  C   UNL A   1      38.323  32.607  32.866  1.00  0.00     0.031 A 
ATOM     37  C   UNL A   1      38.839  32.840  34.263  1.00  0.00     0.074 A 
ATOM     38  C   UNL A   1      38.988  31.781  32.036  1.00  0.00     0.049 A 
ATOM     39  N   UNL A   1      39.904  32.358  34.848  1.00  0.00    -0.248 NA
ATOM     40  C   UNL A   1      38.028  33.722  35.120  1.00  0.00     0.031 C 
ATOM     41  C   UNL A   1      38.551  31.393  30.695  1.00  0.00     0.029 A 
ATOM     42  N   UNL A   1      40.170  31.100  32.214  1.00  0.00    -0.354 N 
ATOM     43  C   UNL A   1      39.885  32.865  36.143  1.00  0.00     0.074 A 
ATOM     44  C   UNL A   1      38.718  33.713  36.249  1.00  0.00     0.031 C 
ATOM     45  C   UNL A   1      39.456  30.545  30.172  1.00  0.00     0.029 A 
ATOM     46  C   UNL A   1      40.548  30.347  31.126  1.00  0.00     0.049 A 
ATOM     47  H   UNL A   1      40.697  31.148  33.044  1.00  0.00     0.167 HD
ATOM     48  C   UNL A   1      40.758  32.648  37.155  1.00  0.00     0.031 A 
ATOM     49  C   UNL A   1      41.650  29.594  30.922  1.00  0.00     0.031 A 
ATOM     50  C   UNL A   1      41.943  31.843  37.040  1.00  0.00     0.049 A 
ATOM     51  C   UNL A   1      42.676  29.469  32.025  1.00  0.00     0.074 A 
ATOM     52  C   UNL A   1      42.908  31.591  37.999  1.00  0.00     0.029 A 
ATOM     53  N   UNL A   1      42.336  31.173  35.891  1.00  0.00    -0.354 N 
ATOM     54  N   UNL A   1      42.639  29.952  33.246  1.00  0.00    -0.248 NA
ATOM     55  C   UNL A   1      43.888  28.690  31.725  1.00  0.00     0.031 C 
ATOM     56  C   UNL A   1      43.919  30.825  37.409  1.00  0.00     0.029 A 
ATOM     57  C   UNL A   1      43.546  30.536  36.106  1.00  0.00     0.049 A 
ATOM     58  H   UNL A   1      41.828  31.153  35.048  1.00  0.00     0.167 HD
ATOM     59  C   UNL A   1      43.806  29.510  33.865  1.00  0.00     0.074 A 
ATOM     60  C   UNL A   1      44.519  28.711  32.891  1.00  0.00     0.031 C 
ATOM     61  C   UNL A   1      44.246  29.741  35.127  1.00  0.00     0.031 A 
BRANCH  48  62
ATOM     62  C   UNL A   1      40.488  33.351  38.459  1.00  0.00    -0.014 A 
ATOM     63  C   UNL A   1      41.066  34.599  38.754  1.00  0.00     0.010 A 
ATOM     64  C   UNL A   1      39.630  32.754  39.401  1.00  0.00     0.010 A 
ATOM     65  C   UNL A   1      40.825  35.216  39.985  1.00  0.00     0.020 A 
ATOM     66  C   UNL A   1      39.363  33.382  40.621  1.00  0.00     0.020 A 
ATOM     67  C   UNL A   1      39.977  34.601  40.912  1.00  0.00     0.054 A 
BRANCH  67  68
ATOM     68  S   UNL A   1      39.677  35.426  42.499  1.00  0.00     0.124 S 
ATOM     69  O   UNL A   1      40.185  34.441  43.451  1.00  0.00    -0.237 OA
ATOM     70  O   UNL A   1      40.468  36.648  42.378  1.00  0.00    -0.237 OA
ATOM     71  O   UNL A   1      38.230  35.622  42.520  1.00  0.00    -0.744 OA
ENDBRANCH  67  68
ENDBRANCH  48  62
BRANCH  49  72
ATOM     72  C   UNL A   1      41.874  28.925  29.605  1.00  0.00    -0.014 A 
ATOM     73  C   UNL A   1      42.576  29.568  28.569  1.00  0.00     0.010 A 
ATOM     74  C   UNL A   1      41.345  27.642  29.370  1.00  0.00     0.010 A 
ATOM     75  C   UNL A   1      42.728  28.949  27.322  1.00  0.00     0.020 A 
ATOM     76  C   UNL A   1      41.521  27.008  28.135  1.00  0.00     0.020 A 
ATOM     77  C   UNL A   1      42.202  27.671  27.114  1.00  0.00     0.054 A 
BRANCH  77  78
ATOM     78  S   UNL A   1      42.444  26.869  25.504  1.00  0.00     0.124 S 
ATOM     79  O   UNL A   1      41.258  26.024  25.402  1.00  0.00    -0.237 OA
ATOM     80  O   UNL A   1      42.492  28.008  24.590  1.00  0.00    -0.237 OA
ATOM     81  O   UNL A   1      43.709  26.154  25.664  1.00  0.00    -0.744 OA
ENDBRANCH  77  78
ENDBRANCH  49  72
BRANCH  61  82
ATOM     82  C   UNL A   1      45.542  29.099  35.553  1.00  0.00    -0.014 A 
ATOM     83  C   UNL A   1      46.773  29.765  35.418  1.00  0.00     0.010 A 
ATOM     84  C   UNL A   1      45.516  27.832  36.168  1.00  0.00     0.010 A 
ATOM     85  C   UNL A   1      47.955  29.166  35.864  1.00  0.00     0.020 A 
ATOM     86  C   UNL A   1      46.691  27.243  36.644  1.00  0.00     0.020 A 
ATOM     87  C   UNL A   1      47.906  27.909  36.476  1.00  0.00     0.054 A 
BRANCH  87  88
ATOM     88  S   UNL A   1      49.447  27.176  37.092  1.00  0.00     0.124 S 
ATOM     89  O   UNL A   1      49.601  27.833  38.387  1.00  0.00    -0.237 OA
ATOM     90  O   UNL A   1      49.126  25.751  37.145  1.00  0.00    -0.237 OA
ATOM     91  O   UNL A   1      50.436  27.548  36.084  1.00  0.00    -0.744 OA
ENDBRANCH  87  88
ENDBRANCH  61  82
ENDBRANCH  35  36
ENDBRANCH  28  30
ENDBRANCH  27  28
ENDBRANCH  26  27
ENDBRANCH  25  26
ENDBRANCH  24  25
ENDBRANCH   1  24
TORSDOF 22
ENDMDL
MODEL 3
REMARK VINA RESULT:      -8.7      1.670      3.285
REMARK SMILES CC(C)(C)[N@@H+](CCC(=O)OCCOCCOC(=O)c1ccc(-c2c3nc(c(-c4ccc(S(=O)(=O)[O-])cc4)c4ccc([nH]4)c(-c4ccc(S(=O)(=O)[O-])cc4)c4nc(c(-c5ccc(S(=O)(=O)[O-])cc5)c5ccc2[nH]5)C=C4)C=C3)cc1)C[C@H]1COc2ccccc21
REMARK SMILES IDX 12 1 11 2 10 3 8 4 9 5 7 6 6 7 5 8 2 10 1 11 3 12 4 13 79 14
REMARK SMILES IDX 80 15 81 16 88 17 82 18 83 19 87 20 84 21 86 22 85 23 13 24
REMARK SMILES IDX 14 25 15 26 16 27 17 28 18 29 19 30 20 31 78 32 21 33 77 34
REMARK SMILES IDX 22 35 23 36 24 37 71 38 25 39 76 40 70 41 72 42 26 43 75 44
REMARK SMILES IDX 69 45 68 46 27 48 57 49 38 50 56 51 39 52 42 53 55 54 73 55
REMARK SMILES IDX 40 56 41 57 54 59 74 60 43 61 28 62 29 63 37 64 30 65 36 66
REMARK SMILES IDX 31 67 32 68 33 69 34 70 35 71 58 72 59 73 67 74 60 75 66 76
REMARK SMILES IDX 61 77 62 78 63 79 64 80 65 81 44 82 45 83 53 84 46 85 52 86
REMARK SMILES IDX 47 87 48 88 49 89 50 90 51 91
REMARK H PARENT 5 9 72 47 42 58
REMARK Flexibility Score: inf
ROOT
ATOM      1  C   UNL A   1      39.828  19.824  26.002  1.00  0.00     0.202 C 
ENDROOT
BRANCH   1   2
ATOM      2  C   UNL A   1      38.693  20.670  25.388  1.00  0.00     0.261 C 
BRANCH   2   3
ATOM      3  O   UNL A   1      38.560  21.969  25.999  1.00  0.00    -0.463 OA
BRANCH   3   4
ATOM      4  C   UNL A   1      37.427  22.672  25.749  1.00  0.00     0.311 C 
ATOM      5  O   UNL A   1      37.228  23.825  26.114  1.00  0.00    -0.252 OA
BRANCH   4   6
ATOM      6  C   UNL A   1      36.365  21.843  25.049  1.00  0.00     0.184 C 
BRANCH   6   7
ATOM      7  C   UNL A   1      34.968  21.803  25.684  1.00  0.00     0.274 C 
BRANCH   7   8
ATOM      8  N   UNL A   1      33.809  22.367  24.972  1.00  0.00    -0.330 N 
ATOM      9  H   UNL A   1      33.187  22.556  25.757  1.00  0.00     0.348 HD
BRANCH   8  10
ATOM     10  C   UNL A   1      32.741  21.487  24.457  1.00  0.00     0.089 C 
ATOM     11  C   UNL A   1      31.440  21.641  25.288  1.00  0.00     0.078 C 
ATOM     12  C   UNL A   1      33.152  20.005  24.502  1.00  0.00     0.078 C 
ATOM     13  C   UNL A   1      32.327  21.868  23.014  1.00  0.00     0.078 C 
ENDBRANCH   8  10
BRANCH   8  14
ATOM     14  C   UNL A   1      33.982  23.730  24.437  1.00  0.00     0.274 C 
BRANCH  14  15
ATOM     15  C   UNL A   1      33.393  24.908  25.230  1.00  0.00     0.116 C 
ATOM     16  C   UNL A   1      34.245  26.170  25.403  1.00  0.00     0.244 C 
ATOM     17  C   UNL A   1      32.196  25.580  24.642  1.00  0.00     0.006 A 
ATOM     18  O   UNL A   1      33.345  27.280  25.674  1.00  0.00    -0.492 OA
ATOM     19  C   UNL A   1      32.198  26.911  25.021  1.00  0.00     0.123 A 
ATOM     20  C   UNL A   1      31.121  25.068  23.948  1.00  0.00     0.008 A 
ATOM     21  C   UNL A   1      31.123  27.746  24.787  1.00  0.00     0.047 A 
ATOM     22  C   UNL A   1      30.018  25.888  23.697  1.00  0.00     0.001 A 
ATOM     23  C   UNL A   1      30.015  27.221  24.122  1.00  0.00     0.004 A 
ENDBRANCH  14  15
ENDBRANCH   8  14
ENDBRANCH   7   8
ENDBRANCH   6   7
ENDBRANCH   4   6
ENDBRANCH   3   4
ENDBRANCH   2   3
ENDBRANCH   1   2
BRANCH   1  24
ATOM     24  O   UNL A   1      40.616  20.481  27.000  1.00  0.00    -0.374 OA
BRANCH  24  25
ATOM     25  C   UNL A   1      41.918  19.915  27.165  1.00  0.00     0.202 C 
BRANCH  25  26
ATOM     26  C   UNL A   1      42.294  18.865  26.118  1.00  0.00     0.261 C 
BRANCH  26  27
ATOM     27  O   UNL A   1      42.725  19.522  24.896  1.00  0.00    -0.460 OA
BRANCH  27  28
ATOM     28  C   UNL A   1      44.059  19.725  24.777  1.00  0.00     0.338 C 
ATOM     29  O   UNL A   1      44.868  18.897  24.381  1.00  0.00    -0.246 OA
BRANCH  28  30
ATOM     30  C   UNL A   1      44.432  21.146  25.039  1.00  0.00     0.060 A 
ATOM     31  C   UNL A   1      45.060  21.416  26.262  1.00  0.00     0.016 A 
ATOM     32  C   UNL A   1      44.211  22.197  24.140  1.00  0.00     0.016 A 
ATOM     33  C   UNL A   1      45.483  22.705  26.586  1.00  0.00     0.010 A 
ATOM     34  C   UNL A   1      44.598  23.507  24.485  1.00  0.00     0.010 A 
ATOM     35  C   UNL A   1      45.224  23.769  25.717  1.00  0.00    -0.014 A 
BRANCH  35  36
ATOM     36  C   UNL A   1      45.423  25.152  26.228  1.00  0.00     0.031 A 
ATOM     37  C   UNL A   1      46.799  25.756  26.109  1.00  0.00     0.074 A 
ATOM     38  C   UNL A   1      44.398  25.902  26.676  1.00  0.00     0.049 A 
ATOM     39  N   UNL A   1      47.205  26.964  26.398  1.00  0.00    -0.248 NA
ATOM     40  C   UNL A   1      47.852  24.880  25.568  1.00  0.00     0.031 C 
ATOM     41  C   UNL A   1      43.002  25.474  26.751  1.00  0.00     0.029 A 
ATOM     42  N   UNL A   1      44.377  27.199  27.133  1.00  0.00    -0.354 N 
ATOM     43  C   UNL A   1      48.554  26.998  26.065  1.00  0.00     0.074 A 
ATOM     44  C   UNL A   1      48.903  25.683  25.576  1.00  0.00     0.031 C 
ATOM     45  C   UNL A   1      42.261  26.491  27.230  1.00  0.00     0.029 A 
ATOM     46  C   UNL A   1      43.129  27.633  27.519  1.00  0.00     0.049 A 
ATOM     47  H   UNL A   1      45.181  27.765  27.181  1.00  0.00     0.167 HD
ATOM     48  C   UNL A   1      49.428  28.029  26.155  1.00  0.00     0.031 A 
ATOM     49  C   UNL A   1      42.737  28.810  28.051  1.00  0.00     0.031 A 
ATOM     50  C   UNL A   1      49.096  29.325  26.684  1.00  0.00     0.049 A 
ATOM     51  C   UNL A   1      43.757  29.905  28.261  1.00  0.00     0.074 A 
ATOM     52  C   UNL A   1      49.921  30.422  26.849  1.00  0.00     0.029 A 
ATOM     53  N   UNL A   1      47.842  29.691  27.149  1.00  0.00    -0.354 N 
ATOM     54  N   UNL A   1      45.029  29.922  27.935  1.00  0.00    -0.248 NA
ATOM     55  C   UNL A   1      43.288  31.142  28.904  1.00  0.00     0.031 C 
ATOM     56  C   UNL A   1      49.182  31.431  27.477  1.00  0.00     0.029 A 
ATOM     57  C   UNL A   1      47.879  30.987  27.633  1.00  0.00     0.049 A 
ATOM     58  H   UNL A   1      47.044  29.115  27.136  1.00  0.00     0.167 HD
ATOM     59  C   UNL A   1      45.501  31.179  28.305  1.00  0.00     0.074 A 
ATOM     60  C   UNL A   1      44.377  31.898  28.867  1.00  0.00     0.031 C 
ATOM     61  C   UNL A   1      46.751  31.694  28.189  1.00  0.00     0.031 A 
BRANCH  48  62
ATOM     62  C   UNL A   1      50.848  27.767  25.729  1.00  0.00    -0.014 A 
ATOM     63  C   UNL A   1      51.336  28.214  24.487  1.00  0.00     0.010 A 
ATOM     64  C   UNL A   1      51.711  27.069  26.594  1.00  0.00     0.010 A 
ATOM     65  C   UNL A   1      52.649  27.931  24.101  1.00  0.00     0.020 A 
ATOM     66  C   UNL A   1      53.034  26.809  26.223  1.00  0.00     0.020 A 
ATOM     67  C   UNL A   1      53.488  27.226  24.971  1.00  0.00     0.054 A 
BRANCH  67  68
ATOM     68  S   UNL A   1      55.189  26.877  24.447  1.00  0.00     0.124 S 
ATOM     69  O   UNL A   1      55.370  25.503  24.912  1.00  0.00    -0.237 OA
ATOM     70  O   UNL A   1      55.119  27.045  22.999  1.00  0.00    -0.237 OA
ATOM     71  O   UNL A   1      55.983  27.880  25.152  1.00  0.00    -0.744 OA
ENDBRANCH  67  68
ENDBRANCH  48  62
BRANCH  49  72
ATOM     72  C   UNL A   1      41.316  29.015  28.466  1.00  0.00    -0.014 A 
ATOM     73  C   UNL A   1      40.355  29.505  27.563  1.00  0.00     0.010 A 
ATOM     74  C   UNL A   1      40.926  28.752  29.793  1.00  0.00     0.010 A 
ATOM     75  C   UNL A   1      39.040  29.744  27.983  1.00  0.00     0.020 A 
ATOM     76  C   UNL A   1      39.607  28.961  30.208  1.00  0.00     0.020 A 
ATOM     77  C   UNL A   1      38.674  29.467  29.303  1.00  0.00     0.054 A 
BRANCH  77  78
ATOM     78  S   UNL A   1      36.955  29.745  29.818  1.00  0.00     0.124 S 
ATOM     79  O   UNL A   1      36.905  31.199  29.939  1.00  0.00    -0.237 OA
ATOM     80  O   UNL A   1      36.199  29.176  28.706  1.00  0.00    -0.237 OA
ATOM     81  O   UNL A   1      36.851  29.008  31.076  1.00  0.00    -0.744 OA
ENDBRANCH  77  78
ENDBRANCH  49  72
BRANCH  61  82
ATOM     82  C   UNL A   1      46.975  33.115  28.641  1.00  0.00    -0.014 A 
ATOM     83  C   UNL A   1      47.495  33.408  29.913  1.00  0.00     0.010 A 
ATOM     84  C   UNL A   1      46.729  34.173  27.744  1.00  0.00     0.010 A 
ATOM     85  C   UNL A   1      47.739  34.733  30.291  1.00  0.00     0.020 A 
ATOM     86  C   UNL A   1      46.999  35.495  28.105  1.00  0.00     0.020 A 
ATOM     87  C   UNL A   1      47.490  35.768  29.382  1.00  0.00     0.054 A 
BRANCH  87  88
ATOM     88  S   UNL A   1      47.862  37.473  29.878  1.00  0.00     0.124 S 
ATOM     89  O   UNL A   1      46.747  38.211  29.292  1.00  0.00    -0.237 OA
ATOM     90  O   UNL A   1      47.863  37.389  31.337  1.00  0.00    -0.237 OA
ATOM     91  O   UNL A   1      49.167  37.734  29.275  1.00  0.00    -0.744 OA
ENDBRANCH  87  88
ENDBRANCH  61  82
ENDBRANCH  35  36
ENDBRANCH  28  30
ENDBRANCH  27  28
ENDBRANCH  26  27
ENDBRANCH  25  26
ENDBRANCH  24  25
ENDBRANCH   1  24
TORSDOF 22
ENDMDL
