MODEL 1
REMARK VINA RESULT:      -9.8      0.000      0.000
REMARK SMILES CCc1ccc(C(=O)NCc2ccc(C(=O)OCCOCCOC(=O)c3ccc(-c4c5nc(c(-c6ccc(S(=O)(=O)[O-])cc6)c6ccc([nH]6)c(-c6ccc(S(=O)(=O)[O-])cc6)c6nc(c(-c7ccc(S(=O)(=O)[O-])cc7)c7ccc4[nH]7)C=C6)C=C5)cc3)o2)cc1
REMARK SMILES IDX 19 1 18 2 17 3 15 4 16 5 14 6 11 7 12 8 86 9 13 10 10 11
REMARK SMILES IDX 9 12 7 13 8 14 6 16 3 17 4 18 88 19 5 20 87 21 2 22 1 23
REMARK SMILES IDX 20 24 21 25 22 26 23 27 24 28 25 29 26 30 27 31 85 32 28 33
REMARK SMILES IDX 84 34 29 35 30 36 31 37 78 38 32 39 83 40 77 41 79 42 33 43
REMARK SMILES IDX 82 44 76 45 75 46 34 48 64 49 45 50 63 51 46 52 49 53 62 54
REMARK SMILES IDX 80 55 47 56 48 57 61 59 81 60 50 61 35 62 36 63 44 64 37 65
REMARK SMILES IDX 43 66 38 67 39 68 40 69 41 70 42 71 65 72 66 73 74 74 67 75
REMARK SMILES IDX 73 76 68 77 69 78 70 79 71 80 72 81 51 82 52 83 60 84 53 85
REMARK SMILES IDX 59 86 54 87 55 88 56 89 57 90 58 91
REMARK H PARENT 9 15 79 47 49 58
REMARK Flexibility Score: inf
ROOT
ATOM      1  C   UNL A   1      41.299  21.637  27.537  1.00  0.00     0.202 C 
ENDROOT
BRANCH   1   2
ATOM      2  C   UNL A   1      40.397  21.129  26.407  1.00  0.00     0.261 C 
BRANCH   2   3
ATOM      3  O   UNL A   1      39.096  21.733  26.499  1.00  0.00    -0.457 OA
BRANCH   3   4
ATOM      4  C   UNL A   1      38.213  21.398  25.515  1.00  0.00     0.374 C 
ATOM      5  O   UNL A   1      38.224  20.341  24.895  1.00  0.00    -0.242 OA
BRANCH   4   6
ATOM      6  C   UNL A   1      37.207  22.429  25.391  1.00  0.00     0.211 A 
ATOM      7  C   UNL A   1      35.135  23.130  25.053  1.00  0.00     0.124 A 
ATOM      8  C   UNL A   1      35.860  24.237  25.444  1.00  0.00     0.048 A 
ATOM      9  O   UNL A   1      35.960  22.046  24.980  1.00  0.00    -0.452 OA
ATOM     10  C   UNL A   1      37.189  23.785  25.669  1.00  0.00     0.058 A 
BRANCH   7  11
ATOM     11  C   UNL A   1      33.708  22.886  24.710  1.00  0.00     0.191 C 
BRANCH  11  12
ATOM     12  N   UNL A   1      32.935  22.914  25.938  1.00  0.00    -0.345 N 
ATOM     13  C   UNL A   1      32.153  23.849  26.550  1.00  0.00     0.251 C 
ATOM     14  O   UNL A   1      31.518  23.504  27.548  1.00  0.00    -0.269 OA
ATOM     15  H   UNL A   1      32.988  22.069  26.441  1.00  0.00     0.164 HD
BRANCH  13  16
ATOM     16  C   UNL A   1      32.008  25.246  26.069  1.00  0.00     0.039 A 
ATOM     17  C   UNL A   1      31.497  27.890  25.211  1.00  0.00    -0.048 A 
ATOM     18  C   UNL A   1      30.544  26.885  25.014  1.00  0.00     0.004 A 
ATOM     19  C   UNL A   1      32.697  27.563  25.858  1.00  0.00     0.004 A 
ATOM     20  C   UNL A   1      30.798  25.579  25.439  1.00  0.00     0.014 A 
ATOM     21  C   UNL A   1      32.942  26.257  26.304  1.00  0.00     0.014 A 
BRANCH  17  22
ATOM     22  C   UNL A   1      31.223  29.302  24.758  1.00  0.00     0.032 C 
ATOM     23  C   UNL A   1      31.752  30.343  25.735  1.00  0.00     0.009 C 
ENDBRANCH  17  22
ENDBRANCH  13  16
ENDBRANCH  11  12
ENDBRANCH   7  11
ENDBRANCH   4   6
ENDBRANCH   3   4
ENDBRANCH   2   3
ENDBRANCH   1   2
BRANCH   1  24
ATOM     24  O   UNL A   1      42.442  22.376  27.103  1.00  0.00    -0.374 OA
BRANCH  24  25
ATOM     25  C   UNL A   1      42.802  22.246  25.726  1.00  0.00     0.202 C 
BRANCH  25  26
ATOM     26  C   UNL A   1      43.362  23.514  25.069  1.00  0.00     0.261 C 
BRANCH  26  27
ATOM     27  O   UNL A   1      42.806  24.705  25.657  1.00  0.00    -0.460 OA
BRANCH  27  28
ATOM     28  C   UNL A   1      43.715  25.547  26.207  1.00  0.00     0.338 C 
ATOM     29  O   UNL A   1      44.871  25.714  25.855  1.00  0.00    -0.246 OA
BRANCH  28  30
ATOM     30  C   UNL A   1      43.062  26.399  27.222  1.00  0.00     0.060 A 
ATOM     31  C   UNL A   1      43.457  27.741  27.287  1.00  0.00     0.016 A 
ATOM     32  C   UNL A   1      42.129  25.891  28.130  1.00  0.00     0.016 A 
ATOM     33  C   UNL A   1      42.957  28.570  28.290  1.00  0.00     0.010 A 
ATOM     34  C   UNL A   1      41.632  26.724  29.139  1.00  0.00     0.010 A 
ATOM     35  C   UNL A   1      42.069  28.057  29.245  1.00  0.00    -0.014 A 
BRANCH  35  36
ATOM     36  C   UNL A   1      41.704  28.880  30.425  1.00  0.00     0.031 A 
ATOM     37  C   UNL A   1      42.527  28.768  31.679  1.00  0.00     0.074 A 
ATOM     38  C   UNL A   1      40.667  29.736  30.372  1.00  0.00     0.049 A 
ATOM     39  N   UNL A   1      42.378  29.383  32.824  1.00  0.00    -0.248 NA
ATOM     40  C   UNL A   1      43.671  27.843  31.636  1.00  0.00     0.031 C 
ATOM     41  C   UNL A   1      39.817  29.965  29.206  1.00  0.00     0.029 A 
ATOM     42  N   UNL A   1      40.154  30.572  31.333  1.00  0.00    -0.354 N 
ATOM     43  C   UNL A   1      43.401  28.915  33.641  1.00  0.00     0.074 A 
ATOM     44  C   UNL A   1      44.147  27.944  32.868  1.00  0.00     0.031 C 
ATOM     45  C   UNL A   1      38.883  30.881  29.520  1.00  0.00     0.029 A 
ATOM     46  C   UNL A   1      39.051  31.278  30.917  1.00  0.00     0.049 A 
ATOM     47  H   UNL A   1      40.541  30.658  32.234  1.00  0.00     0.167 HD
ATOM     48  C   UNL A   1      43.698  29.265  34.916  1.00  0.00     0.031 A 
ATOM     49  C   UNL A   1      38.257  32.134  31.589  1.00  0.00     0.031 A 
ATOM     50  C   UNL A   1      42.948  30.217  35.689  1.00  0.00     0.049 A 
ATOM     51  C   UNL A   1      38.562  32.454  33.028  1.00  0.00     0.074 A 
ATOM     52  C   UNL A   1      43.179  30.649  36.984  1.00  0.00     0.029 A 
ATOM     53  N   UNL A   1      41.813  30.881  35.243  1.00  0.00    -0.354 N 
ATOM     54  N   UNL A   1      39.548  32.021  33.777  1.00  0.00    -0.248 NA
ATOM     55  C   UNL A   1      37.650  33.384  33.710  1.00  0.00     0.031 C 
ATOM     56  C   UNL A   1      42.154  31.533  37.339  1.00  0.00     0.029 A 
ATOM     57  C   UNL A   1      41.318  31.696  36.246  1.00  0.00     0.049 A 
ATOM     58  H   UNL A   1      41.419  30.786  34.347  1.00  0.00     0.167 HD
ATOM     59  C   UNL A   1      39.390  32.646  35.010  1.00  0.00     0.074 A 
ATOM     60  C   UNL A   1      38.221  33.495  34.903  1.00  0.00     0.031 C 
ATOM     61  C   UNL A   1      40.148  32.531  36.129  1.00  0.00     0.031 A 
BRANCH  48  62
ATOM     62  C   UNL A   1      44.869  28.577  35.566  1.00  0.00    -0.014 A 
ATOM     63  C   UNL A   1      46.167  29.112  35.480  1.00  0.00     0.010 A 
ATOM     64  C   UNL A   1      44.664  27.390  36.291  1.00  0.00     0.010 A 
ATOM     65  C   UNL A   1      47.246  28.446  36.071  1.00  0.00     0.020 A 
ATOM     66  C   UNL A   1      45.735  26.736  36.905  1.00  0.00     0.020 A 
ATOM     67  C   UNL A   1      47.023  27.258  36.773  1.00  0.00     0.054 A 
BRANCH  67  68
ATOM     68  S   UNL A   1      48.438  26.417  37.535  1.00  0.00     0.124 S 
ATOM     69  O   UNL A   1      49.369  27.525  37.743  1.00  0.00    -0.237 OA
ATOM     70  O   UNL A   1      47.860  25.847  38.749  1.00  0.00    -0.237 OA
ATOM     71  O   UNL A   1      48.847  25.442  36.526  1.00  0.00    -0.744 OA
ENDBRANCH  67  68
ENDBRANCH  48  62
BRANCH  49  72
ATOM     72  C   UNL A   1      37.080  32.740  30.908  1.00  0.00    -0.014 A 
ATOM     73  C   UNL A   1      35.794  32.202  31.082  1.00  0.00     0.010 A 
ATOM     74  C   UNL A   1      37.243  33.874  30.090  1.00  0.00     0.010 A 
ATOM     75  C   UNL A   1      34.693  32.779  30.442  1.00  0.00     0.020 A 
ATOM     76  C   UNL A   1      36.142  34.469  29.470  1.00  0.00     0.020 A 
ATOM     77  C   UNL A   1      34.874  33.913  29.644  1.00  0.00     0.054 A 
BRANCH  77  78
ATOM     78  S   UNL A   1      33.422  34.686  28.877  1.00  0.00     0.124 S 
ATOM     79  O   UNL A   1      34.002  35.869  28.251  1.00  0.00    -0.237 OA
ATOM     80  O   UNL A   1      32.958  33.647  27.962  1.00  0.00    -0.237 OA
ATOM     81  O   UNL A   1      32.537  34.945  30.012  1.00  0.00    -0.744 OA
ENDBRANCH  77  78
ENDBRANCH  49  72
BRANCH  61  82
ATOM     82  C   UNL A   1      39.758  33.363  37.323  1.00  0.00    -0.014 A 
ATOM     83  C   UNL A   1      38.987  32.822  38.367  1.00  0.00     0.010 A 
ATOM     84  C   UNL A   1      40.218  34.689  37.425  1.00  0.00     0.010 A 
ATOM     85  C   UNL A   1      38.659  33.603  39.479  1.00  0.00     0.020 A 
ATOM     86  C   UNL A   1      39.914  35.463  38.547  1.00  0.00     0.020 A 
ATOM     87  C   UNL A   1      39.124  34.920  39.562  1.00  0.00     0.054 A 
BRANCH  87  88
ATOM     88  S   UNL A   1      38.722  35.899  41.035  1.00  0.00     0.124 S 
ATOM     89  O   UNL A   1      39.852  35.607  41.912  1.00  0.00    -0.237 OA
ATOM     90  O   UNL A   1      38.669  37.262  40.511  1.00  0.00    -0.237 OA
ATOM     91  O   UNL A   1      37.438  35.356  41.472  1.00  0.00    -0.744 OA
ENDBRANCH  87  88
ENDBRANCH  61  82
ENDBRANCH  35  36
ENDBRANCH  28  30
ENDBRANCH  27  28
ENDBRANCH  26  27
ENDBRANCH  25  26
ENDBRANCH  24  25
ENDBRANCH   1  24
TORSDOF 21
ENDMDL
MODEL 2
REMARK VINA RESULT:      -9.7      2.240      9.240
REMARK SMILES CCc1ccc(C(=O)NCc2ccc(C(=O)OCCOCCOC(=O)c3ccc(-c4c5nc(c(-c6ccc(S(=O)(=O)[O-])cc6)c6ccc([nH]6)c(-c6ccc(S(=O)(=O)[O-])cc6)c6nc(c(-c7ccc(S(=O)(=O)[O-])cc7)c7ccc4[nH]7)C=C6)C=C5)cc3)o2)cc1
REMARK SMILES IDX 19 1 18 2 17 3 15 4 16 5 14 6 11 7 12 8 86 9 13 10 10 11
REMARK SMILES IDX 9 12 7 13 8 14 6 16 3 17 4 18 88 19 5 20 87 21 2 22 1 23
REMARK SMILES IDX 20 24 21 25 22 26 23 27 24 28 25 29 26 30 27 31 85 32 28 33
REMARK SMILES IDX 84 34 29 35 30 36 31 37 78 38 32 39 83 40 77 41 79 42 33 43
REMARK SMILES IDX 82 44 76 45 75 46 34 48 64 49 45 50 63 51 46 52 49 53 62 54
REMARK SMILES IDX 80 55 47 56 48 57 61 59 81 60 50 61 35 62 36 63 44 64 37 65
REMARK SMILES IDX 43 66 38 67 39 68 40 69 41 70 42 71 65 72 66 73 74 74 67 75
REMARK SMILES IDX 73 76 68 77 69 78 70 79 71 80 72 81 51 82 52 83 60 84 53 85
REMARK SMILES IDX 59 86 54 87 55 88 56 89 57 90 58 91
REMARK H PARENT 9 15 79 47 49 58
REMARK Flexibility Score: inf
ROOT
ATOM      1  C   UNL A   1      31.969  30.817  26.350  1.00  0.00     0.202 C 
ENDROOT
BRANCH   1   2
ATOM      2  C   UNL A   1      31.489  29.614  25.532  1.00  0.00     0.261 C 
BRANCH   2   3
ATOM      3  O   UNL A   1      32.195  28.427  25.932  1.00  0.00    -0.457 OA
BRANCH   3   4
ATOM      4  C   UNL A   1      31.553  27.627  26.831  1.00  0.00     0.374 C 
ATOM      5  O   UNL A   1      31.170  27.986  27.939  1.00  0.00    -0.242 OA
BRANCH   4   6
ATOM      6  C   UNL A   1      31.303  26.331  26.240  1.00  0.00     0.211 A 
ATOM      7  C   UNL A   1      30.935  24.989  24.519  1.00  0.00     0.124 A 
ATOM      8  C   UNL A   1      31.116  24.173  25.616  1.00  0.00     0.048 A 
ATOM      9  O   UNL A   1      31.006  26.296  24.906  1.00  0.00    -0.452 OA
ATOM     10  C   UNL A   1      31.361  25.034  26.719  1.00  0.00     0.058 A 
BRANCH   7  11
ATOM     11  C   UNL A   1      30.689  24.752  23.070  1.00  0.00     0.191 C 
BRANCH  11  12
ATOM     12  N   UNL A   1      31.676  25.499  22.314  1.00  0.00    -0.345 N 
ATOM     13  C   UNL A   1      33.040  25.505  22.275  1.00  0.00     0.251 C 
ATOM     14  O   UNL A   1      33.587  26.189  21.407  1.00  0.00    -0.269 OA
ATOM     15  H   UNL A   1      31.272  26.145  21.692  1.00  0.00     0.164 HD
BRANCH  13  16
ATOM     16  C   UNL A   1      33.897  24.722  23.200  1.00  0.00     0.039 A 
ATOM     17  C   UNL A   1      35.628  23.130  24.766  1.00  0.00    -0.048 A 
ATOM     18  C   UNL A   1      35.092  22.631  23.575  1.00  0.00     0.004 A 
ATOM     19  C   UNL A   1      35.306  24.438  25.155  1.00  0.00     0.004 A 
ATOM     20  C   UNL A   1      34.236  23.419  22.802  1.00  0.00     0.014 A 
ATOM     21  C   UNL A   1      34.465  25.236  24.367  1.00  0.00     0.014 A 
BRANCH  17  22
ATOM     22  C   UNL A   1      36.557  22.283  25.600  1.00  0.00     0.032 C 
ATOM     23  C   UNL A   1      36.318  20.791  25.409  1.00  0.00     0.009 C 
ENDBRANCH  17  22
ENDBRANCH  13  16
ENDBRANCH  11  12
ENDBRANCH   7  11
ENDBRANCH   4   6
ENDBRANCH   3   4
ENDBRANCH   2   3
ENDBRANCH   1   2
BRANCH   1  24
ATOM     24  O   UNL A   1      33.103  30.561  27.181  1.00  0.00    -0.374 OA
BRANCH  24  25
ATOM     25  C   UNL A   1      33.611  31.669  27.926  1.00  0.00     0.202 C 
BRANCH  25  26
ATOM     26  C   UNL A   1      33.202  33.054  27.409  1.00  0.00     0.261 C 
BRANCH  26  27
ATOM     27  O   UNL A   1      32.561  33.835  28.435  1.00  0.00    -0.460 OA
BRANCH  27  28
ATOM     28  C   UNL A   1      33.284  34.888  28.885  1.00  0.00     0.338 C 
ATOM     29  O   UNL A   1      33.026  36.072  28.744  1.00  0.00    -0.246 OA
BRANCH  28  30
ATOM     30  C   UNL A   1      34.383  34.412  29.750  1.00  0.00     0.060 A 
ATOM     31  C   UNL A   1      35.692  34.583  29.281  1.00  0.00     0.016 A 
ATOM     32  C   UNL A   1      34.146  33.762  30.964  1.00  0.00     0.016 A 
ATOM     33  C   UNL A   1      36.766  34.061  30.000  1.00  0.00     0.010 A 
ATOM     34  C   UNL A   1      35.225  33.234  31.681  1.00  0.00     0.010 A 
ATOM     35  C   UNL A   1      36.537  33.352  31.187  1.00  0.00    -0.014 A 
BRANCH  35  36
ATOM     36  C   UNL A   1      37.656  32.624  31.834  1.00  0.00     0.031 A 
ATOM     37  C   UNL A   1      38.167  33.101  33.167  1.00  0.00     0.074 A 
ATOM     38  C   UNL A   1      38.195  31.535  31.256  1.00  0.00     0.049 A 
ATOM     39  N   UNL A   1      39.140  32.623  33.899  1.00  0.00    -0.248 NA
ATOM     40  C   UNL A   1      37.491  34.271  33.750  1.00  0.00     0.031 C 
ATOM     41  C   UNL A   1      37.763  30.949  29.988  1.00  0.00     0.029 A 
ATOM     42  N   UNL A   1      39.227  30.728  31.666  1.00  0.00    -0.354 N 
ATOM     43  C   UNL A   1      39.200  33.436  35.026  1.00  0.00     0.074 A 
ATOM     44  C   UNL A   1      38.183  34.454  34.866  1.00  0.00     0.031 C 
ATOM     45  C   UNL A   1      38.529  29.877  29.721  1.00  0.00     0.029 A 
ATOM     46  C   UNL A   1      39.523  29.719  30.782  1.00  0.00     0.049 A 
ATOM     47  H   UNL A   1      39.709  30.861  32.514  1.00  0.00     0.167 HD
ATOM     48  C   UNL A   1      40.020  33.340  36.099  1.00  0.00     0.031 A 
ATOM     49  C   UNL A   1      40.494  28.785  30.814  1.00  0.00     0.031 A 
ATOM     50  C   UNL A   1      41.040  32.338  36.252  1.00  0.00     0.049 A 
ATOM     51  C   UNL A   1      41.442  28.742  31.982  1.00  0.00     0.074 A 
ATOM     52  C   UNL A   1      41.913  32.151  37.310  1.00  0.00     0.029 A 
ATOM     53  N   UNL A   1      41.334  31.358  35.314  1.00  0.00    -0.354 N 
ATOM     54  N   UNL A   1      41.469  29.503  33.051  1.00  0.00    -0.248 NA
ATOM     55  C   UNL A   1      42.488  27.709  31.952  1.00  0.00     0.031 C 
ATOM     56  C   UNL A   1      42.768  31.091  36.989  1.00  0.00     0.029 A 
ATOM     57  C   UNL A   1      42.391  30.581  35.756  1.00  0.00     0.049 A 
ATOM     58  H   UNL A   1      40.860  31.234  34.461  1.00  0.00     0.167 HD
ATOM     59  C   UNL A   1      42.516  29.024  33.832  1.00  0.00     0.074 A 
ATOM     60  C   UNL A   1      43.091  27.902  33.119  1.00  0.00     0.031 C 
ATOM     61  C   UNL A   1      42.958  29.471  35.034  1.00  0.00     0.031 A 
BRANCH  48  62
ATOM     62  C   UNL A   1      39.869  34.380  37.179  1.00  0.00    -0.014 A 
ATOM     63  C   UNL A   1      40.440  35.658  37.045  1.00  0.00     0.010 A 
ATOM     64  C   UNL A   1      39.127  34.079  38.334  1.00  0.00     0.010 A 
ATOM     65  C   UNL A   1      40.309  36.601  38.068  1.00  0.00     0.020 A 
ATOM     66  C   UNL A   1      38.971  35.027  39.348  1.00  0.00     0.020 A 
ATOM     67  C   UNL A   1      39.581  36.277  39.217  1.00  0.00     0.054 A 
BRANCH  67  68
ATOM     68  S   UNL A   1      39.421  37.520  40.528  1.00  0.00     0.124 S 
ATOM     69  O   UNL A   1      40.820  37.845  40.805  1.00  0.00    -0.237 OA
ATOM     70  O   UNL A   1      38.648  38.576  39.879  1.00  0.00    -0.237 OA
ATOM     71  O   UNL A   1      38.724  36.809  41.598  1.00  0.00    -0.744 OA
ENDBRANCH  67  68
ENDBRANCH  48  62
BRANCH  49  72
ATOM     72  C   UNL A   1      40.628  27.819  29.690  1.00  0.00    -0.014 A 
ATOM     73  C   UNL A   1      41.607  28.001  28.699  1.00  0.00     0.010 A 
ATOM     74  C   UNL A   1      39.779  26.699  29.616  1.00  0.00     0.010 A 
ATOM     75  C   UNL A   1      41.729  27.087  27.649  1.00  0.00     0.020 A 
ATOM     76  C   UNL A   1      39.915  25.770  28.582  1.00  0.00     0.020 A 
ATOM     77  C   UNL A   1      40.885  25.974  27.600  1.00  0.00     0.054 A 
BRANCH  77  78
ATOM     78  S   UNL A   1      41.105  24.764  26.265  1.00  0.00     0.124 S 
ATOM     79  O   UNL A   1      41.261  25.625  25.097  1.00  0.00    -0.237 OA
ATOM     80  O   UNL A   1      42.303  24.043  26.687  1.00  0.00    -0.237 OA
ATOM     81  O   UNL A   1      39.871  23.982  26.308  1.00  0.00    -0.744 OA
ENDBRANCH  77  78
ENDBRANCH  49  72
BRANCH  61  82
ATOM     82  C   UNL A   1      44.104  28.730  35.673  1.00  0.00    -0.014 A 
ATOM     83  C   UNL A   1      43.879  27.628  36.517  1.00  0.00     0.010 A 
ATOM     84  C   UNL A   1      45.426  29.111  35.378  1.00  0.00     0.010 A 
ATOM     85  C   UNL A   1      44.958  26.938  37.078  1.00  0.00     0.020 A 
ATOM     86  C   UNL A   1      46.506  28.406  35.916  1.00  0.00     0.020 A 
ATOM     87  C   UNL A   1      46.265  27.332  36.775  1.00  0.00     0.054 A 
BRANCH  87  88
ATOM     88  S   UNL A   1      47.648  26.393  37.480  1.00  0.00     0.124 S 
ATOM     89  O   UNL A   1      47.013  25.721  38.611  1.00  0.00    -0.237 OA
ATOM     90  O   UNL A   1      48.043  25.523  36.375  1.00  0.00    -0.237 OA
ATOM     91  O   UNL A   1      48.622  27.423  37.832  1.00  0.00    -0.744 OA
ENDBRANCH  87  88
ENDBRANCH  61  82
ENDBRANCH  35  36
ENDBRANCH  28  30
ENDBRANCH  27  28
ENDBRANCH  26  27
ENDBRANCH  25  26
ENDBRANCH  24  25
ENDBRANCH   1  24
TORSDOF 21
ENDMDL
MODEL 3
REMARK VINA RESULT:      -9.6      5.833     12.496
REMARK SMILES CCc1ccc(C(=O)NCc2ccc(C(=O)OCCOCCOC(=O)c3ccc(-c4c5nc(c(-c6ccc(S(=O)(=O)[O-])cc6)c6ccc([nH]6)c(-c6ccc(S(=O)(=O)[O-])cc6)c6nc(c(-c7ccc(S(=O)(=O)[O-])cc7)c7ccc4[nH]7)C=C6)C=C5)cc3)o2)cc1
REMARK SMILES IDX 19 1 18 2 17 3 15 4 16 5 14 6 11 7 12 8 86 9 13 10 10 11
REMARK SMILES IDX 9 12 7 13 8 14 6 16 3 17 4 18 88 19 5 20 87 21 2 22 1 23
REMARK SMILES IDX 20 24 21 25 22 26 23 27 24 28 25 29 26 30 27 31 85 32 28 33
REMARK SMILES IDX 84 34 29 35 30 36 31 37 78 38 32 39 83 40 77 41 79 42 33 43
REMARK SMILES IDX 82 44 76 45 75 46 34 48 64 49 45 50 63 51 46 52 49 53 62 54
REMARK SMILES IDX 80 55 47 56 48 57 61 59 81 60 50 61 35 62 36 63 44 64 37 65
REMARK SMILES IDX 43 66 38 67 39 68 40 69 41 70 42 71 65 72 66 73 74 74 67 75
REMARK SMILES IDX 73 76 68 77 69 78 70 79 71 80 72 81 51 82 52 83 60 84 53 85
REMARK SMILES IDX 59 86 54 87 55 88 56 89 57 90 58 91
REMARK H PARENT 9 15 79 47 49 58
REMARK Flexibility Score: inf
ROOT
ATOM      1  C   UNL A   1      36.753  32.940  30.382  1.00  0.00     0.202 C 
ENDROOT
BRANCH   1   2
ATOM      2  C   UNL A   1      35.313  33.460  30.326  1.00  0.00     0.261 C 
BRANCH   2   3
ATOM      3  O   UNL A   1      34.530  32.664  29.420  1.00  0.00    -0.457 OA
BRANCH   3   4
ATOM      4  C   UNL A   1      33.982  33.330  28.364  1.00  0.00     0.374 C 
ATOM      5  O   UNL A   1      34.248  34.484  28.049  1.00  0.00    -0.242 OA
BRANCH   4   6
ATOM      6  C   UNL A   1      33.126  32.436  27.616  1.00  0.00     0.211 A 
ATOM      7  C   UNL A   1      32.579  30.449  26.808  1.00  0.00     0.124 A 
ATOM      8  C   UNL A   1      31.507  31.280  26.555  1.00  0.00     0.048 A 
ATOM      9  O   UNL A   1      33.575  31.160  27.411  1.00  0.00    -0.452 OA
ATOM     10  C   UNL A   1      31.855  32.553  27.081  1.00  0.00     0.058 A 
BRANCH   7  11
ATOM     11  C   UNL A   1      32.861  29.007  26.570  1.00  0.00     0.191 C 
BRANCH  11  12
ATOM     12  N   UNL A   1      31.782  28.460  25.770  1.00  0.00    -0.345 N 
ATOM     13  C   UNL A   1      31.610  27.305  25.066  1.00  0.00     0.251 C 
ATOM     14  O   UNL A   1      30.496  27.083  24.587  1.00  0.00    -0.269 OA
ATOM     15  H   UNL A   1      31.000  29.056  25.724  1.00  0.00     0.164 HD
BRANCH  13  16
ATOM     16  C   UNL A   1      32.679  26.293  24.865  1.00  0.00     0.039 A 
ATOM     17  C   UNL A   1      34.763  24.479  24.273  1.00  0.00    -0.048 A 
ATOM     18  C   UNL A   1      33.953  24.984  23.251  1.00  0.00     0.004 A 
ATOM     19  C   UNL A   1      34.532  24.905  25.589  1.00  0.00     0.004 A 
ATOM     20  C   UNL A   1      32.923  25.882  23.545  1.00  0.00     0.014 A 
ATOM     21  C   UNL A   1      33.513  25.822  25.880  1.00  0.00     0.014 A 
BRANCH  17  22
ATOM     22  C   UNL A   1      35.879  23.515  23.957  1.00  0.00     0.032 C 
ATOM     23  C   UNL A   1      36.676  23.118  25.192  1.00  0.00     0.009 C 
ENDBRANCH  17  22
ENDBRANCH  13  16
ENDBRANCH  11  12
ENDBRANCH   7  11
ENDBRANCH   4   6
ENDBRANCH   3   4
ENDBRANCH   2   3
ENDBRANCH   1   2
BRANCH   1  24
ATOM     24  O   UNL A   1      37.268  32.744  31.701  1.00  0.00    -0.374 OA
BRANCH  24  25
ATOM     25  C   UNL A   1      37.672  31.416  32.038  1.00  0.00     0.202 C 
BRANCH  25  26
ATOM     26  C   UNL A   1      36.573  30.349  31.945  1.00  0.00     0.261 C 
BRANCH  26  27
ATOM     27  O   UNL A   1      37.041  29.163  31.275  1.00  0.00    -0.460 OA
BRANCH  27  28
ATOM     28  C   UNL A   1      36.997  29.217  29.922  1.00  0.00     0.338 C 
ATOM     29  O   UNL A   1      36.077  29.623  29.232  1.00  0.00    -0.246 OA
BRANCH  28  30
ATOM     30  C   UNL A   1      38.318  28.867  29.361  1.00  0.00     0.060 A 
ATOM     31  C   UNL A   1      39.234  28.237  30.213  1.00  0.00     0.016 A 
ATOM     32  C   UNL A   1      38.681  29.196  28.052  1.00  0.00     0.016 A 
ATOM     33  C   UNL A   1      40.531  27.976  29.776  1.00  0.00     0.010 A 
ATOM     34  C   UNL A   1      39.985  28.939  27.617  1.00  0.00     0.010 A 
ATOM     35  C   UNL A   1      40.927  28.359  28.487  1.00  0.00    -0.014 A 
BRANCH  35  36
ATOM     36  C   UNL A   1      42.357  28.270  28.101  1.00  0.00     0.031 A 
ATOM     37  C   UNL A   1      43.252  29.458  28.327  1.00  0.00     0.074 A 
ATOM     38  C   UNL A   1      42.859  27.135  27.580  1.00  0.00     0.049 A 
ATOM     39  N   UNL A   1      44.523  29.600  28.053  1.00  0.00    -0.248 NA
ATOM     40  C   UNL A   1      42.632  30.641  28.944  1.00  0.00     0.031 C 
ATOM     41  C   UNL A   1      42.107  25.904  27.350  1.00  0.00     0.029 A 
ATOM     42  N   UNL A   1      44.129  26.840  27.150  1.00  0.00    -0.354 N 
ATOM     43  C   UNL A   1      44.855  30.888  28.455  1.00  0.00     0.074 A 
ATOM     44  C   UNL A   1      43.645  31.495  28.967  1.00  0.00     0.031 C 
ATOM     45  C   UNL A   1      42.929  24.984  26.814  1.00  0.00     0.029 A 
ATOM     46  C   UNL A   1      44.256  25.572  26.637  1.00  0.00     0.049 A 
ATOM     47  H   UNL A   1      44.877  27.478  27.203  1.00  0.00     0.167 HD
ATOM     48  C   UNL A   1      46.059  31.508  28.411  1.00  0.00     0.031 A 
ATOM     49  C   UNL A   1      45.316  24.959  26.073  1.00  0.00     0.031 A 
ATOM     50  C   UNL A   1      47.258  30.910  27.889  1.00  0.00     0.049 A 
ATOM     51  C   UNL A   1      46.626  25.692  25.967  1.00  0.00     0.074 A 
ATOM     52  C   UNL A   1      48.530  31.454  27.814  1.00  0.00     0.029 A 
ATOM     53  N   UNL A   1      47.335  29.637  27.342  1.00  0.00    -0.354 N 
ATOM     54  N   UNL A   1      46.929  26.902  26.375  1.00  0.00    -0.248 NA
ATOM     55  C   UNL A   1      47.740  24.975  25.330  1.00  0.00     0.031 C 
ATOM     56  C   UNL A   1      49.363  30.529  27.174  1.00  0.00     0.029 A 
ATOM     57  C   UNL A   1      48.624  29.388  26.903  1.00  0.00     0.049 A 
ATOM     58  H   UNL A   1      46.584  29.005  27.277  1.00  0.00     0.167 HD
ATOM     59  C   UNL A   1      48.274  27.080  26.068  1.00  0.00     0.074 A 
ATOM     60  C   UNL A   1      48.729  25.851  25.450  1.00  0.00     0.031 C 
ATOM     61  C   UNL A   1      49.063  28.163  26.283  1.00  0.00     0.031 A 
BRANCH  48  62
ATOM     62  C   UNL A   1      46.124  32.928  28.909  1.00  0.00    -0.014 A 
ATOM     63  C   UNL A   1      45.882  34.014  28.048  1.00  0.00     0.010 A 
ATOM     64  C   UNL A   1      46.410  33.177  30.262  1.00  0.00     0.010 A 
ATOM     65  C   UNL A   1      45.969  35.325  28.524  1.00  0.00     0.020 A 
ATOM     66  C   UNL A   1      46.473  34.486  30.748  1.00  0.00     0.020 A 
ATOM     67  C   UNL A   1      46.272  35.553  29.869  1.00  0.00     0.054 A 
BRANCH  67  68
ATOM     68  S   UNL A   1      46.375  37.264  30.463  1.00  0.00     0.124 S 
ATOM     69  O   UNL A   1      47.642  37.706  29.882  1.00  0.00    -0.237 OA
ATOM     70  O   UNL A   1      45.177  37.876  29.894  1.00  0.00    -0.237 OA
ATOM     71  O   UNL A   1      46.371  37.128  31.917  1.00  0.00    -0.744 OA
ENDBRANCH  67  68
ENDBRANCH  48  62
BRANCH  49  72
ATOM     72  C   UNL A   1      45.175  23.574  25.549  1.00  0.00    -0.014 A 
ATOM     73  C   UNL A   1      45.580  22.470  26.319  1.00  0.00     0.010 A 
ATOM     74  C   UNL A   1      44.620  23.352  24.275  1.00  0.00     0.010 A 
ATOM     75  C   UNL A   1      45.441  21.171  25.821  1.00  0.00     0.020 A 
ATOM     76  C   UNL A   1      44.456  22.055  23.785  1.00  0.00     0.020 A 
ATOM     77  C   UNL A   1      44.875  20.971  24.558  1.00  0.00     0.054 A 
BRANCH  77  78
ATOM     78  S   UNL A   1      44.643  19.274  23.959  1.00  0.00     0.124 S 
ATOM     79  O   UNL A   1      43.430  18.867  24.661  1.00  0.00    -0.237 OA
ATOM     80  O   UNL A   1      44.508  19.464  22.517  1.00  0.00    -0.237 OA
ATOM     81  O   UNL A   1      45.869  18.596  24.378  1.00  0.00    -0.744 OA
ENDBRANCH  77  78
ENDBRANCH  49  72
BRANCH  61  82
ATOM     82  C   UNL A   1      50.509  28.062  25.874  1.00  0.00    -0.014 A 
ATOM     83  C   UNL A   1      50.910  28.298  24.547  1.00  0.00     0.010 A 
ATOM     84  C   UNL A   1      51.487  27.782  26.847  1.00  0.00     0.010 A 
ATOM     85  C   UNL A   1      52.261  28.226  24.195  1.00  0.00     0.020 A 
ATOM     86  C   UNL A   1      52.841  27.737  26.503  1.00  0.00     0.020 A 
ATOM     87  C   UNL A   1      53.218  27.945  25.175  1.00  0.00     0.054 A 
BRANCH  87  88
ATOM     88  S   UNL A   1      54.969  27.901  24.702  1.00  0.00     0.124 S 
ATOM     89  O   UNL A   1      55.031  28.934  23.672  1.00  0.00    -0.237 OA
ATOM     90  O   UNL A   1      55.649  28.222  25.954  1.00  0.00    -0.237 OA
ATOM     91  O   UNL A   1      55.165  26.534  24.227  1.00  0.00    -0.744 OA
ENDBRANCH  87  88
ENDBRANCH  61  82
ENDBRANCH  35  36
ENDBRANCH  28  30
ENDBRANCH  27  28
ENDBRANCH  26  27
ENDBRANCH  25  26
ENDBRANCH  24  25
ENDBRANCH   1  24
TORSDOF 21
ENDMDL
