MODEL 1
REMARK VINA RESULT:     -10.2      0.000      0.000
REMARK SMILES Cc1ccc2oc(CCCC(=O)OCCOCCOC(=O)c3ccc(-c4c5nc(c(-c6ccc(S(=O)(=O)[O-])cc6)c6ccc([nH]6)c(-c6ccc(S(=O)(=O)[O-])cc6)c6nc(c(-c7ccc(S(=O)(=O)[O-])cc7)c7ccc4[nH]7)C=C6)C=C5)cc3)cc(=O)c2c1
REMARK SMILES IDX 16 1 15 2 14 3 13 4 11 5 12 6 10 7 9 8 8 9 7 10 1 11 2 12
REMARK SMILES IDX 3 13 86 14 4 15 85 16 5 17 83 18 6 19 82 20 84 21 17 22
REMARK SMILES IDX 18 23 19 24 20 25 21 26 22 27 23 28 81 29 24 30 80 31 25 32
REMARK SMILES IDX 26 33 27 34 74 35 28 36 79 37 73 38 75 39 29 40 78 41 72 42
REMARK SMILES IDX 71 43 30 45 60 46 41 47 59 48 42 49 45 50 58 51 76 52 43 53
REMARK SMILES IDX 44 54 57 56 77 57 46 58 31 59 32 60 40 61 33 62 39 63 34 64
REMARK SMILES IDX 35 65 36 66 37 67 38 68 61 69 62 70 70 71 63 72 69 73 64 74
REMARK SMILES IDX 65 75 66 76 67 77 68 78 47 79 48 80 56 81 49 82 55 83 50 84
REMARK SMILES IDX 51 85 52 86 53 87 54 88
REMARK H PARENT 75 44 45 55
REMARK Flexibility Score: inf
ROOT
ATOM      1  O   UNL A   1      34.511  31.821  27.455  1.00  0.00    -0.374 OA
ENDROOT
BRANCH   1   2
ATOM      2  C   UNL A   1      33.589  30.745  27.649  1.00  0.00     0.202 C 
BRANCH   2   3
ATOM      3  C   UNL A   1      33.169  29.999  26.380  1.00  0.00     0.261 C 
BRANCH   3   4
ATOM      4  O   UNL A   1      31.813  29.537  26.514  1.00  0.00    -0.463 OA
BRANCH   4   5
ATOM      5  C   UNL A   1      31.636  28.235  26.832  1.00  0.00     0.305 C 
ATOM      6  O   UNL A   1      31.424  27.812  27.963  1.00  0.00    -0.252 OA
BRANCH   5   7
ATOM      7  C   UNL A   1      31.714  27.310  25.632  1.00  0.00     0.123 C 
BRANCH   7   8
ATOM      8  C   UNL A   1      32.366  25.925  25.775  1.00  0.00     0.020 C 
BRANCH   8   9
ATOM      9  C   UNL A   1      33.832  25.747  25.345  1.00  0.00     0.076 C 
BRANCH   9  10
ATOM     10  C   UNL A   1      34.309  24.323  25.395  1.00  0.00     0.108 A 
ATOM     11  C   UNL A   1      34.406  17.926  24.413  1.00  0.00     0.044 C 
ATOM     12  C   UNL A   1      34.124  19.383  24.630  1.00  0.00    -0.050 A 
ATOM     13  C   UNL A   1      32.820  19.885  24.505  1.00  0.00     0.007 A 
ATOM     14  C   UNL A   1      35.168  20.252  24.984  1.00  0.00     0.019 A 
ATOM     15  C   UNL A   1      32.558  21.234  24.738  1.00  0.00     0.048 A 
ATOM     16  C   UNL A   1      34.901  21.606  25.198  1.00  0.00     0.065 A 
ATOM     17  C   UNL A   1      33.603  22.089  25.085  1.00  0.00     0.138 A 
ATOM     18  C   UNL A   1      35.981  22.561  25.498  1.00  0.00     0.192 A 
ATOM     19  O   UNL A   1      33.282  23.401  25.295  1.00  0.00    -0.461 OA
ATOM     20  C   UNL A   1      35.599  23.985  25.537  1.00  0.00     0.095 A 
ATOM     21  O   UNL A   1      37.147  22.220  25.640  1.00  0.00    -0.289 OA
ENDBRANCH   9  10
ENDBRANCH   8   9
ENDBRANCH   7   8
ENDBRANCH   5   7
ENDBRANCH   4   5
ENDBRANCH   3   4
ENDBRANCH   2   3
ENDBRANCH   1   2
BRANCH   1  22
ATOM     22  C   UNL A   1      35.821  31.661  27.996  1.00  0.00     0.202 C 
BRANCH  22  23
ATOM     23  C   UNL A   1      35.914  30.991  29.374  1.00  0.00     0.261 C 
BRANCH  23  24
ATOM     24  O   UNL A   1      36.226  29.590  29.291  1.00  0.00    -0.460 OA
BRANCH  24  25
ATOM     25  C   UNL A   1      37.098  29.155  30.234  1.00  0.00     0.338 C 
ATOM     26  O   UNL A   1      36.860  28.956  31.418  1.00  0.00    -0.246 OA
BRANCH  25  27
ATOM     27  C   UNL A   1      38.383  28.777  29.617  1.00  0.00     0.060 A 
ATOM     28  C   UNL A   1      39.340  28.177  30.446  1.00  0.00     0.016 A 
ATOM     29  C   UNL A   1      38.685  29.072  28.285  1.00  0.00     0.016 A 
ATOM     30  C   UNL A   1      40.620  27.916  29.962  1.00  0.00     0.010 A 
ATOM     31  C   UNL A   1      39.975  28.815  27.803  1.00  0.00     0.010 A 
ATOM     32  C   UNL A   1      40.959  28.269  28.649  1.00  0.00    -0.014 A 
BRANCH  32  33
ATOM     33  C   UNL A   1      42.375  28.192  28.214  1.00  0.00     0.031 A 
ATOM     34  C   UNL A   1      43.271  29.384  28.415  1.00  0.00     0.074 A 
ATOM     35  C   UNL A   1      42.871  27.059  27.682  1.00  0.00     0.049 A 
ATOM     36  N   UNL A   1      44.530  29.538  28.096  1.00  0.00    -0.248 NA
ATOM     37  C   UNL A   1      42.667  30.560  29.064  1.00  0.00     0.031 C 
ATOM     38  C   UNL A   1      42.121  25.820  27.481  1.00  0.00     0.029 A 
ATOM     39  N   UNL A   1      44.128  26.773  27.212  1.00  0.00    -0.354 N 
ATOM     40  C   UNL A   1      44.869  30.825  28.496  1.00  0.00     0.074 A 
ATOM     41  C   UNL A   1      43.675  31.420  29.059  1.00  0.00     0.031 C 
ATOM     42  C   UNL A   1      42.933  24.906  26.921  1.00  0.00     0.029 A 
ATOM     43  C   UNL A   1      44.247  25.505  26.695  1.00  0.00     0.049 A 
ATOM     44  H   UNL A   1      44.874  27.414  27.242  1.00  0.00     0.167 HD
ATOM     45  C   UNL A   1      46.065  31.455  28.408  1.00  0.00     0.031 A 
ATOM     46  C   UNL A   1      45.289  24.902  26.086  1.00  0.00     0.031 A 
ATOM     47  C   UNL A   1      47.248  30.868  27.836  1.00  0.00     0.049 A 
ATOM     48  C   UNL A   1      46.585  25.652  25.924  1.00  0.00     0.074 A 
ATOM     49  C   UNL A   1      48.511  31.422  27.716  1.00  0.00     0.029 A 
ATOM     50  N   UNL A   1      47.313  29.600  27.278  1.00  0.00    -0.354 N 
ATOM     51  N   UNL A   1      46.896  26.861  26.331  1.00  0.00    -0.248 NA
ATOM     52  C   UNL A   1      47.674  24.953  25.225  1.00  0.00     0.031 C 
ATOM     53  C   UNL A   1      49.325  30.510  27.037  1.00  0.00     0.029 A 
ATOM     54  C   UNL A   1      48.585  29.365  26.784  1.00  0.00     0.049 A 
ATOM     55  H   UNL A   1      46.565  28.961  27.240  1.00  0.00     0.167 HD
ATOM     56  C   UNL A   1      48.221  27.059  25.954  1.00  0.00     0.074 A 
ATOM     57  C   UNL A   1      48.657  25.841  25.303  1.00  0.00     0.031 C 
ATOM     58  C   UNL A   1      49.005  28.150  26.131  1.00  0.00     0.031 A 
BRANCH  45  59
ATOM     59  C   UNL A   1      46.143  32.871  28.912  1.00  0.00    -0.014 A 
ATOM     60  C   UNL A   1      46.218  33.959  28.024  1.00  0.00     0.010 A 
ATOM     61  C   UNL A   1      46.105  33.119  30.297  1.00  0.00     0.010 A 
ATOM     62  C   UNL A   1      46.292  35.267  28.512  1.00  0.00     0.020 A 
ATOM     63  C   UNL A   1      46.153  34.426  30.789  1.00  0.00     0.020 A 
ATOM     64  C   UNL A   1      46.264  35.492  29.893  1.00  0.00     0.054 A 
BRANCH  64  65
ATOM     65  S   UNL A   1      46.346  37.199  30.498  1.00  0.00     0.124 S 
ATOM     66  O   UNL A   1      44.937  37.585  30.503  1.00  0.00    -0.237 OA
ATOM     67  O   UNL A   1      46.959  37.044  31.815  1.00  0.00    -0.237 OA
ATOM     68  O   UNL A   1      47.173  37.880  29.505  1.00  0.00    -0.744 OA
ENDBRANCH  64  65
ENDBRANCH  45  59
BRANCH  46  69
ATOM     69  C   UNL A   1      45.139  23.519  25.557  1.00  0.00    -0.014 A 
ATOM     70  C   UNL A   1      45.660  22.420  26.261  1.00  0.00     0.010 A 
ATOM     71  C   UNL A   1      44.469  23.296  24.340  1.00  0.00     0.010 A 
ATOM     72  C   UNL A   1      45.524  21.125  25.752  1.00  0.00     0.020 A 
ATOM     73  C   UNL A   1      44.308  22.001  23.842  1.00  0.00     0.020 A 
ATOM     74  C   UNL A   1      44.845  20.924  24.546  1.00  0.00     0.054 A 
BRANCH  74  75
ATOM     75  S   UNL A   1      44.628  19.229  23.935  1.00  0.00     0.124 S 
ATOM     76  O   UNL A   1      45.834  18.572  24.428  1.00  0.00    -0.237 OA
ATOM     77  O   UNL A   1      43.378  18.820  24.573  1.00  0.00    -0.237 OA
ATOM     78  O   UNL A   1      44.552  19.395  22.485  1.00  0.00    -0.744 OA
ENDBRANCH  74  75
ENDBRANCH  46  69
BRANCH  58  79
ATOM     79  C   UNL A   1      50.425  28.076  25.636  1.00  0.00    -0.014 A 
ATOM     80  C   UNL A   1      51.477  27.718  26.497  1.00  0.00     0.010 A 
ATOM     81  C   UNL A   1      50.702  28.310  24.276  1.00  0.00     0.010 A 
ATOM     82  C   UNL A   1      52.786  27.624  26.014  1.00  0.00     0.020 A 
ATOM     83  C   UNL A   1      52.004  28.191  23.784  1.00  0.00     0.020 A 
ATOM     84  C   UNL A   1      53.041  27.862  24.660  1.00  0.00     0.054 A 
BRANCH  84  85
ATOM     85  S   UNL A   1      54.740  27.688  24.047  1.00  0.00     0.124 S 
ATOM     86  O   UNL A   1      55.525  27.944  25.252  1.00  0.00    -0.237 OA
ATOM     87  O   UNL A   1      54.768  26.312  23.559  1.00  0.00    -0.237 OA
ATOM     88  O   UNL A   1      54.840  28.712  23.009  1.00  0.00    -0.744 OA
ENDBRANCH  84  85
ENDBRANCH  58  79
ENDBRANCH  32  33
ENDBRANCH  25  27
ENDBRANCH  24  25
ENDBRANCH  23  24
ENDBRANCH  22  23
ENDBRANCH   1  22
TORSDOF 20
ENDMDL
MODEL 2
REMARK VINA RESULT:     -10.2      7.020     12.786
REMARK SMILES Cc1ccc2oc(CCCC(=O)OCCOCCOC(=O)c3ccc(-c4c5nc(c(-c6ccc(S(=O)(=O)[O-])cc6)c6ccc([nH]6)c(-c6ccc(S(=O)(=O)[O-])cc6)c6nc(c(-c7ccc(S(=O)(=O)[O-])cc7)c7ccc4[nH]7)C=C6)C=C5)cc3)cc(=O)c2c1
REMARK SMILES IDX 16 1 15 2 14 3 13 4 11 5 12 6 10 7 9 8 8 9 7 10 1 11 2 12
REMARK SMILES IDX 3 13 86 14 4 15 85 16 5 17 83 18 6 19 82 20 84 21 17 22
REMARK SMILES IDX 18 23 19 24 20 25 21 26 22 27 23 28 81 29 24 30 80 31 25 32
REMARK SMILES IDX 26 33 27 34 74 35 28 36 79 37 73 38 75 39 29 40 78 41 72 42
REMARK SMILES IDX 71 43 30 45 60 46 41 47 59 48 42 49 45 50 58 51 76 52 43 53
REMARK SMILES IDX 44 54 57 56 77 57 46 58 31 59 32 60 40 61 33 62 39 63 34 64
REMARK SMILES IDX 35 65 36 66 37 67 38 68 61 69 62 70 70 71 63 72 69 73 64 74
REMARK SMILES IDX 65 75 66 76 67 77 68 78 47 79 48 80 56 81 49 82 55 83 50 84
REMARK SMILES IDX 51 85 52 86 53 87 54 88
REMARK H PARENT 75 44 45 55
REMARK Flexibility Score: inf
ROOT
ATOM      1  O   UNL A   1      37.375  23.222  24.980  1.00  0.00    -0.374 OA
ENDROOT
BRANCH   1   2
ATOM      2  C   UNL A   1      36.012  22.791  24.948  1.00  0.00     0.202 C 
BRANCH   2   3
ATOM      3  C   UNL A   1      35.605  21.805  26.046  1.00  0.00     0.261 C 
BRANCH   3   4
ATOM      4  O   UNL A   1      34.184  21.587  26.002  1.00  0.00    -0.463 OA
BRANCH   4   5
ATOM      5  C   UNL A   1      33.729  20.677  25.110  1.00  0.00     0.305 C 
ATOM      6  O   UNL A   1      34.304  19.636  24.816  1.00  0.00    -0.252 OA
BRANCH   5   7
ATOM      7  C   UNL A   1      32.398  21.061  24.490  1.00  0.00     0.123 C 
BRANCH   7   8
ATOM      8  C   UNL A   1      32.319  21.382  22.988  1.00  0.00     0.020 C 
BRANCH   8   9
ATOM      9  C   UNL A   1      32.675  22.800  22.512  1.00  0.00     0.076 C 
BRANCH   9  10
ATOM     10  C   UNL A   1      32.118  23.890  23.383  1.00  0.00     0.108 A 
ATOM     11  C   UNL A   1      31.957  29.152  27.148  1.00  0.00     0.044 C 
ATOM     12  C   UNL A   1      32.237  27.903  26.367  1.00  0.00    -0.050 A 
ATOM     13  C   UNL A   1      33.525  27.348  26.343  1.00  0.00     0.007 A 
ATOM     14  C   UNL A   1      31.198  27.266  25.671  1.00  0.00     0.019 A 
ATOM     15  C   UNL A   1      33.773  26.170  25.641  1.00  0.00     0.048 A 
ATOM     16  C   UNL A   1      31.458  26.097  24.954  1.00  0.00     0.065 A 
ATOM     17  C   UNL A   1      32.735  25.549  24.950  1.00  0.00     0.138 A 
ATOM     18  C   UNL A   1      30.411  25.441  24.152  1.00  0.00     0.192 A 
ATOM     19  O   UNL A   1      33.044  24.400  24.276  1.00  0.00    -0.461 OA
ATOM     20  C   UNL A   1      30.848  24.312  23.309  1.00  0.00     0.095 A 
ATOM     21  O   UNL A   1      29.255  25.839  24.118  1.00  0.00    -0.289 OA
ENDBRANCH   9  10
ENDBRANCH   8   9
ENDBRANCH   7   8
ENDBRANCH   5   7
ENDBRANCH   4   5
ENDBRANCH   3   4
ENDBRANCH   2   3
ENDBRANCH   1   2
BRANCH   1  22
ATOM     22  C   UNL A   1      38.254  22.532  25.865  1.00  0.00     0.202 C 
BRANCH  22  23
ATOM     23  C   UNL A   1      39.291  23.388  26.604  1.00  0.00     0.261 C 
BRANCH  23  24
ATOM     24  O   UNL A   1      38.948  24.785  26.622  1.00  0.00    -0.460 OA
BRANCH  24  25
ATOM     25  C   UNL A   1      40.009  25.618  26.763  1.00  0.00     0.338 C 
ATOM     26  O   UNL A   1      40.968  25.718  26.009  1.00  0.00    -0.246 OA
BRANCH  25  27
ATOM     27  C   UNL A   1      39.794  26.547  27.887  1.00  0.00     0.060 A 
ATOM     28  C   UNL A   1      40.405  27.805  27.805  1.00  0.00     0.016 A 
ATOM     29  C   UNL A   1      39.084  26.178  29.032  1.00  0.00     0.016 A 
ATOM     30  C   UNL A   1      40.353  28.681  28.888  1.00  0.00     0.010 A 
ATOM     31  C   UNL A   1      39.039  27.057  30.122  1.00  0.00     0.010 A 
ATOM     32  C   UNL A   1      39.703  28.297  30.069  1.00  0.00    -0.014 A 
BRANCH  32  33
ATOM     33  C   UNL A   1      39.841  29.137  31.283  1.00  0.00     0.031 A 
ATOM     34  C   UNL A   1      40.994  28.891  32.219  1.00  0.00     0.074 A 
ATOM     35  C   UNL A   1      38.972  30.134  31.533  1.00  0.00     0.049 A 
ATOM     36  N   UNL A   1      41.294  29.494  33.340  1.00  0.00    -0.248 NA
ATOM     37  C   UNL A   1      41.935  27.826  31.838  1.00  0.00     0.031 C 
ATOM     38  C   UNL A   1      37.843  30.506  30.681  1.00  0.00     0.029 A 
ATOM     39  N   UNL A   1      38.906  31.016  32.583  1.00  0.00    -0.354 N 
ATOM     40  C   UNL A   1      42.451  28.879  33.804  1.00  0.00     0.074 A 
ATOM     41  C   UNL A   1      42.785  27.838  32.855  1.00  0.00     0.031 C 
ATOM     42  C   UNL A   1      37.193  31.538  31.247  1.00  0.00     0.029 A 
ATOM     43  C   UNL A   1      37.837  31.876  32.514  1.00  0.00     0.049 A 
ATOM     44  H   UNL A   1      39.563  31.031  33.316  1.00  0.00     0.167 HD
ATOM     45  C   UNL A   1      43.174  29.157  34.915  1.00  0.00     0.031 A 
ATOM     46  C   UNL A   1      37.411  32.815  33.384  1.00  0.00     0.031 A 
ATOM     47  C   UNL A   1      42.834  30.183  35.866  1.00  0.00     0.049 A 
ATOM     48  C   UNL A   1      38.184  33.050  34.655  1.00  0.00     0.074 A 
ATOM     49  C   UNL A   1      43.513  30.550  37.014  1.00  0.00     0.029 A 
ATOM     50  N   UNL A   1      41.716  30.999  35.785  1.00  0.00    -0.354 N 
ATOM     51  N   UNL A   1      39.291  32.475  35.066  1.00  0.00    -0.248 NA
ATOM     52  C   UNL A   1      37.653  34.064  35.578  1.00  0.00     0.031 C 
ATOM     53  C   UNL A   1      42.776  31.551  37.657  1.00  0.00     0.029 A 
ATOM     54  C   UNL A   1      41.668  31.846  36.878  1.00  0.00     0.049 A 
ATOM     55  H   UNL A   1      41.054  30.979  35.056  1.00  0.00     0.167 HD
ATOM     56  C   UNL A   1      39.597  33.073  36.286  1.00  0.00     0.074 A 
ATOM     57  C   UNL A   1      38.571  34.063  36.536  1.00  0.00     0.031 C 
ATOM     58  C   UNL A   1      40.635  32.823  37.121  1.00  0.00     0.031 A 
BRANCH  45  59
ATOM     59  C   UNL A   1      44.388  28.310  35.183  1.00  0.00    -0.014 A 
ATOM     60  C   UNL A   1      44.357  27.265  36.124  1.00  0.00     0.010 A 
ATOM     61  C   UNL A   1      45.572  28.542  34.457  1.00  0.00     0.010 A 
ATOM     62  C   UNL A   1      45.498  26.491  36.360  1.00  0.00     0.020 A 
ATOM     63  C   UNL A   1      46.706  27.754  34.671  1.00  0.00     0.020 A 
ATOM     64  C   UNL A   1      46.667  26.745  35.635  1.00  0.00     0.054 A 
BRANCH  64  65
ATOM     65  S   UNL A   1      48.127  25.716  35.950  1.00  0.00     0.124 S 
ATOM     66  O   UNL A   1      47.863  25.224  37.301  1.00  0.00    -0.237 OA
ATOM     67  O   UNL A   1      48.049  24.713  34.891  1.00  0.00    -0.237 OA
ATOM     68  O   UNL A   1      49.242  26.652  35.837  1.00  0.00    -0.744 OA
ENDBRANCH  64  65
ENDBRANCH  45  59
BRANCH  46  69
ATOM     69  C   UNL A   1      36.171  33.586  33.095  1.00  0.00    -0.014 A 
ATOM     70  C   UNL A   1      34.916  33.111  33.511  1.00  0.00     0.010 A 
ATOM     71  C   UNL A   1      36.244  34.807  32.398  1.00  0.00     0.010 A 
ATOM     72  C   UNL A   1      33.755  33.836  33.227  1.00  0.00     0.020 A 
ATOM     73  C   UNL A   1      35.089  35.547  32.136  1.00  0.00     0.020 A 
ATOM     74  C   UNL A   1      33.850  35.053  32.543  1.00  0.00     0.054 A 
BRANCH  74  75
ATOM     75  S   UNL A   1      32.337  36.007  32.238  1.00  0.00     0.124 S 
ATOM     76  O   UNL A   1      32.472  37.104  33.190  1.00  0.00    -0.237 OA
ATOM     77  O   UNL A   1      32.471  36.370  30.829  1.00  0.00    -0.237 OA
ATOM     78  O   UNL A   1      31.267  35.053  32.528  1.00  0.00    -0.744 OA
ENDBRANCH  74  75
ENDBRANCH  46  69
BRANCH  58  79
ATOM     79  C   UNL A   1      40.732  33.648  38.377  1.00  0.00    -0.014 A 
ATOM     80  C   UNL A   1      40.157  33.208  39.582  1.00  0.00     0.010 A 
ATOM     81  C   UNL A   1      41.459  34.853  38.365  1.00  0.00     0.010 A 
ATOM     82  C   UNL A   1      40.282  33.972  40.746  1.00  0.00     0.020 A 
ATOM     83  C   UNL A   1      41.608  35.607  39.533  1.00  0.00     0.020 A 
ATOM     84  C   UNL A   1      41.007  35.167  40.714  1.00  0.00     0.054 A 
BRANCH  84  85
ATOM     85  S   UNL A   1      41.194  36.117  42.248  1.00  0.00     0.124 S 
ATOM     86  O   UNL A   1      41.145  37.493  41.761  1.00  0.00    -0.237 OA
ATOM     87  O   UNL A   1      40.041  35.687  43.036  1.00  0.00    -0.237 OA
ATOM     88  O   UNL A   1      42.490  35.685  42.767  1.00  0.00    -0.744 OA
ENDBRANCH  84  85
ENDBRANCH  58  79
ENDBRANCH  32  33
ENDBRANCH  25  27
ENDBRANCH  24  25
ENDBRANCH  23  24
ENDBRANCH  22  23
ENDBRANCH   1  22
TORSDOF 20
ENDMDL
MODEL 3
REMARK VINA RESULT:      -9.9      6.804     13.463
REMARK SMILES Cc1ccc2oc(CCCC(=O)OCCOCCOC(=O)c3ccc(-c4c5nc(c(-c6ccc(S(=O)(=O)[O-])cc6)c6ccc([nH]6)c(-c6ccc(S(=O)(=O)[O-])cc6)c6nc(c(-c7ccc(S(=O)(=O)[O-])cc7)c7ccc4[nH]7)C=C6)C=C5)cc3)cc(=O)c2c1
REMARK SMILES IDX 16 1 15 2 14 3 13 4 11 5 12 6 10 7 9 8 8 9 7 10 1 11 2 12
REMARK SMILES IDX 3 13 86 14 4 15 85 16 5 17 83 18 6 19 82 20 84 21 17 22
REMARK SMILES IDX 18 23 19 24 20 25 21 26 22 27 23 28 81 29 24 30 80 31 25 32
REMARK SMILES IDX 26 33 27 34 74 35 28 36 79 37 73 38 75 39 29 40 78 41 72 42
REMARK SMILES IDX 71 43 30 45 60 46 41 47 59 48 42 49 45 50 58 51 76 52 43 53
REMARK SMILES IDX 44 54 57 56 77 57 46 58 31 59 32 60 40 61 33 62 39 63 34 64
REMARK SMILES IDX 35 65 36 66 37 67 38 68 61 69 62 70 70 71 63 72 69 73 64 74
REMARK SMILES IDX 65 75 66 76 67 77 68 78 47 79 48 80 56 81 49 82 55 83 50 84
REMARK SMILES IDX 51 85 52 86 53 87 54 88
REMARK H PARENT 75 44 45 55
REMARK Flexibility Score: inf
ROOT
ATOM      1  O   UNL A   1      45.171  24.587  24.709  1.00  0.00    -0.374 OA
ENDROOT
BRANCH   1   2
ATOM      2  C   UNL A   1      46.057  23.495  24.969  1.00  0.00     0.202 C 
BRANCH   2   3
ATOM      3  C   UNL A   1      45.480  22.101  24.709  1.00  0.00     0.261 C 
BRANCH   3   4
ATOM      4  O   UNL A   1      46.465  21.101  25.024  1.00  0.00    -0.463 OA
BRANCH   4   5
ATOM      5  C   UNL A   1      46.027  19.830  25.171  1.00  0.00     0.305 C 
ATOM      6  O   UNL A   1      46.749  18.851  25.312  1.00  0.00    -0.252 OA
BRANCH   5   7
ATOM      7  C   UNL A   1      44.513  19.715  25.154  1.00  0.00     0.123 C 
BRANCH   7   8
ATOM      8  C   UNL A   1      43.840  18.418  25.632  1.00  0.00     0.020 C 
BRANCH   8   9
ATOM      9  C   UNL A   1      42.805  18.495  26.768  1.00  0.00     0.076 C 
BRANCH   9  10
ATOM     10  C   UNL A   1      41.820  19.619  26.615  1.00  0.00     0.108 A 
ATOM     11  C   UNL A   1      36.236  22.659  25.402  1.00  0.00     0.044 C 
ATOM     12  C   UNL A   1      37.445  21.778  25.511  1.00  0.00    -0.050 A 
ATOM     13  C   UNL A   1      37.472  20.522  24.886  1.00  0.00     0.007 A 
ATOM     14  C   UNL A   1      38.570  22.220  26.224  1.00  0.00     0.019 A 
ATOM     15  C   UNL A   1      38.610  19.720  24.965  1.00  0.00     0.048 A 
ATOM     16  C   UNL A   1      39.699  21.403  26.314  1.00  0.00     0.065 A 
ATOM     17  C   UNL A   1      39.720  20.167  25.678  1.00  0.00     0.138 A 
ATOM     18  C   UNL A   1      40.870  21.800  27.113  1.00  0.00     0.192 A 
ATOM     19  O   UNL A   1      40.801  19.332  25.723  1.00  0.00    -0.461 OA
ATOM     20  C   UNL A   1      41.928  20.784  27.268  1.00  0.00     0.095 A 
ATOM     21  O   UNL A   1      40.948  22.879  27.683  1.00  0.00    -0.289 OA
ENDBRANCH   9  10
ENDBRANCH   8   9
ENDBRANCH   7   8
ENDBRANCH   5   7
ENDBRANCH   4   5
ENDBRANCH   3   4
ENDBRANCH   2   3
ENDBRANCH   1   2
BRANCH   1  22
ATOM     22  C   UNL A   1      43.824  24.453  25.161  1.00  0.00     0.202 C 
BRANCH  22  23
ATOM     23  C   UNL A   1      43.468  25.168  26.470  1.00  0.00     0.261 C 
BRANCH  23  24
ATOM     24  O   UNL A   1      42.097  25.602  26.512  1.00  0.00    -0.460 OA
BRANCH  24  25
ATOM     25  C   UNL A   1      41.918  26.915  26.224  1.00  0.00     0.338 C 
ATOM     26  O   UNL A   1      41.981  27.439  25.119  1.00  0.00    -0.246 OA
BRANCH  25  27
ATOM     27  C   UNL A   1      41.460  27.650  27.417  1.00  0.00     0.060 A 
ATOM     28  C   UNL A   1      41.844  28.993  27.529  1.00  0.00     0.016 A 
ATOM     29  C   UNL A   1      40.743  27.031  28.444  1.00  0.00     0.016 A 
ATOM     30  C   UNL A   1      41.559  29.708  28.690  1.00  0.00     0.010 A 
ATOM     31  C   UNL A   1      40.464  27.749  29.613  1.00  0.00     0.010 A 
ATOM     32  C   UNL A   1      40.901  29.080  29.756  1.00  0.00    -0.014 A 
BRANCH  32  33
ATOM     33  C   UNL A   1      40.798  29.776  31.062  1.00  0.00     0.031 A 
ATOM     34  C   UNL A   1      41.855  29.536  32.107  1.00  0.00     0.074 A 
ATOM     35  C   UNL A   1      39.797  30.642  31.304  1.00  0.00     0.049 A 
ATOM     36  N   UNL A   1      41.951  30.026  33.316  1.00  0.00    -0.248 NA
ATOM     37  C   UNL A   1      42.951  28.626  31.738  1.00  0.00     0.031 C 
ATOM     38  C   UNL A   1      38.740  30.998  30.359  1.00  0.00     0.029 A 
ATOM     39  N   UNL A   1      39.508  31.378  32.425  1.00  0.00    -0.354 N 
ATOM     40  C   UNL A   1      43.109  29.479  33.856  1.00  0.00     0.074 A 
ATOM     41  C   UNL A   1      43.670  28.601  32.851  1.00  0.00     0.031 C 
ATOM     42  C   UNL A   1      37.913  31.882  30.943  1.00  0.00     0.029 A 
ATOM     43  C   UNL A   1      38.362  32.128  32.312  1.00  0.00     0.049 A 
ATOM     44  H   UNL A   1      40.069  31.371  33.235  1.00  0.00     0.167 HD
ATOM     45  C   UNL A   1      43.660  29.692  35.075  1.00  0.00     0.031 A 
ATOM     46  C   UNL A   1      37.732  32.906  33.216  1.00  0.00     0.031 A 
ATOM     47  C   UNL A   1      43.096  30.556  36.079  1.00  0.00     0.049 A 
ATOM     48  C   UNL A   1      38.319  33.062  34.595  1.00  0.00     0.074 A 
ATOM     49  C   UNL A   1      43.590  30.847  37.338  1.00  0.00     0.029 A 
ATOM     50  N   UNL A   1      41.908  31.257  35.942  1.00  0.00    -0.354 N 
ATOM     51  N   UNL A   1      39.429  32.557  35.081  1.00  0.00    -0.248 NA
ATOM     52  C   UNL A   1      37.570  33.897  35.545  1.00  0.00     0.031 C 
ATOM     53  C   UNL A   1      42.672  31.682  37.985  1.00  0.00     0.029 A 
ATOM     54  C   UNL A   1      41.635  31.956  37.106  1.00  0.00     0.049 A 
ATOM     55  H   UNL A   1      41.342  31.259  35.137  1.00  0.00     0.167 HD
ATOM     56  C   UNL A   1      39.520  33.030  36.387  1.00  0.00     0.074 A 
ATOM     57  C   UNL A   1      38.364  33.873  36.608  1.00  0.00     0.031 C 
ATOM     58  C   UNL A   1      40.476  32.787  37.317  1.00  0.00     0.031 A 
BRANCH  45  59
ATOM     59  C   UNL A   1      44.925  28.946  35.405  1.00  0.00    -0.014 A 
ATOM     60  C   UNL A   1      44.888  27.667  35.988  1.00  0.00     0.010 A 
ATOM     61  C   UNL A   1      46.172  29.521  35.094  1.00  0.00     0.010 A 
ATOM     62  C   UNL A   1      46.075  26.992  36.288  1.00  0.00     0.020 A 
ATOM     63  C   UNL A   1      47.361  28.839  35.370  1.00  0.00     0.020 A 
ATOM     64  C   UNL A   1      47.304  27.585  35.981  1.00  0.00     0.054 A 
BRANCH  64  65
ATOM     65  S   UNL A   1      48.828  26.681  36.368  1.00  0.00     0.124 S 
ATOM     66  O   UNL A   1      49.412  27.510  37.420  1.00  0.00    -0.237 OA
ATOM     67  O   UNL A   1      48.328  25.378  36.801  1.00  0.00    -0.237 OA
ATOM     68  O   UNL A   1      49.559  26.675  35.103  1.00  0.00    -0.744 OA
ENDBRANCH  64  65
ENDBRANCH  45  59
BRANCH  46  69
ATOM     69  C   UNL A   1      36.453  33.576  32.854  1.00  0.00    -0.014 A 
ATOM     70  C   UNL A   1      35.261  32.840  32.747  1.00  0.00     0.010 A 
ATOM     71  C   UNL A   1      36.425  34.963  32.616  1.00  0.00     0.010 A 
ATOM     72  C   UNL A   1      34.066  33.477  32.397  1.00  0.00     0.020 A 
ATOM     73  C   UNL A   1      35.228  35.606  32.292  1.00  0.00     0.020 A 
ATOM     74  C   UNL A   1      34.057  34.857  32.175  1.00  0.00     0.054 A 
BRANCH  74  75
ATOM     75  S   UNL A   1      32.484  35.671  31.780  1.00  0.00     0.124 S 
ATOM     76  O   UNL A   1      32.327  35.359  30.364  1.00  0.00    -0.237 OA
ATOM     77  O   UNL A   1      31.548  35.006  32.683  1.00  0.00    -0.237 OA
ATOM     78  O   UNL A   1      32.740  37.077  32.088  1.00  0.00    -0.744 OA
ENDBRANCH  74  75
ENDBRANCH  46  69
BRANCH  58  79
ATOM     79  C   UNL A   1      40.329  33.459  38.657  1.00  0.00    -0.014 A 
ATOM     80  C   UNL A   1      40.988  34.668  38.940  1.00  0.00     0.010 A 
ATOM     81  C   UNL A   1      39.473  32.901  39.626  1.00  0.00     0.010 A 
ATOM     82  C   UNL A   1      40.816  35.293  40.179  1.00  0.00     0.020 A 
ATOM     83  C   UNL A   1      39.279  33.537  40.855  1.00  0.00     0.020 A 
ATOM     84  C   UNL A   1      39.963  34.723  41.128  1.00  0.00     0.054 A 
BRANCH  84  85
ATOM     85  S   UNL A   1      39.721  35.578  42.711  1.00  0.00     0.124 S 
ATOM     86  O   UNL A   1      40.298  36.891  42.438  1.00  0.00    -0.237 OA
ATOM     87  O   UNL A   1      38.270  35.550  42.874  1.00  0.00    -0.237 OA
ATOM     88  O   UNL A   1      40.464  34.757  43.665  1.00  0.00    -0.744 OA
ENDBRANCH  84  85
ENDBRANCH  58  79
ENDBRANCH  32  33
ENDBRANCH  25  27
ENDBRANCH  24  25
ENDBRANCH  23  24
ENDBRANCH  22  23
ENDBRANCH   1  22
TORSDOF 20
ENDMDL
