MODEL 1
REMARK VINA RESULT:     -11.3      0.000      0.000
REMARK SMILES CCC(=O)Nc1ccc(NC(=O)[C@@H]2CC=CC[C@@H]2C(=O)OCCOCCOC(=O)c2ccc(-c3c4nc(c(-c5ccc(S(=O)(=O)[O-])cc5)c5ccc([nH]5)c(-c5ccc(S(=O)(=O)[O-])cc5)c5nc(c(-c6ccc(S(=O)(=O)[O-])cc6)c6ccc3[nH]6)C=C5)C=C4)cc2)cc1
REMARK SMILES IDX 23 1 22 2 21 3 19 4 20 5 18 6 13 7 14 8 15 9 17 10 16 11
REMARK SMILES IDX 11 12 10 13 12 15 9 16 6 17 7 18 91 19 8 20 90 21 5 22 3 23
REMARK SMILES IDX 4 24 2 26 1 27 24 28 25 29 26 30 27 31 28 32 29 33 30 34
REMARK SMILES IDX 31 35 89 36 32 37 88 38 33 39 34 40 35 41 82 42 36 43 87 44
REMARK SMILES IDX 81 45 83 46 37 47 86 48 80 49 79 50 38 52 68 53 49 54 67 55
REMARK SMILES IDX 50 56 53 57 66 58 84 59 51 60 52 61 65 63 85 64 54 65 39 66
REMARK SMILES IDX 40 67 48 68 41 69 47 70 42 71 43 72 44 73 45 74 46 75 69 76
REMARK SMILES IDX 70 77 78 78 71 79 77 80 72 81 73 82 74 83 75 84 76 85 55 86
REMARK SMILES IDX 56 87 64 88 57 89 63 90 58 91 59 92 60 93 61 94 62 95
REMARK H PARENT 10 14 5 25 83 51 53 62
REMARK Flexibility Score: inf
ROOT
ATOM      1  C   UNL A   1      37.601  22.364  25.688  1.00  0.00     0.202 C 
ENDROOT
BRANCH   1   2
ATOM      2  C   UNL A   1      36.494  21.152  25.310  1.00  0.00     0.261 C 
BRANCH   2   3
ATOM      3  O   UNL A   1      34.688  21.315  24.392  1.00  0.00    -0.463 OA
BRANCH   3   4
ATOM      4  C   UNL A   1      33.296  21.478  24.154  1.00  0.00     0.310 C 
ATOM      5  O   UNL A   1      32.702  20.572  23.551  1.00  0.00    -0.252 OA
BRANCH   4   6
ATOM      6  C   UNL A   1      32.406  22.693  24.718  1.00  0.00     0.116 C 
ATOM      7  C   UNL A   1      32.723  23.796  25.793  1.00  0.00     0.097 C 
ATOM      8  C   UNL A   1      31.950  23.789  27.131  1.00  0.00     0.041 C 
ATOM      9  C   UNL A   1      30.631  23.092  27.107  1.00  0.00    -0.030 C 
ATOM     10  C   UNL A   1      30.902  22.307  24.730  1.00  0.00     0.043 C 
ATOM     11  C   UNL A   1      30.171  22.429  26.039  1.00  0.00    -0.030 C 
BRANCH   7  12
ATOM     12  C   UNL A   1      34.159  24.095  26.155  1.00  0.00     0.228 C 
ATOM     13  N   UNL A   1      34.849  25.036  25.469  1.00  0.00    -0.326 N 
ATOM     14  H   UNL A   1      35.828  25.067  25.576  1.00  0.00     0.169 HD
ATOM     15  O   UNL A   1      34.739  23.450  27.031  1.00  0.00    -0.274 OA
BRANCH  13  16
ATOM     16  C   UNL A   1      34.254  25.954  24.629  1.00  0.00     0.041 A 
ATOM     17  C   UNL A   1      31.915  28.177  23.038  1.00  0.00     0.041 A 
ATOM     18  C   UNL A   1      32.431  26.695  22.160  1.00  0.00     0.028 A 
ATOM     19  C   UNL A   1      32.470  28.492  24.696  1.00  0.00     0.028 A 
ATOM     20  C   UNL A   1      33.687  25.609  22.928  1.00  0.00     0.028 A 
ATOM     21  C   UNL A   1      33.654  27.415  25.481  1.00  0.00     0.028 A 
BRANCH  17  22
ATOM     22  N   UNL A   1      31.254  29.182  22.323  1.00  0.00    -0.326 N 
ATOM     23  C   UNL A   1      29.913  29.334  22.065  1.00  0.00     0.224 C 
ATOM     24  O   UNL A   1      29.574  30.187  21.236  1.00  0.00    -0.275 OA
ATOM     25  H   UNL A   1      31.836  29.883  21.948  1.00  0.00     0.169 HD
BRANCH  23  26
ATOM     26  C   UNL A   1      28.839  28.656  22.923  1.00  0.00     0.097 C 
ATOM     27  C   UNL A   1      27.481  29.323  23.021  1.00  0.00     0.014 C 
ENDBRANCH  23  26
ENDBRANCH  17  22
ENDBRANCH  13  16
ENDBRANCH   7  12
ENDBRANCH   4   6
ENDBRANCH   3   4
ENDBRANCH   2   3
ENDBRANCH   1   2
BRANCH   1  28
ATOM     28  O   UNL A   1      38.967  22.018  25.888  1.00  0.00    -0.374 OA
BRANCH  28  29
ATOM     29  C   UNL A   1      39.794  22.582  26.885  1.00  0.00     0.202 C 
BRANCH  29  30
ATOM     30  C   UNL A   1      40.540  23.909  26.690  1.00  0.00     0.261 C 
BRANCH  30  31
ATOM     31  O   UNL A   1      39.765  25.096  26.820  1.00  0.00    -0.460 OA
BRANCH  31  32
ATOM     32  C   UNL A   1      40.432  26.251  26.615  1.00  0.00     0.338 C 
ATOM     33  O   UNL A   1      40.979  26.606  25.588  1.00  0.00    -0.246 OA
BRANCH  32  34
ATOM     34  C   UNL A   1      40.209  27.107  27.795  1.00  0.00     0.060 A 
ATOM     35  C   UNL A   1      40.816  28.365  27.815  1.00  0.00     0.016 A 
ATOM     36  C   UNL A   1      39.428  26.668  28.870  1.00  0.00     0.016 A 
ATOM     37  C   UNL A   1      40.699  29.171  28.941  1.00  0.00     0.010 A 
ATOM     38  C   UNL A   1      39.331  27.466  30.011  1.00  0.00     0.010 A 
ATOM     39  C   UNL A   1      40.008  28.696  30.064  1.00  0.00    -0.014 A 
BRANCH  39  40
ATOM     40  C   UNL A   1      40.216  29.381  31.358  1.00  0.00     0.031 A 
ATOM     41  C   UNL A   1      39.198  30.406  31.780  1.00  0.00     0.074 A 
ATOM     42  C   UNL A   1      41.246  29.057  32.158  1.00  0.00     0.049 A 
ATOM     43  N   UNL A   1      39.142  31.110  32.879  1.00  0.00    -0.248 NA
ATOM     44  C   UNL A   1      38.092  30.666  30.840  1.00  0.00     0.031 C 
ATOM     45  C   UNL A   1      42.265  28.050  31.867  1.00  0.00     0.029 A 
ATOM     46  N   UNL A   1      41.600  29.552  33.387  1.00  0.00    -0.354 N 
ATOM     47  C   UNL A   1      38.002  31.896  32.761  1.00  0.00     0.074 A 
ATOM     48  C   UNL A   1      37.402  31.597  31.482  1.00  0.00     0.031 C 
ATOM     49  C   UNL A   1      43.143  28.014  32.885  1.00  0.00     0.029 A 
ATOM     50  C   UNL A   1      42.759  29.008  33.885  1.00  0.00     0.049 A 
ATOM     51  H   UNL A   1      41.075  30.232  33.866  1.00  0.00     0.167 HD
ATOM     52  C   UNL A   1      37.499  32.791  33.643  1.00  0.00     0.031 A 
ATOM     53  C   UNL A   1      43.439  29.300  35.011  1.00  0.00     0.031 A 
ATOM     54  C   UNL A   1      38.107  33.095  34.908  1.00  0.00     0.049 A 
ATOM     55  C   UNL A   1      42.888  30.345  35.950  1.00  0.00     0.074 A 
ATOM     56  C   UNL A   1      37.669  33.972  35.883  1.00  0.00     0.029 A 
ATOM     57  N   UNL A   1      39.293  32.542  35.366  1.00  0.00    -0.354 N 
ATOM     58  N   UNL A   1      41.782  31.043  35.848  1.00  0.00    -0.248 NA
ATOM     59  C   UNL A   1      43.673  30.632  37.159  1.00  0.00     0.031 C 
ATOM     60  C   UNL A   1      38.620  33.991  36.908  1.00  0.00     0.029 A 
ATOM     61  C   UNL A   1      39.620  33.083  36.596  1.00  0.00     0.049 A 
ATOM     62  H   UNL A   1      39.824  31.865  34.887  1.00  0.00     0.167 HD
ATOM     63  C   UNL A   1      41.727  31.835  36.992  1.00  0.00     0.074 A 
ATOM     64  C   UNL A   1      42.902  31.517  37.777  1.00  0.00     0.031 C 
ATOM     65  C   UNL A   1      40.791  32.745  37.361  1.00  0.00     0.031 A 
BRANCH  52  66
ATOM     66  C   UNL A   1      36.256  33.538  33.251  1.00  0.00    -0.014 A 
ATOM     67  C   UNL A   1      34.978  32.996  33.472  1.00  0.00     0.010 A 
ATOM     68  C   UNL A   1      36.372  34.828  32.703  1.00  0.00     0.010 A 
ATOM     69  C   UNL A   1      33.836  33.727  33.135  1.00  0.00     0.020 A 
ATOM     70  C   UNL A   1      35.232  35.570  32.383  1.00  0.00     0.020 A 
ATOM     71  C   UNL A   1      33.970  35.010  32.593  1.00  0.00     0.054 A 
BRANCH  71  72
ATOM     72  S   UNL A   1      32.471  35.957  32.211  1.00  0.00     0.124 S 
ATOM     73  O   UNL A   1      31.418  35.009  32.567  1.00  0.00    -0.237 OA
ATOM     74  O   UNL A   1      32.593  37.118  33.087  1.00  0.00    -0.237 OA
ATOM     75  O   UNL A   1      32.595  36.241  30.784  1.00  0.00    -0.744 OA
ENDBRANCH  71  72
ENDBRANCH  52  66
BRANCH  53  76
ATOM     76  C   UNL A   1      44.739  28.634  35.295  1.00  0.00    -0.014 A 
ATOM     77  C   UNL A   1      44.801  27.449  36.048  1.00  0.00     0.010 A 
ATOM     78  C   UNL A   1      45.935  29.215  34.834  1.00  0.00     0.010 A 
ATOM     79  C   UNL A   1      46.039  26.875  36.362  1.00  0.00     0.020 A 
ATOM     80  C   UNL A   1      47.170  28.630  35.122  1.00  0.00     0.020 A 
ATOM     81  C   UNL A   1      47.215  27.473  35.901  1.00  0.00     0.054 A 
BRANCH  81  82
ATOM     82  S   UNL A   1      48.810  26.707  36.303  1.00  0.00     0.124 S 
ATOM     83  O   UNL A   1      49.400  27.693  37.203  1.00  0.00    -0.237 OA
ATOM     84  O   UNL A   1      48.409  25.445  36.920  1.00  0.00    -0.237 OA
ATOM     85  O   UNL A   1      49.462  26.576  35.001  1.00  0.00    -0.744 OA
ENDBRANCH  81  82
ENDBRANCH  53  76
BRANCH  65  86
ATOM     86  C   UNL A   1      40.977  33.436  38.684  1.00  0.00    -0.014 A 
ATOM     87  C   UNL A   1      41.676  34.651  38.778  1.00  0.00     0.010 A 
ATOM     88  C   UNL A   1      40.378  32.895  39.837  1.00  0.00     0.010 A 
ATOM     89  C   UNL A   1      41.800  35.299  40.010  1.00  0.00     0.020 A 
ATOM     90  C   UNL A   1      40.476  33.554  41.064  1.00  0.00     0.020 A 
ATOM     91  C   UNL A   1      41.198  34.746  41.145  1.00  0.00     0.054 A 
BRANCH  91  92
ATOM     92  S   UNL A   1      41.329  35.630  42.723  1.00  0.00     0.124 S 
ATOM     93  O   UNL A   1      40.804  34.648  43.666  1.00  0.00    -0.237 OA
ATOM     94  O   UNL A   1      42.761  35.898  42.825  1.00  0.00    -0.237 OA
ATOM     95  O   UNL A   1      40.495  36.814  42.526  1.00  0.00    -0.744 OA
ENDBRANCH  91  92
ENDBRANCH  65  86
ENDBRANCH  39  40
ENDBRANCH  32  34
ENDBRANCH  31  32
ENDBRANCH  30  31
ENDBRANCH  29  30
ENDBRANCH  28  29
ENDBRANCH   1  28
TORSDOF 21
ENDMDL
MODEL 2
REMARK VINA RESULT:     -11.0      6.121     11.277
REMARK SMILES CCC(=O)Nc1ccc(NC(=O)[C@@H]2CC=CC[C@@H]2C(=O)OCCOCCOC(=O)c2ccc(-c3c4nc(c(-c5ccc(S(=O)(=O)[O-])cc5)c5ccc([nH]5)c(-c5ccc(S(=O)(=O)[O-])cc5)c5nc(c(-c6ccc(S(=O)(=O)[O-])cc6)c6ccc3[nH]6)C=C5)C=C4)cc2)cc1
REMARK SMILES IDX 23 1 22 2 21 3 19 4 20 5 18 6 13 7 14 8 15 9 17 10 16 11
REMARK SMILES IDX 11 12 10 13 12 15 9 16 6 17 7 18 91 19 8 20 90 21 5 22 3 23
REMARK SMILES IDX 4 24 2 26 1 27 24 28 25 29 26 30 27 31 28 32 29 33 30 34
REMARK SMILES IDX 31 35 89 36 32 37 88 38 33 39 34 40 35 41 82 42 36 43 87 44
REMARK SMILES IDX 81 45 83 46 37 47 86 48 80 49 79 50 38 52 68 53 49 54 67 55
REMARK SMILES IDX 50 56 53 57 66 58 84 59 51 60 52 61 65 63 85 64 54 65 39 66
REMARK SMILES IDX 40 67 48 68 41 69 47 70 42 71 43 72 44 73 45 74 46 75 69 76
REMARK SMILES IDX 70 77 78 78 71 79 77 80 72 81 73 82 74 83 75 84 76 85 55 86
REMARK SMILES IDX 56 87 64 88 57 89 63 90 58 91 59 92 60 93 61 94 62 95
REMARK H PARENT 10 14 5 25 83 51 53 62
REMARK Flexibility Score: inf
ROOT
ATOM      1  C   UNL A   1      32.842  30.434  27.142  1.00  0.00     0.202 C 
ENDROOT
BRANCH   1   2
ATOM      2  C   UNL A   1      32.422  28.909  27.721  1.00  0.00     0.261 C 
BRANCH   2   3
ATOM      3  O   UNL A   1      31.226  27.505  26.867  1.00  0.00    -0.463 OA
BRANCH   3   4
ATOM      4  C   UNL A   1      30.623  26.626  25.927  1.00  0.00     0.310 C 
ATOM      5  O   UNL A   1      30.031  25.628  26.364  1.00  0.00    -0.252 OA
BRANCH   4   6
ATOM      6  C   UNL A   1      30.540  26.895  24.343  1.00  0.00     0.116 C 
ATOM      7  C   UNL A   1      31.407  27.808  23.402  1.00  0.00     0.097 C 
ATOM      8  C   UNL A   1      30.756  29.043  22.739  1.00  0.00     0.041 C 
ATOM      9  C   UNL A   1      29.271  28.994  22.611  1.00  0.00    -0.030 C 
ATOM     10  C   UNL A   1      29.069  26.813  23.852  1.00  0.00     0.043 C 
ATOM     11  C   UNL A   1      28.524  28.003  23.112  1.00  0.00    -0.030 C 
BRANCH   7  12
ATOM     12  C   UNL A   1      32.774  28.265  23.857  1.00  0.00     0.228 C 
ATOM     13  N   UNL A   1      33.646  27.374  24.385  1.00  0.00    -0.326 N 
ATOM     14  H   UNL A   1      34.434  27.720  24.863  1.00  0.00     0.169 HD
ATOM     15  O   UNL A   1      33.091  29.455  23.813  1.00  0.00    -0.274 OA
BRANCH  13  16
ATOM     16  C   UNL A   1      33.487  26.007  24.290  1.00  0.00     0.041 A 
ATOM     17  C   UNL A   1      34.008  22.449  24.414  1.00  0.00     0.041 A 
ATOM     18  C   UNL A   1      33.918  23.252  22.808  1.00  0.00     0.028 A 
ATOM     19  C   UNL A   1      33.939  23.401  25.912  1.00  0.00     0.028 A 
ATOM     20  C   UNL A   1      33.565  25.047  22.739  1.00  0.00     0.028 A 
ATOM     21  C   UNL A   1      33.649  25.159  25.863  1.00  0.00     0.028 A 
BRANCH  17  22
ATOM     22  N   UNL A   1      33.908  21.054  24.470  1.00  0.00    -0.326 N 
ATOM     23  C   UNL A   1      34.880  20.118  24.730  1.00  0.00     0.224 C 
ATOM     24  O   UNL A   1      34.611  18.929  24.524  1.00  0.00    -0.275 OA
ATOM     25  H   UNL A   1      33.009  20.690  24.297  1.00  0.00     0.169 HD
BRANCH  23  26
ATOM     26  C   UNL A   1      36.176  20.475  25.467  1.00  0.00     0.097 C 
ATOM     27  C   UNL A   1      37.488  20.279  24.735  1.00  0.00     0.014 C 
ENDBRANCH  23  26
ENDBRANCH  17  22
ENDBRANCH  13  16
ENDBRANCH   7  12
ENDBRANCH   4   6
ENDBRANCH   3   4
ENDBRANCH   2   3
ENDBRANCH   1   2
BRANCH   1  28
ATOM     28  O   UNL A   1      34.200  30.855  27.218  1.00  0.00    -0.374 OA
BRANCH  28  29
ATOM     29  C   UNL A   1      34.622  32.085  27.769  1.00  0.00     0.202 C 
BRANCH  29  30
ATOM     30  C   UNL A   1      34.862  32.280  29.272  1.00  0.00     0.261 C 
BRANCH  30  31
ATOM     31  O   UNL A   1      36.220  32.377  29.689  1.00  0.00    -0.460 OA
BRANCH  31  32
ATOM     32  C   UNL A   1      36.569  31.580  30.722  1.00  0.00     0.338 C 
ATOM     33  O   UNL A   1      35.968  31.440  31.770  1.00  0.00    -0.246 OA
BRANCH  32  34
ATOM     34  C   UNL A   1      37.701  30.747  30.276  1.00  0.00     0.060 A 
ATOM     35  C   UNL A   1      38.540  30.207  31.255  1.00  0.00     0.016 A 
ATOM     36  C   UNL A   1      37.940  30.518  28.917  1.00  0.00     0.016 A 
ATOM     37  C   UNL A   1      39.665  29.483  30.877  1.00  0.00     0.010 A 
ATOM     38  C   UNL A   1      39.083  29.813  28.537  1.00  0.00     0.010 A 
ATOM     39  C   UNL A   1      39.971  29.339  29.517  1.00  0.00    -0.014 A 
BRANCH  39  40
ATOM     40  C   UNL A   1      41.338  28.915  29.147  1.00  0.00     0.031 A 
ATOM     41  C   UNL A   1      42.437  29.941  29.228  1.00  0.00     0.074 A 
ATOM     42  C   UNL A   1      41.603  27.642  28.805  1.00  0.00     0.049 A 
ATOM     43  N   UNL A   1      43.714  29.804  28.991  1.00  0.00    -0.248 NA
ATOM     44  C   UNL A   1      42.042  31.301  29.640  1.00  0.00     0.031 C 
ATOM     45  C   UNL A   1      40.623  26.559  28.736  1.00  0.00     0.029 A 
ATOM     46  N   UNL A   1      42.788  27.050  28.451  1.00  0.00    -0.354 N 
ATOM     47  C   UNL A   1      44.273  31.056  29.220  1.00  0.00     0.074 A 
ATOM     48  C   UNL A   1      43.199  31.945  29.600  1.00  0.00     0.031 C 
ATOM     49  C   UNL A   1      41.248  25.434  28.343  1.00  0.00     0.029 A 
ATOM     50  C   UNL A   1      42.662  25.724  28.115  1.00  0.00     0.049 A 
ATOM     51  H   UNL A   1      43.647  27.530  28.439  1.00  0.00     0.167 HD
ATOM     52  C   UNL A   1      45.569  31.432  29.120  1.00  0.00     0.031 A 
ATOM     53  C   UNL A   1      43.583  24.856  27.654  1.00  0.00     0.031 A 
ATOM     54  C   UNL A   1      46.630  30.548  28.728  1.00  0.00     0.049 A 
ATOM     55  C   UNL A   1      45.011  25.317  27.496  1.00  0.00     0.074 A 
ATOM     56  C   UNL A   1      47.980  30.824  28.614  1.00  0.00     0.029 A 
ATOM     57  N   UNL A   1      46.459  29.219  28.371  1.00  0.00    -0.354 N 
ATOM     58  N   UNL A   1      45.532  26.490  27.764  1.00  0.00    -0.248 NA
ATOM     59  C   UNL A   1      45.974  24.333  26.981  1.00  0.00     0.031 C 
ATOM     60  C   UNL A   1      48.619  29.676  28.134  1.00  0.00     0.029 A 
ATOM     61  C   UNL A   1      47.673  28.670  28.005  1.00  0.00     0.049 A 
ATOM     62  H   UNL A   1      45.599  28.738  28.378  1.00  0.00     0.167 HD
ATOM     63  C   UNL A   1      46.889  26.377  27.474  1.00  0.00     0.074 A 
ATOM     64  C   UNL A   1      47.109  25.018  27.026  1.00  0.00     0.031 C 
ATOM     65  C   UNL A   1      47.867  27.312  27.569  1.00  0.00     0.031 A 
BRANCH  52  66
ATOM     66  C   UNL A   1      45.903  32.871  29.395  1.00  0.00    -0.014 A 
ATOM     67  C   UNL A   1      46.303  33.296  30.674  1.00  0.00     0.010 A 
ATOM     68  C   UNL A   1      45.869  33.799  28.340  1.00  0.00     0.010 A 
ATOM     69  C   UNL A   1      46.647  34.632  30.896  1.00  0.00     0.020 A 
ATOM     70  C   UNL A   1      46.232  35.132  28.553  1.00  0.00     0.020 A 
ATOM     71  C   UNL A   1      46.610  35.542  29.833  1.00  0.00     0.054 A 
BRANCH  71  72
ATOM     72  S   UNL A   1      47.109  37.259  30.137  1.00  0.00     0.124 S 
ATOM     73  O   UNL A   1      48.566  37.147  30.169  1.00  0.00    -0.237 OA
ATOM     74  O   UNL A   1      46.559  37.961  28.982  1.00  0.00    -0.237 OA
ATOM     75  O   UNL A   1      46.482  37.581  31.416  1.00  0.00    -0.744 OA
ENDBRANCH  71  72
ENDBRANCH  52  66
BRANCH  53  76
ATOM     76  C   UNL A   1      43.182  23.477  27.263  1.00  0.00    -0.014 A 
ATOM     77  C   UNL A   1      42.762  22.540  28.223  1.00  0.00     0.010 A 
ATOM     78  C   UNL A   1      43.257  23.087  25.913  1.00  0.00     0.010 A 
ATOM     79  C   UNL A   1      42.455  21.228  27.843  1.00  0.00     0.020 A 
ATOM     80  C   UNL A   1      42.924  21.786  25.527  1.00  0.00     0.020 A 
ATOM     81  C   UNL A   1      42.543  20.859  26.498  1.00  0.00     0.054 A 
BRANCH  81  82
ATOM     82  S   UNL A   1      42.125  19.160  26.021  1.00  0.00     0.124 S 
ATOM     83  O   UNL A   1      42.864  19.007  24.772  1.00  0.00    -0.237 OA
ATOM     84  O   UNL A   1      42.623  18.381  27.152  1.00  0.00    -0.237 OA
ATOM     85  O   UNL A   1      40.670  19.191  25.889  1.00  0.00    -0.744 OA
ENDBRANCH  81  82
ENDBRANCH  53  76
BRANCH  65  86
ATOM     86  C   UNL A   1      49.267  26.892  27.215  1.00  0.00    -0.014 A 
ATOM     87  C   UNL A   1      50.173  26.472  28.203  1.00  0.00     0.010 A 
ATOM     88  C   UNL A   1      49.656  26.851  25.863  1.00  0.00     0.010 A 
ATOM     89  C   UNL A   1      51.455  26.045  27.848  1.00  0.00     0.020 A 
ATOM     90  C   UNL A   1      50.926  26.398  25.502  1.00  0.00     0.020 A 
ATOM     91  C   UNL A   1      51.823  26.010  26.499  1.00  0.00     0.054 A 
BRANCH  91  92
ATOM     92  S   UNL A   1      53.474  25.404  26.059  1.00  0.00     0.124 S 
ATOM     93  O   UNL A   1      53.166  24.148  25.382  1.00  0.00    -0.237 OA
ATOM     94  O   UNL A   1      53.991  26.469  25.202  1.00  0.00    -0.237 OA
ATOM     95  O   UNL A   1      54.150  25.269  27.348  1.00  0.00    -0.744 OA
ENDBRANCH  91  92
ENDBRANCH  65  86
ENDBRANCH  39  40
ENDBRANCH  32  34
ENDBRANCH  31  32
ENDBRANCH  30  31
ENDBRANCH  29  30
ENDBRANCH  28  29
ENDBRANCH   1  28
TORSDOF 21
ENDMDL
MODEL 3
REMARK VINA RESULT:     -11.0      1.836      2.496
REMARK SMILES CCC(=O)Nc1ccc(NC(=O)[C@@H]2CC=CC[C@@H]2C(=O)OCCOCCOC(=O)c2ccc(-c3c4nc(c(-c5ccc(S(=O)(=O)[O-])cc5)c5ccc([nH]5)c(-c5ccc(S(=O)(=O)[O-])cc5)c5nc(c(-c6ccc(S(=O)(=O)[O-])cc6)c6ccc3[nH]6)C=C5)C=C4)cc2)cc1
REMARK SMILES IDX 23 1 22 2 21 3 19 4 20 5 18 6 13 7 14 8 15 9 17 10 16 11
REMARK SMILES IDX 11 12 10 13 12 15 9 16 6 17 7 18 91 19 8 20 90 21 5 22 3 23
REMARK SMILES IDX 4 24 2 26 1 27 24 28 25 29 26 30 27 31 28 32 29 33 30 34
REMARK SMILES IDX 31 35 89 36 32 37 88 38 33 39 34 40 35 41 82 42 36 43 87 44
REMARK SMILES IDX 81 45 83 46 37 47 86 48 80 49 79 50 38 52 68 53 49 54 67 55
REMARK SMILES IDX 50 56 53 57 66 58 84 59 51 60 52 61 65 63 85 64 54 65 39 66
REMARK SMILES IDX 40 67 48 68 41 69 47 70 42 71 43 72 44 73 45 74 46 75 69 76
REMARK SMILES IDX 70 77 78 78 71 79 77 80 72 81 73 82 74 83 75 84 76 85 55 86
REMARK SMILES IDX 56 87 64 88 57 89 63 90 58 91 59 92 60 93 61 94 62 95
REMARK H PARENT 10 14 5 25 83 51 53 62
REMARK Flexibility Score: inf
ROOT
ATOM      1  C   UNL A   1      37.428  21.517  25.284  1.00  0.00     0.202 C 
ENDROOT
BRANCH   1   2
ATOM      2  C   UNL A   1      37.182  22.989  24.503  1.00  0.00     0.261 C 
BRANCH   2   3
ATOM      3  O   UNL A   1      35.439  23.982  24.172  1.00  0.00    -0.463 OA
BRANCH   3   4
ATOM      4  C   UNL A   1      34.175  24.604  24.359  1.00  0.00     0.310 C 
ATOM      5  O   UNL A   1      34.156  25.827  24.556  1.00  0.00    -0.252 OA
BRANCH   4   6
ATOM      6  C   UNL A   1      32.756  23.861  24.209  1.00  0.00     0.116 C 
ATOM      7  C   UNL A   1      31.611  23.596  25.254  1.00  0.00     0.097 C 
ATOM      8  C   UNL A   1      31.313  22.145  25.695  1.00  0.00     0.041 C 
ATOM      9  C   UNL A   1      31.750  21.083  24.744  1.00  0.00    -0.030 C 
ATOM     10  C   UNL A   1      32.851  22.710  23.170  1.00  0.00     0.043 C 
ATOM     11  C   UNL A   1      32.438  21.337  23.625  1.00  0.00    -0.030 C 
BRANCH   7  12
ATOM     12  C   UNL A   1      31.544  24.425  26.515  1.00  0.00     0.228 C 
ATOM     13  N   UNL A   1      31.278  25.751  26.441  1.00  0.00    -0.326 N 
ATOM     14  H   UNL A   1      31.445  26.305  27.238  1.00  0.00     0.169 HD
ATOM     15  O   UNL A   1      31.791  23.927  27.615  1.00  0.00    -0.274 OA
BRANCH  13  16
ATOM     16  C   UNL A   1      30.783  26.365  25.309  1.00  0.00     0.041 A 
ATOM     17  C   UNL A   1      29.389  28.739  22.994  1.00  0.00     0.041 A 
ATOM     18  C   UNL A   1      28.395  27.322  23.480  1.00  0.00     0.028 A 
ATOM     19  C   UNL A   1      30.989  29.018  23.714  1.00  0.00     0.028 A 
ATOM     20  C   UNL A   1      29.133  26.066  24.588  1.00  0.00     0.028 A 
ATOM     21  C   UNL A   1      31.702  27.832  24.836  1.00  0.00     0.028 A 
BRANCH  17  22
ATOM     22  N   UNL A   1      28.983  29.491  21.885  1.00  0.00    -0.326 N 
ATOM     23  C   UNL A   1      28.093  30.535  21.815  1.00  0.00     0.224 C 
ATOM     24  O   UNL A   1      27.731  30.917  20.696  1.00  0.00    -0.275 OA
ATOM     25  H   UNL A   1      29.396  29.233  21.029  1.00  0.00     0.169 HD
BRANCH  23  26
ATOM     26  C   UNL A   1      27.723  31.372  23.046  1.00  0.00     0.097 C 
ATOM     27  C   UNL A   1      28.623  32.536  23.411  1.00  0.00     0.014 C 
ENDBRANCH  23  26
ENDBRANCH  17  22
ENDBRANCH  13  16
ENDBRANCH   7  12
ENDBRANCH   4   6
ENDBRANCH   3   4
ENDBRANCH   2   3
ENDBRANCH   1   2
BRANCH   1  28
ATOM     28  O   UNL A   1      38.674  21.274  25.929  1.00  0.00    -0.374 OA
BRANCH  28  29
ATOM     29  C   UNL A   1      39.712  22.224  26.038  1.00  0.00     0.202 C 
BRANCH  29  30
ATOM     30  C   UNL A   1      39.685  23.368  27.061  1.00  0.00     0.261 C 
BRANCH  30  31
ATOM     31  O   UNL A   1      39.372  24.662  26.557  1.00  0.00    -0.460 OA
BRANCH  31  32
ATOM     32  C   UNL A   1      40.425  25.490  26.390  1.00  0.00     0.338 C 
ATOM     33  O   UNL A   1      40.971  25.775  25.341  1.00  0.00    -0.246 OA
BRANCH  32  34
ATOM     34  C   UNL A   1      40.672  26.158  27.682  1.00  0.00     0.060 A 
ATOM     35  C   UNL A   1      39.675  26.080  28.659  1.00  0.00     0.016 A 
ATOM     36  C   UNL A   1      41.858  26.861  27.918  1.00  0.00     0.016 A 
ATOM     37  C   UNL A   1      39.832  26.762  29.860  1.00  0.00     0.010 A 
ATOM     38  C   UNL A   1      42.004  27.567  29.113  1.00  0.00     0.010 A 
ATOM     39  C   UNL A   1      40.968  27.556  30.063  1.00  0.00    -0.014 A 
BRANCH  39  40
ATOM     40  C   UNL A   1      40.940  28.556  31.151  1.00  0.00     0.031 A 
ATOM     41  C   UNL A   1      39.893  29.635  31.085  1.00  0.00     0.074 A 
ATOM     42  C   UNL A   1      41.783  28.473  32.194  1.00  0.00     0.049 A 
ATOM     43  N   UNL A   1      39.645  30.599  31.931  1.00  0.00    -0.248 NA
ATOM     44  C   UNL A   1      39.000  29.620  29.910  1.00  0.00     0.031 C 
ATOM     45  C   UNL A   1      42.807  27.445  32.380  1.00  0.00     0.029 A 
ATOM     46  N   UNL A   1      41.905  29.276  33.299  1.00  0.00    -0.354 N 
ATOM     47  C   UNL A   1      38.575  31.304  31.392  1.00  0.00     0.074 A 
ATOM     48  C   UNL A   1      38.228  30.671  30.140  1.00  0.00     0.031 C 
ATOM     49  C   UNL A   1      43.467  27.693  33.526  1.00  0.00     0.029 A 
ATOM     50  C   UNL A   1      42.927  28.904  34.140  1.00  0.00     0.049 A 
ATOM     51  H   UNL A   1      41.318  30.046  33.472  1.00  0.00     0.167 HD
ATOM     52  C   UNL A   1      37.939  32.386  31.896  1.00  0.00     0.031 A 
ATOM     53  C   UNL A   1      43.381  29.492  35.263  1.00  0.00     0.031 A 
ATOM     54  C   UNL A   1      38.296  33.020  33.134  1.00  0.00     0.049 A 
ATOM     55  C   UNL A   1      42.691  30.733  35.773  1.00  0.00     0.074 A 
ATOM     56  C   UNL A   1      37.704  34.111  33.743  1.00  0.00     0.029 A 
ATOM     57  N   UNL A   1      39.351  32.630  33.944  1.00  0.00    -0.354 N 
ATOM     58  N   UNL A   1      41.649  31.358  35.277  1.00  0.00    -0.248 NA
ATOM     59  C   UNL A   1      43.232  31.340  36.996  1.00  0.00     0.031 C 
ATOM     60  C   UNL A   1      38.436  34.415  34.895  1.00  0.00     0.029 A 
ATOM     61  C   UNL A   1      39.448  33.478  35.031  1.00  0.00     0.049 A 
ATOM     62  H   UNL A   1      39.944  31.862  33.770  1.00  0.00     0.167 HD
ATOM     63  C   UNL A   1      41.397  32.419  36.144  1.00  0.00     0.074 A 
ATOM     64  C   UNL A   1      42.384  32.339  37.200  1.00  0.00     0.031 C 
ATOM     65  C   UNL A   1      40.435  33.373  36.074  1.00  0.00     0.031 A 
BRANCH  52  66
ATOM     66  C   UNL A   1      36.821  32.981  31.087  1.00  0.00    -0.014 A 
ATOM     67  C   UNL A   1      35.476  32.693  31.378  1.00  0.00     0.010 A 
ATOM     68  C   UNL A   1      37.123  33.885  30.054  1.00  0.00     0.010 A 
ATOM     69  C   UNL A   1      34.452  33.289  30.636  1.00  0.00     0.020 A 
ATOM     70  C   UNL A   1      36.103  34.498  29.323  1.00  0.00     0.020 A 
ATOM     71  C   UNL A   1      34.772  34.189  29.613  1.00  0.00     0.054 A 
BRANCH  71  72
ATOM     72  S   UNL A   1      33.424  34.986  28.699  1.00  0.00     0.124 S 
ATOM     73  O   UNL A   1      34.148  35.960  27.885  1.00  0.00    -0.237 OA
ATOM     74  O   UNL A   1      32.832  33.871  27.966  1.00  0.00    -0.237 OA
ATOM     75  O   UNL A   1      32.583  35.556  29.748  1.00  0.00    -0.744 OA
ENDBRANCH  71  72
ENDBRANCH  52  66
BRANCH  53  76
ATOM     76  C   UNL A   1      44.579  28.949  35.960  1.00  0.00    -0.014 A 
ATOM     77  C   UNL A   1      44.458  27.969  36.960  1.00  0.00     0.010 A 
ATOM     78  C   UNL A   1      45.856  29.447  35.641  1.00  0.00     0.010 A 
ATOM     79  C   UNL A   1      45.589  27.521  37.652  1.00  0.00     0.020 A 
ATOM     80  C   UNL A   1      46.991  28.982  36.310  1.00  0.00     0.020 A 
ATOM     81  C   UNL A   1      46.848  28.034  37.325  1.00  0.00     0.054 A 
BRANCH  81  82
ATOM     82  S   UNL A   1      48.306  27.431  38.219  1.00  0.00     0.124 S 
ATOM     83  O   UNL A   1      48.075  25.990  38.236  1.00  0.00    -0.237 OA
ATOM     84  O   UNL A   1      49.408  27.887  37.375  1.00  0.00    -0.237 OA
ATOM     85  O   UNL A   1      48.209  28.097  39.516  1.00  0.00    -0.744 OA
ENDBRANCH  81  82
ENDBRANCH  53  76
BRANCH  65  86
ATOM     86  C   UNL A   1      40.380  34.387  37.183  1.00  0.00    -0.014 A 
ATOM     87  C   UNL A   1      41.009  35.638  37.058  1.00  0.00     0.010 A 
ATOM     88  C   UNL A   1      39.625  34.109  38.337  1.00  0.00     0.010 A 
ATOM     89  C   UNL A   1      40.909  36.582  38.082  1.00  0.00     0.020 A 
ATOM     90  C   UNL A   1      39.500  35.061  39.351  1.00  0.00     0.020 A 
ATOM     91  C   UNL A   1      40.155  36.288  39.222  1.00  0.00     0.054 A 
BRANCH  91  92
ATOM     92  S   UNL A   1      39.997  37.548  40.516  1.00  0.00     0.124 S 
ATOM     93  O   UNL A   1      38.561  37.533  40.781  1.00  0.00    -0.237 OA
ATOM     94  O   UNL A   1      40.840  37.020  41.586  1.00  0.00    -0.237 OA
ATOM     95  O   UNL A   1      40.501  38.764  39.879  1.00  0.00    -0.744 OA
ENDBRANCH  91  92
ENDBRANCH  65  86
ENDBRANCH  39  40
ENDBRANCH  32  34
ENDBRANCH  31  32
ENDBRANCH  30  31
ENDBRANCH  29  30
ENDBRANCH  28  29
ENDBRANCH   1  28
TORSDOF 21
ENDMDL
