MODEL 1
REMARK VINA RESULT:      -9.7      0.000      0.000
REMARK SMILES Cc1ccc(O)c(C[C@H](NC=O)C(=O)OCCOCCOC(=O)c2ccc(-c3c4nc(c(-c5ccc(S(=O)(=O)[O-])cc5)c5ccc([nH]5)c(-c5ccc(S(=O)(=O)[O-])cc5)c5nc(c(-c6ccc(S(=O)(=O)[O-])cc6)c6ccc3[nH]6)C=C5)C=C4)cc2)n1
REMARK SMILES IDX 18 1 17 2 16 3 15 4 13 5 14 6 9 7 8 8 7 9 1 10 2 11 3 12
REMARK SMILES IDX 84 13 4 14 5 15 6 16 10 18 11 19 12 21 19 22 20 23 21 24
REMARK SMILES IDX 22 25 23 26 24 27 25 28 83 29 26 30 82 31 27 32 28 33 29 34
REMARK SMILES IDX 76 35 30 36 81 37 75 38 77 39 31 40 80 41 74 42 73 43 32 45
REMARK SMILES IDX 62 46 43 47 61 48 44 49 47 50 60 51 78 52 45 53 46 54 59 56
REMARK SMILES IDX 79 57 48 58 33 59 34 60 42 61 35 62 41 63 36 64 37 65 38 66
REMARK SMILES IDX 39 67 40 68 63 69 64 70 72 71 65 72 71 73 66 74 67 75 68 76
REMARK SMILES IDX 69 77 70 78 49 79 50 80 58 81 51 82 57 83 52 84 53 85 54 86
REMARK SMILES IDX 55 87 56 88
REMARK H PARENT 6 17 10 20 77 44 47 55
REMARK Flexibility Score: inf
ROOT
ATOM      1  O   UNL A   1      38.181  22.491  26.173  1.00  0.00    -0.374 OA
ENDROOT
BRANCH   1   2
ATOM      2  C   UNL A   1      37.665  21.914  24.977  1.00  0.00     0.202 C 
BRANCH   2   3
ATOM      3  C   UNL A   1      36.896  20.598  25.109  1.00  0.00     0.261 C 
BRANCH   3   4
ATOM      4  O   UNL A   1      35.501  20.731  24.811  1.00  0.00    -0.462 OA
BRANCH   4   5
ATOM      5  C   UNL A   1      34.776  21.426  25.738  1.00  0.00     0.329 C 
ATOM      6  O   UNL A   1      35.074  21.551  26.923  1.00  0.00    -0.250 OA
BRANCH   5   7
ATOM      7  C   UNL A   1      33.468  21.977  25.147  1.00  0.00     0.198 C 
BRANCH   7   8
ATOM      8  C   UNL A   1      32.256  21.074  25.434  1.00  0.00     0.097 C 
BRANCH   8   9
ATOM      9  C   UNL A   1      32.356  19.728  24.773  1.00  0.00     0.085 A 
ATOM     10  C   UNL A   1      32.276  18.698  21.243  1.00  0.00     0.067 C 
ATOM     11  C   UNL A   1      32.411  18.611  22.732  1.00  0.00     0.038 A 
ATOM     12  C   UNL A   1      32.884  17.455  23.341  1.00  0.00     0.027 A 
ATOM     13  N   UNL A   1      32.146  19.737  23.432  1.00  0.00    -0.254 NA
ATOM     14  C   UNL A   1      33.079  17.449  24.722  1.00  0.00     0.050 A 
ATOM     15  C   UNL A   1      32.821  18.605  25.448  1.00  0.00     0.137 A 
BRANCH  15  16
ATOM     16  O   UNL A   1      33.076  18.666  26.787  1.00  0.00    -0.506 OA
ATOM     17  H   UNL A   1      33.931  18.461  27.112  1.00  0.00     0.293 HD
ENDBRANCH  15  16
ENDBRANCH   8   9
ENDBRANCH   7   8
BRANCH   7  18
ATOM     18  N   UNL A   1      33.599  22.213  23.704  1.00  0.00    -0.345 N 
ATOM     19  C   UNL A   1      34.176  23.315  23.156  1.00  0.00     0.337 C 
ATOM     20  H   UNL A   1      33.245  21.526  23.092  1.00  0.00     0.164 HD
ATOM     21  O   UNL A   1      34.331  23.465  21.953  1.00  0.00    -0.279 OA
ENDBRANCH   7  18
ENDBRANCH   5   7
ENDBRANCH   4   5
ENDBRANCH   3   4
ENDBRANCH   2   3
ENDBRANCH   1   2
BRANCH   1  22
ATOM     22  C   UNL A   1      39.562  22.296  26.476  1.00  0.00     0.202 C 
BRANCH  22  23
ATOM     23  C   UNL A   1      40.482  23.524  26.479  1.00  0.00     0.261 C 
BRANCH  23  24
ATOM     24  O   UNL A   1      39.777  24.779  26.510  1.00  0.00    -0.460 OA
BRANCH  24  25
ATOM     25  C   UNL A   1      40.581  25.863  26.635  1.00  0.00     0.338 C 
ATOM     26  O   UNL A   1      41.505  26.181  25.890  1.00  0.00    -0.246 OA
BRANCH  25  27
ATOM     27  C   UNL A   1      40.129  26.756  27.714  1.00  0.00     0.060 A 
ATOM     28  C   UNL A   1      40.694  28.037  27.766  1.00  0.00     0.016 A 
ATOM     29  C   UNL A   1      39.304  26.303  28.747  1.00  0.00     0.016 A 
ATOM     30  C   UNL A   1      40.494  28.842  28.885  1.00  0.00     0.010 A 
ATOM     31  C   UNL A   1      39.109  27.114  29.874  1.00  0.00     0.010 A 
ATOM     32  C   UNL A   1      39.743  28.366  29.968  1.00  0.00    -0.014 A 
BRANCH  32  33
ATOM     33  C   UNL A   1      39.777  29.122  31.247  1.00  0.00     0.031 A 
ATOM     34  C   UNL A   1      40.897  28.865  32.223  1.00  0.00     0.074 A 
ATOM     35  C   UNL A   1      38.873  30.085  31.500  1.00  0.00     0.049 A 
ATOM     36  N   UNL A   1      41.169  29.476  33.348  1.00  0.00    -0.248 NA
ATOM     37  C   UNL A   1      41.834  27.784  31.883  1.00  0.00     0.031 C 
ATOM     38  C   UNL A   1      37.764  30.455  30.623  1.00  0.00     0.029 A 
ATOM     39  N   UNL A   1      38.757  30.937  32.570  1.00  0.00    -0.354 N 
ATOM     40  C   UNL A   1      42.310  28.858  33.847  1.00  0.00     0.074 A 
ATOM     41  C   UNL A   1      42.658  27.803  32.920  1.00  0.00     0.031 C 
ATOM     42  C   UNL A   1      37.085  31.470  31.186  1.00  0.00     0.029 A 
ATOM     43  C   UNL A   1      37.700  31.808  32.468  1.00  0.00     0.049 A 
ATOM     44  H   UNL A   1      39.375  30.927  33.337  1.00  0.00     0.167 HD
ATOM     45  C   UNL A   1      43.013  29.146  34.969  1.00  0.00     0.031 A 
ATOM     46  C   UNL A   1      37.276  32.771  33.311  1.00  0.00     0.031 A 
ATOM     47  C   UNL A   1      42.661  30.182  35.905  1.00  0.00     0.049 A 
ATOM     48  C   UNL A   1      38.043  33.041  34.579  1.00  0.00     0.074 A 
ATOM     49  C   UNL A   1      43.313  30.549  37.069  1.00  0.00     0.029 A 
ATOM     50  N   UNL A   1      41.559  31.012  35.784  1.00  0.00    -0.354 N 
ATOM     51  N   UNL A   1      39.134  32.463  35.021  1.00  0.00    -0.248 NA
ATOM     52  C   UNL A   1      37.528  34.106  35.451  1.00  0.00     0.031 C 
ATOM     53  C   UNL A   1      42.581  31.576  37.675  1.00  0.00     0.029 A 
ATOM     54  C   UNL A   1      41.501  31.881  36.861  1.00  0.00     0.049 A 
ATOM     55  H   UNL A   1      40.912  30.989  35.043  1.00  0.00     0.167 HD
ATOM     56  C   UNL A   1      39.453  33.113  36.208  1.00  0.00     0.074 A 
ATOM     57  C   UNL A   1      38.444  34.133  36.411  1.00  0.00     0.031 C 
ATOM     58  C   UNL A   1      40.491  32.890  37.051  1.00  0.00     0.031 A 
BRANCH  45  59
ATOM     59  C   UNL A   1      44.225  28.301  35.258  1.00  0.00    -0.014 A 
ATOM     60  C   UNL A   1      45.523  28.795  35.032  1.00  0.00     0.010 A 
ATOM     61  C   UNL A   1      44.066  27.005  35.780  1.00  0.00     0.010 A 
ATOM     62  C   UNL A   1      46.639  27.991  35.285  1.00  0.00     0.020 A 
ATOM     63  C   UNL A   1      45.180  26.207  36.055  1.00  0.00     0.020 A 
ATOM     64  C   UNL A   1      46.459  26.699  35.788  1.00  0.00     0.054 A 
BRANCH  64  65
ATOM     65  S   UNL A   1      47.922  25.677  36.113  1.00  0.00     0.124 S 
ATOM     66  O   UNL A   1      47.926  24.781  34.960  1.00  0.00    -0.237 OA
ATOM     67  O   UNL A   1      49.003  26.660  36.147  1.00  0.00    -0.237 OA
ATOM     68  O   UNL A   1      47.623  25.041  37.394  1.00  0.00    -0.744 OA
ENDBRANCH  64  65
ENDBRANCH  45  59
BRANCH  46  69
ATOM     69  C   UNL A   1      36.064  33.565  32.974  1.00  0.00    -0.014 A 
ATOM     70  C   UNL A   1      34.782  32.996  33.079  1.00  0.00     0.010 A 
ATOM     71  C   UNL A   1      36.189  34.902  32.560  1.00  0.00     0.010 A 
ATOM     72  C   UNL A   1      33.647  33.750  32.767  1.00  0.00     0.020 A 
ATOM     73  C   UNL A   1      35.055  35.666  32.268  1.00  0.00     0.020 A 
ATOM     74  C   UNL A   1      33.791  35.082  32.366  1.00  0.00     0.054 A 
BRANCH  74  75
ATOM     75  S   UNL A   1      32.302  36.064  32.033  1.00  0.00     0.124 S 
ATOM     76  O   UNL A   1      31.270  35.292  32.718  1.00  0.00    -0.237 OA
ATOM     77  O   UNL A   1      32.631  37.355  32.632  1.00  0.00    -0.237 OA
ATOM     78  O   UNL A   1      32.217  36.069  30.574  1.00  0.00    -0.744 OA
ENDBRANCH  74  75
ENDBRANCH  46  69
BRANCH  58  79
ATOM     79  C   UNL A   1      40.613  33.790  38.253  1.00  0.00    -0.014 A 
ATOM     80  C   UNL A   1      41.302  35.013  38.181  1.00  0.00     0.010 A 
ATOM     81  C   UNL A   1      39.994  33.420  39.461  1.00  0.00     0.010 A 
ATOM     82  C   UNL A   1      41.400  35.835  39.308  1.00  0.00     0.020 A 
ATOM     83  C   UNL A   1      40.070  34.250  40.582  1.00  0.00     0.020 A 
ATOM     84  C   UNL A   1      40.787  35.444  40.504  1.00  0.00     0.054 A 
BRANCH  84  85
ATOM     85  S   UNL A   1      40.903  36.538  41.947  1.00  0.00     0.124 S 
ATOM     86  O   UNL A   1      41.922  37.493  41.523  1.00  0.00    -0.237 OA
ATOM     87  O   UNL A   1      39.548  37.073  42.059  1.00  0.00    -0.237 OA
ATOM     88  O   UNL A   1      41.301  35.640  43.029  1.00  0.00    -0.744 OA
ENDBRANCH  84  85
ENDBRANCH  58  79
ENDBRANCH  32  33
ENDBRANCH  25  27
ENDBRANCH  24  25
ENDBRANCH  23  24
ENDBRANCH  22  23
ENDBRANCH   1  22
TORSDOF 21
ENDMDL
MODEL 2
REMARK VINA RESULT:      -9.6      7.090     12.784
REMARK SMILES Cc1ccc(O)c(C[C@H](NC=O)C(=O)OCCOCCOC(=O)c2ccc(-c3c4nc(c(-c5ccc(S(=O)(=O)[O-])cc5)c5ccc([nH]5)c(-c5ccc(S(=O)(=O)[O-])cc5)c5nc(c(-c6ccc(S(=O)(=O)[O-])cc6)c6ccc3[nH]6)C=C5)C=C4)cc2)n1
REMARK SMILES IDX 18 1 17 2 16 3 15 4 13 5 14 6 9 7 8 8 7 9 1 10 2 11 3 12
REMARK SMILES IDX 84 13 4 14 5 15 6 16 10 18 11 19 12 21 19 22 20 23 21 24
REMARK SMILES IDX 22 25 23 26 24 27 25 28 83 29 26 30 82 31 27 32 28 33 29 34
REMARK SMILES IDX 76 35 30 36 81 37 75 38 77 39 31 40 80 41 74 42 73 43 32 45
REMARK SMILES IDX 62 46 43 47 61 48 44 49 47 50 60 51 78 52 45 53 46 54 59 56
REMARK SMILES IDX 79 57 48 58 33 59 34 60 42 61 35 62 41 63 36 64 37 65 38 66
REMARK SMILES IDX 39 67 40 68 63 69 64 70 72 71 65 72 71 73 66 74 67 75 68 76
REMARK SMILES IDX 69 77 70 78 49 79 50 80 58 81 51 82 57 83 52 84 53 85 54 86
REMARK SMILES IDX 55 87 56 88
REMARK H PARENT 6 17 10 20 77 44 47 55
REMARK Flexibility Score: inf
ROOT
ATOM      1  O   UNL A   1      33.922  30.948  27.469  1.00  0.00    -0.374 OA
ENDROOT
BRANCH   1   2
ATOM      2  C   UNL A   1      34.583  29.687  27.479  1.00  0.00     0.202 C 
BRANCH   2   3
ATOM      3  C   UNL A   1      34.510  28.847  26.202  1.00  0.00     0.261 C 
BRANCH   3   4
ATOM      4  O   UNL A   1      33.441  29.239  25.332  1.00  0.00    -0.462 OA
BRANCH   4   5
ATOM      5  C   UNL A   1      32.301  28.494  25.446  1.00  0.00     0.329 C 
ATOM      6  O   UNL A   1      31.331  28.785  26.139  1.00  0.00    -0.250 OA
BRANCH   5   7
ATOM      7  C   UNL A   1      32.397  27.176  24.659  1.00  0.00     0.198 C 
BRANCH   7   8
ATOM      8  C   UNL A   1      32.105  27.354  23.160  1.00  0.00     0.097 C 
BRANCH   8   9
ATOM      9  C   UNL A   1      30.715  27.859  22.889  1.00  0.00     0.085 A 
ATOM     10  C   UNL A   1      27.409  26.730  24.042  1.00  0.00     0.067 C 
ATOM     11  C   UNL A   1      28.457  27.564  23.371  1.00  0.00     0.038 A 
ATOM     12  C   UNL A   1      28.148  28.811  22.843  1.00  0.00     0.027 A 
ATOM     13  N   UNL A   1      29.721  27.085  23.395  1.00  0.00    -0.254 NA
ATOM     14  C   UNL A   1      29.172  29.591  22.307  1.00  0.00     0.050 A 
ATOM     15  C   UNL A   1      30.477  29.113  22.339  1.00  0.00     0.137 A 
BRANCH  15  16
ATOM     16  O   UNL A   1      31.518  29.879  21.900  1.00  0.00    -0.506 OA
ATOM     17  H   UNL A   1      31.351  30.663  21.415  1.00  0.00     0.293 HD
ENDBRANCH  15  16
ENDBRANCH   8   9
ENDBRANCH   7   8
BRANCH   7  18
ATOM     18  N   UNL A   1      31.517  26.152  25.234  1.00  0.00    -0.345 N 
ATOM     19  C   UNL A   1      31.781  25.469  26.379  1.00  0.00     0.337 C 
ATOM     20  H   UNL A   1      30.679  25.946  24.758  1.00  0.00     0.164 HD
ATOM     21  O   UNL A   1      31.006  24.664  26.875  1.00  0.00    -0.279 OA
ENDBRANCH   7  18
ENDBRANCH   5   7
ENDBRANCH   4   5
ENDBRANCH   3   4
ENDBRANCH   2   3
ENDBRANCH   1   2
BRANCH   1  22
ATOM     22  C   UNL A   1      34.624  32.083  27.973  1.00  0.00     0.202 C 
BRANCH  22  23
ATOM     23  C   UNL A   1      35.001  32.099  29.460  1.00  0.00     0.261 C 
BRANCH  23  24
ATOM     24  O   UNL A   1      36.420  32.099  29.701  1.00  0.00    -0.460 OA
BRANCH  24  25
ATOM     25  C   UNL A   1      36.832  31.162  30.588  1.00  0.00     0.338 C 
ATOM     26  O   UNL A   1      36.332  30.917  31.684  1.00  0.00    -0.246 OA
BRANCH  25  27
ATOM     27  C   UNL A   1      37.898  30.314  30.031  1.00  0.00     0.060 A 
ATOM     28  C   UNL A   1      38.877  29.846  30.917  1.00  0.00     0.016 A 
ATOM     29  C   UNL A   1      38.036  30.115  28.654  1.00  0.00     0.016 A 
ATOM     30  C   UNL A   1      40.032  29.243  30.426  1.00  0.00     0.010 A 
ATOM     31  C   UNL A   1      39.203  29.512  28.163  1.00  0.00     0.010 A 
ATOM     32  C   UNL A   1      40.226  29.118  29.044  1.00  0.00    -0.014 A 
BRANCH  32  33
ATOM     33  C   UNL A   1      41.571  28.731  28.545  1.00  0.00     0.031 A 
ATOM     34  C   UNL A   1      42.671  29.763  28.519  1.00  0.00     0.074 A 
ATOM     35  C   UNL A   1      41.835  27.459  28.197  1.00  0.00     0.049 A 
ATOM     36  N   UNL A   1      43.935  29.616  28.212  1.00  0.00    -0.248 NA
ATOM     37  C   UNL A   1      42.297  31.135  28.895  1.00  0.00     0.031 C 
ATOM     38  C   UNL A   1      40.871  26.361  28.212  1.00  0.00     0.029 A 
ATOM     39  N   UNL A   1      43.005  26.876  27.778  1.00  0.00    -0.354 N 
ATOM     40  C   UNL A   1      44.508  30.874  28.363  1.00  0.00     0.074 A 
ATOM     41  C   UNL A   1      43.448  31.777  28.755  1.00  0.00     0.031 C 
ATOM     42  C   UNL A   1      41.492  25.232  27.829  1.00  0.00     0.029 A 
ATOM     43  C   UNL A   1      42.891  25.531  27.526  1.00  0.00     0.049 A 
ATOM     44  H   UNL A   1      43.848  27.375  27.669  1.00  0.00     0.167 HD
ATOM     45  C   UNL A   1      45.801  31.245  28.200  1.00  0.00     0.031 A 
ATOM     46  C   UNL A   1      43.808  24.639  27.103  1.00  0.00     0.031 A 
ATOM     47  C   UNL A   1      46.856  30.355  27.793  1.00  0.00     0.049 A 
ATOM     48  C   UNL A   1      45.230  25.084  26.879  1.00  0.00     0.074 A 
ATOM     49  C   UNL A   1      48.198  30.639  27.602  1.00  0.00     0.029 A 
ATOM     50  N   UNL A   1      46.688  29.010  27.508  1.00  0.00    -0.354 N 
ATOM     51  N   UNL A   1      45.759  26.272  27.051  1.00  0.00    -0.248 NA
ATOM     52  C   UNL A   1      46.180  24.061  26.420  1.00  0.00     0.031 C 
ATOM     53  C   UNL A   1      48.834  29.472  27.162  1.00  0.00     0.029 A 
ATOM     54  C   UNL A   1      47.896  28.451  27.127  1.00  0.00     0.049 A 
ATOM     55  H   UNL A   1      45.835  28.522  27.568  1.00  0.00     0.167 HD
ATOM     56  C   UNL A   1      47.109  26.132  26.750  1.00  0.00     0.074 A 
ATOM     57  C   UNL A   1      47.318  24.744  26.392  1.00  0.00     0.031 C 
ATOM     58  C   UNL A   1      48.090  27.068  26.773  1.00  0.00     0.031 A 
BRANCH  45  59
ATOM     59  C   UNL A   1      46.137  32.693  28.440  1.00  0.00    -0.014 A 
ATOM     60  C   UNL A   1      46.537  33.143  29.711  1.00  0.00     0.010 A 
ATOM     61  C   UNL A   1      46.072  33.610  27.377  1.00  0.00     0.010 A 
ATOM     62  C   UNL A   1      46.825  34.494  29.924  1.00  0.00     0.020 A 
ATOM     63  C   UNL A   1      46.380  34.958  27.580  1.00  0.00     0.020 A 
ATOM     64  C   UNL A   1      46.738  35.395  28.858  1.00  0.00     0.054 A 
BRANCH  64  65
ATOM     65  S   UNL A   1      47.122  37.143  29.156  1.00  0.00     0.124 S 
ATOM     66  O   UNL A   1      47.737  37.536  27.892  1.00  0.00    -0.237 OA
ATOM     67  O   UNL A   1      45.807  37.722  29.421  1.00  0.00    -0.237 OA
ATOM     68  O   UNL A   1      48.025  37.108  30.304  1.00  0.00    -0.744 OA
ENDBRANCH  64  65
ENDBRANCH  45  59
BRANCH  46  69
ATOM     69  C   UNL A   1      43.411  23.224  26.874  1.00  0.00    -0.014 A 
ATOM     70  C   UNL A   1      43.367  22.694  25.573  1.00  0.00     0.010 A 
ATOM     71  C   UNL A   1      43.090  22.396  27.964  1.00  0.00     0.010 A 
ATOM     72  C   UNL A   1      42.999  21.361  25.365  1.00  0.00     0.020 A 
ATOM     73  C   UNL A   1      42.744  21.057  27.763  1.00  0.00     0.020 A 
ATOM     74  C   UNL A   1      42.692  20.550  26.463  1.00  0.00     0.054 A 
BRANCH  74  75
ATOM     75  S   UNL A   1      42.286  18.805  26.177  1.00  0.00     0.124 S 
ATOM     76  O   UNL A   1      40.912  18.888  25.691  1.00  0.00    -0.237 OA
ATOM     77  O   UNL A   1      43.285  18.402  25.191  1.00  0.00    -0.237 OA
ATOM     78  O   UNL A   1      42.448  18.198  27.497  1.00  0.00    -0.744 OA
ENDBRANCH  74  75
ENDBRANCH  46  69
BRANCH  58  79
ATOM     79  C   UNL A   1      49.487  26.617  26.439  1.00  0.00    -0.014 A 
ATOM     80  C   UNL A   1      50.306  26.006  27.404  1.00  0.00     0.010 A 
ATOM     81  C   UNL A   1      49.970  26.771  25.127  1.00  0.00     0.010 A 
ATOM     82  C   UNL A   1      51.599  25.590  27.071  1.00  0.00     0.020 A 
ATOM     83  C   UNL A   1      51.253  26.337  24.785  1.00  0.00     0.020 A 
ATOM     84  C   UNL A   1      52.066  25.764  25.764  1.00  0.00     0.054 A 
BRANCH  84  85
ATOM     85  S   UNL A   1      53.738  25.193  25.346  1.00  0.00     0.124 S 
ATOM     86  O   UNL A   1      53.911  25.725  23.997  1.00  0.00    -0.237 OA
ATOM     87  O   UNL A   1      54.562  25.817  26.378  1.00  0.00    -0.237 OA
ATOM     88  O   UNL A   1      53.637  23.738  25.434  1.00  0.00    -0.744 OA
ENDBRANCH  84  85
ENDBRANCH  58  79
ENDBRANCH  32  33
ENDBRANCH  25  27
ENDBRANCH  24  25
ENDBRANCH  23  24
ENDBRANCH  22  23
ENDBRANCH   1  22
TORSDOF 21
ENDMDL
MODEL 3
REMARK VINA RESULT:      -9.5      6.654      9.175
REMARK SMILES Cc1ccc(O)c(C[C@H](NC=O)C(=O)OCCOCCOC(=O)c2ccc(-c3c4nc(c(-c5ccc(S(=O)(=O)[O-])cc5)c5ccc([nH]5)c(-c5ccc(S(=O)(=O)[O-])cc5)c5nc(c(-c6ccc(S(=O)(=O)[O-])cc6)c6ccc3[nH]6)C=C5)C=C4)cc2)n1
REMARK SMILES IDX 18 1 17 2 16 3 15 4 13 5 14 6 9 7 8 8 7 9 1 10 2 11 3 12
REMARK SMILES IDX 84 13 4 14 5 15 6 16 10 18 11 19 12 21 19 22 20 23 21 24
REMARK SMILES IDX 22 25 23 26 24 27 25 28 83 29 26 30 82 31 27 32 28 33 29 34
REMARK SMILES IDX 76 35 30 36 81 37 75 38 77 39 31 40 80 41 74 42 73 43 32 45
REMARK SMILES IDX 62 46 43 47 61 48 44 49 47 50 60 51 78 52 45 53 46 54 59 56
REMARK SMILES IDX 79 57 48 58 33 59 34 60 42 61 35 62 41 63 36 64 37 65 38 66
REMARK SMILES IDX 39 67 40 68 63 69 64 70 72 71 65 72 71 73 66 74 67 75 68 76
REMARK SMILES IDX 69 77 70 78 49 79 50 80 58 81 51 82 57 83 52 84 53 85 54 86
REMARK SMILES IDX 55 87 56 88
REMARK H PARENT 6 17 10 20 77 44 47 55
REMARK Flexibility Score: inf
ROOT
ATOM      1  O   UNL A   1      37.491  22.476  26.023  1.00  0.00    -0.374 OA
ENDROOT
BRANCH   1   2
ATOM      2  C   UNL A   1      37.091  23.736  25.494  1.00  0.00     0.202 C 
BRANCH   2   3
ATOM      3  C   UNL A   1      35.596  24.056  25.497  1.00  0.00     0.261 C 
BRANCH   3   4
ATOM      4  O   UNL A   1      35.029  24.103  24.181  1.00  0.00    -0.462 OA
BRANCH   4   5
ATOM      5  C   UNL A   1      33.822  23.477  24.049  1.00  0.00     0.329 C 
ATOM      6  O   UNL A   1      33.651  22.261  24.043  1.00  0.00    -0.250 OA
BRANCH   5   7
ATOM      7  C   UNL A   1      32.679  24.479  23.818  1.00  0.00     0.198 C 
BRANCH   7   8
ATOM      8  C   UNL A   1      33.174  25.839  23.296  1.00  0.00     0.097 C 
BRANCH   8   9
ATOM      9  C   UNL A   1      32.149  26.929  23.434  1.00  0.00     0.085 A 
ATOM     10  C   UNL A   1      31.655  29.551  25.967  1.00  0.00     0.067 C 
ATOM     11  C   UNL A   1      31.466  28.747  24.717  1.00  0.00     0.038 A 
ATOM     12  C   UNL A   1      30.634  29.195  23.698  1.00  0.00     0.027 A 
ATOM     13  N   UNL A   1      32.216  27.628  24.596  1.00  0.00    -0.254 NA
ATOM     14  C   UNL A   1      30.557  28.460  22.516  1.00  0.00     0.050 A 
ATOM     15  C   UNL A   1      31.333  27.316  22.376  1.00  0.00     0.137 A 
BRANCH  15  16
ATOM     16  O   UNL A   1      31.349  26.614  21.206  1.00  0.00    -0.506 OA
ATOM     17  H   UNL A   1      30.971  25.757  21.169  1.00  0.00     0.293 HD
ENDBRANCH  15  16
ENDBRANCH   8   9
ENDBRANCH   7   8
BRANCH   7  18
ATOM     18  N   UNL A   1      31.879  24.659  25.036  1.00  0.00    -0.345 N 
ATOM     19  C   UNL A   1      32.090  23.986  26.198  1.00  0.00     0.337 C 
ATOM     20  H   UNL A   1      31.141  25.311  25.009  1.00  0.00     0.164 HD
ATOM     21  O   UNL A   1      31.453  24.195  27.221  1.00  0.00    -0.279 OA
ENDBRANCH   7  18
ENDBRANCH   5   7
ENDBRANCH   4   5
ENDBRANCH   3   4
ENDBRANCH   2   3
ENDBRANCH   1   2
BRANCH   1  22
ATOM     22  C   UNL A   1      38.884  22.174  26.070  1.00  0.00     0.202 C 
BRANCH  22  23
ATOM     23  C   UNL A   1      39.327  20.746  25.725  1.00  0.00     0.261 C 
BRANCH  23  24
ATOM     24  O   UNL A   1      40.160  20.136  26.728  1.00  0.00    -0.460 OA
BRANCH  24  25
ATOM     25  C   UNL A   1      41.420  19.863  26.312  1.00  0.00     0.338 C 
ATOM     26  O   UNL A   1      41.786  18.876  25.676  1.00  0.00    -0.246 OA
BRANCH  25  27
ATOM     27  C   UNL A   1      42.336  20.985  26.572  1.00  0.00     0.060 A 
ATOM     28  C   UNL A   1      42.486  21.398  27.902  1.00  0.00     0.016 A 
ATOM     29  C   UNL A   1      42.906  21.725  25.532  1.00  0.00     0.016 A 
ATOM     30  C   UNL A   1      43.144  22.590  28.193  1.00  0.00     0.010 A 
ATOM     31  C   UNL A   1      43.564  22.927  25.828  1.00  0.00     0.010 A 
ATOM     32  C   UNL A   1      43.642  23.388  27.155  1.00  0.00    -0.014 A 
BRANCH  32  33
ATOM     33  C   UNL A   1      44.086  24.771  27.469  1.00  0.00     0.031 A 
ATOM     34  C   UNL A   1      45.530  25.147  27.249  1.00  0.00     0.074 A 
ATOM     35  C   UNL A   1      43.202  25.704  27.865  1.00  0.00     0.049 A 
ATOM     36  N   UNL A   1      46.107  26.316  27.368  1.00  0.00    -0.248 NA
ATOM     37  C   UNL A   1      46.438  24.067  26.835  1.00  0.00     0.031 C 
ATOM     38  C   UNL A   1      41.774  25.477  28.080  1.00  0.00     0.029 A 
ATOM     39  N   UNL A   1      43.378  27.036  28.141  1.00  0.00    -0.354 N 
ATOM     40  C   UNL A   1      47.442  26.114  27.038  1.00  0.00     0.074 A 
ATOM     41  C   UNL A   1      47.596  24.705  26.749  1.00  0.00     0.031 C 
ATOM     42  C   UNL A   1      41.201  26.637  28.446  1.00  0.00     0.029 A 
ATOM     43  C   UNL A   1      42.222  27.681  28.506  1.00  0.00     0.049 A 
ATOM     44  H   UNL A   1      44.252  27.489  28.083  1.00  0.00     0.167 HD
ATOM     45  C   UNL A   1      48.450  27.018  26.973  1.00  0.00     0.031 A 
ATOM     46  C   UNL A   1      42.008  28.967  28.849  1.00  0.00     0.031 A 
ATOM     47  C   UNL A   1      48.306  28.417  27.278  1.00  0.00     0.049 A 
ATOM     48  C   UNL A   1      43.153  29.945  28.818  1.00  0.00     0.074 A 
ATOM     49  C   UNL A   1      49.269  29.411  27.238  1.00  0.00     0.029 A 
ATOM     50  N   UNL A   1      47.126  29.019  27.684  1.00  0.00    -0.354 N 
ATOM     51  N   UNL A   1      44.403  29.741  28.480  1.00  0.00    -0.248 NA
ATOM     52  C   UNL A   1      42.850  31.332  29.200  1.00  0.00     0.031 C 
ATOM     53  C   UNL A   1      48.680  30.608  27.660  1.00  0.00     0.029 A 
ATOM     54  C   UNL A   1      47.338  30.368  27.915  1.00  0.00     0.049 A 
ATOM     55  H   UNL A   1      46.264  28.557  27.792  1.00  0.00     0.167 HD
ATOM     56  C   UNL A   1      45.030  30.978  28.579  1.00  0.00     0.074 A 
ATOM     57  C   UNL A   1      44.020  31.927  29.002  1.00  0.00     0.031 C 
ATOM     58  C   UNL A   1      46.325  31.301  28.336  1.00  0.00     0.031 A 
BRANCH  45  59
ATOM     59  C   UNL A   1      49.809  26.506  26.578  1.00  0.00    -0.014 A 
ATOM     60  C   UNL A   1      50.214  26.489  25.231  1.00  0.00     0.010 A 
ATOM     61  C   UNL A   1      50.700  26.055  27.567  1.00  0.00     0.010 A 
ATOM     62  C   UNL A   1      51.471  25.990  24.877  1.00  0.00     0.020 A 
ATOM     63  C   UNL A   1      51.967  25.577  27.220  1.00  0.00     0.020 A 
ATOM     64  C   UNL A   1      52.337  25.531  25.874  1.00  0.00     0.054 A 
BRANCH  64  65
ATOM     65  S   UNL A   1      53.966  24.894  25.391  1.00  0.00     0.124 S 
ATOM     66  O   UNL A   1      54.432  25.926  24.469  1.00  0.00    -0.237 OA
ATOM     67  O   UNL A   1      54.676  24.824  26.666  1.00  0.00    -0.237 OA
ATOM     68  O   UNL A   1      53.665  23.602  24.779  1.00  0.00    -0.744 OA
ENDBRANCH  64  65
ENDBRANCH  45  59
BRANCH  46  69
ATOM     69  C   UNL A   1      40.643  29.409  29.240  1.00  0.00    -0.014 A 
ATOM     70  C   UNL A   1      40.325  29.646  30.589  1.00  0.00     0.010 A 
ATOM     71  C   UNL A   1      39.657  29.610  28.258  1.00  0.00     0.010 A 
ATOM     72  C   UNL A   1      39.042  30.068  30.949  1.00  0.00     0.020 A 
ATOM     73  C   UNL A   1      38.380  30.053  28.611  1.00  0.00     0.020 A 
ATOM     74  C   UNL A   1      38.077  30.271  29.957  1.00  0.00     0.054 A 
BRANCH  74  75
ATOM     75  S   UNL A   1      36.439  30.886  30.438  1.00  0.00     0.124 S 
ATOM     76  O   UNL A   1      35.809  31.117  29.142  1.00  0.00    -0.237 OA
ATOM     77  O   UNL A   1      35.899  29.776  31.218  1.00  0.00    -0.237 OA
ATOM     78  O   UNL A   1      36.742  32.089  31.211  1.00  0.00    -0.744 OA
ENDBRANCH  74  75
ENDBRANCH  46  69
BRANCH  58  79
ATOM     79  C   UNL A   1      46.717  32.747  28.484  1.00  0.00    -0.014 A 
ATOM     80  C   UNL A   1      47.218  33.247  29.699  1.00  0.00     0.010 A 
ATOM     81  C   UNL A   1      46.621  33.608  27.376  1.00  0.00     0.010 A 
ATOM     82  C   UNL A   1      47.580  34.592  29.813  1.00  0.00     0.020 A 
ATOM     83  C   UNL A   1      47.004  34.947  27.479  1.00  0.00     0.020 A 
ATOM     84  C   UNL A   1      47.465  35.435  28.703  1.00  0.00     0.054 A 
BRANCH  84  85
ATOM     85  S   UNL A   1      47.967  37.172  28.864  1.00  0.00     0.124 S 
ATOM     86  O   UNL A   1      46.678  37.851  28.974  1.00  0.00    -0.237 OA
ATOM     87  O   UNL A   1      48.779  37.165  30.078  1.00  0.00    -0.237 OA
ATOM     88  O   UNL A   1      48.706  37.433  27.631  1.00  0.00    -0.744 OA
ENDBRANCH  84  85
ENDBRANCH  58  79
ENDBRANCH  32  33
ENDBRANCH  25  27
ENDBRANCH  24  25
ENDBRANCH  23  24
ENDBRANCH  22  23
ENDBRANCH   1  22
TORSDOF 21
ENDMDL
