MODEL 1
REMARK VINA RESULT:      -9.3      0.000      0.000
REMARK SMILES C=CCS(=O)(=O)N[C@H](CC(N)=O)C(=O)OCCOCCOC(=O)c1ccc(-c2c3nc(c(-c4ccc(S(=O)(=O)[O-])cc4)c4ccc([nH]4)c(-c4ccc(S(=O)(=O)[O-])cc4)c4nc(c(-c5ccc(S(=O)(=O)[O-])cc5)c5ccc2[nH]5)C=C4)C=C3)cc1
REMARK SMILES IDX 17 1 16 2 15 3 13 4 14 5 8 6 7 7 4 9 5 10 6 11 3 12 2 13
REMARK SMILES IDX 1 14 9 15 10 16 11 17 12 18 18 21 19 22 20 23 21 24 22 25
REMARK SMILES IDX 23 26 24 27 25 28 83 29 26 30 82 31 27 32 28 33 29 34 76 35
REMARK SMILES IDX 30 36 81 37 75 38 77 39 31 40 80 41 74 42 73 43 32 45 62 46
REMARK SMILES IDX 43 47 61 48 44 49 47 50 60 51 78 52 45 53 46 54 59 56 79 57
REMARK SMILES IDX 48 58 33 59 34 60 42 61 35 62 41 63 36 64 37 65 38 66 39 67
REMARK SMILES IDX 40 68 63 69 64 70 72 71 65 72 71 73 66 74 67 75 68 76 69 77
REMARK SMILES IDX 70 78 49 79 50 80 58 81 51 82 57 83 52 84 53 85 54 86 55 87
REMARK SMILES IDX 56 88
REMARK H PARENT 7 8 11 19 11 20 77 44 47 55
REMARK Flexibility Score: inf
ROOT
ATOM      1  C   UNL A   1      38.423  23.163  26.001  1.00  0.00     0.202 C 
ENDROOT
BRANCH   1   2
ATOM      2  C   UNL A   1      36.924  23.372  25.751  1.00  0.00     0.261 C 
BRANCH   2   3
ATOM      3  O   UNL A   1      36.152  22.180  25.991  1.00  0.00    -0.462 OA
BRANCH   3   4
ATOM      4  C   UNL A   1      34.809  22.355  26.098  1.00  0.00     0.324 C 
ATOM      5  O   UNL A   1      34.263  23.102  26.909  1.00  0.00    -0.250 OA
BRANCH   4   6
ATOM      6  C   UNL A   1      33.997  21.559  25.053  1.00  0.00     0.188 C 
BRANCH   6   7
ATOM      7  N   UNL A   1      33.226  22.614  24.303  1.00  0.00    -0.200 NA
ATOM      8  H   UNL A   1      32.302  22.223  24.120  1.00  0.00     0.142 HD
BRANCH   7   9
ATOM      9  S   UNL A   1      33.790  23.210  22.848  1.00  0.00     0.215 S 
ATOM     10  O   UNL A   1      32.961  22.679  21.802  1.00  0.00    -0.212 OA
ATOM     11  O   UNL A   1      35.217  22.917  22.876  1.00  0.00    -0.212 OA
BRANCH   9  12
ATOM     12  C   UNL A   1      33.621  25.022  22.983  1.00  0.00     0.180 C 
BRANCH  12  13
ATOM     13  C   UNL A   1      32.370  25.505  22.292  1.00  0.00    -0.017 C 
ATOM     14  C   UNL A   1      32.286  25.841  20.996  1.00  0.00     0.005 C 
ENDBRANCH  12  13
ENDBRANCH   9  12
ENDBRANCH   7   9
ENDBRANCH   6   7
BRANCH   6  15
ATOM     15  C   UNL A   1      32.978  20.626  25.671  1.00  0.00     0.131 C 
BRANCH  15  16
ATOM     16  C   UNL A   1      33.173  19.178  25.352  1.00  0.00     0.219 C 
ATOM     17  N   UNL A   1      32.740  18.340  26.332  1.00  0.00    -0.370 N 
ATOM     18  O   UNL A   1      33.584  18.766  24.275  1.00  0.00    -0.275 OA
ATOM     19  H   UNL A   1      32.416  18.706  27.186  1.00  0.00     0.159 HD
ATOM     20  H   UNL A   1      32.750  17.366  26.188  1.00  0.00     0.159 HD
ENDBRANCH  15  16
ENDBRANCH   6  15
ENDBRANCH   4   6
ENDBRANCH   3   4
ENDBRANCH   2   3
ENDBRANCH   1   2
BRANCH   1  21
ATOM     21  O   UNL A   1      38.885  21.816  25.915  1.00  0.00    -0.374 OA
BRANCH  21  22
ATOM     22  C   UNL A   1      40.124  21.506  26.566  1.00  0.00     0.202 C 
BRANCH  22  23
ATOM     23  C   UNL A   1      41.269  22.500  26.329  1.00  0.00     0.261 C 
BRANCH  23  24
ATOM     24  O   UNL A   1      41.294  23.522  27.346  1.00  0.00    -0.460 OA
BRANCH  24  25
ATOM     25  C   UNL A   1      41.886  24.673  26.957  1.00  0.00     0.338 C 
ATOM     26  O   UNL A   1      42.642  24.837  26.014  1.00  0.00    -0.246 OA
BRANCH  25  27
ATOM     27  C   UNL A   1      41.369  25.785  27.771  1.00  0.00     0.060 A 
ATOM     28  C   UNL A   1      42.239  26.836  28.074  1.00  0.00     0.016 A 
ATOM     29  C   UNL A   1      40.097  25.729  28.347  1.00  0.00     0.016 A 
ATOM     30  C   UNL A   1      41.860  27.797  29.010  1.00  0.00     0.010 A 
ATOM     31  C   UNL A   1      39.701  26.724  29.250  1.00  0.00     0.010 A 
ATOM     32  C   UNL A   1      40.605  27.727  29.638  1.00  0.00    -0.014 A 
BRANCH  32  33
ATOM     33  C   UNL A   1      40.336  28.604  30.808  1.00  0.00     0.031 A 
ATOM     34  C   UNL A   1      41.200  28.488  32.041  1.00  0.00     0.074 A 
ATOM     35  C   UNL A   1      39.396  29.566  30.743  1.00  0.00     0.049 A 
ATOM     36  N   UNL A   1      41.231  29.252  33.103  1.00  0.00    -0.248 NA
ATOM     37  C   UNL A   1      42.149  27.363  32.087  1.00  0.00     0.031 C 
ATOM     38  C   UNL A   1      38.492  29.790  29.614  1.00  0.00     0.029 A 
ATOM     39  N   UNL A   1      39.063  30.551  31.640  1.00  0.00    -0.354 N 
ATOM     40  C   UNL A   1      42.203  28.707  33.937  1.00  0.00     0.074 A 
ATOM     41  C   UNL A   1      42.700  27.518  33.282  1.00  0.00     0.031 C 
ATOM     42  C   UNL A   1      37.730  30.867  29.872  1.00  0.00     0.029 A 
ATOM     43  C   UNL A   1      38.078  31.397  31.190  1.00  0.00     0.049 A 
ATOM     44  H   UNL A   1      39.489  30.641  32.522  1.00  0.00     0.167 HD
ATOM     45  C   UNL A   1      42.659  29.161  35.129  1.00  0.00     0.031 A 
ATOM     46  C   UNL A   1      37.527  32.486  31.763  1.00  0.00     0.031 A 
ATOM     47  C   UNL A   1      42.170  30.343  35.788  1.00  0.00     0.049 A 
ATOM     48  C   UNL A   1      38.037  32.962  33.097  1.00  0.00     0.074 A 
ATOM     49  C   UNL A   1      42.592  30.899  36.984  1.00  0.00     0.029 A 
ATOM     50  N   UNL A   1      41.149  31.150  35.313  1.00  0.00    -0.354 N 
ATOM     51  N   UNL A   1      38.993  32.461  33.842  1.00  0.00    -0.248 NA
ATOM     52  C   UNL A   1      37.406  34.168  33.652  1.00  0.00     0.031 C 
ATOM     53  C   UNL A   1      41.791  32.012  37.257  1.00  0.00     0.029 A 
ATOM     54  C   UNL A   1      40.910  32.185  36.202  1.00  0.00     0.049 A 
ATOM     55  H   UNL A   1      40.664  31.009  34.467  1.00  0.00     0.167 HD
ATOM     56  C   UNL A   1      39.095  33.306  34.943  1.00  0.00     0.074 A 
ATOM     57  C   UNL A   1      38.118  34.359  34.755  1.00  0.00     0.031 C 
ATOM     58  C   UNL A   1      39.925  33.219  36.013  1.00  0.00     0.031 A 
BRANCH  45  59
ATOM     59  C   UNL A   1      43.738  28.359  35.810  1.00  0.00    -0.014 A 
ATOM     60  C   UNL A   1      45.100  28.658  35.620  1.00  0.00     0.010 A 
ATOM     61  C   UNL A   1      43.383  27.315  36.683  1.00  0.00     0.010 A 
ATOM     62  C   UNL A   1      46.086  27.901  36.257  1.00  0.00     0.020 A 
ATOM     63  C   UNL A   1      44.366  26.573  37.344  1.00  0.00     0.020 A 
ATOM     64  C   UNL A   1      45.712  26.860  37.113  1.00  0.00     0.054 A 
BRANCH  64  65
ATOM     65  S   UNL A   1      47.012  25.905  37.944  1.00  0.00     0.124 S 
ATOM     66  O   UNL A   1      48.177  26.197  37.113  1.00  0.00    -0.237 OA
ATOM     67  O   UNL A   1      47.033  26.489  39.283  1.00  0.00    -0.237 OA
ATOM     68  O   UNL A   1      46.527  24.529  37.877  1.00  0.00    -0.744 OA
ENDBRANCH  64  65
ENDBRANCH  45  59
BRANCH  46  69
ATOM     69  C   UNL A   1      36.434  33.216  31.063  1.00  0.00    -0.014 A 
ATOM     70  C   UNL A   1      35.158  33.332  31.640  1.00  0.00     0.010 A 
ATOM     71  C   UNL A   1      36.676  33.806  29.809  1.00  0.00     0.010 A 
ATOM     72  C   UNL A   1      34.138  34.012  30.967  1.00  0.00     0.020 A 
ATOM     73  C   UNL A   1      35.666  34.510  29.147  1.00  0.00     0.020 A 
ATOM     74  C   UNL A   1      34.399  34.599  29.726  1.00  0.00     0.054 A 
BRANCH  74  75
ATOM     75  S   UNL A   1      33.080  35.529  28.898  1.00  0.00     0.124 S 
ATOM     76  O   UNL A   1      32.463  34.503  28.065  1.00  0.00    -0.237 OA
ATOM     77  O   UNL A   1      32.277  36.005  30.021  1.00  0.00    -0.237 OA
ATOM     78  O   UNL A   1      33.804  36.573  28.175  1.00  0.00    -0.744 OA
ENDBRANCH  74  75
ENDBRANCH  46  69
BRANCH  58  79
ATOM     79  C   UNL A   1      39.830  34.309  37.049  1.00  0.00    -0.014 A 
ATOM     80  C   UNL A   1      40.452  35.557  36.858  1.00  0.00     0.010 A 
ATOM     81  C   UNL A   1      39.096  34.086  38.228  1.00  0.00     0.010 A 
ATOM     82  C   UNL A   1      40.391  36.537  37.851  1.00  0.00     0.020 A 
ATOM     83  C   UNL A   1      39.008  35.075  39.211  1.00  0.00     0.020 A 
ATOM     84  C   UNL A   1      39.677  36.286  39.027  1.00  0.00     0.054 A 
BRANCH  84  85
ATOM     85  S   UNL A   1      39.616  37.571  40.307  1.00  0.00     0.124 S 
ATOM     86  O   UNL A   1      41.032  37.851  40.522  1.00  0.00    -0.237 OA
ATOM     87  O   UNL A   1      38.855  38.635  39.659  1.00  0.00    -0.237 OA
ATOM     88  O   UNL A   1      38.934  36.915  41.421  1.00  0.00    -0.744 OA
ENDBRANCH  84  85
ENDBRANCH  58  79
ENDBRANCH  32  33
ENDBRANCH  25  27
ENDBRANCH  24  25
ENDBRANCH  23  24
ENDBRANCH  22  23
ENDBRANCH  21  22
ENDBRANCH   1  21
TORSDOF 23
ENDMDL
MODEL 2
REMARK VINA RESULT:      -8.9      1.902      8.696
REMARK SMILES C=CCS(=O)(=O)N[C@H](CC(N)=O)C(=O)OCCOCCOC(=O)c1ccc(-c2c3nc(c(-c4ccc(S(=O)(=O)[O-])cc4)c4ccc([nH]4)c(-c4ccc(S(=O)(=O)[O-])cc4)c4nc(c(-c5ccc(S(=O)(=O)[O-])cc5)c5ccc2[nH]5)C=C4)C=C3)cc1
REMARK SMILES IDX 17 1 16 2 15 3 13 4 14 5 8 6 7 7 4 9 5 10 6 11 3 12 2 13
REMARK SMILES IDX 1 14 9 15 10 16 11 17 12 18 18 21 19 22 20 23 21 24 22 25
REMARK SMILES IDX 23 26 24 27 25 28 83 29 26 30 82 31 27 32 28 33 29 34 76 35
REMARK SMILES IDX 30 36 81 37 75 38 77 39 31 40 80 41 74 42 73 43 32 45 62 46
REMARK SMILES IDX 43 47 61 48 44 49 47 50 60 51 78 52 45 53 46 54 59 56 79 57
REMARK SMILES IDX 48 58 33 59 34 60 42 61 35 62 41 63 36 64 37 65 38 66 39 67
REMARK SMILES IDX 40 68 63 69 64 70 72 71 65 72 71 73 66 74 67 75 68 76 69 77
REMARK SMILES IDX 70 78 49 79 50 80 58 81 51 82 57 83 52 84 53 85 54 86 55 87
REMARK SMILES IDX 56 88
REMARK H PARENT 7 8 11 19 11 20 77 44 47 55
REMARK Flexibility Score: inf
ROOT
ATOM      1  C   UNL A   1      36.139  22.401  25.670  1.00  0.00     0.202 C 
ENDROOT
BRANCH   1   2
ATOM      2  C   UNL A   1      35.409  23.748  25.727  1.00  0.00     0.261 C 
BRANCH   2   3
ATOM      3  O   UNL A   1      34.010  23.633  25.405  1.00  0.00    -0.462 OA
BRANCH   3   4
ATOM      4  C   UNL A   1      33.521  24.565  24.545  1.00  0.00     0.324 C 
ATOM      5  O   UNL A   1      34.098  24.952  23.531  1.00  0.00    -0.250 OA
BRANCH   4   6
ATOM      6  C   UNL A   1      32.115  25.078  24.926  1.00  0.00     0.188 C 
BRANCH   6   7
ATOM      7  N   UNL A   1      32.313  25.732  26.269  1.00  0.00    -0.200 NA
ATOM      8  H   UNL A   1      31.643  25.299  26.905  1.00  0.00     0.142 HD
BRANCH   7   9
ATOM      9  S   UNL A   1      32.142  27.384  26.448  1.00  0.00     0.215 S 
ATOM     10  O   UNL A   1      31.434  27.625  27.675  1.00  0.00    -0.212 OA
ATOM     11  O   UNL A   1      31.577  27.819  25.176  1.00  0.00    -0.212 OA
BRANCH   9  12
ATOM     12  C   UNL A   1      33.846  28.032  26.518  1.00  0.00     0.180 C 
BRANCH  12  13
ATOM     13  C   UNL A   1      33.963  29.148  27.526  1.00  0.00    -0.017 C 
ATOM     14  C   UNL A   1      34.250  30.425  27.232  1.00  0.00     0.005 C 
ENDBRANCH  12  13
ENDBRANCH   9  12
ENDBRANCH   7   9
ENDBRANCH   6   7
BRANCH   6  15
ATOM     15  C   UNL A   1      31.105  23.968  25.123  1.00  0.00     0.131 C 
BRANCH  15  16
ATOM     16  C   UNL A   1      30.764  23.670  26.548  1.00  0.00     0.219 C 
ATOM     17  N   UNL A   1      29.532  24.111  26.918  1.00  0.00    -0.370 N 
ATOM     18  O   UNL A   1      31.470  23.003  27.293  1.00  0.00    -0.275 OA
ATOM     19  H   UNL A   1      28.990  24.645  26.293  1.00  0.00     0.159 HD
ATOM     20  H   UNL A   1      29.179  23.895  27.812  1.00  0.00     0.159 HD
ENDBRANCH  15  16
ENDBRANCH   6  15
ENDBRANCH   4   6
ENDBRANCH   3   4
ENDBRANCH   2   3
ENDBRANCH   1   2
BRANCH   1  21
ATOM     21  O   UNL A   1      37.540  22.462  25.409  1.00  0.00    -0.374 OA
BRANCH  21  22
ATOM     22  C   UNL A   1      38.314  23.374  26.198  1.00  0.00     0.202 C 
BRANCH  22  23
ATOM     23  C   UNL A   1      39.756  22.943  26.493  1.00  0.00     0.261 C 
BRANCH  23  24
ATOM     24  O   UNL A   1      40.675  24.042  26.334  1.00  0.00    -0.460 OA
BRANCH  24  25
ATOM     25  C   UNL A   1      41.581  24.154  27.330  1.00  0.00     0.338 C 
ATOM     26  O   UNL A   1      42.519  23.409  27.567  1.00  0.00    -0.246 OA
BRANCH  25  27
ATOM     27  C   UNL A   1      41.368  25.423  28.044  1.00  0.00     0.060 A 
ATOM     28  C   UNL A   1      42.482  26.226  28.303  1.00  0.00     0.016 A 
ATOM     29  C   UNL A   1      40.118  25.751  28.576  1.00  0.00     0.016 A 
ATOM     30  C   UNL A   1      42.358  27.322  29.155  1.00  0.00     0.010 A 
ATOM     31  C   UNL A   1      39.988  26.882  29.391  1.00  0.00     0.010 A 
ATOM     32  C   UNL A   1      41.120  27.636  29.740  1.00  0.00    -0.014 A 
BRANCH  32  33
ATOM     33  C   UNL A   1      41.077  28.642  30.835  1.00  0.00     0.031 A 
ATOM     34  C   UNL A   1      40.015  29.716  30.818  1.00  0.00     0.074 A 
ATOM     35  C   UNL A   1      41.910  28.547  31.888  1.00  0.00     0.049 A 
ATOM     36  N   UNL A   1      39.709  30.589  31.744  1.00  0.00    -0.248 NA
ATOM     37  C   UNL A   1      39.193  29.822  29.601  1.00  0.00     0.031 C 
ATOM     38  C   UNL A   1      42.981  27.560  32.033  1.00  0.00     0.029 A 
ATOM     39  N   UNL A   1      41.969  29.279  33.049  1.00  0.00    -0.354 N 
ATOM     40  C   UNL A   1      38.659  31.342  31.226  1.00  0.00     0.074 A 
ATOM     41  C   UNL A   1      38.416  30.858  29.885  1.00  0.00     0.031 C 
ATOM     42  C   UNL A   1      43.568  27.726  33.230  1.00  0.00     0.029 A 
ATOM     43  C   UNL A   1      42.929  28.840  33.929  1.00  0.00     0.049 A 
ATOM     44  H   UNL A   1      41.378  30.044  33.232  1.00  0.00     0.167 HD
ATOM     45  C   UNL A   1      37.945  32.332  31.813  1.00  0.00     0.031 A 
ATOM     46  C   UNL A   1      43.251  29.274  35.164  1.00  0.00     0.031 A 
ATOM     47  C   UNL A   1      38.181  32.821  33.146  1.00  0.00     0.049 A 
ATOM     48  C   UNL A   1      42.456  30.388  35.791  1.00  0.00     0.074 A 
ATOM     49  C   UNL A   1      37.489  33.800  33.839  1.00  0.00     0.029 A 
ATOM     50  N   UNL A   1      39.186  32.372  33.989  1.00  0.00    -0.354 N 
ATOM     51  N   UNL A   1      41.434  31.050  35.303  1.00  0.00    -0.248 NA
ATOM     52  C   UNL A   1      42.846  30.795  37.148  1.00  0.00     0.031 C 
ATOM     53  C   UNL A   1      38.109  33.980  35.080  1.00  0.00     0.029 A 
ATOM     54  C   UNL A   1      39.148  33.071  35.184  1.00  0.00     0.049 A 
ATOM     55  H   UNL A   1      39.831  31.661  33.770  1.00  0.00     0.167 HD
ATOM     56  C   UNL A   1      41.043  31.933  36.304  1.00  0.00     0.074 A 
ATOM     57  C   UNL A   1      41.926  31.707  37.430  1.00  0.00     0.031 C 
ATOM     58  C   UNL A   1      40.042  32.849  36.293  1.00  0.00     0.031 A 
BRANCH  45  59
ATOM     59  C   UNL A   1      36.846  32.969  31.004  1.00  0.00    -0.014 A 
ATOM     60  C   UNL A   1      37.136  33.815  29.917  1.00  0.00     0.010 A 
ATOM     61  C   UNL A   1      35.502  32.688  31.311  1.00  0.00     0.010 A 
ATOM     62  C   UNL A   1      36.103  34.400  29.180  1.00  0.00     0.020 A 
ATOM     63  C   UNL A   1      34.466  33.249  30.559  1.00  0.00     0.020 A 
ATOM     64  C   UNL A   1      34.774  34.115  29.509  1.00  0.00     0.054 A 
BRANCH  64  65
ATOM     65  S   UNL A   1      33.451  34.872  28.523  1.00  0.00     0.124 S 
ATOM     66  O   UNL A   1      34.191  35.849  27.729  1.00  0.00    -0.237 OA
ATOM     67  O   UNL A   1      32.914  33.735  27.780  1.00  0.00    -0.237 OA
ATOM     68  O   UNL A   1      32.552  35.437  29.527  1.00  0.00    -0.744 OA
ENDBRANCH  64  65
ENDBRANCH  45  59
BRANCH  46  69
ATOM     69  C   UNL A   1      44.375  28.635  35.902  1.00  0.00    -0.014 A 
ATOM     70  C   UNL A   1      45.711  28.920  35.572  1.00  0.00     0.010 A 
ATOM     71  C   UNL A   1      44.105  27.735  36.949  1.00  0.00     0.010 A 
ATOM     72  C   UNL A   1      46.757  28.305  36.266  1.00  0.00     0.020 A 
ATOM     73  C   UNL A   1      45.148  27.141  37.664  1.00  0.00     0.020 A 
ATOM     74  C   UNL A   1      46.469  27.422  37.310  1.00  0.00     0.054 A 
BRANCH  74  75
ATOM     75  S   UNL A   1      47.840  26.681  38.240  1.00  0.00     0.124 S 
ATOM     76  O   UNL A   1      47.552  25.256  38.122  1.00  0.00    -0.237 OA
ATOM     77  O   UNL A   1      49.011  27.156  37.505  1.00  0.00    -0.237 OA
ATOM     78  O   UNL A   1      47.686  27.246  39.579  1.00  0.00    -0.744 OA
ENDBRANCH  74  75
ENDBRANCH  46  69
BRANCH  58  79
ATOM     79  C   UNL A   1      39.831  33.655  37.548  1.00  0.00    -0.014 A 
ATOM     80  C   UNL A   1      39.048  33.165  38.610  1.00  0.00     0.010 A 
ATOM     81  C   UNL A   1      40.435  34.919  37.673  1.00  0.00     0.010 A 
ATOM     82  C   UNL A   1      38.827  33.948  39.746  1.00  0.00     0.020 A 
ATOM     83  C   UNL A   1      40.241  35.693  38.820  1.00  0.00     0.020 A 
ATOM     84  C   UNL A   1      39.418  35.212  39.839  1.00  0.00     0.054 A 
BRANCH  84  85
ATOM     85  S   UNL A   1      39.113  36.215  41.321  1.00  0.00     0.124 S 
ATOM     86  O   UNL A   1      37.873  35.635  41.828  1.00  0.00    -0.237 OA
ATOM     87  O   UNL A   1      40.302  35.964  42.130  1.00  0.00    -0.237 OA
ATOM     88  O   UNL A   1      38.998  37.575  40.798  1.00  0.00    -0.744 OA
ENDBRANCH  84  85
ENDBRANCH  58  79
ENDBRANCH  32  33
ENDBRANCH  25  27
ENDBRANCH  24  25
ENDBRANCH  23  24
ENDBRANCH  22  23
ENDBRANCH  21  22
ENDBRANCH   1  21
TORSDOF 23
ENDMDL
MODEL 3
REMARK VINA RESULT:      -8.8      6.328     11.104
REMARK SMILES C=CCS(=O)(=O)N[C@H](CC(N)=O)C(=O)OCCOCCOC(=O)c1ccc(-c2c3nc(c(-c4ccc(S(=O)(=O)[O-])cc4)c4ccc([nH]4)c(-c4ccc(S(=O)(=O)[O-])cc4)c4nc(c(-c5ccc(S(=O)(=O)[O-])cc5)c5ccc2[nH]5)C=C4)C=C3)cc1
REMARK SMILES IDX 17 1 16 2 15 3 13 4 14 5 8 6 7 7 4 9 5 10 6 11 3 12 2 13
REMARK SMILES IDX 1 14 9 15 10 16 11 17 12 18 18 21 19 22 20 23 21 24 22 25
REMARK SMILES IDX 23 26 24 27 25 28 83 29 26 30 82 31 27 32 28 33 29 34 76 35
REMARK SMILES IDX 30 36 81 37 75 38 77 39 31 40 80 41 74 42 73 43 32 45 62 46
REMARK SMILES IDX 43 47 61 48 44 49 47 50 60 51 78 52 45 53 46 54 59 56 79 57
REMARK SMILES IDX 48 58 33 59 34 60 42 61 35 62 41 63 36 64 37 65 38 66 39 67
REMARK SMILES IDX 40 68 63 69 64 70 72 71 65 72 71 73 66 74 67 75 68 76 69 77
REMARK SMILES IDX 70 78 49 79 50 80 58 81 51 82 57 83 52 84 53 85 54 86 55 87
REMARK SMILES IDX 56 88
REMARK H PARENT 7 8 11 19 11 20 77 44 47 55
REMARK Flexibility Score: inf
ROOT
ATOM      1  C   UNL A   1      35.833  21.077  25.451  1.00  0.00     0.202 C 
ENDROOT
BRANCH   1   2
ATOM      2  C   UNL A   1      34.716  21.692  26.303  1.00  0.00     0.261 C 
BRANCH   2   3
ATOM      3  O   UNL A   1      33.540  20.862  26.356  1.00  0.00    -0.462 OA
BRANCH   3   4
ATOM      4  C   UNL A   1      32.675  20.993  25.316  1.00  0.00     0.324 C 
ATOM      5  O   UNL A   1      31.843  20.149  24.988  1.00  0.00    -0.250 OA
BRANCH   4   6
ATOM      6  C   UNL A   1      32.787  22.350  24.588  1.00  0.00     0.188 C 
BRANCH   6   7
ATOM      7  N   UNL A   1      31.520  23.074  24.963  1.00  0.00    -0.200 NA
ATOM      8  H   UNL A   1      30.964  23.149  24.110  1.00  0.00     0.142 HD
BRANCH   7   9
ATOM      9  S   UNL A   1      31.576  24.604  25.632  1.00  0.00     0.215 S 
ATOM     10  O   UNL A   1      32.950  24.913  25.912  1.00  0.00    -0.212 OA
ATOM     11  O   UNL A   1      30.599  24.552  26.712  1.00  0.00    -0.212 OA
BRANCH   9  12
ATOM     12  C   UNL A   1      30.888  25.706  24.350  1.00  0.00     0.180 C 
BRANCH  12  13
ATOM     13  C   UNL A   1      31.075  27.156  24.723  1.00  0.00    -0.017 C 
ATOM     14  C   UNL A   1      30.551  28.196  24.057  1.00  0.00     0.005 C 
ENDBRANCH  12  13
ENDBRANCH   9  12
ENDBRANCH   7   9
ENDBRANCH   6   7
BRANCH   6  15
ATOM     15  C   UNL A   1      32.790  22.222  23.080  1.00  0.00     0.131 C 
BRANCH  15  16
ATOM     16  C   UNL A   1      33.446  23.353  22.353  1.00  0.00     0.219 C 
ATOM     17  N   UNL A   1      34.193  24.158  23.155  1.00  0.00    -0.370 N 
ATOM     18  O   UNL A   1      33.409  23.495  21.138  1.00  0.00    -0.275 OA
ATOM     19  H   UNL A   1      34.200  24.015  24.129  1.00  0.00     0.159 HD
ATOM     20  H   UNL A   1      34.730  24.884  22.762  1.00  0.00     0.159 HD
ENDBRANCH  15  16
ENDBRANCH   6  15
ENDBRANCH   4   6
ENDBRANCH   3   4
ENDBRANCH   2   3
ENDBRANCH   1   2
BRANCH   1  21
ATOM     21  O   UNL A   1      37.160  21.482  25.777  1.00  0.00    -0.374 OA
BRANCH  21  22
ATOM     22  C   UNL A   1      38.227  20.914  25.007  1.00  0.00     0.202 C 
BRANCH  22  23
ATOM     23  C   UNL A   1      38.990  19.761  25.674  1.00  0.00     0.261 C 
BRANCH  23  24
ATOM     24  O   UNL A   1      40.019  20.254  26.555  1.00  0.00    -0.460 OA
BRANCH  24  25
ATOM     25  C   UNL A   1      41.267  19.854  26.226  1.00  0.00     0.338 C 
ATOM     26  O   UNL A   1      41.602  18.776  25.763  1.00  0.00    -0.246 OA
BRANCH  25  27
ATOM     27  C   UNL A   1      42.197  20.986  26.373  1.00  0.00     0.060 A 
ATOM     28  C   UNL A   1      42.323  21.572  27.635  1.00  0.00     0.016 A 
ATOM     29  C   UNL A   1      42.825  21.554  25.262  1.00  0.00     0.016 A 
ATOM     30  C   UNL A   1      43.024  22.769  27.773  1.00  0.00     0.010 A 
ATOM     31  C   UNL A   1      43.569  22.730  25.413  1.00  0.00     0.010 A 
ATOM     32  C   UNL A   1      43.618  23.381  26.657  1.00  0.00    -0.014 A 
BRANCH  32  33
ATOM     33  C   UNL A   1      44.128  24.772  26.786  1.00  0.00     0.031 A 
ATOM     34  C   UNL A   1      43.204  25.862  27.273  1.00  0.00     0.074 A 
ATOM     35  C   UNL A   1      45.428  25.049  26.567  1.00  0.00     0.049 A 
ATOM     36  N   UNL A   1      43.485  27.099  27.598  1.00  0.00    -0.248 NA
ATOM     37  C   UNL A   1      41.779  25.518  27.410  1.00  0.00     0.031 C 
ATOM     38  C   UNL A   1      46.429  24.092  26.096  1.00  0.00     0.029 A 
ATOM     39  N   UNL A   1      46.132  26.215  26.739  1.00  0.00    -0.354 N 
ATOM     40  C   UNL A   1      42.278  27.676  27.981  1.00  0.00     0.074 A 
ATOM     41  C   UNL A   1      41.255  26.671  27.799  1.00  0.00     0.031 C 
ATOM     42  C   UNL A   1      47.626  24.701  26.048  1.00  0.00     0.029 A 
ATOM     43  C   UNL A   1      47.474  26.093  26.467  1.00  0.00     0.049 A 
ATOM     44  H   UNL A   1      45.716  27.058  27.029  1.00  0.00     0.167 HD
ATOM     45  C   UNL A   1      42.039  28.919  28.462  1.00  0.00     0.031 A 
ATOM     46  C   UNL A   1      48.473  26.994  26.558  1.00  0.00     0.031 A 
ATOM     47  C   UNL A   1      43.051  29.926  28.647  1.00  0.00     0.049 A 
ATOM     48  C   UNL A   1      48.182  28.377  27.078  1.00  0.00     0.074 A 
ATOM     49  C   UNL A   1      42.910  31.206  29.156  1.00  0.00     0.029 A 
ATOM     50  N   UNL A   1      44.390  29.771  28.325  1.00  0.00    -0.354 N 
ATOM     51  N   UNL A   1      47.043  28.884  27.484  1.00  0.00    -0.248 NA
ATOM     52  C   UNL A   1      49.322  29.300  27.173  1.00  0.00     0.031 C 
ATOM     53  C   UNL A   1      44.154  31.842  29.094  1.00  0.00     0.029 A 
ATOM     54  C   UNL A   1      45.082  30.939  28.603  1.00  0.00     0.049 A 
ATOM     55  H   UNL A   1      44.792  28.952  27.955  1.00  0.00     0.167 HD
ATOM     56  C   UNL A   1      47.334  30.176  27.907  1.00  0.00     0.074 A 
ATOM     57  C   UNL A   1      48.759  30.365  27.726  1.00  0.00     0.031 C 
ATOM     58  C   UNL A   1      46.497  31.122  28.404  1.00  0.00     0.031 A 
BRANCH  45  59
ATOM     59  C   UNL A   1      40.615  29.269  28.807  1.00  0.00    -0.014 A 
ATOM     60  C   UNL A   1      39.634  29.405  27.807  1.00  0.00     0.010 A 
ATOM     61  C   UNL A   1      40.243  29.425  30.155  1.00  0.00     0.010 A 
ATOM     62  C   UNL A   1      38.318  29.733  28.146  1.00  0.00     0.020 A 
ATOM     63  C   UNL A   1      38.922  29.725  30.500  1.00  0.00     0.020 A 
ATOM     64  C   UNL A   1      37.972  29.894  29.491  1.00  0.00     0.054 A 
BRANCH  64  65
ATOM     65  S   UNL A   1      36.253  30.300  29.906  1.00  0.00     0.124 S 
ATOM     66  O   UNL A   1      35.556  29.950  28.671  1.00  0.00    -0.237 OA
ATOM     67  O   UNL A   1      35.984  29.430  31.048  1.00  0.00    -0.237 OA
ATOM     68  O   UNL A   1      36.298  31.728  30.213  1.00  0.00    -0.744 OA
ENDBRANCH  64  65
ENDBRANCH  45  59
BRANCH  46  69
ATOM     69  C   UNL A   1      49.855  26.606  26.164  1.00  0.00    -0.014 A 
ATOM     70  C   UNL A   1      50.328  26.841  24.861  1.00  0.00     0.010 A 
ATOM     71  C   UNL A   1      50.710  26.002  27.103  1.00  0.00     0.010 A 
ATOM     72  C   UNL A   1      51.625  26.463  24.500  1.00  0.00     0.020 A 
ATOM     73  C   UNL A   1      52.016  25.649  26.754  1.00  0.00     0.020 A 
ATOM     74  C   UNL A   1      52.461  25.872  25.451  1.00  0.00     0.054 A 
BRANCH  74  75
ATOM     75  S   UNL A   1      54.162  25.445  24.981  1.00  0.00     0.124 S 
ATOM     76  O   UNL A   1      54.294  26.107  23.688  1.00  0.00    -0.237 OA
ATOM     77  O   UNL A   1      54.944  26.020  26.073  1.00  0.00    -0.237 OA
ATOM     78  O   UNL A   1      54.145  23.984  24.940  1.00  0.00    -0.744 OA
ENDBRANCH  74  75
ENDBRANCH  46  69
BRANCH  58  79
ATOM     79  C   UNL A   1      47.109  32.438  28.812  1.00  0.00    -0.014 A 
ATOM     80  C   UNL A   1      47.171  33.524  27.920  1.00  0.00     0.010 A 
ATOM     81  C   UNL A   1      47.618  32.593  30.115  1.00  0.00     0.010 A 
ATOM     82  C   UNL A   1      47.784  34.720  28.304  1.00  0.00     0.020 A 
ATOM     83  C   UNL A   1      48.205  33.797  30.512  1.00  0.00     0.020 A 
ATOM     84  C   UNL A   1      48.306  34.845  29.596  1.00  0.00     0.054 A 
BRANCH  84  85
ATOM     85  S   UNL A   1      49.103  36.404  30.071  1.00  0.00     0.124 S 
ATOM     86  O   UNL A   1      50.518  36.060  29.983  1.00  0.00    -0.237 OA
ATOM     87  O   UNL A   1      48.618  37.337  29.057  1.00  0.00    -0.237 OA
ATOM     88  O   UNL A   1      48.603  36.648  31.423  1.00  0.00    -0.744 OA
ENDBRANCH  84  85
ENDBRANCH  58  79
ENDBRANCH  32  33
ENDBRANCH  25  27
ENDBRANCH  24  25
ENDBRANCH  23  24
ENDBRANCH  22  23
ENDBRANCH  21  22
ENDBRANCH   1  21
TORSDOF 23
ENDMDL
