MODEL 1
REMARK VINA RESULT:     -10.7      0.000      0.000
REMARK SMILES CC(=O)c1c[nH]c(C(=O)N[C@H]2C=C[C@H](C(=O)OCCOCCOC(=O)c3ccc(-c4c5nc(c(-c6ccc(S(=O)(=O)[O-])cc6)c6ccc([nH]6)c(-c6ccc(S(=O)(=O)[O-])cc6)c6nc(c(-c7ccc(S(=O)(=O)[O-])cc7)c7ccc4[nH]7)C=C6)C=C5)cc3)C2)c1
REMARK SMILES IDX 20 1 19 2 18 3 17 4 15 5 16 6 14 7 11 8 12 9 86 10 13 11
REMARK SMILES IDX 10 12 8 13 9 14 7 16 4 17 5 18 87 19 6 20 2 22 1 23 3 24
REMARK SMILES IDX 21 25 22 26 23 27 24 28 25 29 26 30 27 31 85 32 28 33 84 34
REMARK SMILES IDX 29 35 30 36 31 37 78 38 32 39 83 40 77 41 79 42 33 43 82 44
REMARK SMILES IDX 76 45 75 46 34 48 64 49 45 50 63 51 46 52 49 53 62 54 80 55
REMARK SMILES IDX 47 56 48 57 61 59 81 60 50 61 35 62 36 63 44 64 37 65 43 66
REMARK SMILES IDX 38 67 39 68 40 69 41 70 42 71 65 72 66 73 74 74 67 75 73 76
REMARK SMILES IDX 68 77 69 78 70 79 71 80 72 81 51 82 52 83 60 84 53 85 59 86
REMARK SMILES IDX 54 87 55 88 56 89 57 90 58 91
REMARK H PARENT 10 15 6 21 79 47 49 58
REMARK Flexibility Score: inf
ROOT
ATOM      1  O   UNL A   1      32.195  33.391  27.634  1.00  0.00    -0.374 OA
ENDROOT
BRANCH   1   2
ATOM      2  C   UNL A   1      32.765  32.152  27.208  1.00  0.00     0.202 C 
BRANCH   2   3
ATOM      3  C   UNL A   1      31.817  31.024  26.813  1.00  0.00     0.261 C 
BRANCH   3   4
ATOM      4  O   UNL A   1      32.485  30.063  25.981  1.00  0.00    -0.463 OA
BRANCH   4   5
ATOM      5  C   UNL A   1      32.997  29.008  26.665  1.00  0.00     0.312 C 
ATOM      6  O   UNL A   1      32.626  28.660  27.779  1.00  0.00    -0.252 OA
BRANCH   5   7
ATOM      7  C   UNL A   1      34.050  28.265  25.843  1.00  0.00     0.124 C 
ATOM      8  C   UNL A   1      32.613  26.993  24.395  1.00  0.00     0.106 C 
ATOM      9  C   UNL A   1      33.322  26.087  25.356  1.00  0.00    -0.006 C 
ATOM     10  C   UNL A   1      33.579  28.187  24.384  1.00  0.00     0.048 C 
ATOM     11  C   UNL A   1      34.092  26.806  26.190  1.00  0.00    -0.014 C 
BRANCH   8  12
ATOM     12  N   UNL A   1      32.432  26.407  23.103  1.00  0.00    -0.345 N 
ATOM     13  C   UNL A   1      31.518  26.746  22.126  1.00  0.00     0.268 C 
ATOM     14  O   UNL A   1      31.512  26.071  21.112  1.00  0.00    -0.268 OA
ATOM     15  H   UNL A   1      33.040  25.664  22.883  1.00  0.00     0.164 HD
BRANCH  13  16
ATOM     16  C   UNL A   1      30.569  27.843  22.300  1.00  0.00     0.105 A 
ATOM     17  C   UNL A   1      28.848  29.316  22.689  1.00  0.00     0.035 A 
ATOM     18  C   UNL A   1      29.797  29.947  21.913  1.00  0.00     0.094 A 
ATOM     19  C   UNL A   1      29.367  28.019  22.960  1.00  0.00     0.045 A 
ATOM     20  N   UNL A   1      30.839  29.075  21.723  1.00  0.00    -0.356 N 
ATOM     21  H   UNL A   1      31.668  29.294  21.240  1.00  0.00     0.166 HD
BRANCH  17  22
ATOM     22  C   UNL A   1      27.566  29.839  23.150  1.00  0.00     0.161 C 
ATOM     23  C   UNL A   1      27.472  31.311  23.460  1.00  0.00     0.093 C 
ATOM     24  O   UNL A   1      26.572  29.118  23.227  1.00  0.00    -0.294 OA
ENDBRANCH  17  22
ENDBRANCH  13  16
ENDBRANCH   8  12
ENDBRANCH   5   7
ENDBRANCH   4   5
ENDBRANCH   3   4
ENDBRANCH   2   3
ENDBRANCH   1   2
BRANCH   1  25
ATOM     25  C   UNL A   1      33.021  34.483  28.023  1.00  0.00     0.202 C 
BRANCH  25  26
ATOM     26  C   UNL A   1      33.649  34.498  29.418  1.00  0.00     0.261 C 
BRANCH  26  27
ATOM     27  O   UNL A   1      34.872  33.784  29.514  1.00  0.00    -0.460 OA
BRANCH  27  28
ATOM     28  C   UNL A   1      34.787  32.813  30.450  1.00  0.00     0.338 C 
ATOM     29  O   UNL A   1      34.108  32.822  31.467  1.00  0.00    -0.246 OA
BRANCH  28  30
ATOM     30  C   UNL A   1      35.735  31.742  30.181  1.00  0.00     0.060 A 
ATOM     31  C   UNL A   1      36.305  31.161  31.318  1.00  0.00     0.016 A 
ATOM     32  C   UNL A   1      36.349  31.722  28.924  1.00  0.00     0.016 A 
ATOM     33  C   UNL A   1      37.619  30.771  31.253  1.00  0.00     0.010 A 
ATOM     34  C   UNL A   1      37.674  31.361  28.866  1.00  0.00     0.010 A 
ATOM     35  C   UNL A   1      38.306  30.953  30.048  1.00  0.00    -0.014 A 
BRANCH  35  36
ATOM     36  C   UNL A   1      39.720  30.593  30.016  1.00  0.00     0.031 A 
ATOM     37  C   UNL A   1      40.590  31.839  30.210  1.00  0.00     0.074 A 
ATOM     38  C   UNL A   1      39.972  29.271  29.769  1.00  0.00     0.049 A 
ATOM     39  N   UNL A   1      41.852  32.010  29.983  1.00  0.00    -0.248 NA
ATOM     40  C   UNL A   1      39.957  33.108  30.684  1.00  0.00     0.031 C 
ATOM     41  C   UNL A   1      38.940  28.213  29.587  1.00  0.00     0.029 A 
ATOM     42  N   UNL A   1      41.124  28.542  29.603  1.00  0.00    -0.354 N 
ATOM     43  C   UNL A   1      42.191  33.305  30.421  1.00  0.00     0.074 A 
ATOM     44  C   UNL A   1      40.977  33.957  30.798  1.00  0.00     0.031 C 
ATOM     45  C   UNL A   1      39.507  27.032  29.254  1.00  0.00     0.029 A 
ATOM     46  C   UNL A   1      40.947  27.189  29.214  1.00  0.00     0.049 A 
ATOM     47  H   UNL A   1      42.017  28.934  29.744  1.00  0.00     0.167 HD
ATOM     48  C   UNL A   1      43.472  33.754  30.500  1.00  0.00     0.031 A 
ATOM     49  C   UNL A   1      41.902  26.286  28.837  1.00  0.00     0.031 A 
ATOM     50  C   UNL A   1      44.366  32.806  29.931  1.00  0.00     0.049 A 
ATOM     51  C   UNL A   1      43.184  26.981  29.038  1.00  0.00     0.074 A 
ATOM     52  C   UNL A   1      44.662  32.500  28.629  1.00  0.00     0.029 A 
ATOM     53  N   UNL A   1      44.814  31.795  30.745  1.00  0.00    -0.354 N 
ATOM     54  N   UNL A   1      43.713  27.263  30.189  1.00  0.00    -0.248 NA
ATOM     55  C   UNL A   1      43.893  27.492  27.858  1.00  0.00     0.031 C 
ATOM     56  C   UNL A   1      44.873  31.104  28.650  1.00  0.00     0.029 A 
ATOM     57  C   UNL A   1      44.847  30.654  29.974  1.00  0.00     0.049 A 
ATOM     58  H   UNL A   1      45.064  31.871  31.694  1.00  0.00     0.167 HD
ATOM     59  C   UNL A   1      44.589  28.274  29.881  1.00  0.00     0.074 A 
ATOM     60  C   UNL A   1      44.871  28.155  28.467  1.00  0.00     0.031 C 
ATOM     61  C   UNL A   1      44.643  29.392  30.646  1.00  0.00     0.031 A 
BRANCH  48  62
ATOM     62  C   UNL A   1      44.052  34.960  31.169  1.00  0.00    -0.014 A 
ATOM     63  C   UNL A   1      43.915  35.035  32.575  1.00  0.00     0.010 A 
ATOM     64  C   UNL A   1      44.403  36.131  30.479  1.00  0.00     0.010 A 
ATOM     65  C   UNL A   1      43.971  36.253  33.251  1.00  0.00     0.020 A 
ATOM     66  C   UNL A   1      44.497  37.357  31.160  1.00  0.00     0.020 A 
ATOM     67  C   UNL A   1      44.218  37.414  32.529  1.00  0.00     0.054 A 
BRANCH  67  68
ATOM     68  S   UNL A   1      44.072  38.998  33.399  1.00  0.00     0.124 S 
ATOM     69  O   UNL A   1      42.798  38.848  34.095  1.00  0.00    -0.237 OA
ATOM     70  O   UNL A   1      45.256  39.001  34.255  1.00  0.00    -0.237 OA
ATOM     71  O   UNL A   1      44.091  39.985  32.322  1.00  0.00    -0.744 OA
ENDBRANCH  67  68
ENDBRANCH  48  62
BRANCH  49  72
ATOM     72  C   UNL A   1      41.984  24.933  28.168  1.00  0.00    -0.014 A 
ATOM     73  C   UNL A   1      42.667  23.808  28.644  1.00  0.00     0.010 A 
ATOM     74  C   UNL A   1      41.162  24.716  27.023  1.00  0.00     0.010 A 
ATOM     75  C   UNL A   1      42.410  22.520  28.110  1.00  0.00     0.020 A 
ATOM     76  C   UNL A   1      40.857  23.448  26.524  1.00  0.00     0.020 A 
ATOM     77  C   UNL A   1      41.462  22.343  27.095  1.00  0.00     0.054 A 
BRANCH  77  78
ATOM     78  S   UNL A   1      40.888  20.685  26.620  1.00  0.00     0.124 S 
ATOM     79  O   UNL A   1      40.811  20.000  27.906  1.00  0.00    -0.237 OA
ATOM     80  O   UNL A   1      39.609  20.958  25.969  1.00  0.00    -0.237 OA
ATOM     81  O   UNL A   1      41.940  20.211  25.720  1.00  0.00    -0.744 OA
ENDBRANCH  77  78
ENDBRANCH  49  72
BRANCH  61  82
ATOM     82  C   UNL A   1      44.101  29.247  32.060  1.00  0.00    -0.014 A 
ATOM     83  C   UNL A   1      42.838  29.770  32.376  1.00  0.00     0.010 A 
ATOM     84  C   UNL A   1      44.835  28.644  33.103  1.00  0.00     0.010 A 
ATOM     85  C   UNL A   1      42.317  29.678  33.675  1.00  0.00     0.020 A 
ATOM     86  C   UNL A   1      44.323  28.545  34.408  1.00  0.00     0.020 A 
ATOM     87  C   UNL A   1      43.057  29.057  34.684  1.00  0.00     0.054 A 
BRANCH  87  88
ATOM     88  S   UNL A   1      42.339  28.934  36.349  1.00  0.00     0.124 S 
ATOM     89  O   UNL A   1      43.496  28.607  37.177  1.00  0.00    -0.237 OA
ATOM     90  O   UNL A   1      41.785  30.269  36.550  1.00  0.00    -0.237 OA
ATOM     91  O   UNL A   1      41.348  27.865  36.227  1.00  0.00    -0.744 OA
ENDBRANCH  87  88
ENDBRANCH  61  82
ENDBRANCH  35  36
ENDBRANCH  28  30
ENDBRANCH  27  28
ENDBRANCH  26  27
ENDBRANCH  25  26
ENDBRANCH   1  25
TORSDOF 20
ENDMDL
MODEL 2
REMARK VINA RESULT:     -10.6      1.975      2.728
REMARK SMILES CC(=O)c1c[nH]c(C(=O)N[C@H]2C=C[C@H](C(=O)OCCOCCOC(=O)c3ccc(-c4c5nc(c(-c6ccc(S(=O)(=O)[O-])cc6)c6ccc([nH]6)c(-c6ccc(S(=O)(=O)[O-])cc6)c6nc(c(-c7ccc(S(=O)(=O)[O-])cc7)c7ccc4[nH]7)C=C6)C=C5)cc3)C2)c1
REMARK SMILES IDX 20 1 19 2 18 3 17 4 15 5 16 6 14 7 11 8 12 9 86 10 13 11
REMARK SMILES IDX 10 12 8 13 9 14 7 16 4 17 5 18 87 19 6 20 2 22 1 23 3 24
REMARK SMILES IDX 21 25 22 26 23 27 24 28 25 29 26 30 27 31 85 32 28 33 84 34
REMARK SMILES IDX 29 35 30 36 31 37 78 38 32 39 83 40 77 41 79 42 33 43 82 44
REMARK SMILES IDX 76 45 75 46 34 48 64 49 45 50 63 51 46 52 49 53 62 54 80 55
REMARK SMILES IDX 47 56 48 57 61 59 81 60 50 61 35 62 36 63 44 64 37 65 43 66
REMARK SMILES IDX 38 67 39 68 40 69 41 70 42 71 65 72 66 73 74 74 67 75 73 76
REMARK SMILES IDX 68 77 69 78 70 79 71 80 72 81 51 82 52 83 60 84 53 85 59 86
REMARK SMILES IDX 54 87 55 88 56 89 57 90 58 91
REMARK H PARENT 10 15 6 21 79 47 49 58
REMARK Flexibility Score: inf
ROOT
ATOM      1  O   UNL A   1      31.756  29.154  26.278  1.00  0.00    -0.374 OA
ENDROOT
BRANCH   1   2
ATOM      2  C   UNL A   1      31.751  27.955  27.055  1.00  0.00     0.202 C 
BRANCH   2   3
ATOM      3  C   UNL A   1      31.134  26.703  26.441  1.00  0.00     0.261 C 
BRANCH   3   4
ATOM      4  O   UNL A   1      31.886  25.533  26.798  1.00  0.00    -0.463 OA
BRANCH   4   5
ATOM      5  C   UNL A   1      31.267  24.366  26.486  1.00  0.00     0.312 C 
ATOM      6  O   UNL A   1      30.087  24.127  26.714  1.00  0.00    -0.252 OA
BRANCH   5   7
ATOM      7  C   UNL A   1      32.206  23.412  25.751  1.00  0.00     0.124 C 
ATOM      8  C   UNL A   1      31.892  24.187  23.496  1.00  0.00     0.106 C 
ATOM      9  C   UNL A   1      31.304  22.818  23.666  1.00  0.00    -0.006 C 
ATOM     10  C   UNL A   1      32.925  24.181  24.634  1.00  0.00     0.048 C 
ATOM     11  C   UNL A   1      31.445  22.406  24.937  1.00  0.00    -0.014 C 
BRANCH   8  12
ATOM     12  N   UNL A   1      32.479  24.388  22.209  1.00  0.00    -0.345 N 
ATOM     13  C   UNL A   1      32.568  25.555  21.477  1.00  0.00     0.268 C 
ATOM     14  O   UNL A   1      33.071  25.481  20.370  1.00  0.00    -0.268 OA
ATOM     15  H   UNL A   1      32.871  23.588  21.788  1.00  0.00     0.164 HD
BRANCH  13  16
ATOM     16  C   UNL A   1      32.053  26.826  21.982  1.00  0.00     0.105 A 
ATOM     17  C   UNL A   1      30.918  28.692  22.696  1.00  0.00     0.035 A 
ATOM     18  C   UNL A   1      32.250  29.017  22.559  1.00  0.00     0.094 A 
ATOM     19  C   UNL A   1      30.818  27.309  22.376  1.00  0.00     0.045 A 
ATOM     20  N   UNL A   1      32.925  27.886  22.174  1.00  0.00    -0.356 N 
ATOM     21  H   UNL A   1      33.900  27.834  22.050  1.00  0.00     0.166 HD
BRANCH  17  22
ATOM     22  C   UNL A   1      29.811  29.563  23.083  1.00  0.00     0.161 C 
ATOM     23  C   UNL A   1      28.456  29.293  22.482  1.00  0.00     0.093 C 
ATOM     24  O   UNL A   1      29.961  30.452  23.920  1.00  0.00    -0.294 OA
ENDBRANCH  17  22
ENDBRANCH  13  16
ENDBRANCH   8  12
ENDBRANCH   5   7
ENDBRANCH   4   5
ENDBRANCH   3   4
ENDBRANCH   2   3
ENDBRANCH   1   2
BRANCH   1  25
ATOM     25  C   UNL A   1      32.472  30.306  26.711  1.00  0.00     0.202 C 
BRANCH  25  26
ATOM     26  C   UNL A   1      33.635  30.150  27.692  1.00  0.00     0.261 C 
BRANCH  26  27
ATOM     27  O   UNL A   1      34.434  31.314  27.837  1.00  0.00    -0.460 OA
BRANCH  27  28
ATOM     28  C   UNL A   1      35.123  31.280  28.999  1.00  0.00     0.338 C 
ATOM     29  O   UNL A   1      35.010  32.043  29.948  1.00  0.00    -0.246 OA
BRANCH  28  30
ATOM     30  C   UNL A   1      36.163  30.263  28.962  1.00  0.00     0.060 A 
ATOM     31  C   UNL A   1      36.576  29.798  30.215  1.00  0.00     0.016 A 
ATOM     32  C   UNL A   1      36.971  30.205  27.822  1.00  0.00     0.016 A 
ATOM     33  C   UNL A   1      37.903  29.497  30.385  1.00  0.00     0.010 A 
ATOM     34  C   UNL A   1      38.307  29.934  27.999  1.00  0.00     0.010 A 
ATOM     35  C   UNL A   1      38.764  29.649  29.293  1.00  0.00    -0.014 A 
BRANCH  35  36
ATOM     36  C   UNL A   1      40.183  29.386  29.509  1.00  0.00     0.031 A 
ATOM     37  C   UNL A   1      40.894  30.662  29.972  1.00  0.00     0.074 A 
ATOM     38  C   UNL A   1      40.586  28.114  29.209  1.00  0.00     0.049 A 
ATOM     39  N   UNL A   1      42.157  30.936  30.013  1.00  0.00    -0.248 NA
ATOM     40  C   UNL A   1      40.079  31.835  30.416  1.00  0.00     0.031 C 
ATOM     41  C   UNL A   1      39.699  27.013  28.741  1.00  0.00     0.029 A 
ATOM     42  N   UNL A   1      41.805  27.482  29.213  1.00  0.00    -0.354 N 
ATOM     43  C   UNL A   1      42.299  32.203  30.613  1.00  0.00     0.074 A 
ATOM     44  C   UNL A   1      40.985  32.734  30.797  1.00  0.00     0.031 C 
ATOM     45  C   UNL A   1      40.415  25.909  28.430  1.00  0.00     0.029 A 
ATOM     46  C   UNL A   1      41.818  26.164  28.687  1.00  0.00     0.049 A 
ATOM     47  H   UNL A   1      42.619  27.916  29.559  1.00  0.00     0.167 HD
ATOM     48  C   UNL A   1      43.499  32.725  30.979  1.00  0.00     0.031 A 
ATOM     49  C   UNL A   1      42.898  25.366  28.432  1.00  0.00     0.031 A 
ATOM     50  C   UNL A   1      44.561  31.897  30.521  1.00  0.00     0.049 A 
ATOM     51  C   UNL A   1      44.058  26.121  28.938  1.00  0.00     0.074 A 
ATOM     52  C   UNL A   1      45.123  31.738  29.282  1.00  0.00     0.029 A 
ATOM     53  N   UNL A   1      44.929  30.843  31.321  1.00  0.00    -0.354 N 
ATOM     54  N   UNL A   1      44.333  26.324  30.189  1.00  0.00    -0.248 NA
ATOM     55  C   UNL A   1      44.932  26.789  27.966  1.00  0.00     0.031 C 
ATOM     56  C   UNL A   1      45.441  30.364  29.229  1.00  0.00     0.029 A 
ATOM     57  C   UNL A   1      45.202  29.787  30.480  1.00  0.00     0.049 A 
ATOM     58  H   UNL A   1      44.986  30.844  32.304  1.00  0.00     0.167 HD
ATOM     59  C   UNL A   1      45.164  27.415  30.143  1.00  0.00     0.074 A 
ATOM     60  C   UNL A   1      45.719  27.453  28.807  1.00  0.00     0.031 C 
ATOM     61  C   UNL A   1      44.979  28.456  30.993  1.00  0.00     0.031 A 
BRANCH  48  62
ATOM     62  C   UNL A   1      43.840  33.896  31.846  1.00  0.00    -0.014 A 
ATOM     63  C   UNL A   1      43.516  33.787  33.219  1.00  0.00     0.010 A 
ATOM     64  C   UNL A   1      44.133  35.171  31.339  1.00  0.00     0.010 A 
ATOM     65  C   UNL A   1      43.338  34.913  34.019  1.00  0.00     0.020 A 
ATOM     66  C   UNL A   1      43.991  36.310  32.151  1.00  0.00     0.020 A 
ATOM     67  C   UNL A   1      43.535  36.173  33.466  1.00  0.00     0.054 A 
BRANCH  67  68
ATOM     68  S   UNL A   1      43.089  37.616  34.468  1.00  0.00     0.124 S 
ATOM     69  O   UNL A   1      44.279  37.794  35.295  1.00  0.00    -0.237 OA
ATOM     70  O   UNL A   1      42.870  38.649  33.457  1.00  0.00    -0.237 OA
ATOM     71  O   UNL A   1      41.886  37.185  35.177  1.00  0.00    -0.744 OA
ENDBRANCH  67  68
ENDBRANCH  48  62
BRANCH  49  72
ATOM     72  C   UNL A   1      43.218  24.092  27.683  1.00  0.00    -0.014 A 
ATOM     73  C   UNL A   1      42.359  23.389  26.831  1.00  0.00     0.010 A 
ATOM     74  C   UNL A   1      44.569  23.637  27.709  1.00  0.00     0.010 A 
ATOM     75  C   UNL A   1      42.860  22.406  25.940  1.00  0.00     0.020 A 
ATOM     76  C   UNL A   1      45.086  22.711  26.800  1.00  0.00     0.020 A 
ATOM     77  C   UNL A   1      44.230  22.119  25.891  1.00  0.00     0.054 A 
BRANCH  77  78
ATOM     78  S   UNL A   1      44.932  21.107  24.554  1.00  0.00     0.124 S 
ATOM     79  O   UNL A   1      46.332  20.993  24.949  1.00  0.00    -0.237 OA
ATOM     80  O   UNL A   1      44.150  19.876  24.632  1.00  0.00    -0.237 OA
ATOM     81  O   UNL A   1      44.683  21.911  23.357  1.00  0.00    -0.744 OA
ENDBRANCH  77  78
ENDBRANCH  49  72
BRANCH  61  82
ATOM     82  C   UNL A   1      44.194  28.139  32.256  1.00  0.00    -0.014 A 
ATOM     83  C   UNL A   1      42.831  28.470  32.327  1.00  0.00     0.010 A 
ATOM     84  C   UNL A   1      44.782  27.562  33.401  1.00  0.00     0.010 A 
ATOM     85  C   UNL A   1      42.081  28.217  33.484  1.00  0.00     0.020 A 
ATOM     86  C   UNL A   1      44.040  27.302  34.565  1.00  0.00     0.020 A 
ATOM     87  C   UNL A   1      42.686  27.626  34.596  1.00  0.00     0.054 A 
BRANCH  87  88
ATOM     88  S   UNL A   1      41.675  27.289  36.069  1.00  0.00     0.124 S 
ATOM     89  O   UNL A   1      41.033  26.020  35.738  1.00  0.00    -0.237 OA
ATOM     90  O   UNL A   1      42.678  27.224  37.128  1.00  0.00    -0.237 OA
ATOM     91  O   UNL A   1      40.769  28.435  36.145  1.00  0.00    -0.744 OA
ENDBRANCH  87  88
ENDBRANCH  61  82
ENDBRANCH  35  36
ENDBRANCH  28  30
ENDBRANCH  27  28
ENDBRANCH  26  27
ENDBRANCH  25  26
ENDBRANCH   1  25
TORSDOF 20
ENDMDL
MODEL 3
REMARK VINA RESULT:     -10.3      3.685      9.848
REMARK SMILES CC(=O)c1c[nH]c(C(=O)N[C@H]2C=C[C@H](C(=O)OCCOCCOC(=O)c3ccc(-c4c5nc(c(-c6ccc(S(=O)(=O)[O-])cc6)c6ccc([nH]6)c(-c6ccc(S(=O)(=O)[O-])cc6)c6nc(c(-c7ccc(S(=O)(=O)[O-])cc7)c7ccc4[nH]7)C=C6)C=C5)cc3)C2)c1
REMARK SMILES IDX 20 1 19 2 18 3 17 4 15 5 16 6 14 7 11 8 12 9 86 10 13 11
REMARK SMILES IDX 10 12 8 13 9 14 7 16 4 17 5 18 87 19 6 20 2 22 1 23 3 24
REMARK SMILES IDX 21 25 22 26 23 27 24 28 25 29 26 30 27 31 85 32 28 33 84 34
REMARK SMILES IDX 29 35 30 36 31 37 78 38 32 39 83 40 77 41 79 42 33 43 82 44
REMARK SMILES IDX 76 45 75 46 34 48 64 49 45 50 63 51 46 52 49 53 62 54 80 55
REMARK SMILES IDX 47 56 48 57 61 59 81 60 50 61 35 62 36 63 44 64 37 65 43 66
REMARK SMILES IDX 38 67 39 68 40 69 41 70 42 71 65 72 66 73 74 74 67 75 73 76
REMARK SMILES IDX 68 77 69 78 70 79 71 80 72 81 51 82 52 83 60 84 53 85 59 86
REMARK SMILES IDX 54 87 55 88 56 89 57 90 58 91
REMARK H PARENT 10 15 6 21 79 47 49 58
REMARK Flexibility Score: inf
ROOT
ATOM      1  O   UNL A   1      33.754  29.768  26.928  1.00  0.00    -0.374 OA
ENDROOT
BRANCH   1   2
ATOM      2  C   UNL A   1      34.039  28.626  26.116  1.00  0.00     0.202 C 
BRANCH   2   3
ATOM      3  C   UNL A   1      33.044  27.472  26.125  1.00  0.00     0.261 C 
BRANCH   3   4
ATOM      4  O   UNL A   1      32.302  27.425  24.897  1.00  0.00    -0.463 OA
BRANCH   4   5
ATOM      5  C   UNL A   1      31.116  26.771  24.996  1.00  0.00     0.312 C 
ATOM      6  O   UNL A   1      30.531  26.558  26.051  1.00  0.00    -0.252 OA
BRANCH   5   7
ATOM      7  C   UNL A   1      30.568  26.391  23.621  1.00  0.00     0.124 C 
ATOM      8  C   UNL A   1      31.588  24.228  23.360  1.00  0.00     0.106 C 
ATOM      9  C   UNL A   1      32.184  25.209  22.394  1.00  0.00    -0.006 C 
ATOM     10  C   UNL A   1      30.227  24.894  23.617  1.00  0.00     0.048 C 
ATOM     11  C   UNL A   1      31.641  26.424  22.572  1.00  0.00    -0.014 C 
BRANCH   8  12
ATOM     12  N   UNL A   1      31.472  22.910  22.820  1.00  0.00    -0.345 N 
ATOM     13  C   UNL A   1      32.305  21.826  23.013  1.00  0.00     0.268 C 
ATOM     14  O   UNL A   1      32.038  20.804  22.407  1.00  0.00    -0.268 OA
ATOM     15  H   UNL A   1      30.697  22.755  22.232  1.00  0.00     0.164 HD
BRANCH  13  16
ATOM     16  C   UNL A   1      33.480  21.898  23.878  1.00  0.00     0.105 A 
ATOM     17  C   UNL A   1      35.506  22.114  24.943  1.00  0.00     0.035 A 
ATOM     18  C   UNL A   1      34.660  21.392  25.756  1.00  0.00     0.094 A 
ATOM     19  C   UNL A   1      34.741  22.462  23.794  1.00  0.00     0.045 A 
ATOM     20  N   UNL A   1      33.441  21.305  25.131  1.00  0.00    -0.356 N 
ATOM     21  H   UNL A   1      32.644  20.878  25.520  1.00  0.00     0.166 HD
BRANCH  17  22
ATOM     22  C   UNL A   1      36.904  22.464  25.178  1.00  0.00     0.161 C 
ATOM     23  C   UNL A   1      37.196  23.693  25.999  1.00  0.00     0.093 C 
ATOM     24  O   UNL A   1      37.819  21.748  24.773  1.00  0.00    -0.294 OA
ENDBRANCH  17  22
ENDBRANCH  13  16
ENDBRANCH   8  12
ENDBRANCH   5   7
ENDBRANCH   4   5
ENDBRANCH   3   4
ENDBRANCH   2   3
ENDBRANCH   1   2
BRANCH   1  25
ATOM     25  C   UNL A   1      32.509  30.449  26.825  1.00  0.00     0.202 C 
BRANCH  25  26
ATOM     26  C   UNL A   1      32.425  31.934  27.184  1.00  0.00     0.261 C 
BRANCH  26  27
ATOM     27  O   UNL A   1      33.622  32.469  27.727  1.00  0.00    -0.460 OA
BRANCH  27  28
ATOM     28  C   UNL A   1      33.374  33.626  28.381  1.00  0.00     0.338 C 
ATOM     29  O   UNL A   1      32.495  34.440  28.138  1.00  0.00    -0.246 OA
BRANCH  28  30
ATOM     30  C   UNL A   1      34.395  33.888  29.386  1.00  0.00     0.060 A 
ATOM     31  C   UNL A   1      35.652  34.225  28.872  1.00  0.00     0.016 A 
ATOM     32  C   UNL A   1      34.213  33.330  30.655  1.00  0.00     0.016 A 
ATOM     33  C   UNL A   1      36.762  33.769  29.537  1.00  0.00     0.010 A 
ATOM     34  C   UNL A   1      35.323  32.846  31.304  1.00  0.00     0.010 A 
ATOM     35  C   UNL A   1      36.576  33.015  30.701  1.00  0.00    -0.014 A 
BRANCH  35  36
ATOM     36  C   UNL A   1      37.765  32.484  31.360  1.00  0.00     0.031 A 
ATOM     37  C   UNL A   1      38.163  31.144  30.735  1.00  0.00     0.074 A 
ATOM     38  C   UNL A   1      38.231  33.238  32.402  1.00  0.00     0.049 A 
ATOM     39  N   UNL A   1      38.964  30.230  31.178  1.00  0.00    -0.248 NA
ATOM     40  C   UNL A   1      37.543  30.725  29.439  1.00  0.00     0.031 C 
ATOM     41  C   UNL A   1      37.656  34.534  32.858  1.00  0.00     0.029 A 
ATOM     42  N   UNL A   1      39.257  33.077  33.301  1.00  0.00    -0.354 N 
ATOM     43  C   UNL A   1      39.070  29.237  30.184  1.00  0.00     0.074 A 
ATOM     44  C   UNL A   1      38.136  29.567  29.155  1.00  0.00     0.031 C 
ATOM     45  C   UNL A   1      38.276  34.975  33.976  1.00  0.00     0.029 A 
ATOM     46  C   UNL A   1      39.322  34.040  34.340  1.00  0.00     0.049 A 
ATOM     47  H   UNL A   1      39.907  32.341  33.228  1.00  0.00     0.167 HD
ATOM     48  C   UNL A   1      39.968  28.219  30.240  1.00  0.00     0.031 A 
ATOM     49  C   UNL A   1      40.132  34.043  35.442  1.00  0.00     0.031 A 
ATOM     50  C   UNL A   1      40.640  28.218  31.494  1.00  0.00     0.049 A 
ATOM     51  C   UNL A   1      41.024  32.884  35.261  1.00  0.00     0.074 A 
ATOM     52  C   UNL A   1      40.246  27.802  32.738  1.00  0.00     0.029 A 
ATOM     53  N   UNL A   1      41.747  29.020  31.616  1.00  0.00    -0.354 N 
ATOM     54  N   UNL A   1      41.982  32.803  34.389  1.00  0.00    -0.248 NA
ATOM     55  C   UNL A   1      40.765  31.676  36.053  1.00  0.00     0.031 C 
ATOM     56  C   UNL A   1      40.851  28.731  33.612  1.00  0.00     0.029 A 
ATOM     57  C   UNL A   1      41.699  29.568  32.880  1.00  0.00     0.049 A 
ATOM     58  H   UNL A   1      42.441  29.173  30.934  1.00  0.00     0.167 HD
ATOM     59  C   UNL A   1      42.180  31.450  34.282  1.00  0.00     0.074 A 
ATOM     60  C   UNL A   1      41.655  30.860  35.495  1.00  0.00     0.031 C 
ATOM     61  C   UNL A   1      42.299  30.868  33.062  1.00  0.00     0.031 A 
BRANCH  48  62
ATOM     62  C   UNL A   1      40.416  27.244  29.197  1.00  0.00    -0.014 A 
ATOM     63  C   UNL A   1      39.476  26.266  28.794  1.00  0.00     0.010 A 
ATOM     64  C   UNL A   1      41.763  27.039  28.861  1.00  0.00     0.010 A 
ATOM     65  C   UNL A   1      39.876  25.061  28.220  1.00  0.00     0.020 A 
ATOM     66  C   UNL A   1      42.170  25.841  28.248  1.00  0.00     0.020 A 
ATOM     67  C   UNL A   1      41.229  24.839  27.991  1.00  0.00     0.054 A 
BRANCH  67  68
ATOM     68  S   UNL A   1      41.734  23.186  27.444  1.00  0.00     0.124 S 
ATOM     69  O   UNL A   1      40.496  22.659  26.878  1.00  0.00    -0.237 OA
ATOM     70  O   UNL A   1      42.789  23.480  26.477  1.00  0.00    -0.237 OA
ATOM     71  O   UNL A   1      42.190  22.542  28.674  1.00  0.00    -0.744 OA
ENDBRANCH  67  68
ENDBRANCH  48  62
BRANCH  49  72
ATOM     72  C   UNL A   1      40.243  34.758  36.769  1.00  0.00    -0.014 A 
ATOM     73  C   UNL A   1      41.225  35.687  37.136  1.00  0.00     0.010 A 
ATOM     74  C   UNL A   1      39.164  34.607  37.688  1.00  0.00     0.010 A 
ATOM     75  C   UNL A   1      41.048  36.526  38.264  1.00  0.00     0.020 A 
ATOM     76  C   UNL A   1      38.950  35.464  38.770  1.00  0.00     0.020 A 
ATOM     77  C   UNL A   1      39.884  36.448  39.037  1.00  0.00     0.054 A 
BRANCH  77  78
ATOM     78  S   UNL A   1      39.493  37.714  40.282  1.00  0.00     0.124 S 
ATOM     79  O   UNL A   1      39.335  36.922  41.496  1.00  0.00    -0.237 OA
ATOM     80  O   UNL A   1      40.667  38.583  40.241  1.00  0.00    -0.237 OA
ATOM     81  O   UNL A   1      38.266  38.324  39.768  1.00  0.00    -0.744 OA
ENDBRANCH  77  78
ENDBRANCH  49  72
BRANCH  61  82
ATOM     82  C   UNL A   1      42.704  31.798  31.929  1.00  0.00    -0.014 A 
ATOM     83  C   UNL A   1      41.712  32.460  31.188  1.00  0.00     0.010 A 
ATOM     84  C   UNL A   1      44.046  31.998  31.543  1.00  0.00     0.010 A 
ATOM     85  C   UNL A   1      42.047  33.305  30.120  1.00  0.00     0.020 A 
ATOM     86  C   UNL A   1      44.393  32.842  30.476  1.00  0.00     0.020 A 
ATOM     87  C   UNL A   1      43.386  33.500  29.773  1.00  0.00     0.054 A 
BRANCH  87  88
ATOM     88  S   UNL A   1      43.781  34.623  28.399  1.00  0.00     0.124 S 
ATOM     89  O   UNL A   1      44.645  35.616  29.031  1.00  0.00    -0.237 OA
ATOM     90  O   UNL A   1      44.444  33.733  27.450  1.00  0.00    -0.237 OA
ATOM     91  O   UNL A   1      42.477  35.126  27.968  1.00  0.00    -0.744 OA
ENDBRANCH  87  88
ENDBRANCH  61  82
ENDBRANCH  35  36
ENDBRANCH  28  30
ENDBRANCH  27  28
ENDBRANCH  26  27
ENDBRANCH  25  26
ENDBRANCH   1  25
TORSDOF 20
ENDMDL
