MODEL 1
REMARK VINA RESULT:     -10.5      0.000      0.000
REMARK SMILES CC(C)N1C[C@@H](C(=O)N2CCC(C(=O)OCCOCCOC(=O)c3ccc(-c4c5nc(c(-c6ccc(S(=O)(=O)[O-])cc6)c6ccc([nH]6)c(-c6ccc(S(=O)(=O)[O-])cc6)c6nc(c(-c7ccc(S(=O)(=O)[O-])cc7)c7ccc4[nH]7)C=C6)C=C5)cc3)CC2)CC1=O
REMARK SMILES IDX 19 1 18 2 17 3 16 4 15 5 13 6 14 7 12 8 7 9 8 10 9 11 10 12
REMARK SMILES IDX 85 13 11 14 84 15 6 16 4 17 5 18 87 19 86 20 88 21 2 22 1 23
REMARK SMILES IDX 3 24 20 25 21 26 22 27 23 28 24 29 25 30 83 31 26 32 82 33
REMARK SMILES IDX 27 34 28 35 29 36 76 37 30 38 81 39 75 40 77 41 31 42 80 43
REMARK SMILES IDX 74 44 73 45 32 47 62 48 43 49 61 50 44 51 47 52 60 53 78 54
REMARK SMILES IDX 45 55 46 56 59 58 79 59 48 60 33 61 34 62 42 63 35 64 41 65
REMARK SMILES IDX 36 66 37 67 38 68 39 69 40 70 63 71 64 72 72 73 65 74 71 75
REMARK SMILES IDX 66 76 67 77 68 78 69 79 70 80 49 81 50 82 58 83 51 84 57 85
REMARK SMILES IDX 52 86 53 87 54 88 55 89 56 90
REMARK H PARENT 77 46 47 57
REMARK Flexibility Score: inf
ROOT
ATOM      1  C   UNL A   1      39.813  22.256  26.548  1.00  0.00     0.202 C 
ENDROOT
BRANCH   1   2
ATOM      2  O   UNL A   1      38.423  22.343  26.239  1.00  0.00    -0.374 OA
BRANCH   2   3
ATOM      3  C   UNL A   1      37.911  21.456  25.244  1.00  0.00     0.202 C 
BRANCH   3   4
ATOM      4  C   UNL A   1      36.899  22.041  24.255  1.00  0.00     0.261 C 
BRANCH   4   5
ATOM      5  O   UNL A   1      35.666  22.397  24.904  1.00  0.00    -0.463 OA
BRANCH   5   6
ATOM      6  C   UNL A   1      34.592  21.634  24.587  1.00  0.00     0.309 C 
ATOM      7  O   UNL A   1      34.570  20.408  24.571  1.00  0.00    -0.252 OA
BRANCH   6   8
ATOM      8  C   UNL A   1      33.371  22.455  24.231  1.00  0.00     0.103 C 
ATOM      9  C   UNL A   1      30.964  25.659  25.201  1.00  0.00     0.227 C 
ATOM     10  O   UNL A   1      30.490  25.412  26.318  1.00  0.00    -0.274 OA
ATOM     11  N   UNL A   1      31.493  24.637  24.435  1.00  0.00    -0.342 N 
ATOM     12  C   UNL A   1      31.056  23.269  24.721  1.00  0.00     0.120 C 
ATOM     13  C   UNL A   1      32.612  24.730  23.503  1.00  0.00     0.120 C 
ATOM     14  C   UNL A   1      32.202  22.397  25.222  1.00  0.00     0.037 C 
ATOM     15  C   UNL A   1      33.795  23.904  24.005  1.00  0.00     0.037 C 
BRANCH   9  16
ATOM     16  C   UNL A   1      30.678  27.039  24.616  1.00  0.00     0.107 C 
ATOM     17  N   UNL A   1      29.084  28.174  23.302  1.00  0.00    -0.339 N 
ATOM     18  C   UNL A   1      29.201  27.112  24.273  1.00  0.00     0.133 C 
ATOM     19  C   UNL A   1      30.313  28.425  22.702  1.00  0.00     0.223 C 
ATOM     20  C   UNL A   1      31.388  27.641  23.419  1.00  0.00     0.115 C 
ATOM     21  O   UNL A   1      30.535  29.134  21.733  1.00  0.00    -0.275 OA
BRANCH  17  22
ATOM     22  C   UNL A   1      27.762  28.620  22.822  1.00  0.00     0.078 C 
ATOM     23  C   UNL A   1      26.625  28.005  23.650  1.00  0.00     0.031 C 
ATOM     24  C   UNL A   1      27.571  30.139  22.791  1.00  0.00     0.031 C 
ENDBRANCH  17  22
ENDBRANCH   9  16
ENDBRANCH   6   8
ENDBRANCH   5   6
ENDBRANCH   4   5
ENDBRANCH   3   4
ENDBRANCH   2   3
ENDBRANCH   1   2
BRANCH   1  25
ATOM     25  C   UNL A   1      40.589  23.574  26.672  1.00  0.00     0.261 C 
BRANCH  25  26
ATOM     26  O   UNL A   1      39.738  24.732  26.599  1.00  0.00    -0.460 OA
BRANCH  26  27
ATOM     27  C   UNL A   1      40.401  25.910  26.492  1.00  0.00     0.338 C 
ATOM     28  O   UNL A   1      41.045  26.303  25.526  1.00  0.00    -0.246 OA
BRANCH  27  29
ATOM     29  C   UNL A   1      40.106  26.782  27.641  1.00  0.00     0.060 A 
ATOM     30  C   UNL A   1      40.661  28.068  27.630  1.00  0.00     0.016 A 
ATOM     31  C   UNL A   1      39.390  26.328  28.752  1.00  0.00     0.016 A 
ATOM     32  C   UNL A   1      40.550  28.887  28.752  1.00  0.00     0.010 A 
ATOM     33  C   UNL A   1      39.289  27.149  29.881  1.00  0.00     0.010 A 
ATOM     34  C   UNL A   1      39.901  28.415  29.900  1.00  0.00    -0.014 A 
BRANCH  34  35
ATOM     35  C   UNL A   1      40.003  29.192  31.161  1.00  0.00     0.031 A 
ATOM     36  C   UNL A   1      41.162  28.933  32.087  1.00  0.00     0.074 A 
ATOM     37  C   UNL A   1      39.109  30.155  31.450  1.00  0.00     0.049 A 
ATOM     38  N   UNL A   1      41.445  29.494  33.234  1.00  0.00    -0.248 NA
ATOM     39  C   UNL A   1      42.133  27.912  31.660  1.00  0.00     0.031 C 
ATOM     40  C   UNL A   1      37.979  30.541  30.606  1.00  0.00     0.029 A 
ATOM     41  N   UNL A   1      39.021  30.990  32.536  1.00  0.00    -0.354 N 
ATOM     42  C   UNL A   1      42.623  28.896  33.667  1.00  0.00     0.074 A 
ATOM     43  C   UNL A   1      42.985  27.907  32.674  1.00  0.00     0.031 C 
ATOM     44  C   UNL A   1      37.311  31.541  31.207  1.00  0.00     0.029 A 
ATOM     45  C   UNL A   1      37.944  31.842  32.490  1.00  0.00     0.049 A 
ATOM     46  H   UNL A   1      39.667  30.978  33.279  1.00  0.00     0.167 HD
ATOM     47  C   UNL A   1      43.343  29.151  34.785  1.00  0.00     0.031 A 
ATOM     48  C   UNL A   1      37.509  32.751  33.384  1.00  0.00     0.031 A 
ATOM     49  C   UNL A   1      42.974  30.122  35.781  1.00  0.00     0.049 A 
ATOM     50  C   UNL A   1      38.278  32.956  34.664  1.00  0.00     0.074 A 
ATOM     51  C   UNL A   1      43.634  30.447  36.953  1.00  0.00     0.029 A 
ATOM     52  N   UNL A   1      41.844  30.923  35.725  1.00  0.00    -0.354 N 
ATOM     53  N   UNL A   1      39.386  32.377  35.060  1.00  0.00    -0.248 NA
ATOM     54  C   UNL A   1      37.739  33.941  35.612  1.00  0.00     0.031 C 
ATOM     55  C   UNL A   1      42.876  31.408  37.630  1.00  0.00     0.029 A 
ATOM     56  C   UNL A   1      41.776  31.725  36.850  1.00  0.00     0.049 A 
ATOM     57  H   UNL A   1      41.186  30.920  34.991  1.00  0.00     0.167 HD
ATOM     58  C   UNL A   1      39.692  32.947  36.292  1.00  0.00     0.074 A 
ATOM     59  C   UNL A   1      38.658  33.923  36.569  1.00  0.00     0.031 C 
ATOM     60  C   UNL A   1      40.737  32.690  37.116  1.00  0.00     0.031 A 
BRANCH  47  61
ATOM     61  C   UNL A   1      44.594  28.342  35.005  1.00  0.00    -0.014 A 
ATOM     62  C   UNL A   1      45.851  28.825  34.600  1.00  0.00     0.010 A 
ATOM     63  C   UNL A   1      44.515  27.099  35.659  1.00  0.00     0.010 A 
ATOM     64  C   UNL A   1      47.004  28.064  34.815  1.00  0.00     0.020 A 
ATOM     65  C   UNL A   1      45.669  26.347  35.899  1.00  0.00     0.020 A 
ATOM     66  C   UNL A   1      46.904  26.828  35.461  1.00  0.00     0.054 A 
BRANCH  66  67
ATOM     67  S   UNL A   1      48.419  25.871  35.749  1.00  0.00     0.124 S 
ATOM     68  O   UNL A   1      48.289  25.519  37.161  1.00  0.00    -0.237 OA
ATOM     69  O   UNL A   1      48.280  24.760  34.810  1.00  0.00    -0.237 OA
ATOM     70  O   UNL A   1      49.490  26.815  35.439  1.00  0.00    -0.744 OA
ENDBRANCH  66  67
ENDBRANCH  47  61
BRANCH  48  71
ATOM     71  C   UNL A   1      36.275  33.532  33.104  1.00  0.00    -0.014 A 
ATOM     72  C   UNL A   1      36.354  34.859  32.644  1.00  0.00     0.010 A 
ATOM     73  C   UNL A   1      35.008  32.945  33.282  1.00  0.00     0.010 A 
ATOM     74  C   UNL A   1      35.190  35.585  32.374  1.00  0.00     0.020 A 
ATOM     75  C   UNL A   1      33.844  33.660  32.988  1.00  0.00     0.020 A 
ATOM     76  C   UNL A   1      33.943  34.979  32.542  1.00  0.00     0.054 A 
BRANCH  76  77
ATOM     77  S   UNL A   1      32.449  35.917  32.118  1.00  0.00     0.124 S 
ATOM     78  O   UNL A   1      31.395  35.081  32.681  1.00  0.00    -0.237 OA
ATOM     79  O   UNL A   1      32.676  37.193  32.793  1.00  0.00    -0.237 OA
ATOM     80  O   UNL A   1      32.488  35.980  30.658  1.00  0.00    -0.744 OA
ENDBRANCH  76  77
ENDBRANCH  48  71
BRANCH  60  81
ATOM     81  C   UNL A   1      40.838  33.494  38.385  1.00  0.00    -0.014 A 
ATOM     82  C   UNL A   1      40.242  33.054  39.579  1.00  0.00     0.010 A 
ATOM     83  C   UNL A   1      41.594  34.681  38.393  1.00  0.00     0.010 A 
ATOM     84  C   UNL A   1      40.375  33.801  40.752  1.00  0.00     0.020 A 
ATOM     85  C   UNL A   1      41.751  35.418  39.571  1.00  0.00     0.020 A 
ATOM     86  C   UNL A   1      41.128  34.979  40.741  1.00  0.00     0.054 A 
BRANCH  86  87
ATOM     87  S   UNL A   1      41.323  35.909  42.287  1.00  0.00     0.124 S 
ATOM     88  O   UNL A   1      41.402  34.838  43.277  1.00  0.00    -0.237 OA
ATOM     89  O   UNL A   1      42.563  36.649  42.062  1.00  0.00    -0.237 OA
ATOM     90  O   UNL A   1      40.117  36.730  42.352  1.00  0.00    -0.744 OA
ENDBRANCH  86  87
ENDBRANCH  60  81
ENDBRANCH  34  35
ENDBRANCH  27  29
ENDBRANCH  26  27
ENDBRANCH  25  26
ENDBRANCH   1  25
TORSDOF 19
ENDMDL
MODEL 2
REMARK VINA RESULT:     -10.4      2.176      3.713
REMARK SMILES CC(C)N1C[C@@H](C(=O)N2CCC(C(=O)OCCOCCOC(=O)c3ccc(-c4c5nc(c(-c6ccc(S(=O)(=O)[O-])cc6)c6ccc([nH]6)c(-c6ccc(S(=O)(=O)[O-])cc6)c6nc(c(-c7ccc(S(=O)(=O)[O-])cc7)c7ccc4[nH]7)C=C6)C=C5)cc3)CC2)CC1=O
REMARK SMILES IDX 19 1 18 2 17 3 16 4 15 5 13 6 14 7 12 8 7 9 8 10 9 11 10 12
REMARK SMILES IDX 85 13 11 14 84 15 6 16 4 17 5 18 87 19 86 20 88 21 2 22 1 23
REMARK SMILES IDX 3 24 20 25 21 26 22 27 23 28 24 29 25 30 83 31 26 32 82 33
REMARK SMILES IDX 27 34 28 35 29 36 76 37 30 38 81 39 75 40 77 41 31 42 80 43
REMARK SMILES IDX 74 44 73 45 32 47 62 48 43 49 61 50 44 51 47 52 60 53 78 54
REMARK SMILES IDX 45 55 46 56 59 58 79 59 48 60 33 61 34 62 42 63 35 64 41 65
REMARK SMILES IDX 36 66 37 67 38 68 39 69 40 70 63 71 64 72 72 73 65 74 71 75
REMARK SMILES IDX 66 76 67 77 68 78 69 79 70 80 49 81 50 82 58 83 51 84 57 85
REMARK SMILES IDX 52 86 53 87 54 88 55 89 56 90
REMARK H PARENT 77 46 47 57
REMARK Flexibility Score: inf
ROOT
ATOM      1  C   UNL A   1      45.766  22.987  26.257  1.00  0.00     0.202 C 
ENDROOT
BRANCH   1   2
ATOM      2  O   UNL A   1      45.325  21.643  26.082  1.00  0.00    -0.374 OA
BRANCH   2   3
ATOM      3  C   UNL A   1      44.127  21.433  25.333  1.00  0.00     0.202 C 
BRANCH   3   4
ATOM      4  C   UNL A   1      42.913  20.912  26.107  1.00  0.00     0.261 C 
BRANCH   4   5
ATOM      5  O   UNL A   1      41.883  21.908  26.214  1.00  0.00    -0.463 OA
BRANCH   5   6
ATOM      6  C   UNL A   1      40.701  21.482  26.723  1.00  0.00     0.309 C 
ATOM      7  O   UNL A   1      40.568  20.781  27.720  1.00  0.00    -0.252 OA
BRANCH   6   8
ATOM      8  C   UNL A   1      39.509  21.958  25.921  1.00  0.00     0.103 C 
ATOM      9  C   UNL A   1      35.466  22.768  25.898  1.00  0.00     0.227 C 
ATOM     10  O   UNL A   1      34.895  21.696  26.138  1.00  0.00    -0.274 OA
ATOM     11  N   UNL A   1      36.778  22.768  25.461  1.00  0.00    -0.342 N 
ATOM     12  C   UNL A   1      37.291  21.548  24.835  1.00  0.00     0.120 C 
ATOM     13  C   UNL A   1      37.794  23.777  25.741  1.00  0.00     0.120 C 
ATOM     14  C   UNL A   1      38.413  20.918  25.652  1.00  0.00     0.037 C 
ATOM     15  C   UNL A   1      38.909  23.186  26.601  1.00  0.00     0.037 C 
BRANCH   9  16
ATOM     16  C   UNL A   1      34.594  24.018  25.828  1.00  0.00     0.107 C 
ATOM     17  N   UNL A   1      32.354  24.669  25.487  1.00  0.00    -0.339 N 
ATOM     18  C   UNL A   1      33.149  23.601  26.045  1.00  0.00     0.133 C 
ATOM     19  C   UNL A   1      33.105  25.421  24.589  1.00  0.00     0.223 C 
ATOM     20  C   UNL A   1      34.551  24.986  24.663  1.00  0.00     0.115 C 
ATOM     21  O   UNL A   1      32.703  26.283  23.825  1.00  0.00    -0.275 OA
BRANCH  17  22
ATOM     22  C   UNL A   1      30.885  24.671  25.624  1.00  0.00     0.078 C 
ATOM     23  C   UNL A   1      30.404  23.541  26.545  1.00  0.00     0.031 C 
ATOM     24  C   UNL A   1      30.290  25.990  26.123  1.00  0.00     0.031 C 
ENDBRANCH  17  22
ENDBRANCH   9  16
ENDBRANCH   6   8
ENDBRANCH   5   6
ENDBRANCH   4   5
ENDBRANCH   3   4
ENDBRANCH   2   3
ENDBRANCH   1   2
BRANCH   1  25
ATOM     25  C   UNL A   1      44.856  23.928  27.058  1.00  0.00     0.261 C 
BRANCH  25  26
ATOM     26  O   UNL A   1      44.537  25.137  26.345  1.00  0.00    -0.460 OA
BRANCH  26  27
ATOM     27  C   UNL A   1      43.224  25.279  26.041  1.00  0.00     0.338 C 
ATOM     28  O   UNL A   1      42.601  24.673  25.178  1.00  0.00    -0.246 OA
BRANCH  27  29
ATOM     29  C   UNL A   1      42.554  26.153  27.019  1.00  0.00     0.060 A 
ATOM     30  C   UNL A   1      42.955  27.495  27.063  1.00  0.00     0.016 A 
ATOM     31  C   UNL A   1      41.628  25.660  27.942  1.00  0.00     0.016 A 
ATOM     32  C   UNL A   1      42.474  28.336  28.063  1.00  0.00     0.010 A 
ATOM     33  C   UNL A   1      41.154  26.505  28.952  1.00  0.00     0.010 A 
ATOM     34  C   UNL A   1      41.605  27.835  29.040  1.00  0.00    -0.014 A 
BRANCH  34  35
ATOM     35  C   UNL A   1      41.297  28.665  30.231  1.00  0.00     0.031 A 
ATOM     36  C   UNL A   1      42.168  28.542  31.453  1.00  0.00     0.074 A 
ATOM     37  C   UNL A   1      40.291  29.559  30.207  1.00  0.00     0.049 A 
ATOM     38  N   UNL A   1      42.081  29.168  32.598  1.00  0.00    -0.248 NA
ATOM     39  C   UNL A   1      43.290  27.591  31.370  1.00  0.00     0.031 C 
ATOM     40  C   UNL A   1      39.416  29.815  29.064  1.00  0.00     0.029 A 
ATOM     41  N   UNL A   1      39.845  30.424  31.174  1.00  0.00    -0.354 N 
ATOM     42  C   UNL A   1      43.132  28.690  33.372  1.00  0.00     0.074 A 
ATOM     43  C   UNL A   1      43.825  27.698  32.577  1.00  0.00     0.031 C 
ATOM     44  C   UNL A   1      38.537  30.776  29.397  1.00  0.00     0.029 A 
ATOM     45  C   UNL A   1      38.766  31.179  30.783  1.00  0.00     0.049 A 
ATOM     46  H   UNL A   1      40.259  30.495  32.065  1.00  0.00     0.167 HD
ATOM     47  C   UNL A   1      43.493  29.047  34.627  1.00  0.00     0.031 A 
ATOM     48  C   UNL A   1      38.036  32.081  31.468  1.00  0.00     0.031 A 
ATOM     49  C   UNL A   1      42.794  30.021  35.424  1.00  0.00     0.049 A 
ATOM     50  C   UNL A   1      38.403  32.399  32.895  1.00  0.00     0.074 A 
ATOM     51  C   UNL A   1      43.078  30.446  36.710  1.00  0.00     0.029 A 
ATOM     52  N   UNL A   1      41.670  30.720  35.011  1.00  0.00    -0.354 N 
ATOM     53  N   UNL A   1      39.396  31.933  33.613  1.00  0.00    -0.248 NA
ATOM     54  C   UNL A   1      37.553  33.370  33.598  1.00  0.00     0.031 C 
ATOM     55  C   UNL A   1      42.095  31.364  37.094  1.00  0.00     0.029 A 
ATOM     56  C   UNL A   1      41.235  31.556  36.025  1.00  0.00     0.049 A 
ATOM     57  H   UNL A   1      41.243  30.633  34.128  1.00  0.00     0.167 HD
ATOM     58  C   UNL A   1      39.306  32.574  34.845  1.00  0.00     0.074 A 
ATOM     59  C   UNL A   1      38.168  33.467  34.769  1.00  0.00     0.031 C 
ATOM     60  C   UNL A   1      40.097  32.438  35.938  1.00  0.00     0.031 A 
BRANCH  47  61
ATOM     61  C   UNL A   1      44.688  28.357  35.229  1.00  0.00    -0.014 A 
ATOM     62  C   UNL A   1      44.548  27.156  35.947  1.00  0.00     0.010 A 
ATOM     63  C   UNL A   1      45.974  28.897  35.039  1.00  0.00     0.010 A 
ATOM     64  C   UNL A   1      45.669  26.525  36.495  1.00  0.00     0.020 A 
ATOM     65  C   UNL A   1      47.099  28.255  35.564  1.00  0.00     0.020 A 
ATOM     66  C   UNL A   1      46.937  27.081  36.302  1.00  0.00     0.054 A 
BRANCH  66  67
ATOM     67  S   UNL A   1      48.378  26.228  37.004  1.00  0.00     0.124 S 
ATOM     68  O   UNL A   1      49.225  26.051  35.828  1.00  0.00    -0.237 OA
ATOM     69  O   UNL A   1      48.867  27.187  37.992  1.00  0.00    -0.237 OA
ATOM     70  O   UNL A   1      47.817  24.999  37.559  1.00  0.00    -0.744 OA
ENDBRANCH  66  67
ENDBRANCH  47  61
BRANCH  48  71
ATOM     71  C   UNL A   1      36.875  32.743  30.814  1.00  0.00    -0.014 A 
ATOM     72  C   UNL A   1      35.561  32.345  31.113  1.00  0.00     0.010 A 
ATOM     73  C   UNL A   1      37.081  33.789  29.895  1.00  0.00     0.010 A 
ATOM     74  C   UNL A   1      34.474  32.977  30.502  1.00  0.00     0.020 A 
ATOM     75  C   UNL A   1      35.996  34.439  29.302  1.00  0.00     0.020 A 
ATOM     76  C   UNL A   1      34.698  34.024  29.604  1.00  0.00     0.054 A 
BRANCH  76  77
ATOM     77  S   UNL A   1      33.270  34.875  28.877  1.00  0.00     0.124 S 
ATOM     78  O   UNL A   1      32.427  35.106  30.044  1.00  0.00    -0.237 OA
ATOM     79  O   UNL A   1      33.880  36.066  28.290  1.00  0.00    -0.237 OA
ATOM     80  O   UNL A   1      32.753  33.910  27.909  1.00  0.00    -0.744 OA
ENDBRANCH  76  77
ENDBRANCH  48  71
BRANCH  60  81
ATOM     81  C   UNL A   1      39.784  33.296  37.135  1.00  0.00    -0.014 A 
ATOM     82  C   UNL A   1      38.880  32.869  38.124  1.00  0.00     0.010 A 
ATOM     83  C   UNL A   1      40.452  34.524  37.300  1.00  0.00     0.010 A 
ATOM     84  C   UNL A   1      38.629  33.669  39.243  1.00  0.00     0.020 A 
ATOM     85  C   UNL A   1      40.223  35.314  38.430  1.00  0.00     0.020 A 
ATOM     86  C   UNL A   1      39.301  34.886  39.388  1.00  0.00     0.054 A 
BRANCH  86  87
ATOM     87  S   UNL A   1      38.991  35.885  40.870  1.00  0.00     0.124 S 
ATOM     88  O   UNL A   1      37.991  35.084  41.573  1.00  0.00    -0.237 OA
ATOM     89  O   UNL A   1      40.307  35.942  41.501  1.00  0.00    -0.237 OA
ATOM     90  O   UNL A   1      38.508  37.157  40.337  1.00  0.00    -0.744 OA
ENDBRANCH  86  87
ENDBRANCH  60  81
ENDBRANCH  34  35
ENDBRANCH  27  29
ENDBRANCH  26  27
ENDBRANCH  25  26
ENDBRANCH   1  25
TORSDOF 19
ENDMDL
MODEL 3
REMARK VINA RESULT:     -10.2      4.967      6.158
REMARK SMILES CC(C)N1C[C@@H](C(=O)N2CCC(C(=O)OCCOCCOC(=O)c3ccc(-c4c5nc(c(-c6ccc(S(=O)(=O)[O-])cc6)c6ccc([nH]6)c(-c6ccc(S(=O)(=O)[O-])cc6)c6nc(c(-c7ccc(S(=O)(=O)[O-])cc7)c7ccc4[nH]7)C=C6)C=C5)cc3)CC2)CC1=O
REMARK SMILES IDX 19 1 18 2 17 3 16 4 15 5 13 6 14 7 12 8 7 9 8 10 9 11 10 12
REMARK SMILES IDX 85 13 11 14 84 15 6 16 4 17 5 18 87 19 86 20 88 21 2 22 1 23
REMARK SMILES IDX 3 24 20 25 21 26 22 27 23 28 24 29 25 30 83 31 26 32 82 33
REMARK SMILES IDX 27 34 28 35 29 36 76 37 30 38 81 39 75 40 77 41 31 42 80 43
REMARK SMILES IDX 74 44 73 45 32 47 62 48 43 49 61 50 44 51 47 52 60 53 78 54
REMARK SMILES IDX 45 55 46 56 59 58 79 59 48 60 33 61 34 62 42 63 35 64 41 65
REMARK SMILES IDX 36 66 37 67 38 68 39 69 40 70 63 71 64 72 72 73 65 74 71 75
REMARK SMILES IDX 66 76 67 77 68 78 69 79 70 80 49 81 50 82 58 83 51 84 57 85
REMARK SMILES IDX 52 86 53 87 54 88 55 89 56 90
REMARK H PARENT 77 46 47 57
REMARK Flexibility Score: inf
ROOT
ATOM      1  C   UNL A   1      36.148  21.544  25.724  1.00  0.00     0.202 C 
ENDROOT
BRANCH   1   2
ATOM      2  O   UNL A   1      35.475  20.517  24.999  1.00  0.00    -0.374 OA
BRANCH   2   3
ATOM      3  C   UNL A   1      34.059  20.628  24.856  1.00  0.00     0.202 C 
BRANCH   3   4
ATOM      4  C   UNL A   1      33.372  21.745  25.646  1.00  0.00     0.261 C 
BRANCH   4   5
ATOM      5  O   UNL A   1      32.311  22.354  24.892  1.00  0.00    -0.463 OA
BRANCH   5   6
ATOM      6  C   UNL A   1      31.169  22.605  25.577  1.00  0.00     0.309 C 
ATOM      7  O   UNL A   1      30.469  21.761  26.126  1.00  0.00    -0.252 OA
BRANCH   6   8
ATOM      8  C   UNL A   1      30.809  24.075  25.604  1.00  0.00     0.103 C 
ATOM      9  C   UNL A   1      31.854  27.905  24.492  1.00  0.00     0.227 C 
ATOM     10  O   UNL A   1      32.934  28.146  25.047  1.00  0.00    -0.274 OA
ATOM     11  N   UNL A   1      31.055  26.876  24.955  1.00  0.00    -0.342 N 
ATOM     12  C   UNL A   1      31.247  26.428  26.336  1.00  0.00     0.120 C 
ATOM     13  C   UNL A   1      30.178  26.024  24.160  1.00  0.00     0.120 C 
ATOM     14  C   UNL A   1      31.745  24.989  26.404  1.00  0.00     0.037 C 
ATOM     15  C   UNL A   1      30.682  24.582  24.170  1.00  0.00     0.037 C 
BRANCH   9  16
ATOM     16  C   UNL A   1      31.335  28.946  23.504  1.00  0.00     0.107 C 
ATOM     17  N   UNL A   1      29.646  30.575  23.283  1.00  0.00    -0.339 N 
ATOM     18  C   UNL A   1      30.491  29.949  24.271  1.00  0.00     0.133 C 
ATOM     19  C   UNL A   1      29.554  29.782  22.144  1.00  0.00     0.223 C 
ATOM     20  C   UNL A   1      30.535  28.636  22.254  1.00  0.00     0.115 C 
ATOM     21  O   UNL A   1      28.800  29.929  21.196  1.00  0.00    -0.275 OA
BRANCH  17  22
ATOM     22  C   UNL A   1      28.766  31.703  23.644  1.00  0.00     0.078 C 
ATOM     23  C   UNL A   1      28.880  32.853  22.634  1.00  0.00     0.031 C 
ATOM     24  C   UNL A   1      27.287  31.337  23.796  1.00  0.00     0.031 C 
ENDBRANCH  17  22
ENDBRANCH   9  16
ENDBRANCH   6   8
ENDBRANCH   5   6
ENDBRANCH   4   5
ENDBRANCH   3   4
ENDBRANCH   2   3
ENDBRANCH   1   2
BRANCH   1  25
ATOM     25  C   UNL A   1      37.589  21.871  25.309  1.00  0.00     0.261 C 
BRANCH  25  26
ATOM     26  O   UNL A   1      38.173  22.921  26.100  1.00  0.00    -0.460 OA
BRANCH  26  27
ATOM     27  C   UNL A   1      39.371  22.607  26.651  1.00  0.00     0.338 C 
ATOM     28  O   UNL A   1      39.832  21.484  26.813  1.00  0.00    -0.246 OA
BRANCH  27  29
ATOM     29  C   UNL A   1      40.171  23.821  26.886  1.00  0.00     0.060 A 
ATOM     30  C   UNL A   1      40.979  23.846  28.030  1.00  0.00     0.016 A 
ATOM     31  C   UNL A   1      40.066  24.948  26.068  1.00  0.00     0.016 A 
ATOM     32  C   UNL A   1      41.642  25.017  28.393  1.00  0.00     0.010 A 
ATOM     33  C   UNL A   1      40.725  26.126  26.439  1.00  0.00     0.010 A 
ATOM     34  C   UNL A   1      41.483  26.177  27.624  1.00  0.00    -0.014 A 
BRANCH  34  35
ATOM     35  C   UNL A   1      41.988  27.470  28.149  1.00  0.00     0.031 A 
ATOM     36  C   UNL A   1      43.470  27.739  28.125  1.00  0.00     0.074 A 
ATOM     37  C   UNL A   1      41.137  28.415  28.589  1.00  0.00     0.049 A 
ATOM     38  N   UNL A   1      44.125  28.795  28.531  1.00  0.00    -0.248 NA
ATOM     39  C   UNL A   1      44.324  26.680  27.561  1.00  0.00     0.031 C 
ATOM     40  C   UNL A   1      39.680  28.297  28.607  1.00  0.00     0.029 A 
ATOM     41  N   UNL A   1      41.382  29.665  29.098  1.00  0.00    -0.354 N 
ATOM     42  C   UNL A   1      45.466  28.530  28.275  1.00  0.00     0.074 A 
ATOM     43  C   UNL A   1      45.533  27.201  27.706  1.00  0.00     0.031 C 
ATOM     44  C   UNL A   1      39.159  29.434  29.102  1.00  0.00     0.029 A 
ATOM     45  C   UNL A   1      40.245  30.343  29.465  1.00  0.00     0.049 A 
ATOM     46  H   UNL A   1      42.287  30.040  29.193  1.00  0.00     0.167 HD
ATOM     47  C   UNL A   1      46.543  29.323  28.486  1.00  0.00     0.031 A 
ATOM     48  C   UNL A   1      40.095  31.552  30.041  1.00  0.00     0.031 A 
ATOM     49  C   UNL A   1      46.478  30.639  29.067  1.00  0.00     0.049 A 
ATOM     50  C   UNL A   1      41.315  32.381  30.348  1.00  0.00     0.074 A 
ATOM     51  C   UNL A   1      47.515  31.516  29.329  1.00  0.00     0.029 A 
ATOM     52  N   UNL A   1      45.311  31.264  29.479  1.00  0.00    -0.354 N 
ATOM     53  N   UNL A   1      42.575  32.113  30.105  1.00  0.00    -0.248 NA
ATOM     54  C   UNL A   1      41.089  33.678  31.001  1.00  0.00     0.031 C 
ATOM     55  C   UNL A   1      46.981  32.652  29.946  1.00  0.00     0.029 A 
ATOM     56  C   UNL A   1      45.605  32.507  30.013  1.00  0.00     0.049 A 
ATOM     57  H   UNL A   1      44.407  30.880  29.403  1.00  0.00     0.167 HD
ATOM     58  C   UNL A   1      43.292  33.219  30.552  1.00  0.00     0.074 A 
ATOM     59  C   UNL A   1      42.322  34.163  31.069  1.00  0.00     0.031 C 
ATOM     60  C   UNL A   1      44.630  33.436  30.529  1.00  0.00     0.031 A 
BRANCH  47  61
ATOM     61  C   UNL A   1      47.893  28.774  28.110  1.00  0.00    -0.014 A 
ATOM     62  C   UNL A   1      48.670  28.057  29.038  1.00  0.00     0.010 A 
ATOM     63  C   UNL A   1      48.375  28.943  26.799  1.00  0.00     0.010 A 
ATOM     64  C   UNL A   1      49.920  27.550  28.671  1.00  0.00     0.020 A 
ATOM     65  C   UNL A   1      49.613  28.415  26.422  1.00  0.00     0.020 A 
ATOM     66  C   UNL A   1      50.384  27.734  27.365  1.00  0.00     0.054 A 
BRANCH  66  67
ATOM     67  S   UNL A   1      52.000  27.044  26.910  1.00  0.00     0.124 S 
ATOM     68  O   UNL A   1      52.798  28.252  26.712  1.00  0.00    -0.237 OA
ATOM     69  O   UNL A   1      52.349  26.245  28.082  1.00  0.00    -0.237 OA
ATOM     70  O   UNL A   1      51.720  26.277  25.698  1.00  0.00    -0.744 OA
ENDBRANCH  66  67
ENDBRANCH  47  61
BRANCH  48  71
ATOM     71  C   UNL A   1      38.733  32.048  30.374  1.00  0.00    -0.014 A 
ATOM     72  C   UNL A   1      38.101  31.661  31.569  1.00  0.00     0.010 A 
ATOM     73  C   UNL A   1      38.065  32.926  29.501  1.00  0.00     0.010 A 
ATOM     74  C   UNL A   1      36.824  32.138  31.881  1.00  0.00     0.020 A 
ATOM     75  C   UNL A   1      36.799  33.425  29.822  1.00  0.00     0.020 A 
ATOM     76  C   UNL A   1      36.184  33.021  31.008  1.00  0.00     0.054 A 
BRANCH  76  77
ATOM     77  S   UNL A   1      34.558  33.682  31.467  1.00  0.00     0.124 S 
ATOM     78  O   UNL A   1      34.912  34.946  32.103  1.00  0.00    -0.237 OA
ATOM     79  O   UNL A   1      33.885  33.789  30.175  1.00  0.00    -0.237 OA
ATOM     80  O   UNL A   1      34.013  32.660  32.360  1.00  0.00    -0.744 OA
ENDBRANCH  76  77
ENDBRANCH  48  71
BRANCH  60  81
ATOM     81  C   UNL A   1      45.130  34.756  31.052  1.00  0.00    -0.014 A 
ATOM     82  C   UNL A   1      45.216  35.887  30.220  1.00  0.00     0.010 A 
ATOM     83  C   UNL A   1      45.463  34.880  32.414  1.00  0.00     0.010 A 
ATOM     84  C   UNL A   1      45.654  37.110  30.735  1.00  0.00     0.020 A 
ATOM     85  C   UNL A   1      45.876  36.108  32.938  1.00  0.00     0.020 A 
ATOM     86  C   UNL A   1      45.982  37.213  32.090  1.00  0.00     0.054 A 
BRANCH  86  87
ATOM     87  S   UNL A   1      46.506  38.822  32.744  1.00  0.00     0.124 S 
ATOM     88  O   UNL A   1      46.584  39.632  31.531  1.00  0.00    -0.237 OA
ATOM     89  O   UNL A   1      45.419  39.166  33.659  1.00  0.00    -0.237 OA
ATOM     90  O   UNL A   1      47.786  38.536  33.387  1.00  0.00    -0.744 OA
ENDBRANCH  86  87
ENDBRANCH  60  81
ENDBRANCH  34  35
ENDBRANCH  27  29
ENDBRANCH  26  27
ENDBRANCH  25  26
ENDBRANCH   1  25
TORSDOF 19
ENDMDL
