MODEL 1
REMARK VINA RESULT:     -11.9      0.000      0.000
REMARK SMILES COC(=O)c1sc(SCC(=O)OCCOCCOC(=O)c2ccc(-c3c4nc(c(-c5ccc(S(=O)(=O)[O-])cc5)c5ccc([nH]5)c(-c5ccc(S(=O)(=O)[O-])cc5)c5nc(c(-c6ccc(S(=O)(=O)[O-])cc6)c6ccc3[nH]6)C=C5)C=C4)cc2)c(NC(=O)c2ccccc2)c1O
REMARK SMILES IDX 14 1 13 2 12 3 10 4 11 5 9 6 8 7 7 8 5 9 6 10 91 11 81 12
REMARK SMILES IDX 3 13 4 14 2 15 1 16 92 17 82 19 83 20 84 22 85 23 86 24
REMARK SMILES IDX 90 25 87 26 89 27 88 28 15 29 16 30 17 31 18 32 19 33 20 34
REMARK SMILES IDX 21 35 22 36 80 37 23 38 79 39 24 40 25 41 26 42 73 43 27 44
REMARK SMILES IDX 78 45 72 46 74 47 28 48 77 49 71 50 70 51 29 53 59 54 40 55
REMARK SMILES IDX 58 56 41 57 44 58 57 59 75 60 42 61 43 62 56 64 76 65 45 66
REMARK SMILES IDX 30 67 31 68 39 69 32 70 38 71 33 72 34 73 35 74 36 75 37 76
REMARK SMILES IDX 60 77 61 78 69 79 62 80 68 81 63 82 64 83 65 84 66 85 67 86
REMARK SMILES IDX 46 87 47 88 55 89 48 90 54 91 49 92 50 93 51 94 52 95 53 96
REMARK H PARENT 92 18 82 21 74 52 44 63
REMARK Flexibility Score: inf
ROOT
ATOM      1  C   UNL A   1      30.963  28.725  24.083  1.00  0.00     0.202 C 
ENDROOT
BRANCH   1   2
ATOM      2  C   UNL A   1      30.209  27.430  23.761  1.00  0.00     0.261 C 
BRANCH   2   3
ATOM      3  O   UNL A   1      31.051  26.277  23.997  1.00  0.00    -0.463 OA
BRANCH   3   4
ATOM      4  C   UNL A   1      31.294  25.437  22.938  1.00  0.00     0.316 C 
ATOM      5  O   UNL A   1      31.626  25.825  21.823  1.00  0.00    -0.251 OA
BRANCH   4   6
ATOM      6  C   UNL A   1      30.877  23.816  23.317  1.00  0.00     0.198 C 
BRANCH   6   7
ATOM      7  S   UNL A   1      31.760  21.594  22.333  1.00  0.00    -0.101 SA
BRANCH   7   8
ATOM      8  C   UNL A   1      32.214  20.212  23.464  1.00  0.00     0.089 A 
ATOM      9  C   UNL A   1      32.955  17.969  24.293  1.00  0.00     0.157 A 
ATOM     10  S   UNL A   1      32.752  18.724  22.764  1.00  0.00    -0.116 S 
ATOM     11  C   UNL A   1      32.718  18.870  25.308  1.00  0.00     0.166 A 
ATOM     12  C   UNL A   1      32.272  20.145  24.854  1.00  0.00     0.109 A 
BRANCH   9  13
ATOM     13  C   UNL A   1      33.312  16.565  24.364  1.00  0.00     0.352 C 
ATOM     14  O   UNL A   1      33.854  15.903  23.491  1.00  0.00    -0.245 OA
BRANCH  13  15
ATOM     15  O   UNL A   1      32.914  16.070  25.579  1.00  0.00    -0.465 OA
ATOM     16  C   UNL A   1      32.418  14.725  25.586  1.00  0.00     0.282 C 
ENDBRANCH  13  15
ENDBRANCH   9  13
BRANCH  11  17
ATOM     17  O   UNL A   1      32.815  18.575  26.625  1.00  0.00    -0.504 OA
ATOM     18  H   UNL A   1      33.513  18.935  27.136  1.00  0.00     0.293 HD
ENDBRANCH  11  17
BRANCH  12  19
ATOM     19  N   UNL A   1      31.907  21.109  25.788  1.00  0.00    -0.317 N 
ATOM     20  C   UNL A   1      32.694  22.112  26.264  1.00  0.00     0.255 C 
ATOM     21  H   UNL A   1      30.988  21.062  26.139  1.00  0.00     0.170 HD
ATOM     22  O   UNL A   1      32.382  22.835  27.199  1.00  0.00    -0.269 OA
BRANCH  20  23
ATOM     23  C   UNL A   1      33.972  22.278  25.573  1.00  0.00     0.040 A 
ATOM     24  C   UNL A   1      34.105  23.653  24.434  1.00  0.00     0.014 A 
ATOM     25  C   UNL A   1      35.490  21.460  26.208  1.00  0.00     0.014 A 
ATOM     26  C   UNL A   1      35.733  24.252  23.960  1.00  0.00     0.001 A 
ATOM     27  C   UNL A   1      37.108  22.083  25.729  1.00  0.00     0.001 A 
ATOM     28  C   UNL A   1      37.215  23.482  24.603  1.00  0.00     0.000 A 
ENDBRANCH  20  23
ENDBRANCH  12  19
ENDBRANCH   7   8
ENDBRANCH   6   7
ENDBRANCH   4   6
ENDBRANCH   3   4
ENDBRANCH   2   3
ENDBRANCH   1   2
BRANCH   1  29
ATOM     29  O   UNL A   1      31.362  28.831  25.453  1.00  0.00    -0.374 OA
BRANCH  29  30
ATOM     30  C   UNL A   1      31.711  30.133  25.912  1.00  0.00     0.202 C 
BRANCH  30  31
ATOM     31  C   UNL A   1      32.620  30.134  27.143  1.00  0.00     0.261 C 
BRANCH  31  32
ATOM     32  O   UNL A   1      33.792  30.926  26.930  1.00  0.00    -0.460 OA
BRANCH  32  33
ATOM     33  C   UNL A   1      34.368  31.452  28.037  1.00  0.00     0.338 C 
ATOM     34  O   UNL A   1      33.844  32.173  28.866  1.00  0.00    -0.246 OA
BRANCH  33  35
ATOM     35  C   UNL A   1      35.791  31.065  28.044  1.00  0.00     0.060 A 
ATOM     36  C   UNL A   1      36.104  29.780  27.599  1.00  0.00     0.016 A 
ATOM     37  C   UNL A   1      36.777  31.899  28.598  1.00  0.00     0.016 A 
ATOM     38  C   UNL A   1      37.369  29.281  27.847  1.00  0.00     0.010 A 
ATOM     39  C   UNL A   1      38.044  31.404  28.838  1.00  0.00     0.010 A 
ATOM     40  C   UNL A   1      38.304  30.075  28.523  1.00  0.00    -0.014 A 
BRANCH  40  41
ATOM     41  C   UNL A   1      39.546  29.438  28.914  1.00  0.00     0.031 A 
ATOM     42  C   UNL A   1      39.848  29.446  30.360  1.00  0.00     0.074 A 
ATOM     43  C   UNL A   1      40.363  28.845  28.026  1.00  0.00     0.049 A 
ATOM     44  N   UNL A   1      40.771  30.104  30.978  1.00  0.00    -0.248 NA
ATOM     45  C   UNL A   1      38.937  28.699  31.237  1.00  0.00     0.031 C 
ATOM     46  C   UNL A   1      40.064  28.459  26.646  1.00  0.00     0.029 A 
ATOM     47  N   UNL A   1      41.620  28.368  28.226  1.00  0.00    -0.354 N 
ATOM     48  C   UNL A   1      40.673  29.727  32.312  1.00  0.00     0.074 A 
ATOM     49  C   UNL A   1      39.443  28.982  32.436  1.00  0.00     0.031 C 
ATOM     50  C   UNL A   1      41.028  27.618  26.208  1.00  0.00     0.029 A 
ATOM     51  C   UNL A   1      42.067  27.527  27.222  1.00  0.00     0.049 A 
ATOM     52  H   UNL A   1      42.163  28.600  29.014  1.00  0.00     0.167 HD
ATOM     53  C   UNL A   1      41.702  29.875  33.191  1.00  0.00     0.031 A 
ATOM     54  C   UNL A   1      43.169  26.740  27.268  1.00  0.00     0.031 A 
ATOM     55  C   UNL A   1      42.729  30.747  32.691  1.00  0.00     0.049 A 
ATOM     56  C   UNL A   1      44.063  27.271  28.328  1.00  0.00     0.074 A 
ATOM     57  C   UNL A   1      42.786  32.080  32.336  1.00  0.00     0.029 A 
ATOM     58  N   UNL A   1      43.856  30.159  32.165  1.00  0.00    -0.354 N 
ATOM     59  N   UNL A   1      44.677  28.419  28.259  1.00  0.00    -0.248 NA
ATOM     60  C   UNL A   1      43.974  26.699  29.665  1.00  0.00     0.031 C 
ATOM     61  C   UNL A   1      43.715  32.140  31.258  1.00  0.00     0.029 A 
ATOM     62  C   UNL A   1      44.189  30.846  31.026  1.00  0.00     0.049 A 
ATOM     63  H   UNL A   1      44.335  29.385  32.539  1.00  0.00     0.167 HD
ATOM     64  C   UNL A   1      44.705  28.898  29.563  1.00  0.00     0.074 A 
ATOM     65  C   UNL A   1      44.362  27.750  30.392  1.00  0.00     0.031 C 
ATOM     66  C   UNL A   1      44.742  30.237  29.830  1.00  0.00     0.031 A 
BRANCH  53  67
ATOM     67  C   UNL A   1      41.937  28.946  34.353  1.00  0.00    -0.014 A 
ATOM     68  C   UNL A   1      42.712  29.387  35.444  1.00  0.00     0.010 A 
ATOM     69  C   UNL A   1      41.647  27.568  34.287  1.00  0.00     0.010 A 
ATOM     70  C   UNL A   1      43.225  28.481  36.382  1.00  0.00     0.020 A 
ATOM     71  C   UNL A   1      42.110  26.663  35.243  1.00  0.00     0.020 A 
ATOM     72  C   UNL A   1      42.933  27.121  36.263  1.00  0.00     0.054 A 
BRANCH  72  73
ATOM     73  S   UNL A   1      43.708  25.938  37.389  1.00  0.00     0.124 S 
ATOM     74  O   UNL A   1      43.714  26.682  38.645  1.00  0.00    -0.237 OA
ATOM     75  O   UNL A   1      42.793  24.802  37.327  1.00  0.00    -0.237 OA
ATOM     76  O   UNL A   1      45.021  25.706  36.790  1.00  0.00    -0.744 OA
ENDBRANCH  72  73
ENDBRANCH  53  67
BRANCH  54  77
ATOM     77  C   UNL A   1      43.307  25.388  26.678  1.00  0.00    -0.014 A 
ATOM     78  C   UNL A   1      43.540  25.210  25.304  1.00  0.00     0.010 A 
ATOM     79  C   UNL A   1      43.452  24.265  27.521  1.00  0.00     0.010 A 
ATOM     80  C   UNL A   1      43.946  23.962  24.801  1.00  0.00     0.020 A 
ATOM     81  C   UNL A   1      43.844  23.019  27.027  1.00  0.00     0.020 A 
ATOM     82  C   UNL A   1      44.110  22.878  25.669  1.00  0.00     0.054 A 
BRANCH  82  83
ATOM     83  S   UNL A   1      44.784  21.316  25.035  1.00  0.00     0.124 S 
ATOM     84  O   UNL A   1      43.844  20.333  25.566  1.00  0.00    -0.237 OA
ATOM     85  O   UNL A   1      44.742  21.516  23.589  1.00  0.00    -0.237 OA
ATOM     86  O   UNL A   1      46.128  21.262  25.609  1.00  0.00    -0.744 OA
ENDBRANCH  82  83
ENDBRANCH  54  77
BRANCH  66  87
ATOM     87  C   UNL A   1      45.104  31.190  28.715  1.00  0.00    -0.014 A 
ATOM     88  C   UNL A   1      44.201  31.564  27.702  1.00  0.00     0.010 A 
ATOM     89  C   UNL A   1      46.331  31.872  28.807  1.00  0.00     0.010 A 
ATOM     90  C   UNL A   1      44.519  32.593  26.805  1.00  0.00     0.020 A 
ATOM     91  C   UNL A   1      46.647  32.911  27.926  1.00  0.00     0.020 A 
ATOM     92  C   UNL A   1      45.739  33.266  26.929  1.00  0.00     0.054 A 
BRANCH  92  93
ATOM     93  S   UNL A   1      46.093  34.670  25.833  1.00  0.00     0.124 S 
ATOM     94  O   UNL A   1      47.424  34.349  25.327  1.00  0.00    -0.237 OA
ATOM     95  O   UNL A   1      45.012  34.598  24.852  1.00  0.00    -0.237 OA
ATOM     96  O   UNL A   1      46.031  35.829  26.722  1.00  0.00    -0.744 OA
ENDBRANCH  92  93
ENDBRANCH  66  87
ENDBRANCH  40  41
ENDBRANCH  33  35
ENDBRANCH  32  33
ENDBRANCH  31  32
ENDBRANCH  30  31
ENDBRANCH  29  30
ENDBRANCH   1  29
TORSDOF 24
ENDMDL
MODEL 2
REMARK VINA RESULT:     -10.3      1.532      2.930
REMARK SMILES COC(=O)c1sc(SCC(=O)OCCOCCOC(=O)c2ccc(-c3c4nc(c(-c5ccc(S(=O)(=O)[O-])cc5)c5ccc([nH]5)c(-c5ccc(S(=O)(=O)[O-])cc5)c5nc(c(-c6ccc(S(=O)(=O)[O-])cc6)c6ccc3[nH]6)C=C5)C=C4)cc2)c(NC(=O)c2ccccc2)c1O
REMARK SMILES IDX 14 1 13 2 12 3 10 4 11 5 9 6 8 7 7 8 5 9 6 10 91 11 81 12
REMARK SMILES IDX 3 13 4 14 2 15 1 16 92 17 82 19 83 20 84 22 85 23 86 24
REMARK SMILES IDX 90 25 87 26 89 27 88 28 15 29 16 30 17 31 18 32 19 33 20 34
REMARK SMILES IDX 21 35 22 36 80 37 23 38 79 39 24 40 25 41 26 42 73 43 27 44
REMARK SMILES IDX 78 45 72 46 74 47 28 48 77 49 71 50 70 51 29 53 59 54 40 55
REMARK SMILES IDX 58 56 41 57 44 58 57 59 75 60 42 61 43 62 56 64 76 65 45 66
REMARK SMILES IDX 30 67 31 68 39 69 32 70 38 71 33 72 34 73 35 74 36 75 37 76
REMARK SMILES IDX 60 77 61 78 69 79 62 80 68 81 63 82 64 83 65 84 66 85 67 86
REMARK SMILES IDX 46 87 47 88 55 89 48 90 54 91 49 92 50 93 51 94 52 95 53 96
REMARK H PARENT 92 18 82 21 74 52 44 63
REMARK Flexibility Score: inf
ROOT
ATOM      1  C   UNL A   1      31.094  29.730  24.708  1.00  0.00     0.202 C 
ENDROOT
BRANCH   1   2
ATOM      2  C   UNL A   1      30.530  28.422  24.142  1.00  0.00     0.261 C 
BRANCH   2   3
ATOM      3  O   UNL A   1      31.601  27.554  23.700  1.00  0.00    -0.463 OA
BRANCH   3   4
ATOM      4  C   UNL A   1      31.355  26.734  22.626  1.00  0.00     0.316 C 
ATOM      5  O   UNL A   1      30.949  27.136  21.541  1.00  0.00    -0.251 OA
BRANCH   4   6
ATOM      6  C   UNL A   1      31.489  25.079  23.060  1.00  0.00     0.198 C 
BRANCH   6   7
ATOM      7  S   UNL A   1      33.128  23.264  22.222  1.00  0.00    -0.101 SA
BRANCH   7   8
ATOM      8  C   UNL A   1      34.404  22.589  23.368  1.00  0.00     0.089 A 
ATOM      9  C   UNL A   1      36.426  22.418  24.834  1.00  0.00     0.157 A 
ATOM     10  S   UNL A   1      35.676  23.640  23.889  1.00  0.00    -0.116 S 
ATOM     11  C   UNL A   1      35.660  21.272  24.831  1.00  0.00     0.166 A 
ATOM     12  C   UNL A   1      34.518  21.344  23.982  1.00  0.00     0.109 A 
BRANCH   9  13
ATOM     13  C   UNL A   1      37.697  22.682  25.480  1.00  0.00     0.352 C 
ATOM     14  O   UNL A   1      38.597  21.880  25.679  1.00  0.00    -0.245 OA
BRANCH  13  15
ATOM     15  O   UNL A   1      37.729  23.996  25.870  1.00  0.00    -0.465 OA
ATOM     16  C   UNL A   1      38.905  24.424  26.569  1.00  0.00     0.282 C 
ENDBRANCH  13  15
ENDBRANCH   9  13
BRANCH  11  17
ATOM     17  O   UNL A   1      35.983  20.141  25.500  1.00  0.00    -0.504 OA
ATOM     18  H   UNL A   1      35.337  19.475  25.634  1.00  0.00     0.293 HD
ENDBRANCH  11  17
BRANCH  12  19
ATOM     19  N   UNL A   1      33.721  20.216  23.819  1.00  0.00    -0.317 N 
ATOM     20  C   UNL A   1      32.673  19.846  24.606  1.00  0.00     0.255 C 
ATOM     21  H   UNL A   1      33.935  19.627  23.060  1.00  0.00     0.170 HD
ATOM     22  O   UNL A   1      32.105  18.767  24.518  1.00  0.00    -0.269 OA
BRANCH  20  23
ATOM     23  C   UNL A   1      32.255  20.844  25.590  1.00  0.00     0.040 A 
ATOM     24  C   UNL A   1      33.320  21.076  27.010  1.00  0.00     0.014 A 
ATOM     25  C   UNL A   1      31.017  22.128  25.150  1.00  0.00     0.014 A 
ATOM     26  C   UNL A   1      33.198  22.593  27.968  1.00  0.00     0.001 A 
ATOM     27  C   UNL A   1      30.920  23.644  26.114  1.00  0.00     0.001 A 
ATOM     28  C   UNL A   1      32.018  23.863  27.523  1.00  0.00     0.000 A 
ENDBRANCH  20  23
ENDBRANCH  12  19
ENDBRANCH   7   8
ENDBRANCH   6   7
ENDBRANCH   4   6
ENDBRANCH   3   4
ENDBRANCH   2   3
ENDBRANCH   1   2
BRANCH   1  29
ATOM     29  O   UNL A   1      31.608  29.607  26.037  1.00  0.00    -0.374 OA
BRANCH  29  30
ATOM     30  C   UNL A   1      32.069  30.806  26.652  1.00  0.00     0.202 C 
BRANCH  30  31
ATOM     31  C   UNL A   1      33.366  30.638  27.445  1.00  0.00     0.261 C 
BRANCH  31  32
ATOM     32  O   UNL A   1      33.978  31.899  27.726  1.00  0.00    -0.460 OA
BRANCH  32  33
ATOM     33  C   UNL A   1      34.625  31.999  28.912  1.00  0.00     0.338 C 
ATOM     34  O   UNL A   1      34.182  32.442  29.955  1.00  0.00    -0.246 OA
BRANCH  33  35
ATOM     35  C   UNL A   1      36.015  31.546  28.718  1.00  0.00     0.060 A 
ATOM     36  C   UNL A   1      36.207  30.202  28.395  1.00  0.00     0.016 A 
ATOM     37  C   UNL A   1      37.107  32.390  28.976  1.00  0.00     0.016 A 
ATOM     38  C   UNL A   1      37.482  29.675  28.480  1.00  0.00     0.010 A 
ATOM     39  C   UNL A   1      38.383  31.866  29.052  1.00  0.00     0.010 A 
ATOM     40  C   UNL A   1      38.545  30.498  28.871  1.00  0.00    -0.014 A 
BRANCH  40  41
ATOM     41  C   UNL A   1      39.820  29.852  29.117  1.00  0.00     0.031 A 
ATOM     42  C   UNL A   1      40.184  29.664  30.536  1.00  0.00     0.074 A 
ATOM     43  C   UNL A   1      40.612  29.418  28.121  1.00  0.00     0.049 A 
ATOM     44  N   UNL A   1      41.116  30.257  31.204  1.00  0.00    -0.248 NA
ATOM     45  C   UNL A   1      39.333  28.770  31.332  1.00  0.00     0.031 C 
ATOM     46  C   UNL A   1      40.263  29.222  26.713  1.00  0.00     0.029 A 
ATOM     47  N   UNL A   1      41.889  28.959  28.201  1.00  0.00    -0.354 N 
ATOM     48  C   UNL A   1      41.087  29.691  32.474  1.00  0.00     0.074 A 
ATOM     49  C   UNL A   1      39.884  28.897  32.538  1.00  0.00     0.031 C 
ATOM     50  C   UNL A   1      41.228  28.485  26.121  1.00  0.00     0.029 A 
ATOM     51  C   UNL A   1      42.313  28.284  27.069  1.00  0.00     0.049 A 
ATOM     52  H   UNL A   1      42.459  29.094  28.991  1.00  0.00     0.167 HD
ATOM     53  C   UNL A   1      42.150  29.746  33.323  1.00  0.00     0.031 A 
ATOM     54  C   UNL A   1      43.436  27.535  26.958  1.00  0.00     0.031 A 
ATOM     55  C   UNL A   1      43.130  30.713  32.913  1.00  0.00     0.049 A 
ATOM     56  C   UNL A   1      44.362  27.938  28.047  1.00  0.00     0.074 A 
ATOM     57  C   UNL A   1      43.136  32.084  32.751  1.00  0.00     0.029 A 
ATOM     58  N   UNL A   1      44.247  30.243  32.264  1.00  0.00    -0.354 N 
ATOM     59  N   UNL A   1      44.942  29.104  28.119  1.00  0.00    -0.248 NA
ATOM     60  C   UNL A   1      44.347  27.179  29.290  1.00  0.00     0.031 C 
ATOM     61  C   UNL A   1      44.014  32.327  31.657  1.00  0.00     0.029 A 
ATOM     62  C   UNL A   1      44.512  31.095  31.223  1.00  0.00     0.049 A 
ATOM     63  H   UNL A   1      44.763  29.439  32.503  1.00  0.00     0.167 HD
ATOM     64  C   UNL A   1      45.014  29.393  29.476  1.00  0.00     0.074 A 
ATOM     65  C   UNL A   1      44.738  28.128  30.145  1.00  0.00     0.031 C 
ATOM     66  C   UNL A   1      45.028  30.681  29.931  1.00  0.00     0.031 A 
BRANCH  53  67
ATOM     67  C   UNL A   1      42.460  28.669  34.330  1.00  0.00    -0.014 A 
ATOM     68  C   UNL A   1      43.303  27.602  33.963  1.00  0.00     0.010 A 
ATOM     69  C   UNL A   1      41.737  28.532  35.533  1.00  0.00     0.010 A 
ATOM     70  C   UNL A   1      43.366  26.431  34.731  1.00  0.00     0.020 A 
ATOM     71  C   UNL A   1      41.830  27.391  36.331  1.00  0.00     0.020 A 
ATOM     72  C   UNL A   1      42.613  26.329  35.901  1.00  0.00     0.054 A 
BRANCH  72  73
ATOM     73  S   UNL A   1      42.585  24.768  36.814  1.00  0.00     0.124 S 
ATOM     74  O   UNL A   1      43.630  24.987  37.809  1.00  0.00    -0.237 OA
ATOM     75  O   UNL A   1      41.218  24.729  37.325  1.00  0.00    -0.237 OA
ATOM     76  O   UNL A   1      42.891  23.770  35.792  1.00  0.00    -0.744 OA
ENDBRANCH  72  73
ENDBRANCH  53  67
BRANCH  54  77
ATOM     77  C   UNL A   1      43.584  26.285  26.175  1.00  0.00    -0.014 A 
ATOM     78  C   UNL A   1      44.781  25.978  25.508  1.00  0.00     0.010 A 
ATOM     79  C   UNL A   1      42.613  25.267  26.287  1.00  0.00     0.010 A 
ATOM     80  C   UNL A   1      45.014  24.684  25.010  1.00  0.00     0.020 A 
ATOM     81  C   UNL A   1      42.832  23.982  25.785  1.00  0.00     0.020 A 
ATOM     82  C   UNL A   1      44.042  23.690  25.165  1.00  0.00     0.054 A 
BRANCH  82  83
ATOM     83  S   UNL A   1      44.414  21.986  24.660  1.00  0.00     0.124 S 
ATOM     84  O   UNL A   1      44.452  22.096  23.204  1.00  0.00    -0.237 OA
ATOM     85  O   UNL A   1      45.698  21.736  25.309  1.00  0.00    -0.237 OA
ATOM     86  O   UNL A   1      43.293  21.215  25.195  1.00  0.00    -0.744 OA
ENDBRANCH  82  83
ENDBRANCH  54  77
BRANCH  66  87
ATOM     87  C   UNL A   1      45.315  31.794  28.950  1.00  0.00    -0.014 A 
ATOM     88  C   UNL A   1      46.602  32.056  28.444  1.00  0.00     0.010 A 
ATOM     89  C   UNL A   1      44.218  32.466  28.381  1.00  0.00     0.010 A 
ATOM     90  C   UNL A   1      46.785  32.969  27.396  1.00  0.00     0.020 A 
ATOM     91  C   UNL A   1      44.393  33.365  27.324  1.00  0.00     0.020 A 
ATOM     92  C   UNL A   1      45.676  33.612  26.837  1.00  0.00     0.054 A 
BRANCH  92  93
ATOM     93  S   UNL A   1      45.912  34.707  25.408  1.00  0.00     0.124 S 
ATOM     94  O   UNL A   1      45.478  36.002  25.925  1.00  0.00    -0.237 OA
ATOM     95  O   UNL A   1      47.344  34.586  25.137  1.00  0.00    -0.237 OA
ATOM     96  O   UNL A   1      45.048  34.129  24.380  1.00  0.00    -0.744 OA
ENDBRANCH  92  93
ENDBRANCH  66  87
ENDBRANCH  40  41
ENDBRANCH  33  35
ENDBRANCH  32  33
ENDBRANCH  31  32
ENDBRANCH  30  31
ENDBRANCH  29  30
ENDBRANCH   1  29
TORSDOF 24
ENDMDL
MODEL 3
REMARK VINA RESULT:      -9.5      3.104      8.751
REMARK SMILES COC(=O)c1sc(SCC(=O)OCCOCCOC(=O)c2ccc(-c3c4nc(c(-c5ccc(S(=O)(=O)[O-])cc5)c5ccc([nH]5)c(-c5ccc(S(=O)(=O)[O-])cc5)c5nc(c(-c6ccc(S(=O)(=O)[O-])cc6)c6ccc3[nH]6)C=C5)C=C4)cc2)c(NC(=O)c2ccccc2)c1O
REMARK SMILES IDX 14 1 13 2 12 3 10 4 11 5 9 6 8 7 7 8 5 9 6 10 91 11 81 12
REMARK SMILES IDX 3 13 4 14 2 15 1 16 92 17 82 19 83 20 84 22 85 23 86 24
REMARK SMILES IDX 90 25 87 26 89 27 88 28 15 29 16 30 17 31 18 32 19 33 20 34
REMARK SMILES IDX 21 35 22 36 80 37 23 38 79 39 24 40 25 41 26 42 73 43 27 44
REMARK SMILES IDX 78 45 72 46 74 47 28 48 77 49 71 50 70 51 29 53 59 54 40 55
REMARK SMILES IDX 58 56 41 57 44 58 57 59 75 60 42 61 43 62 56 64 76 65 45 66
REMARK SMILES IDX 30 67 31 68 39 69 32 70 38 71 33 72 34 73 35 74 36 75 37 76
REMARK SMILES IDX 60 77 61 78 69 79 62 80 68 81 63 82 64 83 65 84 66 85 67 86
REMARK SMILES IDX 46 87 47 88 55 89 48 90 54 91 49 92 50 93 51 94 52 95 53 96
REMARK H PARENT 92 18 82 21 74 52 44 63
REMARK Flexibility Score: inf
ROOT
ATOM      1  C   UNL A   1      43.221  22.452  26.193  1.00  0.00     0.202 C 
ENDROOT
BRANCH   1   2
ATOM      2  C   UNL A   1      41.891  21.888  26.704  1.00  0.00     0.261 C 
BRANCH   2   3
ATOM      3  O   UNL A   1      40.848  22.066  25.717  1.00  0.00    -0.463 OA
BRANCH   3   4
ATOM      4  C   UNL A   1      39.580  21.656  26.047  1.00  0.00     0.316 C 
ATOM      5  O   UNL A   1      39.157  20.523  25.846  1.00  0.00    -0.251 OA
BRANCH   4   6
ATOM      6  C   UNL A   1      38.615  22.972  26.579  1.00  0.00     0.198 C 
BRANCH   6   7
ATOM      7  S   UNL A   1      36.425  23.935  25.600  1.00  0.00    -0.101 SA
BRANCH   7   8
ATOM      8  C   UNL A   1      35.155  22.792  24.909  1.00  0.00     0.089 A 
ATOM      9  C   UNL A   1      33.617  20.834  24.643  1.00  0.00     0.157 A 
ATOM     10  S   UNL A   1      34.752  21.373  25.814  1.00  0.00    -0.116 S 
ATOM     11  C   UNL A   1      33.479  21.772  23.643  1.00  0.00     0.166 A 
ATOM     12  C   UNL A   1      34.364  22.882  23.766  1.00  0.00     0.109 A 
BRANCH   9  13
ATOM     13  C   UNL A   1      32.978  19.542  24.798  1.00  0.00     0.352 C 
ATOM     14  O   UNL A   1      32.112  19.247  25.608  1.00  0.00    -0.245 OA
BRANCH  13  15
ATOM     15  O   UNL A   1      33.524  18.668  23.894  1.00  0.00    -0.465 OA
ATOM     16  C   UNL A   1      34.412  17.676  24.425  1.00  0.00     0.282 C 
ENDBRANCH  13  15
ENDBRANCH   9  13
BRANCH  11  17
ATOM     17  O   UNL A   1      32.644  21.639  22.586  1.00  0.00    -0.504 OA
ATOM     18  H   UNL A   1      32.022  20.938  22.565  1.00  0.00     0.293 HD
ENDBRANCH  11  17
BRANCH  12  19
ATOM     19  N   UNL A   1      34.387  23.847  22.765  1.00  0.00    -0.317 N 
ATOM     20  C   UNL A   1      33.712  25.030  22.767  1.00  0.00     0.255 C 
ATOM     21  H   UNL A   1      34.948  23.658  21.978  1.00  0.00     0.170 HD
ATOM     22  O   UNL A   1      33.638  25.770  21.797  1.00  0.00    -0.269 OA
BRANCH  20  23
ATOM     23  C   UNL A   1      33.061  25.369  24.031  1.00  0.00     0.040 A 
ATOM     24  C   UNL A   1      33.877  26.585  25.061  1.00  0.00     0.014 A 
ATOM     25  C   UNL A   1      31.287  24.977  24.303  1.00  0.00     0.014 A 
ATOM     26  C   UNL A   1      32.934  27.446  26.327  1.00  0.00     0.001 A 
ATOM     27  C   UNL A   1      30.359  25.859  25.568  1.00  0.00     0.001 A 
ATOM     28  C   UNL A   1      31.198  27.093  26.574  1.00  0.00     0.000 A 
ENDBRANCH  20  23
ENDBRANCH  12  19
ENDBRANCH   7   8
ENDBRANCH   6   7
ENDBRANCH   4   6
ENDBRANCH   3   4
ENDBRANCH   2   3
ENDBRANCH   1   2
BRANCH   1  29
ATOM     29  O   UNL A   1      43.414  22.282  24.786  1.00  0.00    -0.374 OA
BRANCH  29  30
ATOM     30  C   UNL A   1      44.450  23.058  24.190  1.00  0.00     0.202 C 
BRANCH  30  31
ATOM     31  C   UNL A   1      45.014  24.146  25.105  1.00  0.00     0.261 C 
BRANCH  31  32
ATOM     32  O   UNL A   1      44.508  25.438  24.759  1.00  0.00    -0.460 OA
BRANCH  32  33
ATOM     33  C   UNL A   1      45.297  26.493  25.072  1.00  0.00     0.338 C 
ATOM     34  O   UNL A   1      46.170  26.988  24.383  1.00  0.00    -0.246 OA
BRANCH  33  35
ATOM     35  C   UNL A   1      44.976  26.917  26.448  1.00  0.00     0.060 A 
ATOM     36  C   UNL A   1      43.630  27.128  26.752  1.00  0.00     0.016 A 
ATOM     37  C   UNL A   1      45.984  27.226  27.377  1.00  0.00     0.016 A 
ATOM     38  C   UNL A   1      43.309  27.785  27.924  1.00  0.00     0.010 A 
ATOM     39  C   UNL A   1      45.663  27.875  28.553  1.00  0.00     0.010 A 
ATOM     40  C   UNL A   1      44.333  28.210  28.780  1.00  0.00    -0.014 A 
BRANCH  40  41
ATOM     41  C   UNL A   1      43.949  29.050  29.898  1.00  0.00     0.031 A 
ATOM     42  C   UNL A   1      43.729  28.355  31.182  1.00  0.00     0.074 A 
ATOM     43  C   UNL A   1      43.830  30.385  29.788  1.00  0.00     0.049 A 
ATOM     44  N   UNL A   1      42.614  28.167  31.806  1.00  0.00    -0.248 NA
ATOM     45  C   UNL A   1      44.892  27.700  31.795  1.00  0.00     0.031 C 
ATOM     46  C   UNL A   1      44.324  31.248  28.714  1.00  0.00     0.029 A 
ATOM     47  N   UNL A   1      43.318  31.261  30.693  1.00  0.00    -0.354 N 
ATOM     48  C   UNL A   1      42.949  27.513  32.986  1.00  0.00     0.074 A 
ATOM     49  C   UNL A   1      44.332  27.123  32.857  1.00  0.00     0.031 C 
ATOM     50  C   UNL A   1      44.282  32.533  29.131  1.00  0.00     0.029 A 
ATOM     51  C   UNL A   1      43.633  32.584  30.432  1.00  0.00     0.049 A 
ATOM     52  H   UNL A   1      42.774  30.980  31.463  1.00  0.00     0.167 HD
ATOM     53  C   UNL A   1      42.133  27.509  34.076  1.00  0.00     0.031 A 
ATOM     54  C   UNL A   1      43.455  33.630  31.274  1.00  0.00     0.031 A 
ATOM     55  C   UNL A   1      40.798  27.937  33.763  1.00  0.00     0.049 A 
ATOM     56  C   UNL A   1      42.451  33.229  32.292  1.00  0.00     0.074 A 
ATOM     57  C   UNL A   1      39.787  27.460  32.953  1.00  0.00     0.029 A 
ATOM     58  N   UNL A   1      40.461  29.233  34.076  1.00  0.00    -0.354 N 
ATOM     59  N   UNL A   1      41.193  33.007  32.030  1.00  0.00    -0.248 NA
ATOM     60  C   UNL A   1      42.922  32.685  33.559  1.00  0.00     0.031 C 
ATOM     61  C   UNL A   1      39.115  28.619  32.471  1.00  0.00     0.029 A 
ATOM     62  C   UNL A   1      39.738  29.739  33.027  1.00  0.00     0.049 A 
ATOM     63  H   UNL A   1      40.697  29.711  34.904  1.00  0.00     0.167 HD
ATOM     64  C   UNL A   1      40.817  31.980  32.886  1.00  0.00     0.074 A 
ATOM     65  C   UNL A   1      41.885  31.904  33.875  1.00  0.00     0.031 C 
ATOM     66  C   UNL A   1      39.812  31.113  32.563  1.00  0.00     0.031 A 
BRANCH  53  67
ATOM     67  C   UNL A   1      42.645  27.454  35.492  1.00  0.00    -0.014 A 
ATOM     68  C   UNL A   1      43.574  28.418  35.929  1.00  0.00     0.010 A 
ATOM     69  C   UNL A   1      42.447  26.330  36.320  1.00  0.00     0.010 A 
ATOM     70  C   UNL A   1      44.314  28.230  37.104  1.00  0.00     0.020 A 
ATOM     71  C   UNL A   1      43.142  26.157  37.517  1.00  0.00     0.020 A 
ATOM     72  C   UNL A   1      44.103  27.089  37.881  1.00  0.00     0.054 A 
BRANCH  72  73
ATOM     73  S   UNL A   1      45.156  26.779  39.318  1.00  0.00     0.124 S 
ATOM     74  O   UNL A   1      45.342  25.333  39.244  1.00  0.00    -0.237 OA
ATOM     75  O   UNL A   1      46.335  27.587  39.022  1.00  0.00    -0.237 OA
ATOM     76  O   UNL A   1      44.349  27.251  40.441  1.00  0.00    -0.744 OA
ENDBRANCH  72  73
ENDBRANCH  53  67
BRANCH  54  77
ATOM     77  C   UNL A   1      44.352  34.800  31.422  1.00  0.00    -0.014 A 
ATOM     78  C   UNL A   1      43.899  36.105  31.169  1.00  0.00     0.010 A 
ATOM     79  C   UNL A   1      45.606  34.650  32.054  1.00  0.00     0.010 A 
ATOM     80  C   UNL A   1      44.654  37.219  31.576  1.00  0.00     0.020 A 
ATOM     81  C   UNL A   1      46.367  35.751  32.450  1.00  0.00     0.020 A 
ATOM     82  C   UNL A   1      45.878  37.034  32.227  1.00  0.00     0.054 A 
BRANCH  82  83
ATOM     83  S   UNL A   1      46.768  38.472  32.887  1.00  0.00     0.124 S 
ATOM     84  O   UNL A   1      46.502  39.492  31.877  1.00  0.00    -0.237 OA
ATOM     85  O   UNL A   1      46.124  38.678  34.180  1.00  0.00    -0.237 OA
ATOM     86  O   UNL A   1      48.156  38.016  32.956  1.00  0.00    -0.744 OA
ENDBRANCH  82  83
ENDBRANCH  54  77
BRANCH  66  87
ATOM     87  C   UNL A   1      38.875  31.477  31.435  1.00  0.00    -0.014 A 
ATOM     88  C   UNL A   1      39.097  31.094  30.099  1.00  0.00     0.010 A 
ATOM     89  C   UNL A   1      37.638  32.058  31.771  1.00  0.00     0.010 A 
ATOM     90  C   UNL A   1      38.108  31.289  29.125  1.00  0.00     0.020 A 
ATOM     91  C   UNL A   1      36.641  32.239  30.808  1.00  0.00     0.020 A 
ATOM     92  C   UNL A   1      36.881  31.853  29.489  1.00  0.00     0.054 A 
BRANCH  92  93
ATOM     93  S   UNL A   1      35.567  31.998  28.244  1.00  0.00     0.124 S 
ATOM     94  O   UNL A   1      35.783  30.816  27.415  1.00  0.00    -0.237 OA
ATOM     95  O   UNL A   1      34.350  31.984  29.053  1.00  0.00    -0.237 OA
ATOM     96  O   UNL A   1      35.848  33.275  27.590  1.00  0.00    -0.744 OA
ENDBRANCH  92  93
ENDBRANCH  66  87
ENDBRANCH  40  41
ENDBRANCH  33  35
ENDBRANCH  32  33
ENDBRANCH  31  32
ENDBRANCH  30  31
ENDBRANCH  29  30
ENDBRANCH   1  29
TORSDOF 24
ENDMDL
