MODEL 1
REMARK VINA RESULT:     -10.5      0.000      0.000
REMARK SMILES O=C(OCCOCCOC(=O)[C@@H]1CCCN(C(=O)/C=C/c2c(F)cccc2Cl)C1)c1ccc(-c2c3nc(c(-c4ccc(S(=O)(=O)[O-])cc4)c4ccc([nH]4)c(-c4ccc(S(=O)(=O)[O-])cc4)c4nc(c(-c5ccc(S(=O)(=O)[O-])cc5)c5ccc2[nH]5)C=C4)C=C3)cc1
REMARK SMILES IDX 6 1 5 2 4 3 3 4 2 5 1 6 30 7 31 8 89 9 32 10 88 11 33 12
REMARK SMILES IDX 34 13 35 14 82 15 36 16 87 17 81 18 83 19 37 20 86 21 80 22
REMARK SMILES IDX 79 23 38 25 68 26 49 27 67 28 50 29 53 30 66 31 84 32 51 33
REMARK SMILES IDX 52 34 65 36 85 37 54 38 39 39 40 40 48 41 41 42 47 43 42 44
REMARK SMILES IDX 43 45 44 46 45 47 46 48 69 49 70 50 78 51 71 52 77 53 72 54
REMARK SMILES IDX 73 55 74 56 75 57 76 58 55 59 56 60 64 61 57 62 63 63 58 64
REMARK SMILES IDX 59 65 60 66 61 67 62 68 7 69 8 70 9 71 10 72 11 73 12 74
REMARK SMILES IDX 13 75 29 76 14 77 16 78 15 79 17 80 18 81 19 82 20 83 21 84
REMARK SMILES IDX 22 85 27 86 23 87 24 88 26 89 28 90 25 91
REMARK H PARENT 83 24 53 35
REMARK Flexibility Score: inf
ROOT
ATOM      1  O   UNL A   1      38.501  22.165  25.459  1.00  0.00    -0.374 OA
ENDROOT
BRANCH   1   2
ATOM      2  C   UNL A   1      39.513  21.810  26.403  1.00  0.00     0.202 C 
BRANCH   2   3
ATOM      3  C   UNL A   1      40.835  22.552  26.198  1.00  0.00     0.261 C 
BRANCH   3   4
ATOM      4  O   UNL A   1      40.981  23.603  27.161  1.00  0.00    -0.460 OA
BRANCH   4   5
ATOM      5  C   UNL A   1      40.948  24.939  26.937  1.00  0.00     0.338 C 
ATOM      6  O   UNL A   1      40.898  25.329  25.771  1.00  0.00    -0.246 OA
BRANCH   5   7
ATOM      7  C   UNL A   1      40.925  25.972  28.021  1.00  0.00     0.060 A 
ATOM      8  C   UNL A   1      41.909  26.936  28.250  1.00  0.00     0.016 A 
ATOM      9  C   UNL A   1      39.768  26.016  28.821  1.00  0.00     0.016 A 
ATOM     10  C   UNL A   1      41.779  27.890  29.244  1.00  0.00     0.010 A 
ATOM     11  C   UNL A   1      39.617  26.986  29.815  1.00  0.00     0.010 A 
ATOM     12  C   UNL A   1      40.634  27.920  30.029  1.00  0.00    -0.014 A 
BRANCH  12  13
ATOM     13  C   UNL A   1      40.616  28.884  31.136  1.00  0.00     0.031 A 
ATOM     14  C   UNL A   1      39.585  29.967  31.104  1.00  0.00     0.074 A 
ATOM     15  C   UNL A   1      41.387  28.653  32.214  1.00  0.00     0.049 A 
ATOM     16  N   UNL A   1      39.362  30.915  31.970  1.00  0.00    -0.248 NA
ATOM     17  C   UNL A   1      38.663  29.968  29.952  1.00  0.00     0.031 C 
ATOM     18  C   UNL A   1      42.303  27.517  32.369  1.00  0.00     0.029 A 
ATOM     19  N   UNL A   1      41.491  29.326  33.400  1.00  0.00    -0.354 N 
ATOM     20  C   UNL A   1      38.291  31.638  31.461  1.00  0.00     0.074 A 
ATOM     21  C   UNL A   1      37.908  31.024  30.211  1.00  0.00     0.031 C 
ATOM     22  C   UNL A   1      42.856  27.562  33.592  1.00  0.00     0.029 A 
ATOM     23  C   UNL A   1      42.389  28.761  34.275  1.00  0.00     0.049 A 
ATOM     24  H   UNL A   1      40.972  30.137  33.607  1.00  0.00     0.167 HD
ATOM     25  C   UNL A   1      37.696  32.727  31.996  1.00  0.00     0.031 A 
ATOM     26  C   UNL A   1      42.807  29.198  35.478  1.00  0.00     0.031 A 
ATOM     27  C   UNL A   1      38.125  33.318  33.233  1.00  0.00     0.049 A 
ATOM     28  C   UNL A   1      42.212  30.483  35.990  1.00  0.00     0.074 A 
ATOM     29  C   UNL A   1      37.675  34.473  33.843  1.00  0.00     0.029 A 
ATOM     30  N   UNL A   1      39.113  32.785  34.051  1.00  0.00    -0.354 N 
ATOM     31  N   UNL A   1      41.257  31.216  35.461  1.00  0.00    -0.248 NA
ATOM     32  C   UNL A   1      42.756  31.012  37.245  1.00  0.00     0.031 C 
ATOM     33  C   UNL A   1      38.429  34.664  35.007  1.00  0.00     0.029 A 
ATOM     34  C   UNL A   1      39.304  33.596  35.152  1.00  0.00     0.049 A 
ATOM     35  H   UNL A   1      39.607  31.952  33.872  1.00  0.00     0.167 HD
ATOM     36  C   UNL A   1      41.079  32.288  36.325  1.00  0.00     0.074 A 
ATOM     37  C   UNL A   1      42.003  32.089  37.426  1.00  0.00     0.031 C 
ATOM     38  C   UNL A   1      40.240  33.350  36.221  1.00  0.00     0.031 A 
BRANCH  25  39
ATOM     39  C   UNL A   1      36.595  33.372  31.202  1.00  0.00    -0.014 A 
ATOM     40  C   UNL A   1      36.830  33.926  29.932  1.00  0.00     0.010 A 
ATOM     41  C   UNL A   1      35.300  33.437  31.749  1.00  0.00     0.010 A 
ATOM     42  C   UNL A   1      35.796  34.559  29.234  1.00  0.00     0.020 A 
ATOM     43  C   UNL A   1      34.259  34.048  31.046  1.00  0.00     0.020 A 
ATOM     44  C   UNL A   1      34.517  34.617  29.797  1.00  0.00     0.054 A 
BRANCH  44  45
ATOM     45  S   UNL A   1      33.189  35.426  28.863  1.00  0.00     0.124 S 
ATOM     46  O   UNL A   1      32.397  36.036  29.928  1.00  0.00    -0.237 OA
ATOM     47  O   UNL A   1      33.920  36.360  28.012  1.00  0.00    -0.237 OA
ATOM     48  O   UNL A   1      32.538  34.324  28.158  1.00  0.00    -0.744 OA
ENDBRANCH  44  45
ENDBRANCH  25  39
BRANCH  26  49
ATOM     49  C   UNL A   1      43.881  28.480  36.221  1.00  0.00    -0.014 A 
ATOM     50  C   UNL A   1      45.233  28.841  36.086  1.00  0.00     0.010 A 
ATOM     51  C   UNL A   1      43.553  27.395  37.056  1.00  0.00     0.010 A 
ATOM     52  C   UNL A   1      46.233  28.111  36.741  1.00  0.00     0.020 A 
ATOM     53  C   UNL A   1      44.543  26.684  37.738  1.00  0.00     0.020 A 
ATOM     54  C   UNL A   1      45.882  27.033  37.559  1.00  0.00     0.054 A 
BRANCH  54  55
ATOM     55  S   UNL A   1      47.190  26.098  38.399  1.00  0.00     0.124 S 
ATOM     56  O   UNL A   1      46.738  26.125  39.787  1.00  0.00    -0.237 OA
ATOM     57  O   UNL A   1      47.126  24.797  37.737  1.00  0.00    -0.237 OA
ATOM     58  O   UNL A   1      48.399  26.872  38.121  1.00  0.00    -0.744 OA
ENDBRANCH  54  55
ENDBRANCH  26  49
BRANCH  38  59
ATOM     59  C   UNL A   1      40.275  34.346  37.343  1.00  0.00    -0.014 A 
ATOM     60  C   UNL A   1      41.142  35.451  37.304  1.00  0.00     0.010 A 
ATOM     61  C   UNL A   1      39.391  34.194  38.426  1.00  0.00     0.010 A 
ATOM     62  C   UNL A   1      41.149  36.373  38.352  1.00  0.00     0.020 A 
ATOM     63  C   UNL A   1      39.374  35.131  39.460  1.00  0.00     0.020 A 
ATOM     64  C   UNL A   1      40.264  36.205  39.423  1.00  0.00     0.054 A 
BRANCH  64  65
ATOM     65  S   UNL A   1      40.264  37.437  40.751  1.00  0.00     0.124 S 
ATOM     66  O   UNL A   1      41.632  37.342  41.253  1.00  0.00    -0.237 OA
ATOM     67  O   UNL A   1      39.936  38.673  40.044  1.00  0.00    -0.237 OA
ATOM     68  O   UNL A   1      39.230  36.958  41.666  1.00  0.00    -0.744 OA
ENDBRANCH  64  65
ENDBRANCH  38  59
ENDBRANCH  12  13
ENDBRANCH   5   7
ENDBRANCH   4   5
ENDBRANCH   3   4
ENDBRANCH   2   3
ENDBRANCH   1   2
BRANCH   1  69
ATOM     69  C   UNL A   1      37.690  23.293  25.810  1.00  0.00     0.202 C 
BRANCH  69  70
ATOM     70  C   UNL A   1      36.216  22.905  25.749  1.00  0.00     0.261 C 
BRANCH  70  71
ATOM     71  O   UNL A   1      35.478  24.071  25.367  1.00  0.00    -0.463 OA
BRANCH  71  72
ATOM     72  C   UNL A   1      34.246  24.194  25.931  1.00  0.00     0.310 C 
ATOM     73  O   UNL A   1      33.813  23.491  26.837  1.00  0.00    -0.252 OA
BRANCH  72  74
ATOM     74  C   UNL A   1      33.512  25.410  25.383  1.00  0.00     0.119 C 
ATOM     75  C   UNL A   1      32.108  25.518  25.991  1.00  0.00     0.019 C 
ATOM     76  C   UNL A   1      33.432  25.406  23.858  1.00  0.00     0.135 C 
ATOM     77  C   UNL A   1      31.184  24.422  25.455  1.00  0.00     0.022 C 
ATOM     78  N   UNL A   1      32.574  24.314  23.416  1.00  0.00    -0.338 N 
ATOM     79  C   UNL A   1      31.204  24.380  23.927  1.00  0.00     0.120 C 
BRANCH  78  80
ATOM     80  C   UNL A   1      33.121  23.341  22.600  1.00  0.00     0.246 C 
ATOM     81  O   UNL A   1      33.445  23.541  21.430  1.00  0.00    -0.270 OA
BRANCH  80  82
ATOM     82  C   UNL A   1      33.304  21.974  23.136  1.00  0.00     0.072 C 
ATOM     83  C   UNL A   1      32.283  21.118  23.289  1.00  0.00     0.018 C 
BRANCH  83  84
ATOM     84  C   UNL A   1      32.489  19.791  23.879  1.00  0.00     0.029 A 
ATOM     85  C   UNL A   1      32.685  19.680  25.261  1.00  0.00     0.131 A 
ATOM     86  C   UNL A   1      32.515  18.616  23.111  1.00  0.00     0.051 A 
ATOM     87  F   UNL A   1      32.675  20.776  26.034  1.00  0.00    -0.206 F 
ATOM     88  C   UNL A   1      32.902  18.446  25.869  1.00  0.00     0.040 A 
ATOM     89  C   UNL A   1      32.734  17.373  23.717  1.00  0.00     0.021 A 
ATOM     90  Cl  UNL A   1      32.287  18.629  21.397  1.00  0.00    -0.084 Cl
ATOM     91  C   UNL A   1      32.928  17.288  25.096  1.00  0.00     0.005 A 
ENDBRANCH  83  84
ENDBRANCH  80  82
ENDBRANCH  78  80
ENDBRANCH  72  74
ENDBRANCH  71  72
ENDBRANCH  70  71
ENDBRANCH  69  70
ENDBRANCH   1  69
TORSDOF 20
ENDMDL
MODEL 2
REMARK VINA RESULT:     -10.2      5.280      9.307
REMARK SMILES O=C(OCCOCCOC(=O)[C@@H]1CCCN(C(=O)/C=C/c2c(F)cccc2Cl)C1)c1ccc(-c2c3nc(c(-c4ccc(S(=O)(=O)[O-])cc4)c4ccc([nH]4)c(-c4ccc(S(=O)(=O)[O-])cc4)c4nc(c(-c5ccc(S(=O)(=O)[O-])cc5)c5ccc2[nH]5)C=C4)C=C3)cc1
REMARK SMILES IDX 6 1 5 2 4 3 3 4 2 5 1 6 30 7 31 8 89 9 32 10 88 11 33 12
REMARK SMILES IDX 34 13 35 14 82 15 36 16 87 17 81 18 83 19 37 20 86 21 80 22
REMARK SMILES IDX 79 23 38 25 68 26 49 27 67 28 50 29 53 30 66 31 84 32 51 33
REMARK SMILES IDX 52 34 65 36 85 37 54 38 39 39 40 40 48 41 41 42 47 43 42 44
REMARK SMILES IDX 43 45 44 46 45 47 46 48 69 49 70 50 78 51 71 52 77 53 72 54
REMARK SMILES IDX 73 55 74 56 75 57 76 58 55 59 56 60 64 61 57 62 63 63 58 64
REMARK SMILES IDX 59 65 60 66 61 67 62 68 7 69 8 70 9 71 10 72 11 73 12 74
REMARK SMILES IDX 13 75 29 76 14 77 16 78 15 79 17 80 18 81 19 82 20 83 21 84
REMARK SMILES IDX 22 85 27 86 23 87 24 88 26 89 28 90 25 91
REMARK H PARENT 83 24 53 35
REMARK Flexibility Score: inf
ROOT
ATOM      1  O   UNL A   1      36.896  22.232  23.620  1.00  0.00    -0.374 OA
ENDROOT
BRANCH   1   2
ATOM      2  C   UNL A   1      36.618  21.237  24.607  1.00  0.00     0.202 C 
BRANCH   2   3
ATOM      3  C   UNL A   1      37.846  20.814  25.418  1.00  0.00     0.261 C 
BRANCH   3   4
ATOM      4  O   UNL A   1      38.733  21.923  25.610  1.00  0.00    -0.460 OA
BRANCH   4   5
ATOM      5  C   UNL A   1      39.650  22.085  26.594  1.00  0.00     0.338 C 
ATOM      6  O   UNL A   1      40.083  21.078  27.154  1.00  0.00    -0.246 OA
BRANCH   5   7
ATOM      7  C   UNL A   1      40.205  23.411  27.014  1.00  0.00     0.060 A 
ATOM      8  C   UNL A   1      39.875  24.647  26.455  1.00  0.00     0.016 A 
ATOM      9  C   UNL A   1      41.070  23.406  28.123  1.00  0.00     0.016 A 
ATOM     10  C   UNL A   1      40.396  25.832  26.944  1.00  0.00     0.010 A 
ATOM     11  C   UNL A   1      41.588  24.597  28.638  1.00  0.00     0.010 A 
ATOM     12  C   UNL A   1      41.252  25.813  28.036  1.00  0.00    -0.014 A 
BRANCH  12  13
ATOM     13  C   UNL A   1      41.855  27.093  28.427  1.00  0.00     0.031 A 
ATOM     14  C   UNL A   1      43.316  27.287  28.169  1.00  0.00     0.074 A 
ATOM     15  C   UNL A   1      41.053  28.098  28.821  1.00  0.00     0.049 A 
ATOM     16  N   UNL A   1      44.061  28.329  28.407  1.00  0.00    -0.248 NA
ATOM     17  C   UNL A   1      44.029  26.164  27.532  1.00  0.00     0.031 C 
ATOM     18  C   UNL A   1      39.592  28.015  28.942  1.00  0.00     0.029 A 
ATOM     19  N   UNL A   1      41.337  29.396  29.145  1.00  0.00    -0.354 N 
ATOM     20  C   UNL A   1      45.334  27.983  27.971  1.00  0.00     0.074 A 
ATOM     21  C   UNL A   1      45.264  26.636  27.455  1.00  0.00     0.031 C 
ATOM     22  C   UNL A   1      39.110  29.218  29.290  1.00  0.00     0.029 A 
ATOM     23  C   UNL A   1      40.227  30.134  29.484  1.00  0.00     0.049 A 
ATOM     24  H   UNL A   1      42.249  29.766  29.136  1.00  0.00     0.167 HD
ATOM     25  C   UNL A   1      46.457  28.731  28.015  1.00  0.00     0.031 A 
ATOM     26  C   UNL A   1      40.142  31.398  29.937  1.00  0.00     0.031 A 
ATOM     27  C   UNL A   1      46.485  30.061  28.558  1.00  0.00     0.049 A 
ATOM     28  C   UNL A   1      41.429  32.164  30.091  1.00  0.00     0.074 A 
ATOM     29  C   UNL A   1      47.569  30.896  28.750  1.00  0.00     0.029 A 
ATOM     30  N   UNL A   1      45.361  30.748  28.996  1.00  0.00    -0.354 N 
ATOM     31  N   UNL A   1      42.647  31.799  29.759  1.00  0.00    -0.248 NA
ATOM     32  C   UNL A   1      41.338  33.498  30.693  1.00  0.00     0.031 C 
ATOM     33  C   UNL A   1      47.104  32.071  29.351  1.00  0.00     0.029 A 
ATOM     34  C   UNL A   1      45.724  31.992  29.476  1.00  0.00     0.049 A 
ATOM     35  H   UNL A   1      44.440  30.402  28.969  1.00  0.00     0.167 HD
ATOM     36  C   UNL A   1      43.469  32.865  30.103  1.00  0.00     0.074 A 
ATOM     37  C   UNL A   1      42.602  33.898  30.639  1.00  0.00     0.031 C 
ATOM     38  C   UNL A   1      44.817  32.984  30.000  1.00  0.00     0.031 A 
BRANCH  25  39
ATOM     39  C   UNL A   1      47.732  28.091  27.543  1.00  0.00    -0.014 A 
ATOM     40  C   UNL A   1      48.597  27.428  28.432  1.00  0.00     0.010 A 
ATOM     41  C   UNL A   1      48.078  28.168  26.181  1.00  0.00     0.010 A 
ATOM     42  C   UNL A   1      49.798  26.879  27.971  1.00  0.00     0.020 A 
ATOM     43  C   UNL A   1      49.266  27.601  25.713  1.00  0.00     0.020 A 
ATOM     44  C   UNL A   1      50.125  26.970  26.614  1.00  0.00     0.054 A 
BRANCH  44  45
ATOM     45  S   UNL A   1      51.680  26.232  26.040  1.00  0.00     0.124 S 
ATOM     46  O   UNL A   1      51.496  24.827  26.395  1.00  0.00    -0.237 OA
ATOM     47  O   UNL A   1      51.664  26.525  24.610  1.00  0.00    -0.237 OA
ATOM     48  O   UNL A   1      52.704  26.938  26.807  1.00  0.00    -0.744 OA
ENDBRANCH  44  45
ENDBRANCH  25  39
BRANCH  26  49
ATOM     49  C   UNL A   1      38.831  31.974  30.353  1.00  0.00    -0.014 A 
ATOM     50  C   UNL A   1      38.419  31.964  31.697  1.00  0.00     0.010 A 
ATOM     51  C   UNL A   1      37.964  32.517  29.385  1.00  0.00     0.010 A 
ATOM     52  C   UNL A   1      37.155  32.450  32.057  1.00  0.00     0.020 A 
ATOM     53  C   UNL A   1      36.717  33.034  29.744  1.00  0.00     0.020 A 
ATOM     54  C   UNL A   1      36.310  32.977  31.077  1.00  0.00     0.054 A 
BRANCH  54  55
ATOM     55  S   UNL A   1      34.676  33.602  31.561  1.00  0.00     0.124 S 
ATOM     56  O   UNL A   1      34.068  32.421  32.166  1.00  0.00    -0.237 OA
ATOM     57  O   UNL A   1      35.011  34.685  32.482  1.00  0.00    -0.237 OA
ATOM     58  O   UNL A   1      34.084  34.031  30.295  1.00  0.00    -0.744 OA
ENDBRANCH  54  55
ENDBRANCH  26  49
BRANCH  38  59
ATOM     59  C   UNL A   1      45.413  34.285  30.451  1.00  0.00    -0.014 A 
ATOM     60  C   UNL A   1      45.549  35.366  29.563  1.00  0.00     0.010 A 
ATOM     61  C   UNL A   1      45.795  34.438  31.795  1.00  0.00     0.010 A 
ATOM     62  C   UNL A   1      46.094  36.572  30.006  1.00  0.00     0.020 A 
ATOM     63  C   UNL A   1      46.310  35.652  32.249  1.00  0.00     0.020 A 
ATOM     64  C   UNL A   1      46.470  36.706  31.347  1.00  0.00     0.054 A 
BRANCH  64  65
ATOM     65  S   UNL A   1      47.137  38.294  31.908  1.00  0.00     0.124 S 
ATOM     66  O   UNL A   1      48.002  38.670  30.795  1.00  0.00    -0.237 OA
ATOM     67  O   UNL A   1      45.934  39.107  32.074  1.00  0.00    -0.237 OA
ATOM     68  O   UNL A   1      47.829  37.958  33.151  1.00  0.00    -0.744 OA
ENDBRANCH  64  65
ENDBRANCH  38  59
ENDBRANCH  12  13
ENDBRANCH   5   7
ENDBRANCH   4   5
ENDBRANCH   3   4
ENDBRANCH   2   3
ENDBRANCH   1   2
BRANCH   1  69
ATOM     69  C   UNL A   1      36.086  23.412  23.680  1.00  0.00     0.202 C 
BRANCH  69  70
ATOM     70  C   UNL A   1      35.732  23.719  25.133  1.00  0.00     0.261 C 
BRANCH  70  71
ATOM     71  O   UNL A   1      35.014  24.959  25.149  1.00  0.00    -0.463 OA
BRANCH  71  72
ATOM     72  C   UNL A   1      33.819  24.932  25.797  1.00  0.00     0.310 C 
ATOM     73  O   UNL A   1      33.526  24.162  26.705  1.00  0.00    -0.252 OA
BRANCH  72  74
ATOM     74  C   UNL A   1      32.924  26.077  25.342  1.00  0.00     0.119 C 
ATOM     75  C   UNL A   1      31.541  25.980  25.997  1.00  0.00     0.019 C 
ATOM     76  C   UNL A   1      32.788  26.143  23.822  1.00  0.00     0.135 C 
ATOM     77  C   UNL A   1      30.736  24.810  25.429  1.00  0.00     0.022 C 
ATOM     78  N   UNL A   1      32.052  24.979  23.346  1.00  0.00    -0.338 N 
ATOM     79  C   UNL A   1      30.704  24.851  23.901  1.00  0.00     0.120 C 
BRANCH  78  80
ATOM     80  C   UNL A   1      32.681  24.124  22.459  1.00  0.00     0.246 C 
ATOM     81  O   UNL A   1      33.324  24.511  21.485  1.00  0.00    -0.270 OA
BRANCH  80  82
ATOM     82  C   UNL A   1      32.558  22.663  22.661  1.00  0.00     0.072 C 
ATOM     83  C   UNL A   1      32.769  22.080  23.850  1.00  0.00     0.018 C 
BRANCH  83  84
ATOM     84  C   UNL A   1      32.697  20.623  24.003  1.00  0.00     0.029 A 
ATOM     85  C   UNL A   1      32.310  19.840  22.909  1.00  0.00     0.131 A 
ATOM     86  C   UNL A   1      32.985  19.973  25.213  1.00  0.00     0.051 A 
ATOM     87  F   UNL A   1      32.018  20.418  21.734  1.00  0.00    -0.206 F 
ATOM     88  C   UNL A   1      32.209  18.454  23.005  1.00  0.00     0.040 A 
ATOM     89  C   UNL A   1      32.884  18.581  25.315  1.00  0.00     0.021 A 
ATOM     90  Cl  UNL A   1      33.471  20.836  26.631  1.00  0.00    -0.084 Cl
ATOM     91  C   UNL A   1      32.495  17.820  24.212  1.00  0.00     0.005 A 
ENDBRANCH  83  84
ENDBRANCH  80  82
ENDBRANCH  78  80
ENDBRANCH  72  74
ENDBRANCH  71  72
ENDBRANCH  70  71
ENDBRANCH  69  70
ENDBRANCH   1  69
TORSDOF 20
ENDMDL
MODEL 3
REMARK VINA RESULT:     -10.1      2.972      5.194
REMARK SMILES O=C(OCCOCCOC(=O)[C@@H]1CCCN(C(=O)/C=C/c2c(F)cccc2Cl)C1)c1ccc(-c2c3nc(c(-c4ccc(S(=O)(=O)[O-])cc4)c4ccc([nH]4)c(-c4ccc(S(=O)(=O)[O-])cc4)c4nc(c(-c5ccc(S(=O)(=O)[O-])cc5)c5ccc2[nH]5)C=C4)C=C3)cc1
REMARK SMILES IDX 6 1 5 2 4 3 3 4 2 5 1 6 30 7 31 8 89 9 32 10 88 11 33 12
REMARK SMILES IDX 34 13 35 14 82 15 36 16 87 17 81 18 83 19 37 20 86 21 80 22
REMARK SMILES IDX 79 23 38 25 68 26 49 27 67 28 50 29 53 30 66 31 84 32 51 33
REMARK SMILES IDX 52 34 65 36 85 37 54 38 39 39 40 40 48 41 41 42 47 43 42 44
REMARK SMILES IDX 43 45 44 46 45 47 46 48 69 49 70 50 78 51 71 52 77 53 72 54
REMARK SMILES IDX 73 55 74 56 75 57 76 58 55 59 56 60 64 61 57 62 63 63 58 64
REMARK SMILES IDX 59 65 60 66 61 67 62 68 7 69 8 70 9 71 10 72 11 73 12 74
REMARK SMILES IDX 13 75 29 76 14 77 16 78 15 79 17 80 18 81 19 82 20 83 21 84
REMARK SMILES IDX 22 85 27 86 23 87 24 88 26 89 28 90 25 91
REMARK H PARENT 83 24 53 35
REMARK Flexibility Score: inf
ROOT
ATOM      1  O   UNL A   1      36.752  23.948  26.122  1.00  0.00    -0.374 OA
ENDROOT
BRANCH   1   2
ATOM      2  C   UNL A   1      37.984  23.263  25.891  1.00  0.00     0.202 C 
BRANCH   2   3
ATOM      3  C   UNL A   1      39.117  23.702  26.821  1.00  0.00     0.261 C 
BRANCH   3   4
ATOM      4  O   UNL A   1      38.806  24.956  27.442  1.00  0.00    -0.460 OA
BRANCH   4   5
ATOM      5  C   UNL A   1      39.592  26.056  27.522  1.00  0.00     0.338 C 
ATOM      6  O   UNL A   1      40.176  26.425  26.503  1.00  0.00    -0.246 OA
BRANCH   5   7
ATOM      7  C   UNL A   1      39.761  26.880  28.760  1.00  0.00     0.060 A 
ATOM      8  C   UNL A   1      38.972  26.796  29.909  1.00  0.00     0.016 A 
ATOM      9  C   UNL A   1      40.863  27.753  28.787  1.00  0.00     0.016 A 
ATOM     10  C   UNL A   1      39.235  27.560  31.033  1.00  0.00     0.010 A 
ATOM     11  C   UNL A   1      41.150  28.516  29.923  1.00  0.00     0.010 A 
ATOM     12  C   UNL A   1      40.323  28.421  31.045  1.00  0.00    -0.014 A 
BRANCH  12  13
ATOM     13  C   UNL A   1      40.473  29.282  32.225  1.00  0.00     0.031 A 
ATOM     14  C   UNL A   1      39.423  30.318  32.473  1.00  0.00     0.074 A 
ATOM     15  C   UNL A   1      41.426  28.990  33.128  1.00  0.00     0.049 A 
ATOM     16  N   UNL A   1      39.329  31.175  33.450  1.00  0.00    -0.248 NA
ATOM     17  C   UNL A   1      38.314  30.381  31.502  1.00  0.00     0.031 C 
ATOM     18  C   UNL A   1      42.386  27.886  33.015  1.00  0.00     0.029 A 
ATOM     19  N   UNL A   1      41.718  29.559  34.336  1.00  0.00    -0.354 N 
ATOM     20  C   UNL A   1      38.166  31.893  33.203  1.00  0.00     0.074 A 
ATOM     21  C   UNL A   1      37.587  31.376  31.985  1.00  0.00     0.031 C 
ATOM     22  C   UNL A   1      43.143  27.846  34.124  1.00  0.00     0.029 A 
ATOM     23  C   UNL A   1      42.769  28.959  34.987  1.00  0.00     0.049 A 
ATOM     24  H   UNL A   1      41.221  30.325  34.706  1.00  0.00     0.167 HD
ATOM     25  C   UNL A   1      37.644  32.903  33.933  1.00  0.00     0.031 A 
ATOM     26  C   UNL A   1      43.379  29.305  36.136  1.00  0.00     0.031 A 
ATOM     27  C   UNL A   1      38.266  33.400  35.128  1.00  0.00     0.049 A 
ATOM     28  C   UNL A   1      42.849  30.513  36.862  1.00  0.00     0.074 A 
ATOM     29  C   UNL A   1      37.899  34.476  35.913  1.00  0.00     0.029 A 
ATOM     30  N   UNL A   1      39.397  32.841  35.710  1.00  0.00    -0.354 N 
ATOM     31  N   UNL A   1      41.797  31.247  36.576  1.00  0.00    -0.248 NA
ATOM     32  C   UNL A   1      43.589  30.951  38.050  1.00  0.00     0.031 C 
ATOM     33  C   UNL A   1      38.839  34.597  36.943  1.00  0.00     0.029 A 
ATOM     34  C   UNL A   1      39.755  33.559  36.834  1.00  0.00     0.049 A 
ATOM     35  H   UNL A   1      39.874  32.049  35.371  1.00  0.00     0.167 HD
ATOM     36  C   UNL A   1      41.743  32.230  37.555  1.00  0.00     0.074 A 
ATOM     37  C   UNL A   1      42.850  31.975  38.458  1.00  0.00     0.031 C 
ATOM     38  C   UNL A   1      40.870  33.260  37.699  1.00  0.00     0.031 A 
BRANCH  25  39
ATOM     39  C   UNL A   1      36.404  33.568  33.405  1.00  0.00    -0.014 A 
ATOM     40  C   UNL A   1      35.120  33.103  33.738  1.00  0.00     0.010 A 
ATOM     41  C   UNL A   1      36.530  34.673  32.542  1.00  0.00     0.010 A 
ATOM     42  C   UNL A   1      33.984  33.715  33.197  1.00  0.00     0.020 A 
ATOM     43  C   UNL A   1      35.397  35.300  32.018  1.00  0.00     0.020 A 
ATOM     44  C   UNL A   1      34.131  34.809  32.338  1.00  0.00     0.054 A 
BRANCH  44  45
ATOM     45  S   UNL A   1      32.641  35.595  31.666  1.00  0.00     0.124 S 
ATOM     46  O   UNL A   1      31.608  35.120  32.582  1.00  0.00    -0.237 OA
ATOM     47  O   UNL A   1      32.959  37.017  31.763  1.00  0.00    -0.237 OA
ATOM     48  O   UNL A   1      32.554  35.071  30.305  1.00  0.00    -0.744 OA
ENDBRANCH  44  45
ENDBRANCH  25  39
BRANCH  26  49
ATOM     49  C   UNL A   1      44.587  28.572  36.612  1.00  0.00    -0.014 A 
ATOM     50  C   UNL A   1      44.485  27.501  37.517  1.00  0.00     0.010 A 
ATOM     51  C   UNL A   1      45.866  28.969  36.178  1.00  0.00     0.010 A 
ATOM     52  C   UNL A   1      45.637  26.869  38.004  1.00  0.00     0.020 A 
ATOM     53  C   UNL A   1      47.016  28.320  36.634  1.00  0.00     0.020 A 
ATOM     54  C   UNL A   1      46.896  27.286  37.563  1.00  0.00     0.054 A 
BRANCH  54  55
ATOM     55  S   UNL A   1      48.377  26.457  38.203  1.00  0.00     0.124 S 
ATOM     56  O   UNL A   1      48.173  25.083  37.753  1.00  0.00    -0.237 OA
ATOM     57  O   UNL A   1      49.459  27.185  37.546  1.00  0.00    -0.237 OA
ATOM     58  O   UNL A   1      48.287  26.661  39.648  1.00  0.00    -0.744 OA
ENDBRANCH  54  55
ENDBRANCH  26  49
BRANCH  38  59
ATOM     59  C   UNL A   1      41.074  34.153  38.887  1.00  0.00    -0.014 A 
ATOM     60  C   UNL A   1      41.845  35.323  38.790  1.00  0.00     0.010 A 
ATOM     61  C   UNL A   1      40.440  33.838  40.102  1.00  0.00     0.010 A 
ATOM     62  C   UNL A   1      42.011  36.147  39.904  1.00  0.00     0.020 A 
ATOM     63  C   UNL A   1      40.578  34.675  41.209  1.00  0.00     0.020 A 
ATOM     64  C   UNL A   1      41.376  35.816  41.106  1.00  0.00     0.054 A 
BRANCH  64  65
ATOM     65  S   UNL A   1      41.573  36.923  42.527  1.00  0.00     0.124 S 
ATOM     66  O   UNL A   1      41.399  36.008  43.651  1.00  0.00    -0.237 OA
ATOM     67  O   UNL A   1      42.926  37.444  42.343  1.00  0.00    -0.237 OA
ATOM     68  O   UNL A   1      40.505  37.905  42.351  1.00  0.00    -0.744 OA
ENDBRANCH  64  65
ENDBRANCH  38  59
ENDBRANCH  12  13
ENDBRANCH   5   7
ENDBRANCH   4   5
ENDBRANCH   3   4
ENDBRANCH   2   3
ENDBRANCH   1   2
BRANCH   1  69
ATOM     69  C   UNL A   1      35.570  23.274  25.671  1.00  0.00     0.202 C 
BRANCH  69  70
ATOM     70  C   UNL A   1      34.978  24.019  24.479  1.00  0.00     0.261 C 
BRANCH  70  71
ATOM     71  O   UNL A   1      33.686  24.498  24.869  1.00  0.00    -0.463 OA
BRANCH  71  72
ATOM     72  C   UNL A   1      33.551  25.851  24.904  1.00  0.00     0.310 C 
ATOM     73  O   UNL A   1      34.189  26.604  25.631  1.00  0.00    -0.252 OA
BRANCH  72  74
ATOM     74  C   UNL A   1      32.594  26.335  23.822  1.00  0.00     0.119 C 
ATOM     75  C   UNL A   1      33.367  26.826  22.592  1.00  0.00     0.019 C 
ATOM     76  C   UNL A   1      31.648  27.424  24.325  1.00  0.00     0.135 C 
ATOM     77  C   UNL A   1      34.088  28.144  22.876  1.00  0.00     0.022 C 
ATOM     78  N   UNL A   1      32.406  28.633  24.618  1.00  0.00    -0.338 N 
ATOM     79  C   UNL A   1      33.135  29.180  23.472  1.00  0.00     0.120 C 
BRANCH  78  80
ATOM     80  C   UNL A   1      32.383  29.124  25.911  1.00  0.00     0.246 C 
ATOM     81  O   UNL A   1      31.524  28.818  26.737  1.00  0.00    -0.270 OA
BRANCH  80  82
ATOM     82  C   UNL A   1      33.420  30.093  26.330  1.00  0.00     0.072 C 
ATOM     83  C   UNL A   1      33.582  30.465  27.608  1.00  0.00     0.018 C 
BRANCH  83  84
ATOM     84  C   UNL A   1      34.580  31.473  27.982  1.00  0.00     0.029 A 
ATOM     85  C   UNL A   1      34.210  32.822  28.015  1.00  0.00     0.131 A 
ATOM     86  C   UNL A   1      35.909  31.144  28.297  1.00  0.00     0.051 A 
ATOM     87  F   UNL A   1      32.954  33.185  27.715  1.00  0.00    -0.206 F 
ATOM     88  C   UNL A   1      35.123  33.821  28.347  1.00  0.00     0.040 A 
ATOM     89  C   UNL A   1      36.830  32.143  28.630  1.00  0.00     0.021 A 
ATOM     90  Cl  UNL A   1      36.482  29.512  28.288  1.00  0.00    -0.084 Cl
ATOM     91  C   UNL A   1      36.438  33.482  28.655  1.00  0.00     0.005 A 
ENDBRANCH  83  84
ENDBRANCH  80  82
ENDBRANCH  78  80
ENDBRANCH  72  74
ENDBRANCH  71  72
ENDBRANCH  70  71
ENDBRANCH  69  70
ENDBRANCH   1  69
TORSDOF 20
ENDMDL
