MODEL 1
REMARK VINA RESULT:     -10.1      0.000      0.000
REMARK SMILES O=C(OCCOCCOC(=O)c1ccc(-c2c3nc(c(-c4ccc(S(=O)(=O)[O-])cc4)c4ccc([nH]4)c(-c4ccc(S(=O)(=O)[O-])cc4)c4nc(c(-c5ccc(S(=O)(=O)[O-])cc5)c5ccc2[nH]5)C=C4)C=C3)cc1)C1=Cc2c(cc(Cl)c(Cl)c2Cl)O[C@H]1C(F)(F)F
REMARK SMILES IDX 7 1 6 2 5 3 4 4 3 5 2 6 1 7 72 8 73 9 84 10 74 11 83 12
REMARK SMILES IDX 75 13 81 14 76 15 79 16 82 17 77 18 80 19 78 20 85 21 86 22
REMARK SMILES IDX 87 23 88 24 8 25 9 26 10 27 11 28 12 29 13 30 71 31 14 32
REMARK SMILES IDX 70 33 15 34 16 35 17 36 64 37 18 38 69 39 63 40 65 41 19 42
REMARK SMILES IDX 68 43 62 44 61 45 20 47 50 48 31 49 49 50 32 51 35 52 48 53
REMARK SMILES IDX 66 54 33 55 34 56 47 58 67 59 36 60 21 61 22 62 30 63 23 64
REMARK SMILES IDX 29 65 24 66 25 67 26 68 27 69 28 70 51 71 52 72 60 73 53 74
REMARK SMILES IDX 59 75 54 76 55 77 56 78 57 79 58 80 37 81 38 82 46 83 39 84
REMARK SMILES IDX 45 85 40 86 41 87 42 88 43 89 44 90
REMARK H PARENT 65 46 35 57
REMARK Flexibility Score: inf
ROOT
ATOM      1  C   UNL A   1      36.455  21.474  25.473  1.00  0.00     0.202 C 
ENDROOT
BRANCH   1   2
ATOM      2  O   UNL A   1      35.624  21.458  24.316  1.00  0.00    -0.374 OA
BRANCH   2   3
ATOM      3  C   UNL A   1      35.457  22.749  23.727  1.00  0.00     0.202 C 
BRANCH   3   4
ATOM      4  C   UNL A   1      34.009  23.236  23.830  1.00  0.00     0.261 C 
BRANCH   4   5
ATOM      5  O   UNL A   1      33.702  23.842  25.102  1.00  0.00    -0.460 OA
BRANCH   5   6
ATOM      6  C   UNL A   1      32.665  24.661  25.387  1.00  0.00     0.338 C 
ATOM      7  O   UNL A   1      31.804  24.291  26.185  1.00  0.00    -0.246 OA
BRANCH   6   8
ATOM      8  C   UNL A   1      32.608  26.064  24.909  1.00  0.00     0.087 C 
ATOM      9  C   UNL A   1      33.528  27.005  25.144  1.00  0.00     0.029 C 
ATOM     10  C   UNL A   1      31.364  26.425  24.128  1.00  0.00     0.316 C 
ATOM     11  C   UNL A   1      33.001  28.326  25.458  1.00  0.00     0.038 A 
ATOM     12  O   UNL A   1      31.150  27.869  23.969  1.00  0.00    -0.475 OA
ATOM     13  C   UNL A   1      31.808  28.693  24.842  1.00  0.00     0.131 A 
ATOM     14  C   UNL A   1      33.589  29.166  26.428  1.00  0.00     0.072 A 
ATOM     15  C   UNL A   1      31.254  29.939  25.105  1.00  0.00     0.069 A 
ATOM     16  C   UNL A   1      33.009  30.405  26.730  1.00  0.00     0.079 A 
ATOM     17  Cl  UNL A   1      34.986  28.632  27.312  1.00  0.00    -0.082 Cl
ATOM     18  C   UNL A   1      31.849  30.791  26.045  1.00  0.00     0.064 A 
ATOM     19  Cl  UNL A   1      33.703  31.433  27.947  1.00  0.00    -0.081 Cl
ATOM     20  Cl  UNL A   1      31.076  32.311  26.330  1.00  0.00    -0.083 Cl
BRANCH  10  21
ATOM     21  C   UNL A   1      31.378  25.746  22.728  1.00  0.00     0.430 C 
ATOM     22  F   UNL A   1      32.626  25.529  22.244  1.00  0.00    -0.167 F 
ATOM     23  F   UNL A   1      30.741  24.551  22.751  1.00  0.00    -0.167 F 
ATOM     24  F   UNL A   1      30.748  26.504  21.794  1.00  0.00    -0.167 F 
ENDBRANCH  10  21
ENDBRANCH   6   8
ENDBRANCH   5   6
ENDBRANCH   4   5
ENDBRANCH   3   4
ENDBRANCH   2   3
ENDBRANCH   1   2
BRANCH   1  25
ATOM     25  C   UNL A   1      37.044  22.854  25.779  1.00  0.00     0.261 C 
BRANCH  25  26
ATOM     26  O   UNL A   1      38.431  22.944  25.400  1.00  0.00    -0.460 OA
BRANCH  26  27
ATOM     27  C   UNL A   1      39.338  22.859  26.416  1.00  0.00     0.338 C 
ATOM     28  O   UNL A   1      39.952  21.867  26.746  1.00  0.00    -0.246 OA
BRANCH  27  29
ATOM     29  C   UNL A   1      39.566  24.202  27.031  1.00  0.00     0.060 A 
ATOM     30  C   UNL A   1      40.266  25.165  26.287  1.00  0.00     0.016 A 
ATOM     31  C   UNL A   1      39.089  24.539  28.303  1.00  0.00     0.016 A 
ATOM     32  C   UNL A   1      40.486  26.449  26.806  1.00  0.00     0.010 A 
ATOM     33  C   UNL A   1      39.311  25.821  28.822  1.00  0.00     0.010 A 
ATOM     34  C   UNL A   1      40.023  26.783  28.086  1.00  0.00    -0.014 A 
BRANCH  34  35
ATOM     35  C   UNL A   1      40.438  28.050  28.746  1.00  0.00     0.031 A 
ATOM     36  C   UNL A   1      41.832  28.131  29.310  1.00  0.00     0.074 A 
ATOM     37  C   UNL A   1      39.603  29.099  28.883  1.00  0.00     0.049 A 
ATOM     38  N   UNL A   1      42.405  29.101  29.974  1.00  0.00    -0.248 NA
ATOM     39  C   UNL A   1      42.689  26.953  29.102  1.00  0.00     0.031 C 
ATOM     40  C   UNL A   1      38.238  29.175  28.367  1.00  0.00     0.029 A 
ATOM     41  N   UNL A   1      39.787  30.307  29.518  1.00  0.00    -0.354 N 
ATOM     42  C   UNL A   1      43.688  28.653  30.263  1.00  0.00     0.074 A 
ATOM     43  C   UNL A   1      43.798  27.312  29.730  1.00  0.00     0.031 C 
ATOM     44  C   UNL A   1      37.706  30.363  28.710  1.00  0.00     0.029 A 
ATOM     45  C   UNL A   1      38.678  31.123  29.498  1.00  0.00     0.049 A 
ATOM     46  H   UNL A   1      40.634  30.565  29.946  1.00  0.00     0.167 HD
ATOM     47  C   UNL A   1      44.689  29.293  30.910  1.00  0.00     0.031 A 
ATOM     48  C   UNL A   1      38.464  32.332  30.063  1.00  0.00     0.031 A 
ATOM     49  C   UNL A   1      44.577  30.609  31.480  1.00  0.00     0.049 A 
ATOM     50  C   UNL A   1      39.571  32.992  30.855  1.00  0.00     0.074 A 
ATOM     51  C   UNL A   1      45.542  31.337  32.153  1.00  0.00     0.029 A 
ATOM     52  N   UNL A   1      43.429  31.386  31.461  1.00  0.00    -0.354 N 
ATOM     53  N   UNL A   1      40.795  32.573  31.077  1.00  0.00    -0.248 NA
ATOM     54  C   UNL A   1      39.268  34.295  31.469  1.00  0.00     0.031 C 
ATOM     55  C   UNL A   1      44.959  32.526  32.600  1.00  0.00     0.029 A 
ATOM     56  C   UNL A   1      43.654  32.573  32.138  1.00  0.00     0.049 A 
ATOM     57  H   UNL A   1      42.582  31.132  31.031  1.00  0.00     0.167 HD
ATOM     58  C   UNL A   1      41.414  33.576  31.821  1.00  0.00     0.074 A 
ATOM     59  C   UNL A   1      40.436  34.627  32.001  1.00  0.00     0.031 C 
ATOM     60  C   UNL A   1      42.680  33.623  32.307  1.00  0.00     0.031 A 
BRANCH  47  61
ATOM     61  C   UNL A   1      45.990  28.555  31.069  1.00  0.00    -0.014 A 
ATOM     62  C   UNL A   1      46.212  27.700  32.164  1.00  0.00     0.010 A 
ATOM     63  C   UNL A   1      46.993  28.693  30.093  1.00  0.00     0.010 A 
ATOM     64  C   UNL A   1      47.429  27.029  32.300  1.00  0.00     0.020 A 
ATOM     65  C   UNL A   1      48.200  27.999  30.210  1.00  0.00     0.020 A 
ATOM     66  C   UNL A   1      48.416  27.184  31.322  1.00  0.00     0.054 A 
BRANCH  66  67
ATOM     67  S   UNL A   1      49.977  26.282  31.515  1.00  0.00     0.124 S 
ATOM     68  O   UNL A   1      50.697  27.128  32.463  1.00  0.00    -0.237 OA
ATOM     69  O   UNL A   1      49.536  24.991  32.036  1.00  0.00    -0.237 OA
ATOM     70  O   UNL A   1      50.530  26.251  30.165  1.00  0.00    -0.744 OA
ENDBRANCH  66  67
ENDBRANCH  47  61
BRANCH  48  71
ATOM     71  C   UNL A   1      37.140  33.011  29.928  1.00  0.00    -0.014 A 
ATOM     72  C   UNL A   1      36.860  33.835  28.822  1.00  0.00     0.010 A 
ATOM     73  C   UNL A   1      36.166  32.877  30.934  1.00  0.00     0.010 A 
ATOM     74  C   UNL A   1      35.649  34.532  28.739  1.00  0.00     0.020 A 
ATOM     75  C   UNL A   1      34.940  33.546  30.839  1.00  0.00     0.020 A 
ATOM     76  C   UNL A   1      34.695  34.382  29.749  1.00  0.00     0.054 A 
BRANCH  76  77
ATOM     77  S   UNL A   1      33.117  35.267  29.605  1.00  0.00     0.124 S 
ATOM     78  O   UNL A   1      32.424  34.491  28.581  1.00  0.00    -0.237 OA
ATOM     79  O   UNL A   1      32.572  35.161  30.956  1.00  0.00    -0.237 OA
ATOM     80  O   UNL A   1      33.515  36.616  29.206  1.00  0.00    -0.744 OA
ENDBRANCH  76  77
ENDBRANCH  48  71
BRANCH  60  81
ATOM     81  C   UNL A   1      43.116  34.868  33.039  1.00  0.00    -0.014 A 
ATOM     82  C   UNL A   1      42.987  34.989  34.433  1.00  0.00     0.010 A 
ATOM     83  C   UNL A   1      43.739  35.907  32.321  1.00  0.00     0.010 A 
ATOM     84  C   UNL A   1      43.448  36.136  35.091  1.00  0.00     0.020 A 
ATOM     85  C   UNL A   1      44.229  37.039  32.976  1.00  0.00     0.020 A 
ATOM     86  C   UNL A   1      44.068  37.153  34.359  1.00  0.00     0.054 A 
BRANCH  86  87
ATOM     87  S   UNL A   1      44.704  38.605  35.241  1.00  0.00     0.124 S 
ATOM     88  O   UNL A   1      43.935  39.690  34.637  1.00  0.00    -0.237 OA
ATOM     89  O   UNL A   1      44.377  38.302  36.632  1.00  0.00    -0.237 OA
ATOM     90  O   UNL A   1      46.131  38.606  34.928  1.00  0.00    -0.744 OA
ENDBRANCH  86  87
ENDBRANCH  60  81
ENDBRANCH  34  35
ENDBRANCH  27  29
ENDBRANCH  26  27
ENDBRANCH  25  26
ENDBRANCH   1  25
TORSDOF 18
ENDMDL
MODEL 2
REMARK VINA RESULT:      -9.8      4.048      9.412
REMARK SMILES O=C(OCCOCCOC(=O)c1ccc(-c2c3nc(c(-c4ccc(S(=O)(=O)[O-])cc4)c4ccc([nH]4)c(-c4ccc(S(=O)(=O)[O-])cc4)c4nc(c(-c5ccc(S(=O)(=O)[O-])cc5)c5ccc2[nH]5)C=C4)C=C3)cc1)C1=Cc2c(cc(Cl)c(Cl)c2Cl)O[C@H]1C(F)(F)F
REMARK SMILES IDX 7 1 6 2 5 3 4 4 3 5 2 6 1 7 72 8 73 9 84 10 74 11 83 12
REMARK SMILES IDX 75 13 81 14 76 15 79 16 82 17 77 18 80 19 78 20 85 21 86 22
REMARK SMILES IDX 87 23 88 24 8 25 9 26 10 27 11 28 12 29 13 30 71 31 14 32
REMARK SMILES IDX 70 33 15 34 16 35 17 36 64 37 18 38 69 39 63 40 65 41 19 42
REMARK SMILES IDX 68 43 62 44 61 45 20 47 50 48 31 49 49 50 32 51 35 52 48 53
REMARK SMILES IDX 66 54 33 55 34 56 47 58 67 59 36 60 21 61 22 62 30 63 23 64
REMARK SMILES IDX 29 65 24 66 25 67 26 68 27 69 28 70 51 71 52 72 60 73 53 74
REMARK SMILES IDX 59 75 54 76 55 77 56 78 57 79 58 80 37 81 38 82 46 83 39 84
REMARK SMILES IDX 45 85 40 86 41 87 42 88 43 89 44 90
REMARK H PARENT 65 46 35 57
REMARK Flexibility Score: inf
ROOT
ATOM      1  C   UNL A   1      38.992  21.104  25.580  1.00  0.00     0.202 C 
ENDROOT
BRANCH   1   2
ATOM      2  O   UNL A   1      37.643  20.923  25.159  1.00  0.00    -0.374 OA
BRANCH   2   3
ATOM      3  C   UNL A   1      37.083  22.090  24.554  1.00  0.00     0.202 C 
BRANCH   3   4
ATOM      4  C   UNL A   1      36.587  23.089  25.604  1.00  0.00     0.261 C 
BRANCH   4   5
ATOM      5  O   UNL A   1      35.405  22.645  26.299  1.00  0.00    -0.460 OA
BRANCH   5   6
ATOM      6  C   UNL A   1      34.178  23.212  26.267  1.00  0.00     0.338 C 
ATOM      7  O   UNL A   1      33.416  23.057  27.222  1.00  0.00    -0.246 OA
BRANCH   6   8
ATOM      8  C   UNL A   1      33.771  24.162  25.204  1.00  0.00     0.087 C 
ATOM      9  C   UNL A   1      34.152  25.440  25.112  1.00  0.00     0.029 C 
ATOM     10  C   UNL A   1      32.807  23.603  24.180  1.00  0.00     0.316 C 
ATOM     11  C   UNL A   1      33.108  26.375  24.717  1.00  0.00     0.038 A 
ATOM     12  O   UNL A   1      32.144  24.622  23.358  1.00  0.00    -0.475 OA
ATOM     13  C   UNL A   1      32.133  25.902  23.844  1.00  0.00     0.131 A 
ATOM     14  C   UNL A   1      32.998  27.668  25.273  1.00  0.00     0.072 A 
ATOM     15  C   UNL A   1      31.109  26.746  23.436  1.00  0.00     0.069 A 
ATOM     16  C   UNL A   1      31.942  28.508  24.898  1.00  0.00     0.079 A 
ATOM     17  Cl  UNL A   1      34.125  28.193  26.487  1.00  0.00    -0.082 Cl
ATOM     18  C   UNL A   1      31.011  28.041  23.960  1.00  0.00     0.064 A 
ATOM     19  Cl  UNL A   1      31.776  30.088  25.601  1.00  0.00    -0.081 Cl
ATOM     20  Cl  UNL A   1      29.689  29.013  23.416  1.00  0.00    -0.083 Cl
BRANCH  10  21
ATOM     21  C   UNL A   1      33.523  22.576  23.256  1.00  0.00     0.430 C 
ATOM     22  F   UNL A   1      33.850  21.419  23.883  1.00  0.00    -0.167 F 
ATOM     23  F   UNL A   1      32.755  22.253  22.187  1.00  0.00    -0.167 F 
ATOM     24  F   UNL A   1      34.687  23.069  22.762  1.00  0.00    -0.167 F 
ENDBRANCH  10  21
ENDBRANCH   6   8
ENDBRANCH   5   6
ENDBRANCH   4   5
ENDBRANCH   3   4
ENDBRANCH   2   3
ENDBRANCH   1   2
BRANCH   1  25
ATOM     25  C   UNL A   1      39.635  19.826  26.126  1.00  0.00     0.261 C 
BRANCH  25  26
ATOM     26  O   UNL A   1      40.837  19.478  25.412  1.00  0.00    -0.460 OA
BRANCH  26  27
ATOM     27  C   UNL A   1      41.986  19.456  26.147  1.00  0.00     0.338 C 
ATOM     28  O   UNL A   1      42.617  18.469  26.461  1.00  0.00    -0.246 OA
BRANCH  27  29
ATOM     29  C   UNL A   1      42.445  20.847  26.446  1.00  0.00     0.060 A 
ATOM     30  C   UNL A   1      42.676  21.718  25.369  1.00  0.00     0.016 A 
ATOM     31  C   UNL A   1      42.630  21.316  27.752  1.00  0.00     0.016 A 
ATOM     32  C   UNL A   1      43.084  23.041  25.594  1.00  0.00     0.010 A 
ATOM     33  C   UNL A   1      43.040  22.636  27.975  1.00  0.00     0.010 A 
ATOM     34  C   UNL A   1      43.285  23.506  26.900  1.00  0.00    -0.014 A 
BRANCH  34  35
ATOM     35  C   UNL A   1      43.931  24.822  27.155  1.00  0.00     0.031 A 
ATOM     36  C   UNL A   1      43.059  25.962  27.610  1.00  0.00     0.074 A 
ATOM     37  C   UNL A   1      45.248  25.029  26.958  1.00  0.00     0.049 A 
ATOM     38  N   UNL A   1      43.376  27.209  27.843  1.00  0.00    -0.248 NA
ATOM     39  C   UNL A   1      41.636  25.651  27.821  1.00  0.00     0.031 C 
ATOM     40  C   UNL A   1      46.217  24.017  26.546  1.00  0.00     0.029 A 
ATOM     41  N   UNL A   1      45.996  26.180  27.072  1.00  0.00    -0.354 N 
ATOM     42  C   UNL A   1      42.195  27.832  28.228  1.00  0.00     0.074 A 
ATOM     43  C   UNL A   1      41.150  26.834  28.166  1.00  0.00     0.031 C 
ATOM     44  C   UNL A   1      47.430  24.592  26.435  1.00  0.00     0.029 A 
ATOM     45  C   UNL A   1      47.322  26.020  26.737  1.00  0.00     0.049 A 
ATOM     46  H   UNL A   1      45.617  27.039  27.367  1.00  0.00     0.167 HD
ATOM     47  C   UNL A   1      41.992  29.116  28.603  1.00  0.00     0.031 A 
ATOM     48  C   UNL A   1      48.326  26.921  26.665  1.00  0.00     0.031 A 
ATOM     49  C   UNL A   1      43.014  30.127  28.627  1.00  0.00     0.049 A 
ATOM     50  C   UNL A   1      48.055  28.370  27.006  1.00  0.00     0.074 A 
ATOM     51  C   UNL A   1      42.898  31.456  28.995  1.00  0.00     0.029 A 
ATOM     52  N   UNL A   1      44.334  29.928  28.254  1.00  0.00    -0.354 N 
ATOM     53  N   UNL A   1      46.942  28.931  27.415  1.00  0.00    -0.248 NA
ATOM     54  C   UNL A   1      49.184  29.307  26.882  1.00  0.00     0.031 C 
ATOM     55  C   UNL A   1      44.132  32.078  28.781  1.00  0.00     0.029 A 
ATOM     56  C   UNL A   1      45.035  31.119  28.354  1.00  0.00     0.049 A 
ATOM     57  H   UNL A   1      44.716  29.070  27.962  1.00  0.00     0.167 HD
ATOM     58  C   UNL A   1      47.246  30.274  27.631  1.00  0.00     0.074 A 
ATOM     59  C   UNL A   1      48.650  30.439  27.321  1.00  0.00     0.031 C 
ATOM     60  C   UNL A   1      46.437  31.277  28.053  1.00  0.00     0.031 A 
BRANCH  47  61
ATOM     61  C   UNL A   1      40.590  29.509  28.982  1.00  0.00    -0.014 A 
ATOM     62  C   UNL A   1      39.597  29.694  28.002  1.00  0.00     0.010 A 
ATOM     63  C   UNL A   1      40.253  29.666  30.338  1.00  0.00     0.010 A 
ATOM     64  C   UNL A   1      38.302  30.068  28.371  1.00  0.00     0.020 A 
ATOM     65  C   UNL A   1      38.952  30.010  30.712  1.00  0.00     0.020 A 
ATOM     66  C   UNL A   1      37.989  30.224  29.725  1.00  0.00     0.054 A 
BRANCH  66  67
ATOM     67  S   UNL A   1      36.294  30.688  30.174  1.00  0.00     0.124 S 
ATOM     68  O   UNL A   1      36.075  29.894  31.379  1.00  0.00    -0.237 OA
ATOM     69  O   UNL A   1      36.405  32.130  30.383  1.00  0.00    -0.237 OA
ATOM     70  O   UNL A   1      35.505  30.287  29.013  1.00  0.00    -0.744 OA
ENDBRANCH  66  67
ENDBRANCH  47  61
BRANCH  48  71
ATOM     71  C   UNL A   1      49.694  26.502  26.233  1.00  0.00    -0.014 A 
ATOM     72  C   UNL A   1      50.579  25.886  27.136  1.00  0.00     0.010 A 
ATOM     73  C   UNL A   1      50.138  26.765  24.924  1.00  0.00     0.010 A 
ATOM     74  C   UNL A   1      51.887  25.567  26.750  1.00  0.00     0.020 A 
ATOM     75  C   UNL A   1      51.434  26.418  24.523  1.00  0.00     0.020 A 
ATOM     76  C   UNL A   1      52.306  25.835  25.444  1.00  0.00     0.054 A 
BRANCH  76  77
ATOM     77  S   UNL A   1      53.993  25.382  24.952  1.00  0.00     0.124 S 
ATOM     78  O   UNL A   1      53.950  23.924  25.021  1.00  0.00    -0.237 OA
ATOM     79  O   UNL A   1      54.093  25.949  23.609  1.00  0.00    -0.237 OA
ATOM     80  O   UNL A   1      54.830  26.032  25.958  1.00  0.00    -0.744 OA
ENDBRANCH  76  77
ENDBRANCH  48  71
BRANCH  60  81
ATOM     81  C   UNL A   1      47.044  32.643  28.261  1.00  0.00    -0.014 A 
ATOM     82  C   UNL A   1      47.653  33.005  29.475  1.00  0.00     0.010 A 
ATOM     83  C   UNL A   1      47.073  33.554  27.187  1.00  0.00     0.010 A 
ATOM     84  C   UNL A   1      48.254  34.261  29.620  1.00  0.00     0.020 A 
ATOM     85  C   UNL A   1      47.698  34.797  27.318  1.00  0.00     0.020 A 
ATOM     86  C   UNL A   1      48.275  35.148  28.540  1.00  0.00     0.054 A 
BRANCH  86  87
ATOM     87  S   UNL A   1      49.105  36.749  28.737  1.00  0.00     0.124 S 
ATOM     88  O   UNL A   1      48.946  37.342  27.412  1.00  0.00    -0.237 OA
ATOM     89  O   UNL A   1      48.333  37.380  29.805  1.00  0.00    -0.237 OA
ATOM     90  O   UNL A   1      50.475  36.389  29.097  1.00  0.00    -0.744 OA
ENDBRANCH  86  87
ENDBRANCH  60  81
ENDBRANCH  34  35
ENDBRANCH  27  29
ENDBRANCH  26  27
ENDBRANCH  25  26
ENDBRANCH   1  25
TORSDOF 18
ENDMDL
MODEL 3
REMARK VINA RESULT:      -9.8      3.705      7.733
REMARK SMILES O=C(OCCOCCOC(=O)c1ccc(-c2c3nc(c(-c4ccc(S(=O)(=O)[O-])cc4)c4ccc([nH]4)c(-c4ccc(S(=O)(=O)[O-])cc4)c4nc(c(-c5ccc(S(=O)(=O)[O-])cc5)c5ccc2[nH]5)C=C4)C=C3)cc1)C1=Cc2c(cc(Cl)c(Cl)c2Cl)O[C@H]1C(F)(F)F
REMARK SMILES IDX 7 1 6 2 5 3 4 4 3 5 2 6 1 7 72 8 73 9 84 10 74 11 83 12
REMARK SMILES IDX 75 13 81 14 76 15 79 16 82 17 77 18 80 19 78 20 85 21 86 22
REMARK SMILES IDX 87 23 88 24 8 25 9 26 10 27 11 28 12 29 13 30 71 31 14 32
REMARK SMILES IDX 70 33 15 34 16 35 17 36 64 37 18 38 69 39 63 40 65 41 19 42
REMARK SMILES IDX 68 43 62 44 61 45 20 47 50 48 31 49 49 50 32 51 35 52 48 53
REMARK SMILES IDX 66 54 33 55 34 56 47 58 67 59 36 60 21 61 22 62 30 63 23 64
REMARK SMILES IDX 29 65 24 66 25 67 26 68 27 69 28 70 51 71 52 72 60 73 53 74
REMARK SMILES IDX 59 75 54 76 55 77 56 78 57 79 58 80 37 81 38 82 46 83 39 84
REMARK SMILES IDX 45 85 40 86 41 87 42 88 43 89 44 90
REMARK H PARENT 65 46 35 57
REMARK Flexibility Score: inf
ROOT
ATOM      1  C   UNL A   1      32.237  29.680  25.337  1.00  0.00     0.202 C 
ENDROOT
BRANCH   1   2
ATOM      2  O   UNL A   1      32.341  29.378  23.949  1.00  0.00    -0.374 OA
BRANCH   2   3
ATOM      3  C   UNL A   1      33.574  28.744  23.604  1.00  0.00     0.202 C 
BRANCH   3   4
ATOM      4  C   UNL A   1      33.542  28.179  22.181  1.00  0.00     0.261 C 
BRANCH   4   5
ATOM      5  O   UNL A   1      34.069  26.840  22.088  1.00  0.00    -0.460 OA
BRANCH   5   6
ATOM      6  C   UNL A   1      33.366  25.691  21.983  1.00  0.00     0.338 C 
ATOM      7  O   UNL A   1      33.045  25.279  20.868  1.00  0.00    -0.246 OA
BRANCH   6   8
ATOM      8  C   UNL A   1      33.112  24.807  23.146  1.00  0.00     0.087 C 
ATOM      9  C   UNL A   1      34.047  24.276  23.941  1.00  0.00     0.029 C 
ATOM     10  C   UNL A   1      31.657  24.471  23.391  1.00  0.00     0.316 C 
ATOM     11  C   UNL A   1      33.821  22.891  24.329  1.00  0.00     0.038 A 
ATOM     12  O   UNL A   1      31.444  23.339  24.301  1.00  0.00    -0.475 OA
ATOM     13  C   UNL A   1      32.499  22.486  24.487  1.00  0.00     0.131 A 
ATOM     14  C   UNL A   1      34.871  21.951  24.431  1.00  0.00     0.072 A 
ATOM     15  C   UNL A   1      32.221  21.176  24.852  1.00  0.00     0.069 A 
ATOM     16  C   UNL A   1      34.591  20.618  24.756  1.00  0.00     0.079 A 
ATOM     17  Cl  UNL A   1      36.502  22.426  24.073  1.00  0.00    -0.082 Cl
ATOM     18  C   UNL A   1      33.259  20.245  24.984  1.00  0.00     0.064 A 
ATOM     19  Cl  UNL A   1      35.869  19.444  24.849  1.00  0.00    -0.081 Cl
ATOM     20  Cl  UNL A   1      32.818  18.630  25.415  1.00  0.00    -0.083 Cl
BRANCH  10  21
ATOM     21  C   UNL A   1      30.889  25.716  23.924  1.00  0.00     0.430 C 
ATOM     22  F   UNL A   1      30.425  26.528  22.942  1.00  0.00    -0.167 F 
ATOM     23  F   UNL A   1      29.828  25.355  24.684  1.00  0.00    -0.167 F 
ATOM     24  F   UNL A   1      31.678  26.497  24.705  1.00  0.00    -0.167 F 
ENDBRANCH  10  21
ENDBRANCH   6   8
ENDBRANCH   5   6
ENDBRANCH   4   5
ENDBRANCH   3   4
ENDBRANCH   2   3
ENDBRANCH   1   2
BRANCH   1  25
ATOM     25  C   UNL A   1      33.544  29.467  26.105  1.00  0.00     0.261 C 
BRANCH  25  26
ATOM     26  O   UNL A   1      33.459  29.948  27.461  1.00  0.00    -0.460 OA
BRANCH  26  27
ATOM     27  C   UNL A   1      34.157  31.087  27.738  1.00  0.00     0.338 C 
ATOM     28  O   UNL A   1      33.754  32.224  27.609  1.00  0.00    -0.246 OA
BRANCH  27  29
ATOM     29  C   UNL A   1      35.487  30.756  28.333  1.00  0.00     0.060 A 
ATOM     30  C   UNL A   1      35.586  29.621  29.154  1.00  0.00     0.016 A 
ATOM     31  C   UNL A   1      36.635  31.518  28.085  1.00  0.00     0.016 A 
ATOM     32  C   UNL A   1      36.816  29.251  29.718  1.00  0.00     0.010 A 
ATOM     33  C   UNL A   1      37.862  31.150  28.650  1.00  0.00     0.010 A 
ATOM     34  C   UNL A   1      37.962  30.022  29.483  1.00  0.00    -0.014 A 
BRANCH  34  35
ATOM     35  C   UNL A   1      39.217  29.784  30.246  1.00  0.00     0.031 A 
ATOM     36  C   UNL A   1      40.127  28.677  29.784  1.00  0.00     0.074 A 
ATOM     37  C   UNL A   1      39.540  30.496  31.344  1.00  0.00     0.049 A 
ATOM     38  N   UNL A   1      41.242  28.242  30.311  1.00  0.00    -0.248 NA
ATOM     39  C   UNL A   1      39.714  27.959  28.567  1.00  0.00     0.031 C 
ATOM     40  C   UNL A   1      38.773  31.611  31.892  1.00  0.00     0.029 A 
ATOM     41  N   UNL A   1      40.608  30.371  32.204  1.00  0.00    -0.354 N 
ATOM     42  C   UNL A   1      41.665  27.203  29.492  1.00  0.00     0.074 A 
ATOM     43  C   UNL A   1      40.671  27.051  28.452  1.00  0.00     0.031 C 
ATOM     44  C   UNL A   1      39.390  32.065  33.000  1.00  0.00     0.029 A 
ATOM     45  C   UNL A   1      40.580  31.254  33.260  1.00  0.00     0.049 A 
ATOM     46  H   UNL A   1      41.326  29.711  32.076  1.00  0.00     0.167 HD
ATOM     47  C   UNL A   1      42.779  26.441  29.589  1.00  0.00     0.031 A 
ATOM     48  C   UNL A   1      41.407  31.383  34.321  1.00  0.00     0.031 A 
ATOM     49  C   UNL A   1      43.752  26.555  30.642  1.00  0.00     0.049 A 
ATOM     50  C   UNL A   1      42.600  30.463  34.454  1.00  0.00     0.074 A 
ATOM     51  C   UNL A   1      44.914  25.824  30.819  1.00  0.00     0.029 A 
ATOM     52  N   UNL A   1      43.671  27.442  31.704  1.00  0.00    -0.354 N 
ATOM     53  N   UNL A   1      43.011  29.516  33.644  1.00  0.00    -0.248 NA
ATOM     54  C   UNL A   1      43.447  30.635  35.646  1.00  0.00     0.031 C 
ATOM     55  C   UNL A   1      45.501  26.223  32.024  1.00  0.00     0.029 A 
ATOM     56  C   UNL A   1      44.746  27.255  32.556  1.00  0.00     0.049 A 
ATOM     57  H   UNL A   1      42.956  28.105  31.833  1.00  0.00     0.167 HD
ATOM     58  C   UNL A   1      44.180  29.009  34.209  1.00  0.00     0.074 A 
ATOM     59  C   UNL A   1      44.419  29.760  35.422  1.00  0.00     0.031 C 
ATOM     60  C   UNL A   1      44.986  28.014  33.760  1.00  0.00     0.031 A 
BRANCH  47  61
ATOM     61  C   UNL A   1      42.984  25.383  28.539  1.00  0.00    -0.014 A 
ATOM     62  C   UNL A   1      42.363  24.125  28.644  1.00  0.00     0.010 A 
ATOM     63  C   UNL A   1      43.784  25.661  27.417  1.00  0.00     0.010 A 
ATOM     64  C   UNL A   1      42.571  23.151  27.665  1.00  0.00     0.020 A 
ATOM     65  C   UNL A   1      43.970  24.700  26.420  1.00  0.00     0.020 A 
ATOM     66  C   UNL A   1      43.374  23.446  26.559  1.00  0.00     0.054 A 
BRANCH  66  67
ATOM     67  S   UNL A   1      43.608  22.169  25.293  1.00  0.00     0.124 S 
ATOM     68  O   UNL A   1      42.585  21.192  25.659  1.00  0.00    -0.237 OA
ATOM     69  O   UNL A   1      43.362  22.901  24.053  1.00  0.00    -0.237 OA
ATOM     70  O   UNL A   1      44.986  21.729  25.492  1.00  0.00    -0.744 OA
ENDBRANCH  66  67
ENDBRANCH  47  61
BRANCH  48  71
ATOM     71  C   UNL A   1      41.141  32.411  35.373  1.00  0.00    -0.014 A 
ATOM     72  C   UNL A   1      40.316  32.121  36.475  1.00  0.00     0.010 A 
ATOM     73  C   UNL A   1      41.674  33.708  35.250  1.00  0.00     0.010 A 
ATOM     74  C   UNL A   1      40.006  33.111  37.415  1.00  0.00     0.020 A 
ATOM     75  C   UNL A   1      41.393  34.692  36.205  1.00  0.00     0.020 A 
ATOM     76  C   UNL A   1      40.548  34.391  37.275  1.00  0.00     0.054 A 
BRANCH  76  77
ATOM     77  S   UNL A   1      40.163  35.650  38.523  1.00  0.00     0.124 S 
ATOM     78  O   UNL A   1      39.804  36.799  37.698  1.00  0.00    -0.237 OA
ATOM     79  O   UNL A   1      39.063  35.034  39.263  1.00  0.00    -0.237 OA
ATOM     80  O   UNL A   1      41.410  35.782  39.274  1.00  0.00    -0.744 OA
ENDBRANCH  76  77
ENDBRANCH  48  71
BRANCH  60  81
ATOM     81  C   UNL A   1      46.235  27.700  34.544  1.00  0.00    -0.014 A 
ATOM     82  C   UNL A   1      47.443  28.383  34.317  1.00  0.00     0.010 A 
ATOM     83  C   UNL A   1      46.176  26.753  35.585  1.00  0.00     0.010 A 
ATOM     84  C   UNL A   1      48.572  28.105  35.097  1.00  0.00     0.020 A 
ATOM     85  C   UNL A   1      47.291  26.495  36.386  1.00  0.00     0.020 A 
ATOM     86  C   UNL A   1      48.488  27.165  36.128  1.00  0.00     0.054 A 
BRANCH  86  87
ATOM     87  S   UNL A   1      49.952  26.862  37.157  1.00  0.00     0.124 S 
ATOM     88  O   UNL A   1      50.404  25.562  36.669  1.00  0.00    -0.237 OA
ATOM     89  O   UNL A   1      50.815  27.993  36.826  1.00  0.00    -0.237 OA
ATOM     90  O   UNL A   1      49.425  26.865  38.520  1.00  0.00    -0.744 OA
ENDBRANCH  86  87
ENDBRANCH  60  81
ENDBRANCH  34  35
ENDBRANCH  27  29
ENDBRANCH  26  27
ENDBRANCH  25  26
ENDBRANCH   1  25
TORSDOF 18
ENDMDL
