MODEL 1
REMARK VINA RESULT:     -10.5      0.000      0.000
REMARK SMILES O=C(COc1ccccc1/C=C1\C(=O)Nc2ccccc21)OCCOCCOC(=O)c1ccc(-c2c3nc(c(-c4ccc(S(=O)(=O)[O-])cc4)c4ccc([nH]4)c(-c4ccc(S(=O)(=O)[O-])cc4)c4nc(c(-c5ccc(S(=O)(=O)[O-])cc5)c5ccc2[nH]5)C=C4)C=C3)cc1
REMARK SMILES IDX 25 1 24 2 23 3 22 4 2 5 1 6 3 7 4 8 5 9 6 10 10 11 7 12 9 13
REMARK SMILES IDX 8 14 11 15 12 16 13 17 21 18 14 19 15 20 16 21 20 22 17 24
REMARK SMILES IDX 19 25 18 26 26 27 27 28 28 29 29 30 30 31 31 32 32 33 90 34
REMARK SMILES IDX 33 35 89 36 34 37 35 38 36 39 83 40 37 41 88 42 82 43 84 44
REMARK SMILES IDX 38 45 87 46 81 47 80 48 39 50 69 51 50 52 68 53 51 54 54 55
REMARK SMILES IDX 67 56 85 57 52 58 53 59 66 61 86 62 55 63 40 64 41 65 49 66
REMARK SMILES IDX 42 67 48 68 43 69 44 70 45 71 46 72 47 73 70 74 71 75 79 76
REMARK SMILES IDX 72 77 78 78 73 79 74 80 75 81 76 82 77 83 56 84 57 85 65 86
REMARK SMILES IDX 58 87 64 88 59 89 60 90 61 91 62 92 63 93
REMARK H PARENT 15 23 84 49 54 60
REMARK Flexibility Score: inf
ROOT
ATOM      1  O   UNL A   1      32.963  25.736  26.244  1.00  0.00    -0.374 OA
ENDROOT
BRANCH   1   2
ATOM      2  C   UNL A   1      33.945  24.750  25.981  1.00  0.00     0.202 C 
BRANCH   2   3
ATOM      3  C   UNL A   1      34.812  24.826  24.717  1.00  0.00     0.261 C 
BRANCH   3   4
ATOM      4  O   UNL A   1      35.994  24.010  24.693  1.00  0.00    -0.461 OA
BRANCH   4   5
ATOM      5  C   UNL A   1      36.176  22.893  23.948  1.00  0.00     0.344 C 
ATOM      6  O   UNL A   1      36.562  23.003  22.784  1.00  0.00    -0.248 OA
BRANCH   5   7
ATOM      7  C   UNL A   1      35.781  21.535  24.508  1.00  0.00     0.351 C 
BRANCH   7   8
ATOM      8  O   UNL A   1      34.500  21.468  25.095  1.00  0.00    -0.481 OA
BRANCH   8   9
ATOM      9  C   UNL A   1      33.646  20.606  24.474  1.00  0.00     0.127 A 
ATOM     10  C   UNL A   1      33.794  19.268  24.864  1.00  0.00     0.047 A 
ATOM     11  C   UNL A   1      32.782  20.972  23.428  1.00  0.00     0.017 A 
ATOM     12  C   UNL A   1      33.088  18.266  24.213  1.00  0.00     0.004 A 
ATOM     13  C   UNL A   1      32.160  19.928  22.724  1.00  0.00     0.012 A 
ATOM     14  C   UNL A   1      32.286  18.594  23.127  1.00  0.00     0.001 A 
BRANCH  11  15
ATOM     15  C   UNL A   1      32.535  22.371  23.002  1.00  0.00     0.026 C 
ATOM     16  C   UNL A   1      31.756  23.262  23.650  1.00  0.00     0.050 C 
ATOM     17  C   UNL A   1      30.992  23.016  24.938  1.00  0.00     0.256 C 
ATOM     18  C   UNL A   1      31.397  24.629  23.219  1.00  0.00     0.011 A 
ATOM     19  O   UNL A   1      31.072  22.091  25.720  1.00  0.00    -0.269 OA
ATOM     20  N   UNL A   1      30.156  24.108  25.079  1.00  0.00    -0.321 N 
ATOM     21  C   UNL A   1      30.396  25.061  24.102  1.00  0.00     0.049 A 
ATOM     22  C   UNL A   1      31.841  25.488  22.229  1.00  0.00     0.011 A 
ATOM     23  H   UNL A   1      29.476  24.197  25.785  1.00  0.00     0.170 HD
ATOM     24  C   UNL A   1      29.785  26.297  24.018  1.00  0.00     0.027 A 
ATOM     25  C   UNL A   1      31.252  26.761  22.137  1.00  0.00     0.001 A 
ATOM     26  C   UNL A   1      30.226  27.158  23.017  1.00  0.00     0.002 A 
ENDBRANCH  11  15
ENDBRANCH   8   9
ENDBRANCH   7   8
ENDBRANCH   5   7
ENDBRANCH   4   5
ENDBRANCH   3   4
ENDBRANCH   2   3
ENDBRANCH   1   2
BRANCH   1  27
ATOM     27  C   UNL A   1      32.974  26.995  25.587  1.00  0.00     0.202 C 
BRANCH  27  28
ATOM     28  C   UNL A   1      33.207  28.335  26.298  1.00  0.00     0.261 C 
BRANCH  28  29
ATOM     29  O   UNL A   1      34.420  28.454  27.042  1.00  0.00    -0.460 OA
BRANCH  29  30
ATOM     30  C   UNL A   1      34.584  29.668  27.618  1.00  0.00     0.338 C 
ATOM     31  O   UNL A   1      33.728  30.515  27.809  1.00  0.00    -0.246 OA
BRANCH  30  32
ATOM     32  C   UNL A   1      35.951  29.792  28.141  1.00  0.00     0.060 A 
ATOM     33  C   UNL A   1      36.961  30.125  27.234  1.00  0.00     0.016 A 
ATOM     34  C   UNL A   1      36.247  29.446  29.460  1.00  0.00     0.016 A 
ATOM     35  C   UNL A   1      38.291  30.031  27.624  1.00  0.00     0.010 A 
ATOM     36  C   UNL A   1      37.584  29.347  29.849  1.00  0.00     0.010 A 
ATOM     37  C   UNL A   1      38.606  29.583  28.913  1.00  0.00    -0.014 A 
BRANCH  37  38
ATOM     38  C   UNL A   1      39.996  29.170  29.202  1.00  0.00     0.031 A 
ATOM     39  C   UNL A   1      40.894  30.131  29.933  1.00  0.00     0.074 A 
ATOM     40  C   UNL A   1      40.421  27.938  28.875  1.00  0.00     0.049 A 
ATOM     41  N   UNL A   1      42.134  29.975  30.318  1.00  0.00    -0.248 NA
ATOM     42  C   UNL A   1      40.319  31.443  30.277  1.00  0.00     0.031 C 
ATOM     43  C   UNL A   1      39.611  26.914  28.215  1.00  0.00     0.029 A 
ATOM     44  N   UNL A   1      41.637  27.338  29.067  1.00  0.00    -0.354 N 
ATOM     45  C   UNL A   1      42.491  31.171  30.934  1.00  0.00     0.074 A 
ATOM     46  C   UNL A   1      41.349  32.053  30.844  1.00  0.00     0.031 C 
ATOM     47  C   UNL A   1      40.352  25.803  28.067  1.00  0.00     0.029 A 
ATOM     48  C   UNL A   1      41.694  26.053  28.589  1.00  0.00     0.049 A 
ATOM     49  H   UNL A   1      42.395  27.786  29.505  1.00  0.00     0.167 HD
ATOM     50  C   UNL A   1      43.665  31.501  31.523  1.00  0.00     0.031 A 
ATOM     51  C   UNL A   1      42.720  25.181  28.569  1.00  0.00     0.031 A 
ATOM     52  C   UNL A   1      44.796  30.614  31.596  1.00  0.00     0.049 A 
ATOM     53  C   UNL A   1      44.036  25.594  29.172  1.00  0.00     0.074 A 
ATOM     54  C   UNL A   1      46.027  30.835  32.186  1.00  0.00     0.029 A 
ATOM     55  N   UNL A   1      44.834  29.338  31.052  1.00  0.00    -0.354 N 
ATOM     56  N   UNL A   1      44.354  26.719  29.770  1.00  0.00    -0.248 NA
ATOM     57  C   UNL A   1      45.128  24.616  29.108  1.00  0.00     0.031 C 
ATOM     58  C   UNL A   1      46.832  29.717  31.943  1.00  0.00     0.029 A 
ATOM     59  C   UNL A   1      46.078  28.770  31.265  1.00  0.00     0.049 A 
ATOM     60  H   UNL A   1      44.086  28.900  30.585  1.00  0.00     0.167 HD
ATOM     61  C   UNL A   1      45.673  26.570  30.184  1.00  0.00     0.074 A 
ATOM     62  C   UNL A   1      46.087  25.241  29.777  1.00  0.00     0.031 C 
ATOM     63  C   UNL A   1      46.469  27.447  30.846  1.00  0.00     0.031 A 
BRANCH  50  64
ATOM     64  C   UNL A   1      43.797  32.894  32.083  1.00  0.00    -0.014 A 
ATOM     65  C   UNL A   1      44.246  33.969  31.294  1.00  0.00     0.010 A 
ATOM     66  C   UNL A   1      43.448  33.134  33.425  1.00  0.00     0.010 A 
ATOM     67  C   UNL A   1      44.388  35.245  31.849  1.00  0.00     0.020 A 
ATOM     68  C   UNL A   1      43.558  34.413  33.976  1.00  0.00     0.020 A 
ATOM     69  C   UNL A   1      44.047  35.458  33.188  1.00  0.00     0.054 A 
BRANCH  69  70
ATOM     70  S   UNL A   1      44.231  37.124  33.882  1.00  0.00     0.124 S 
ATOM     71  O   UNL A   1      45.508  37.019  34.582  1.00  0.00    -0.237 OA
ATOM     72  O   UNL A   1      44.237  37.968  32.689  1.00  0.00    -0.237 OA
ATOM     73  O   UNL A   1      43.061  37.275  34.743  1.00  0.00    -0.744 OA
ENDBRANCH  69  70
ENDBRANCH  50  64
BRANCH  51  74
ATOM     74  C   UNL A   1      42.540  23.834  27.961  1.00  0.00    -0.014 A 
ATOM     75  C   UNL A   1      42.837  23.614  26.605  1.00  0.00     0.010 A 
ATOM     76  C   UNL A   1      42.081  22.759  28.744  1.00  0.00     0.010 A 
ATOM     77  C   UNL A   1      42.664  22.348  26.039  1.00  0.00     0.020 A 
ATOM     78  C   UNL A   1      41.934  21.484  28.189  1.00  0.00     0.020 A 
ATOM     79  C   UNL A   1      42.217  21.290  26.836  1.00  0.00     0.054 A 
BRANCH  79  80
ATOM     80  S   UNL A   1      42.049  19.645  26.091  1.00  0.00     0.124 S 
ATOM     81  O   UNL A   1      42.975  19.724  24.966  1.00  0.00    -0.237 OA
ATOM     82  O   UNL A   1      42.452  18.763  27.183  1.00  0.00    -0.237 OA
ATOM     83  O   UNL A   1      40.633  19.575  25.733  1.00  0.00    -0.744 OA
ENDBRANCH  79  80
ENDBRANCH  51  74
BRANCH  63  84
ATOM     84  C   UNL A   1      47.854  26.978  31.211  1.00  0.00    -0.014 A 
ATOM     85  C   UNL A   1      48.077  26.120  32.303  1.00  0.00     0.010 A 
ATOM     86  C   UNL A   1      48.947  27.379  30.420  1.00  0.00     0.010 A 
ATOM     87  C   UNL A   1      49.373  25.709  32.624  1.00  0.00     0.020 A 
ATOM     88  C   UNL A   1      50.240  26.944  30.717  1.00  0.00     0.020 A 
ATOM     89  C   UNL A   1      50.446  26.127  31.831  1.00  0.00     0.054 A 
BRANCH  89  90
ATOM     90  S   UNL A   1      52.116  25.561  32.254  1.00  0.00     0.124 S 
ATOM     91  O   UNL A   1      52.911  26.123  31.165  1.00  0.00    -0.237 OA
ATOM     92  O   UNL A   1      52.336  26.163  33.567  1.00  0.00    -0.237 OA
ATOM     93  O   UNL A   1      52.000  24.105  32.254  1.00  0.00    -0.744 OA
ENDBRANCH  89  90
ENDBRANCH  63  84
ENDBRANCH  37  38
ENDBRANCH  30  32
ENDBRANCH  29  30
ENDBRANCH  28  29
ENDBRANCH  27  28
ENDBRANCH   1  27
TORSDOF 20
ENDMDL
MODEL 2
REMARK VINA RESULT:     -10.3      2.359      3.051
REMARK SMILES O=C(COc1ccccc1/C=C1\C(=O)Nc2ccccc21)OCCOCCOC(=O)c1ccc(-c2c3nc(c(-c4ccc(S(=O)(=O)[O-])cc4)c4ccc([nH]4)c(-c4ccc(S(=O)(=O)[O-])cc4)c4nc(c(-c5ccc(S(=O)(=O)[O-])cc5)c5ccc2[nH]5)C=C4)C=C3)cc1
REMARK SMILES IDX 25 1 24 2 23 3 22 4 2 5 1 6 3 7 4 8 5 9 6 10 10 11 7 12 9 13
REMARK SMILES IDX 8 14 11 15 12 16 13 17 21 18 14 19 15 20 16 21 20 22 17 24
REMARK SMILES IDX 19 25 18 26 26 27 27 28 28 29 29 30 30 31 31 32 32 33 90 34
REMARK SMILES IDX 33 35 89 36 34 37 35 38 36 39 83 40 37 41 88 42 82 43 84 44
REMARK SMILES IDX 38 45 87 46 81 47 80 48 39 50 69 51 50 52 68 53 51 54 54 55
REMARK SMILES IDX 67 56 85 57 52 58 53 59 66 61 86 62 55 63 40 64 41 65 49 66
REMARK SMILES IDX 42 67 48 68 43 69 44 70 45 71 46 72 47 73 70 74 71 75 79 76
REMARK SMILES IDX 72 77 78 78 73 79 74 80 75 81 76 82 77 83 56 84 57 85 65 86
REMARK SMILES IDX 58 87 64 88 59 89 60 90 61 91 62 92 63 93
REMARK H PARENT 15 23 84 49 54 60
REMARK Flexibility Score: inf
ROOT
ATOM      1  O   UNL A   1      34.121  25.319  25.781  1.00  0.00    -0.374 OA
ENDROOT
BRANCH   1   2
ATOM      2  C   UNL A   1      34.977  24.425  25.092  1.00  0.00     0.202 C 
BRANCH   2   3
ATOM      3  C   UNL A   1      36.320  24.001  25.701  1.00  0.00     0.261 C 
BRANCH   3   4
ATOM      4  O   UNL A   1      37.147  23.137  24.904  1.00  0.00    -0.461 OA
BRANCH   4   5
ATOM      5  C   UNL A   1      37.591  21.908  25.260  1.00  0.00     0.344 C 
ATOM      6  O   UNL A   1      38.722  21.790  25.732  1.00  0.00    -0.248 OA
BRANCH   5   7
ATOM      7  C   UNL A   1      36.747  20.679  24.957  1.00  0.00     0.351 C 
BRANCH   7   8
ATOM      8  O   UNL A   1      35.380  20.926  24.709  1.00  0.00    -0.481 OA
BRANCH   8   9
ATOM      9  C   UNL A   1      34.584  19.825  24.821  1.00  0.00     0.127 A 
ATOM     10  C   UNL A   1      35.224  18.619  24.510  1.00  0.00     0.047 A 
ATOM     11  C   UNL A   1      33.204  19.876  25.083  1.00  0.00     0.017 A 
ATOM     12  C   UNL A   1      34.499  17.437  24.446  1.00  0.00     0.004 A 
ATOM     13  C   UNL A   1      32.483  18.683  24.911  1.00  0.00     0.012 A 
ATOM     14  C   UNL A   1      33.123  17.473  24.627  1.00  0.00     0.001 A 
BRANCH  11  15
ATOM     15  C   UNL A   1      32.474  21.107  25.473  1.00  0.00     0.026 C 
ATOM     16  C   UNL A   1      31.903  21.982  24.620  1.00  0.00     0.050 C 
ATOM     17  C   UNL A   1      31.883  21.878  23.106  1.00  0.00     0.256 C 
ATOM     18  C   UNL A   1      31.255  23.270  24.947  1.00  0.00     0.011 A 
ATOM     19  O   UNL A   1      32.181  20.943  22.391  1.00  0.00    -0.269 OA
ATOM     20  N   UNL A   1      31.418  23.102  22.663  1.00  0.00    -0.321 N 
ATOM     21  C   UNL A   1      31.029  23.910  23.720  1.00  0.00     0.049 A 
ATOM     22  C   UNL A   1      30.842  23.884  26.116  1.00  0.00     0.011 A 
ATOM     23  H   UNL A   1      31.369  23.366  21.716  1.00  0.00     0.170 HD
ATOM     24  C   UNL A   1      30.447  25.157  23.605  1.00  0.00     0.027 A 
ATOM     25  C   UNL A   1      30.224  25.144  26.025  1.00  0.00     0.001 A 
ATOM     26  C   UNL A   1      30.038  25.779  24.782  1.00  0.00     0.002 A 
ENDBRANCH  11  15
ENDBRANCH   8   9
ENDBRANCH   7   8
ENDBRANCH   5   7
ENDBRANCH   4   5
ENDBRANCH   3   4
ENDBRANCH   2   3
ENDBRANCH   1   2
BRANCH   1  27
ATOM     27  C   UNL A   1      33.575  26.468  25.149  1.00  0.00     0.202 C 
BRANCH  27  28
ATOM     28  C   UNL A   1      34.021  27.907  25.446  1.00  0.00     0.261 C 
BRANCH  28  29
ATOM     29  O   UNL A   1      34.262  28.224  26.816  1.00  0.00    -0.460 OA
BRANCH  29  30
ATOM     30  C   UNL A   1      34.474  29.542  27.037  1.00  0.00     0.338 C 
ATOM     31  O   UNL A   1      33.754  30.470  26.706  1.00  0.00    -0.246 OA
BRANCH  30  32
ATOM     32  C   UNL A   1      35.657  29.723  27.888  1.00  0.00     0.060 A 
ATOM     33  C   UNL A   1      36.854  30.082  27.261  1.00  0.00     0.016 A 
ATOM     34  C   UNL A   1      35.617  29.405  29.246  1.00  0.00     0.016 A 
ATOM     35  C   UNL A   1      38.042  30.042  27.979  1.00  0.00     0.010 A 
ATOM     36  C   UNL A   1      36.813  29.360  29.965  1.00  0.00     0.010 A 
ATOM     37  C   UNL A   1      38.032  29.621  29.315  1.00  0.00    -0.014 A 
BRANCH  37  38
ATOM     38  C   UNL A   1      39.314  29.263  29.958  1.00  0.00     0.031 A 
ATOM     39  C   UNL A   1      39.721  29.995  31.209  1.00  0.00     0.074 A 
ATOM     40  C   UNL A   1      40.063  28.260  29.469  1.00  0.00     0.049 A 
ATOM     41  N   UNL A   1      40.782  29.831  31.955  1.00  0.00    -0.248 NA
ATOM     42  C   UNL A   1      38.812  31.053  31.681  1.00  0.00     0.031 C 
ATOM     43  C   UNL A   1      39.728  27.453  28.296  1.00  0.00     0.029 A 
ATOM     44  N   UNL A   1      41.253  27.744  29.909  1.00  0.00    -0.354 N 
ATOM     45  C   UNL A   1      40.675  30.773  32.974  1.00  0.00     0.074 A 
ATOM     46  C   UNL A   1      39.464  31.525  32.733  1.00  0.00     0.031 C 
ATOM     47  C   UNL A   1      40.689  26.532  28.115  1.00  0.00     0.029 A 
ATOM     48  C   UNL A   1      41.719  26.710  29.136  1.00  0.00     0.049 A 
ATOM     49  H   UNL A   1      41.727  28.083  30.701  1.00  0.00     0.167 HD
ATOM     50  C   UNL A   1      41.511  30.989  34.017  1.00  0.00     0.031 A 
ATOM     51  C   UNL A   1      42.855  25.994  29.241  1.00  0.00     0.031 A 
ATOM     52  C   UNL A   1      42.718  30.237  34.238  1.00  0.00     0.049 A 
ATOM     53  C   UNL A   1      43.801  26.296  30.372  1.00  0.00     0.074 A 
ATOM     54  C   UNL A   1      43.629  30.355  35.272  1.00  0.00     0.029 A 
ATOM     55  N   UNL A   1      43.186  29.231  33.404  1.00  0.00    -0.354 N 
ATOM     56  N   UNL A   1      43.678  27.174  31.341  1.00  0.00    -0.248 NA
ATOM     57  C   UNL A   1      45.034  25.501  30.431  1.00  0.00     0.031 C 
ATOM     58  C   UNL A   1      44.681  29.465  35.028  1.00  0.00     0.029 A 
ATOM     59  C   UNL A   1      44.388  28.741  33.882  1.00  0.00     0.049 A 
ATOM     60  H   UNL A   1      42.728  28.912  32.592  1.00  0.00     0.167 HD
ATOM     61  C   UNL A   1      44.802  27.013  32.144  1.00  0.00     0.074 A 
ATOM     62  C   UNL A   1      45.585  25.946  31.553  1.00  0.00     0.031 C 
ATOM     63  C   UNL A   1      45.153  27.681  33.273  1.00  0.00     0.031 A 
BRANCH  50  64
ATOM     64  C   UNL A   1      41.173  32.114  34.962  1.00  0.00    -0.014 A 
ATOM     65  C   UNL A   1      40.396  31.902  36.115  1.00  0.00     0.010 A 
ATOM     66  C   UNL A   1      41.658  33.408  34.696  1.00  0.00     0.010 A 
ATOM     67  C   UNL A   1      40.072  32.970  36.958  1.00  0.00     0.020 A 
ATOM     68  C   UNL A   1      41.363  34.473  35.551  1.00  0.00     0.020 A 
ATOM     69  C   UNL A   1      40.554  34.250  36.668  1.00  0.00     0.054 A 
BRANCH  69  70
ATOM     70  S   UNL A   1      40.127  35.618  37.781  1.00  0.00     0.124 S 
ATOM     71  O   UNL A   1      39.791  36.680  36.837  1.00  0.00    -0.237 OA
ATOM     72  O   UNL A   1      39.003  35.073  38.540  1.00  0.00    -0.237 OA
ATOM     73  O   UNL A   1      41.348  35.834  38.551  1.00  0.00    -0.744 OA
ENDBRANCH  69  70
ENDBRANCH  50  64
BRANCH  51  74
ATOM     74  C   UNL A   1      43.154  24.924  28.251  1.00  0.00    -0.014 A 
ATOM     75  C   UNL A   1      42.705  23.609  28.460  1.00  0.00     0.010 A 
ATOM     76  C   UNL A   1      43.881  25.221  27.083  1.00  0.00     0.010 A 
ATOM     77  C   UNL A   1      42.992  22.606  27.528  1.00  0.00     0.020 A 
ATOM     78  C   UNL A   1      44.145  24.229  26.135  1.00  0.00     0.020 A 
ATOM     79  C   UNL A   1      43.706  22.924  26.370  1.00  0.00     0.054 A 
BRANCH  79  80
ATOM     80  S   UNL A   1      44.022  21.618  25.152  1.00  0.00     0.124 S 
ATOM     81  O   UNL A   1      45.385  21.215  25.483  1.00  0.00    -0.237 OA
ATOM     82  O   UNL A   1      42.979  20.642  25.461  1.00  0.00    -0.237 OA
ATOM     83  O   UNL A   1      43.864  22.301  23.869  1.00  0.00    -0.744 OA
ENDBRANCH  79  80
ENDBRANCH  51  74
BRANCH  63  84
ATOM     84  C   UNL A   1      46.418  27.244  33.964  1.00  0.00    -0.014 A 
ATOM     85  C   UNL A   1      46.415  26.218  34.926  1.00  0.00     0.010 A 
ATOM     86  C   UNL A   1      47.639  27.852  33.615  1.00  0.00     0.010 A 
ATOM     87  C   UNL A   1      47.601  25.840  35.559  1.00  0.00     0.020 A 
ATOM     88  C   UNL A   1      48.832  27.454  34.220  1.00  0.00     0.020 A 
ATOM     89  C   UNL A   1      48.802  26.464  35.204  1.00  0.00     0.054 A 
BRANCH  89  90
ATOM     90  S   UNL A   1      50.333  25.940  36.023  1.00  0.00     0.124 S 
ATOM     91  O   UNL A   1      49.825  25.100  37.105  1.00  0.00    -0.237 OA
ATOM     92  O   UNL A   1      51.041  25.234  34.959  1.00  0.00    -0.237 OA
ATOM     93  O   UNL A   1      50.948  27.196  36.446  1.00  0.00    -0.744 OA
ENDBRANCH  89  90
ENDBRANCH  63  84
ENDBRANCH  37  38
ENDBRANCH  30  32
ENDBRANCH  29  30
ENDBRANCH  28  29
ENDBRANCH  27  28
ENDBRANCH   1  27
TORSDOF 20
ENDMDL
MODEL 3
REMARK VINA RESULT:     -10.2      1.263      3.455
REMARK SMILES O=C(COc1ccccc1/C=C1\C(=O)Nc2ccccc21)OCCOCCOC(=O)c1ccc(-c2c3nc(c(-c4ccc(S(=O)(=O)[O-])cc4)c4ccc([nH]4)c(-c4ccc(S(=O)(=O)[O-])cc4)c4nc(c(-c5ccc(S(=O)(=O)[O-])cc5)c5ccc2[nH]5)C=C4)C=C3)cc1
REMARK SMILES IDX 25 1 24 2 23 3 22 4 2 5 1 6 3 7 4 8 5 9 6 10 10 11 7 12 9 13
REMARK SMILES IDX 8 14 11 15 12 16 13 17 21 18 14 19 15 20 16 21 20 22 17 24
REMARK SMILES IDX 19 25 18 26 26 27 27 28 28 29 29 30 30 31 31 32 32 33 90 34
REMARK SMILES IDX 33 35 89 36 34 37 35 38 36 39 83 40 37 41 88 42 82 43 84 44
REMARK SMILES IDX 38 45 87 46 81 47 80 48 39 50 69 51 50 52 68 53 51 54 54 55
REMARK SMILES IDX 67 56 85 57 52 58 53 59 66 61 86 62 55 63 40 64 41 65 49 66
REMARK SMILES IDX 42 67 48 68 43 69 44 70 45 71 46 72 47 73 70 74 71 75 79 76
REMARK SMILES IDX 72 77 78 78 73 79 74 80 75 81 76 82 77 83 56 84 57 85 65 86
REMARK SMILES IDX 58 87 64 88 59 89 60 90 61 91 62 92 63 93
REMARK H PARENT 15 23 84 49 54 60
REMARK Flexibility Score: inf
ROOT
ATOM      1  O   UNL A   1      31.907  28.622  26.090  1.00  0.00    -0.374 OA
ENDROOT
BRANCH   1   2
ATOM      2  C   UNL A   1      32.133  27.245  26.335  1.00  0.00     0.202 C 
BRANCH   2   3
ATOM      3  C   UNL A   1      30.954  26.275  26.499  1.00  0.00     0.261 C 
BRANCH   3   4
ATOM      4  O   UNL A   1      31.275  24.925  26.872  1.00  0.00    -0.461 OA
BRANCH   4   5
ATOM      5  C   UNL A   1      30.497  23.836  26.667  1.00  0.00     0.344 C 
ATOM      6  O   UNL A   1      29.590  23.585  27.462  1.00  0.00    -0.248 OA
BRANCH   5   7
ATOM      7  C   UNL A   1      30.828  22.868  25.541  1.00  0.00     0.351 C 
BRANCH   7   8
ATOM      8  O   UNL A   1      30.511  23.316  24.241  1.00  0.00    -0.481 OA
BRANCH   8   9
ATOM      9  C   UNL A   1      31.584  23.750  23.522  1.00  0.00     0.127 A 
ATOM     10  C   UNL A   1      31.697  25.144  23.443  1.00  0.00     0.047 A 
ATOM     11  C   UNL A   1      32.437  22.904  22.793  1.00  0.00     0.017 A 
ATOM     12  C   UNL A   1      32.660  25.725  22.628  1.00  0.00     0.004 A 
ATOM     13  C   UNL A   1      33.331  23.520  21.902  1.00  0.00     0.012 A 
ATOM     14  C   UNL A   1      33.465  24.911  21.840  1.00  0.00     0.001 A 
BRANCH  11  15
ATOM     15  C   UNL A   1      32.409  21.423  22.873  1.00  0.00     0.026 C 
ATOM     16  C   UNL A   1      33.178  20.668  23.684  1.00  0.00     0.050 C 
ATOM     17  C   UNL A   1      34.207  21.177  24.676  1.00  0.00     0.256 C 
ATOM     18  C   UNL A   1      33.263  19.193  23.732  1.00  0.00     0.011 A 
ATOM     19  O   UNL A   1      34.406  22.307  25.073  1.00  0.00    -0.269 OA
ATOM     20  N   UNL A   1      34.905  20.056  25.084  1.00  0.00    -0.321 N 
ATOM     21  C   UNL A   1      34.353  18.897  24.563  1.00  0.00     0.049 A 
ATOM     22  C   UNL A   1      32.522  18.156  23.193  1.00  0.00     0.011 A 
ATOM     23  H   UNL A   1      35.694  20.079  25.673  1.00  0.00     0.170 HD
ATOM     24  C   UNL A   1      34.769  17.611  24.848  1.00  0.00     0.027 A 
ATOM     25  C   UNL A   1      32.910  16.837  23.487  1.00  0.00     0.001 A 
ATOM     26  C   UNL A   1      34.029  16.567  24.299  1.00  0.00     0.002 A 
ENDBRANCH  11  15
ENDBRANCH   8   9
ENDBRANCH   7   8
ENDBRANCH   5   7
ENDBRANCH   4   5
ENDBRANCH   3   4
ENDBRANCH   2   3
ENDBRANCH   1   2
BRANCH   1  27
ATOM     27  C   UNL A   1      31.826  29.565  27.150  1.00  0.00     0.202 C 
BRANCH  27  28
ATOM     28  C   UNL A   1      32.650  30.859  27.215  1.00  0.00     0.261 C 
BRANCH  28  29
ATOM     29  O   UNL A   1      34.061  30.718  27.059  1.00  0.00    -0.460 OA
BRANCH  29  30
ATOM     30  C   UNL A   1      34.763  31.043  28.170  1.00  0.00     0.338 C 
ATOM     31  O   UNL A   1      34.435  31.825  29.047  1.00  0.00    -0.246 OA
BRANCH  30  32
ATOM     32  C   UNL A   1      35.957  30.195  28.272  1.00  0.00     0.060 A 
ATOM     33  C   UNL A   1      36.287  29.695  29.535  1.00  0.00     0.016 A 
ATOM     34  C   UNL A   1      36.808  30.020  27.179  1.00  0.00     0.016 A 
ATOM     35  C   UNL A   1      37.519  29.084  29.731  1.00  0.00     0.010 A 
ATOM     36  C   UNL A   1      38.047  29.411  27.379  1.00  0.00     0.010 A 
ATOM     37  C   UNL A   1      38.427  28.997  28.668  1.00  0.00    -0.014 A 
BRANCH  37  38
ATOM     38  C   UNL A   1      39.836  28.660  28.962  1.00  0.00     0.031 A 
ATOM     39  C   UNL A   1      40.682  29.675  29.682  1.00  0.00     0.074 A 
ATOM     40  C   UNL A   1      40.324  27.448  28.651  1.00  0.00     0.049 A 
ATOM     41  N   UNL A   1      41.928  29.588  30.070  1.00  0.00    -0.248 NA
ATOM     42  C   UNL A   1      40.040  30.959  30.010  1.00  0.00     0.031 C 
ATOM     43  C   UNL A   1      39.569  26.375  28.003  1.00  0.00     0.029 A 
ATOM     44  N   UNL A   1      41.569  26.914  28.851  1.00  0.00    -0.354 N 
ATOM     45  C   UNL A   1      42.223  30.808  30.670  1.00  0.00     0.074 A 
ATOM     46  C   UNL A   1      41.036  31.629  30.570  1.00  0.00     0.031 C 
ATOM     47  C   UNL A   1      40.366  25.303  27.869  1.00  0.00     0.029 A 
ATOM     48  C   UNL A   1      41.694  25.627  28.388  1.00  0.00     0.049 A 
ATOM     49  H   UNL A   1      42.303  27.405  29.283  1.00  0.00     0.167 HD
ATOM     50  C   UNL A   1      43.377  31.206  31.256  1.00  0.00     0.031 A 
ATOM     51  C   UNL A   1      42.763  24.809  28.379  1.00  0.00     0.031 A 
ATOM     52  C   UNL A   1      44.552  30.379  31.340  1.00  0.00     0.049 A 
ATOM     53  C   UNL A   1      44.056  25.298  28.978  1.00  0.00     0.074 A 
ATOM     54  C   UNL A   1      45.769  30.671  31.928  1.00  0.00     0.029 A 
ATOM     55  N   UNL A   1      44.657  29.100  30.813  1.00  0.00    -0.354 N 
ATOM     56  N   UNL A   1      44.314  26.445  29.562  1.00  0.00    -0.248 NA
ATOM     57  C   UNL A   1      45.197  24.376  28.926  1.00  0.00     0.031 C 
ATOM     58  C   UNL A   1      46.632  29.593  31.699  1.00  0.00     0.029 A 
ATOM     59  C   UNL A   1      45.928  28.600  31.033  1.00  0.00     0.049 A 
ATOM     60  H   UNL A   1      43.933  28.618  30.350  1.00  0.00     0.167 HD
ATOM     61  C   UNL A   1      45.638  26.369  29.978  1.00  0.00     0.074 A 
ATOM     62  C   UNL A   1      46.121  25.058  29.588  1.00  0.00     0.031 C 
ATOM     63  C   UNL A   1      46.388  27.294  30.631  1.00  0.00     0.031 A 
BRANCH  50  64
ATOM     64  C   UNL A   1      43.436  32.610  31.799  1.00  0.00    -0.014 A 
ATOM     65  C   UNL A   1      43.647  33.719  30.959  1.00  0.00     0.010 A 
ATOM     66  C   UNL A   1      43.261  32.825  33.179  1.00  0.00     0.010 A 
ATOM     67  C   UNL A   1      43.728  35.009  31.495  1.00  0.00     0.020 A 
ATOM     68  C   UNL A   1      43.310  34.114  33.715  1.00  0.00     0.020 A 
ATOM     69  C   UNL A   1      43.563  35.197  32.871  1.00  0.00     0.054 A 
BRANCH  69  70
ATOM     70  S   UNL A   1      43.663  36.881  33.540  1.00  0.00     0.124 S 
ATOM     71  O   UNL A   1      43.862  37.674  32.330  1.00  0.00    -0.237 OA
ATOM     72  O   UNL A   1      42.366  37.044  34.192  1.00  0.00    -0.237 OA
ATOM     73  O   UNL A   1      44.809  36.829  34.443  1.00  0.00    -0.744 OA
ENDBRANCH  69  70
ENDBRANCH  50  64
BRANCH  51  74
ATOM     74  C   UNL A   1      42.654  23.448  27.789  1.00  0.00    -0.014 A 
ATOM     75  C   UNL A   1      42.101  22.388  28.528  1.00  0.00     0.010 A 
ATOM     76  C   UNL A   1      43.092  23.207  26.474  1.00  0.00     0.010 A 
ATOM     77  C   UNL A   1      42.003  21.110  27.970  1.00  0.00     0.020 A 
ATOM     78  C   UNL A   1      42.970  21.938  25.901  1.00  0.00     0.020 A 
ATOM     79  C   UNL A   1      42.435  20.895  26.658  1.00  0.00     0.054 A 
BRANCH  79  80
ATOM     80  S   UNL A   1      42.251  19.240  25.938  1.00  0.00     0.124 S 
ATOM     81  O   UNL A   1      42.785  18.387  26.995  1.00  0.00    -0.237 OA
ATOM     82  O   UNL A   1      40.809  19.151  25.720  1.00  0.00    -0.237 OA
ATOM     83  O   UNL A   1      43.055  19.306  24.720  1.00  0.00    -0.744 OA
ENDBRANCH  79  80
ENDBRANCH  51  74
BRANCH  63  84
ATOM     84  C   UNL A   1      47.795  26.902  31.002  1.00  0.00    -0.014 A 
ATOM     85  C   UNL A   1      48.086  26.285  32.232  1.00  0.00     0.010 A 
ATOM     86  C   UNL A   1      48.837  27.125  30.082  1.00  0.00     0.010 A 
ATOM     87  C   UNL A   1      49.402  25.942  32.554  1.00  0.00     0.020 A 
ATOM     88  C   UNL A   1      50.147  26.751  30.386  1.00  0.00     0.020 A 
ATOM     89  C   UNL A   1      50.424  26.180  31.630  1.00  0.00     0.054 A 
BRANCH  89  90
ATOM     90  S   UNL A   1      52.119  25.704  32.061  1.00  0.00     0.124 S 
ATOM     91  O   UNL A   1      52.871  26.175  30.900  1.00  0.00    -0.237 OA
ATOM     92  O   UNL A   1      52.353  26.438  33.302  1.00  0.00    -0.237 OA
ATOM     93  O   UNL A   1      52.046  24.252  32.208  1.00  0.00    -0.744 OA
ENDBRANCH  89  90
ENDBRANCH  63  84
ENDBRANCH  37  38
ENDBRANCH  30  32
ENDBRANCH  29  30
ENDBRANCH  28  29
ENDBRANCH  27  28
ENDBRANCH   1  27
TORSDOF 20
ENDMDL
