MODEL 1
REMARK VINA RESULT:     -12.1      0.000      0.000
REMARK SMILES Cc1ccn2c([C@@H]3CCCC[C@@H]3C(=O)OCCOCCOC(=O)c3ccc(-c4c5nc(c(-c6ccc(S(=O)(=O)[O-])cc6)c6ccc([nH]6)c(-c6ccc(S(=O)(=O)[O-])cc6)c6nc(c(-c7ccc(S(=O)(=O)[O-])cc7)c7ccc4[nH]7)C=C6)C=C5)cc3)nnc2c1
REMARK SMILES IDX 19 1 18 2 17 3 16 4 15 5 13 6 14 7 12 8 7 9 8 10 9 11 11 12
REMARK SMILES IDX 10 13 6 14 1 15 2 16 3 17 87 18 4 19 86 20 5 21 85 22 84 23
REMARK SMILES IDX 20 24 21 25 22 26 23 27 24 28 25 29 83 30 26 31 82 32 27 33
REMARK SMILES IDX 28 34 29 35 76 36 30 37 81 38 75 39 77 40 31 41 80 42 74 43
REMARK SMILES IDX 73 44 32 46 62 47 43 48 61 49 44 50 47 51 60 52 78 53 45 54
REMARK SMILES IDX 46 55 59 57 79 58 48 59 33 60 34 61 42 62 35 63 41 64 36 65
REMARK SMILES IDX 37 66 38 67 39 68 40 69 63 70 64 71 72 72 65 73 71 74 66 75
REMARK SMILES IDX 67 76 68 77 69 78 70 79 49 80 50 81 58 82 51 83 57 84 52 85
REMARK SMILES IDX 53 86 54 87 55 88 56 89
REMARK H PARENT 77 45 47 56
REMARK Flexibility Score: inf
ROOT
ATOM      1  C   UNL A   1      40.007  22.334  26.700  1.00  0.00     0.202 C 
ENDROOT
BRANCH   1   2
ATOM      2  O   UNL A   1      38.773  22.438  25.989  1.00  0.00    -0.374 OA
BRANCH   2   3
ATOM      3  C   UNL A   1      37.983  23.613  26.121  1.00  0.00     0.202 C 
BRANCH   3   4
ATOM      4  C   UNL A   1      36.623  23.723  25.426  1.00  0.00     0.261 C 
BRANCH   4   5
ATOM      5  O   UNL A   1      35.548  23.272  26.243  1.00  0.00    -0.463 OA
BRANCH   5   6
ATOM      6  C   UNL A   1      34.383  23.200  25.551  1.00  0.00     0.309 C 
ATOM      7  O   UNL A   1      33.348  23.753  25.892  1.00  0.00    -0.252 OA
BRANCH   6   8
ATOM      8  C   UNL A   1      34.528  22.359  24.303  1.00  0.00     0.110 C 
ATOM      9  C   UNL A   1      33.222  22.298  23.485  1.00  0.00     0.072 C 
ATOM     10  C   UNL A   1      32.062  21.648  24.243  1.00  0.00     0.012 C 
ATOM     11  C   UNL A   1      32.478  20.312  24.887  1.00  0.00     0.001 C 
ATOM     12  C   UNL A   1      34.941  20.952  24.742  1.00  0.00     0.016 C 
ATOM     13  C   UNL A   1      33.845  20.297  25.581  1.00  0.00     0.001 C 
BRANCH   9  14
ATOM     14  C   UNL A   1      32.897  23.548  22.690  1.00  0.00     0.141 A 
ATOM     15  C   UNL A   1      29.830  28.204  23.243  1.00  0.00     0.044 C 
ATOM     16  C   UNL A   1      30.514  26.894  22.979  1.00  0.00    -0.046 A 
ATOM     17  C   UNL A   1      30.101  25.750  23.788  1.00  0.00     0.022 A 
ATOM     18  C   UNL A   1      31.504  26.755  22.073  1.00  0.00     0.053 A 
ATOM     19  C   UNL A   1      30.784  24.592  23.706  1.00  0.00     0.095 A 
ATOM     20  C   UNL A   1      32.230  25.531  21.993  1.00  0.00     0.161 A 
ATOM     21  N   UNL A   1      31.890  24.495  22.865  1.00  0.00    -0.286 N 
ATOM     22  N   UNL A   1      33.270  25.189  21.272  1.00  0.00    -0.130 NA
ATOM     23  N   UNL A   1      33.683  23.959  21.703  1.00  0.00    -0.134 NA
ENDBRANCH   9  14
ENDBRANCH   6   8
ENDBRANCH   5   6
ENDBRANCH   4   5
ENDBRANCH   3   4
ENDBRANCH   2   3
ENDBRANCH   1   2
BRANCH   1  24
ATOM     24  C   UNL A   1      41.253  21.731  26.039  1.00  0.00     0.261 C 
BRANCH  24  25
ATOM     25  O   UNL A   1      42.449  22.401  26.439  1.00  0.00    -0.460 OA
BRANCH  25  26
ATOM     26  C   UNL A   1      43.006  23.213  25.502  1.00  0.00     0.338 C 
ATOM     27  O   UNL A   1      43.286  22.932  24.346  1.00  0.00    -0.246 OA
BRANCH  26  28
ATOM     28  C   UNL A   1      42.840  24.587  26.018  1.00  0.00     0.060 A 
ATOM     29  C   UNL A   1      43.416  24.953  27.236  1.00  0.00     0.016 A 
ATOM     30  C   UNL A   1      41.806  25.351  25.445  1.00  0.00     0.016 A 
ATOM     31  C   UNL A   1      42.880  26.034  27.923  1.00  0.00     0.010 A 
ATOM     32  C   UNL A   1      41.245  26.408  26.161  1.00  0.00     0.010 A 
ATOM     33  C   UNL A   1      41.757  26.725  27.418  1.00  0.00    -0.014 A 
BRANCH  33  34
ATOM     34  C   UNL A   1      41.337  27.927  28.143  1.00  0.00     0.031 A 
ATOM     35  C   UNL A   1      42.299  29.039  27.931  1.00  0.00     0.074 A 
ATOM     36  C   UNL A   1      40.222  28.160  28.867  1.00  0.00     0.049 A 
ATOM     37  N   UNL A   1      43.092  29.555  28.808  1.00  0.00    -0.248 NA
ATOM     38  C   UNL A   1      42.530  29.492  26.553  1.00  0.00     0.031 C 
ATOM     39  C   UNL A   1      39.021  27.344  29.037  1.00  0.00     0.029 A 
ATOM     40  N   UNL A   1      39.919  29.291  29.574  1.00  0.00    -0.354 N 
ATOM     41  C   UNL A   1      43.845  30.503  28.129  1.00  0.00     0.074 A 
ATOM     42  C   UNL A   1      43.550  30.330  26.727  1.00  0.00     0.031 C 
ATOM     43  C   UNL A   1      38.041  28.102  29.596  1.00  0.00     0.029 A 
ATOM     44  C   UNL A   1      38.587  29.401  29.958  1.00  0.00     0.049 A 
ATOM     45  H   UNL A   1      40.592  29.975  29.794  1.00  0.00     0.167 HD
ATOM     46  C   UNL A   1      44.555  31.463  28.778  1.00  0.00     0.031 A 
ATOM     47  C   UNL A   1      37.988  30.500  30.493  1.00  0.00     0.031 A 
ATOM     48  C   UNL A   1      44.712  31.166  30.177  1.00  0.00     0.049 A 
ATOM     49  C   UNL A   1      39.052  31.329  31.109  1.00  0.00     0.074 A 
ATOM     50  C   UNL A   1      45.332  30.153  30.882  1.00  0.00     0.029 A 
ATOM     51  N   UNL A   1      43.854  31.775  31.062  1.00  0.00    -0.354 N 
ATOM     52  N   UNL A   1      39.712  30.972  32.173  1.00  0.00    -0.248 NA
ATOM     53  C   UNL A   1      39.671  32.371  30.305  1.00  0.00     0.031 C 
ATOM     54  C   UNL A   1      44.473  29.896  31.987  1.00  0.00     0.029 A 
ATOM     55  C   UNL A   1      43.413  30.804  31.926  1.00  0.00     0.049 A 
ATOM     56  H   UNL A   1      43.604  32.727  31.074  1.00  0.00     0.167 HD
ATOM     57  C   UNL A   1      41.008  31.402  31.939  1.00  0.00     0.074 A 
ATOM     58  C   UNL A   1      40.902  32.337  30.821  1.00  0.00     0.031 C 
ATOM     59  C   UNL A   1      42.078  30.757  32.488  1.00  0.00     0.031 A 
BRANCH  46  60
ATOM     60  C   UNL A   1      44.865  32.810  28.192  1.00  0.00    -0.014 A 
ATOM     61  C   UNL A   1      43.908  33.840  28.097  1.00  0.00     0.010 A 
ATOM     62  C   UNL A   1      46.206  33.152  27.931  1.00  0.00     0.010 A 
ATOM     63  C   UNL A   1      44.255  35.140  27.736  1.00  0.00     0.020 A 
ATOM     64  C   UNL A   1      46.573  34.465  27.614  1.00  0.00     0.020 A 
ATOM     65  C   UNL A   1      45.591  35.449  27.510  1.00  0.00     0.054 A 
BRANCH  65  66
ATOM     66  S   UNL A   1      46.014  37.169  27.152  1.00  0.00     0.124 S 
ATOM     67  O   UNL A   1      46.817  37.033  25.939  1.00  0.00    -0.237 OA
ATOM     68  O   UNL A   1      44.702  37.783  26.975  1.00  0.00    -0.237 OA
ATOM     69  O   UNL A   1      46.747  37.597  28.340  1.00  0.00    -0.744 OA
ENDBRANCH  65  66
ENDBRANCH  46  60
BRANCH  47  70
ATOM     70  C   UNL A   1      36.667  31.098  30.156  1.00  0.00    -0.014 A 
ATOM     71  C   UNL A   1      36.343  31.364  28.812  1.00  0.00     0.010 A 
ATOM     72  C   UNL A   1      35.900  31.737  31.155  1.00  0.00     0.010 A 
ATOM     73  C   UNL A   1      35.374  32.319  28.477  1.00  0.00     0.020 A 
ATOM     74  C   UNL A   1      34.928  32.698  30.825  1.00  0.00     0.020 A 
ATOM     75  C   UNL A   1      34.708  33.016  29.486  1.00  0.00     0.054 A 
BRANCH  75  76
ATOM     76  S   UNL A   1      33.651  34.416  29.009  1.00  0.00     0.124 S 
ATOM     77  O   UNL A   1      34.622  35.346  28.439  1.00  0.00    -0.237 OA
ATOM     78  O   UNL A   1      32.732  33.806  28.052  1.00  0.00    -0.237 OA
ATOM     79  O   UNL A   1      33.044  34.839  30.268  1.00  0.00    -0.744 OA
ENDBRANCH  75  76
ENDBRANCH  47  70
BRANCH  59  80
ATOM     80  C   UNL A   1      41.841  29.715  33.564  1.00  0.00    -0.014 A 
ATOM     81  C   UNL A   1      42.333  29.989  34.854  1.00  0.00     0.010 A 
ATOM     82  C   UNL A   1      41.332  28.425  33.308  1.00  0.00     0.010 A 
ATOM     83  C   UNL A   1      42.353  29.005  35.844  1.00  0.00     0.020 A 
ATOM     84  C   UNL A   1      41.322  27.439  34.307  1.00  0.00     0.020 A 
ATOM     85  C   UNL A   1      41.860  27.730  35.562  1.00  0.00     0.054 A 
BRANCH  85  86
ATOM     86  S   UNL A   1      41.960  26.467  36.859  1.00  0.00     0.124 S 
ATOM     87  O   UNL A   1      42.352  25.279  36.102  1.00  0.00    -0.237 OA
ATOM     88  O   UNL A   1      42.986  27.002  37.752  1.00  0.00    -0.237 OA
ATOM     89  O   UNL A   1      40.613  26.426  37.421  1.00  0.00    -0.744 OA
ENDBRANCH  85  86
ENDBRANCH  59  80
ENDBRANCH  33  34
ENDBRANCH  26  28
ENDBRANCH  25  26
ENDBRANCH  24  25
ENDBRANCH   1  24
TORSDOF 18
ENDMDL
MODEL 2
REMARK VINA RESULT:     -11.8      2.855      7.268
REMARK SMILES Cc1ccn2c([C@@H]3CCCC[C@@H]3C(=O)OCCOCCOC(=O)c3ccc(-c4c5nc(c(-c6ccc(S(=O)(=O)[O-])cc6)c6ccc([nH]6)c(-c6ccc(S(=O)(=O)[O-])cc6)c6nc(c(-c7ccc(S(=O)(=O)[O-])cc7)c7ccc4[nH]7)C=C6)C=C5)cc3)nnc2c1
REMARK SMILES IDX 19 1 18 2 17 3 16 4 15 5 13 6 14 7 12 8 7 9 8 10 9 11 11 12
REMARK SMILES IDX 10 13 6 14 1 15 2 16 3 17 87 18 4 19 86 20 5 21 85 22 84 23
REMARK SMILES IDX 20 24 21 25 22 26 23 27 24 28 25 29 83 30 26 31 82 32 27 33
REMARK SMILES IDX 28 34 29 35 76 36 30 37 81 38 75 39 77 40 31 41 80 42 74 43
REMARK SMILES IDX 73 44 32 46 62 47 43 48 61 49 44 50 47 51 60 52 78 53 45 54
REMARK SMILES IDX 46 55 59 57 79 58 48 59 33 60 34 61 42 62 35 63 41 64 36 65
REMARK SMILES IDX 37 66 38 67 39 68 40 69 63 70 64 71 72 72 65 73 71 74 66 75
REMARK SMILES IDX 67 76 68 77 69 78 70 79 49 80 50 81 58 82 51 83 57 84 52 85
REMARK SMILES IDX 53 86 54 87 55 88 56 89
REMARK H PARENT 77 45 47 56
REMARK Flexibility Score: inf
ROOT
ATOM      1  C   UNL A   1      32.961  28.939  24.708  1.00  0.00     0.202 C 
ENDROOT
BRANCH   1   2
ATOM      2  O   UNL A   1      33.442  27.627  24.410  1.00  0.00    -0.374 OA
BRANCH   2   3
ATOM      3  C   UNL A   1      33.579  26.675  25.457  1.00  0.00     0.202 C 
BRANCH   3   4
ATOM      4  C   UNL A   1      34.382  25.388  25.244  1.00  0.00     0.261 C 
BRANCH   4   5
ATOM      5  O   UNL A   1      34.058  24.374  26.189  1.00  0.00    -0.463 OA
BRANCH   5   6
ATOM      6  C   UNL A   1      33.446  23.315  25.602  1.00  0.00     0.309 C 
ATOM      7  O   UNL A   1      32.387  22.837  25.984  1.00  0.00    -0.252 OA
BRANCH   6   8
ATOM      8  C   UNL A   1      34.231  22.806  24.415  1.00  0.00     0.110 C 
ATOM      9  C   UNL A   1      33.332  22.542  23.189  1.00  0.00     0.072 C 
ATOM     10  C   UNL A   1      32.278  21.459  23.433  1.00  0.00     0.012 C 
ATOM     11  C   UNL A   1      32.893  20.195  24.062  1.00  0.00     0.001 C 
ATOM     12  C   UNL A   1      34.929  21.513  24.845  1.00  0.00     0.016 C 
ATOM     13  C   UNL A   1      33.908  20.428  25.186  1.00  0.00     0.001 C 
BRANCH   9  14
ATOM     14  C   UNL A   1      32.873  23.780  22.444  1.00  0.00     0.141 A 
ATOM     15  C   UNL A   1      29.500  28.176  23.270  1.00  0.00     0.044 C 
ATOM     16  C   UNL A   1      30.265  26.927  22.939  1.00  0.00    -0.046 A 
ATOM     17  C   UNL A   1      29.982  25.738  23.738  1.00  0.00     0.022 A 
ATOM     18  C   UNL A   1      31.214  26.884  21.980  1.00  0.00     0.053 A 
ATOM     19  C   UNL A   1      30.745  24.638  23.592  1.00  0.00     0.095 A 
ATOM     20  C   UNL A   1      32.024  25.722  21.833  1.00  0.00     0.161 A 
ATOM     21  N   UNL A   1      31.809  24.644  22.694  1.00  0.00    -0.286 N 
ATOM     22  N   UNL A   1      33.048  25.475  21.052  1.00  0.00    -0.130 NA
ATOM     23  N   UNL A   1      33.574  24.271  21.430  1.00  0.00    -0.134 NA
ENDBRANCH   9  14
ENDBRANCH   6   8
ENDBRANCH   5   6
ENDBRANCH   4   5
ENDBRANCH   3   4
ENDBRANCH   2   3
ENDBRANCH   1   2
BRANCH   1  24
ATOM     24  C   UNL A   1      31.719  29.146  25.583  1.00  0.00     0.261 C 
BRANCH  24  25
ATOM     25  O   UNL A   1      32.050  29.691  26.861  1.00  0.00    -0.460 OA
BRANCH  25  26
ATOM     26  C   UNL A   1      32.312  31.025  26.880  1.00  0.00     0.338 C 
ATOM     27  O   UNL A   1      31.556  31.935  26.577  1.00  0.00    -0.246 OA
BRANCH  26  28
ATOM     28  C   UNL A   1      33.528  31.179  27.704  1.00  0.00     0.060 A 
ATOM     29  C   UNL A   1      34.083  32.444  27.906  1.00  0.00     0.016 A 
ATOM     30  C   UNL A   1      34.279  30.011  27.937  1.00  0.00     0.016 A 
ATOM     31  C   UNL A   1      35.426  32.532  28.249  1.00  0.00     0.010 A 
ATOM     32  C   UNL A   1      35.637  30.108  28.239  1.00  0.00     0.010 A 
ATOM     33  C   UNL A   1      36.220  31.369  28.356  1.00  0.00    -0.014 A 
BRANCH  33  34
ATOM     34  C   UNL A   1      37.590  31.545  28.843  1.00  0.00     0.031 A 
ATOM     35  C   UNL A   1      38.374  30.291  28.691  1.00  0.00     0.074 A 
ATOM     36  C   UNL A   1      38.212  32.649  29.308  1.00  0.00     0.049 A 
ATOM     37  N   UNL A   1      38.809  29.530  29.637  1.00  0.00    -0.248 NA
ATOM     38  C   UNL A   1      38.522  29.736  27.339  1.00  0.00     0.031 C 
ATOM     39  C   UNL A   1      37.765  34.040  29.339  1.00  0.00     0.029 A 
ATOM     40  N   UNL A   1      39.483  32.730  29.808  1.00  0.00    -0.354 N 
ATOM     41  C   UNL A   1      39.412  28.449  29.009  1.00  0.00     0.074 A 
ATOM     42  C   UNL A   1      39.092  28.562  27.606  1.00  0.00     0.031 C 
ATOM     43  C   UNL A   1      38.827  34.844  29.609  1.00  0.00     0.029 A 
ATOM     44  C   UNL A   1      39.987  34.021  29.915  1.00  0.00     0.049 A 
ATOM     45  H   UNL A   1      40.001  31.935  30.071  1.00  0.00     0.167 HD
ATOM     46  C   UNL A   1      40.254  27.609  29.665  1.00  0.00     0.031 A 
ATOM     47  C   UNL A   1      41.273  34.367  30.194  1.00  0.00     0.031 A 
ATOM     48  C   UNL A   1      40.160  27.756  31.094  1.00  0.00     0.049 A 
ATOM     49  C   UNL A   1      41.895  33.222  30.902  1.00  0.00     0.074 A 
ATOM     50  C   UNL A   1      39.152  27.556  32.017  1.00  0.00     0.029 A 
ATOM     51  N   UNL A   1      41.101  28.536  31.721  1.00  0.00    -0.354 N 
ATOM     52  N   UNL A   1      41.563  32.858  32.106  1.00  0.00    -0.248 NA
ATOM     53  C   UNL A   1      42.602  32.223  30.116  1.00  0.00     0.031 C 
ATOM     54  C   UNL A   1      39.304  28.612  32.960  1.00  0.00     0.029 A 
ATOM     55  C   UNL A   1      40.428  29.356  32.592  1.00  0.00     0.049 A 
ATOM     56  H   UNL A   1      42.074  28.511  31.575  1.00  0.00     0.167 HD
ATOM     57  C   UNL A   1      41.607  31.473  32.076  1.00  0.00     0.074 A 
ATOM     58  C   UNL A   1      42.343  31.143  30.857  1.00  0.00     0.031 C 
ATOM     59  C   UNL A   1      40.811  30.721  32.890  1.00  0.00     0.031 A 
BRANCH  46  60
ATOM     60  C   UNL A   1      41.364  26.852  28.997  1.00  0.00    -0.014 A 
ATOM     61  C   UNL A   1      41.171  25.597  28.384  1.00  0.00     0.010 A 
ATOM     62  C   UNL A   1      42.593  27.499  28.763  1.00  0.00     0.010 A 
ATOM     63  C   UNL A   1      42.155  24.998  27.600  1.00  0.00     0.020 A 
ATOM     64  C   UNL A   1      43.571  26.929  27.938  1.00  0.00     0.020 A 
ATOM     65  C   UNL A   1      43.346  25.676  27.369  1.00  0.00     0.054 A 
BRANCH  65  66
ATOM     66  S   UNL A   1      44.552  24.916  26.258  1.00  0.00     0.124 S 
ATOM     67  O   UNL A   1      45.233  26.086  25.710  1.00  0.00    -0.237 OA
ATOM     68  O   UNL A   1      45.343  24.096  27.171  1.00  0.00    -0.237 OA
ATOM     69  O   UNL A   1      43.726  24.173  25.311  1.00  0.00    -0.744 OA
ENDBRANCH  65  66
ENDBRANCH  46  60
BRANCH  47  70
ATOM     70  C   UNL A   1      42.122  35.403  29.544  1.00  0.00    -0.014 A 
ATOM     71  C   UNL A   1      42.112  35.536  28.143  1.00  0.00     0.010 A 
ATOM     72  C   UNL A   1      43.195  35.990  30.251  1.00  0.00     0.010 A 
ATOM     73  C   UNL A   1      43.187  36.125  27.463  1.00  0.00     0.020 A 
ATOM     74  C   UNL A   1      44.277  36.580  29.575  1.00  0.00     0.020 A 
ATOM     75  C   UNL A   1      44.286  36.598  28.182  1.00  0.00     0.054 A 
BRANCH  75  76
ATOM     76  S   UNL A   1      45.759  37.119  27.253  1.00  0.00     0.124 S 
ATOM     77  O   UNL A   1      46.787  37.112  28.290  1.00  0.00    -0.237 OA
ATOM     78  O   UNL A   1      45.882  36.073  26.242  1.00  0.00    -0.237 OA
ATOM     79  O   UNL A   1      45.398  38.438  26.738  1.00  0.00    -0.744 OA
ENDBRANCH  75  76
ENDBRANCH  47  70
BRANCH  59  80
ATOM     80  C   UNL A   1      40.053  31.400  34.015  1.00  0.00    -0.014 A 
ATOM     81  C   UNL A   1      40.583  31.291  35.314  1.00  0.00     0.010 A 
ATOM     82  C   UNL A   1      38.769  31.963  33.866  1.00  0.00     0.010 A 
ATOM     83  C   UNL A   1      39.847  31.692  36.431  1.00  0.00     0.020 A 
ATOM     84  C   UNL A   1      38.035  32.396  34.982  1.00  0.00     0.020 A 
ATOM     85  C   UNL A   1      38.571  32.231  36.260  1.00  0.00     0.054 A 
BRANCH  85  86
ATOM     86  S   UNL A   1      37.628  32.684  37.742  1.00  0.00     0.124 S 
ATOM     87  O   UNL A   1      36.456  33.347  37.171  1.00  0.00    -0.237 OA
ATOM     88  O   UNL A   1      37.368  31.389  38.368  1.00  0.00    -0.237 OA
ATOM     89  O   UNL A   1      38.532  33.559  38.486  1.00  0.00    -0.744 OA
ENDBRANCH  85  86
ENDBRANCH  59  80
ENDBRANCH  33  34
ENDBRANCH  26  28
ENDBRANCH  25  26
ENDBRANCH  24  25
ENDBRANCH   1  24
TORSDOF 18
ENDMDL
MODEL 3
REMARK VINA RESULT:     -11.8      3.210      7.968
REMARK SMILES Cc1ccn2c([C@@H]3CCCC[C@@H]3C(=O)OCCOCCOC(=O)c3ccc(-c4c5nc(c(-c6ccc(S(=O)(=O)[O-])cc6)c6ccc([nH]6)c(-c6ccc(S(=O)(=O)[O-])cc6)c6nc(c(-c7ccc(S(=O)(=O)[O-])cc7)c7ccc4[nH]7)C=C6)C=C5)cc3)nnc2c1
REMARK SMILES IDX 19 1 18 2 17 3 16 4 15 5 13 6 14 7 12 8 7 9 8 10 9 11 11 12
REMARK SMILES IDX 10 13 6 14 1 15 2 16 3 17 87 18 4 19 86 20 5 21 85 22 84 23
REMARK SMILES IDX 20 24 21 25 22 26 23 27 24 28 25 29 83 30 26 31 82 32 27 33
REMARK SMILES IDX 28 34 29 35 76 36 30 37 81 38 75 39 77 40 31 41 80 42 74 43
REMARK SMILES IDX 73 44 32 46 62 47 43 48 61 49 44 50 47 51 60 52 78 53 45 54
REMARK SMILES IDX 46 55 59 57 79 58 48 59 33 60 34 61 42 62 35 63 41 64 36 65
REMARK SMILES IDX 37 66 38 67 39 68 40 69 63 70 64 71 72 72 65 73 71 74 66 75
REMARK SMILES IDX 67 76 68 77 69 78 70 79 49 80 50 81 58 82 51 83 57 84 52 85
REMARK SMILES IDX 53 86 54 87 55 88 56 89
REMARK H PARENT 77 45 47 56
REMARK Flexibility Score: inf
ROOT
ATOM      1  C   UNL A   1      31.739  29.098  23.954  1.00  0.00     0.202 C 
ENDROOT
BRANCH   1   2
ATOM      2  O   UNL A   1      33.136  29.000  23.675  1.00  0.00    -0.374 OA
BRANCH   2   3
ATOM      3  C   UNL A   1      33.568  28.475  22.426  1.00  0.00     0.202 C 
BRANCH   3   4
ATOM      4  C   UNL A   1      33.740  26.966  22.229  1.00  0.00     0.261 C 
BRANCH   4   5
ATOM      5  O   UNL A   1      33.153  26.203  23.277  1.00  0.00    -0.463 OA
BRANCH   5   6
ATOM      6  C   UNL A   1      33.917  25.133  23.611  1.00  0.00     0.309 C 
ATOM      7  O   UNL A   1      34.192  24.221  22.845  1.00  0.00    -0.252 OA
BRANCH   6   8
ATOM      8  C   UNL A   1      34.392  25.213  25.044  1.00  0.00     0.110 C 
ATOM      9  C   UNL A   1      34.261  23.863  25.779  1.00  0.00     0.072 C 
ATOM     10  C   UNL A   1      32.816  23.371  25.890  1.00  0.00     0.012 C 
ATOM     11  C   UNL A   1      31.875  24.476  26.405  1.00  0.00     0.001 C 
ATOM     12  C   UNL A   1      33.551  26.280  25.749  1.00  0.00     0.016 C 
ATOM     13  C   UNL A   1      32.080  25.870  25.802  1.00  0.00     0.001 C 
BRANCH   9  14
ATOM     14  C   UNL A   1      35.305  22.824  25.417  1.00  0.00     0.141 A 
ATOM     15  C   UNL A   1      40.602  21.553  26.726  1.00  0.00     0.044 C 
ATOM     16  C   UNL A   1      39.253  21.965  26.213  1.00  0.00    -0.046 A 
ATOM     17  C   UNL A   1      38.851  23.352  26.427  1.00  0.00     0.022 A 
ATOM     18  C   UNL A   1      38.403  21.102  25.615  1.00  0.00     0.053 A 
ATOM     19  C   UNL A   1      37.595  23.738  26.130  1.00  0.00     0.095 A 
ATOM     20  C   UNL A   1      37.073  21.510  25.309  1.00  0.00     0.161 A 
ATOM     21  N   UNL A   1      36.681  22.810  25.637  1.00  0.00    -0.286 N 
ATOM     22  N   UNL A   1      36.055  20.844  24.820  1.00  0.00    -0.130 NA
ATOM     23  N   UNL A   1      34.959  21.659  24.886  1.00  0.00    -0.134 NA
ENDBRANCH   9  14
ENDBRANCH   6   8
ENDBRANCH   5   6
ENDBRANCH   4   5
ENDBRANCH   3   4
ENDBRANCH   2   3
ENDBRANCH   1   2
BRANCH   1  24
ATOM     24  C   UNL A   1      31.224  29.946  25.123  1.00  0.00     0.261 C 
BRANCH  24  25
ATOM     25  O   UNL A   1      32.206  30.097  26.149  1.00  0.00    -0.460 OA
BRANCH  25  26
ATOM     26  C   UNL A   1      32.263  31.325  26.730  1.00  0.00     0.338 C 
ATOM     27  O   UNL A   1      31.365  32.148  26.819  1.00  0.00    -0.246 OA
BRANCH  26  28
ATOM     28  C   UNL A   1      33.479  31.311  27.569  1.00  0.00     0.060 A 
ATOM     29  C   UNL A   1      33.946  32.492  28.147  1.00  0.00     0.016 A 
ATOM     30  C   UNL A   1      34.314  30.185  27.442  1.00  0.00     0.016 A 
ATOM     31  C   UNL A   1      35.284  32.570  28.508  1.00  0.00     0.010 A 
ATOM     32  C   UNL A   1      35.666  30.284  27.767  1.00  0.00     0.010 A 
ATOM     33  C   UNL A   1      36.160  31.489  28.263  1.00  0.00    -0.014 A 
BRANCH  33  34
ATOM     34  C   UNL A   1      37.522  31.609  28.789  1.00  0.00     0.031 A 
ATOM     35  C   UNL A   1      38.257  30.323  28.660  1.00  0.00     0.074 A 
ATOM     36  C   UNL A   1      38.176  32.687  29.271  1.00  0.00     0.049 A 
ATOM     37  N   UNL A   1      38.633  29.546  29.619  1.00  0.00    -0.248 NA
ATOM     38  C   UNL A   1      38.420  29.759  27.314  1.00  0.00     0.031 C 
ATOM     39  C   UNL A   1      37.788  34.096  29.287  1.00  0.00     0.029 A 
ATOM     40  N   UNL A   1      39.435  32.716  29.807  1.00  0.00    -0.354 N 
ATOM     41  C   UNL A   1      39.207  28.440  29.010  1.00  0.00     0.074 A 
ATOM     42  C   UNL A   1      38.933  28.564  27.598  1.00  0.00     0.031 C 
ATOM     43  C   UNL A   1      38.874  34.855  29.587  1.00  0.00     0.029 A 
ATOM     44  C   UNL A   1      39.989  33.986  29.927  1.00  0.00     0.049 A 
ATOM     45  H   UNL A   1      39.912  31.901  30.085  1.00  0.00     0.167 HD
ATOM     46  C   UNL A   1      39.995  27.567  29.691  1.00  0.00     0.031 A 
ATOM     47  C   UNL A   1      41.280  34.277  30.242  1.00  0.00     0.031 A 
ATOM     48  C   UNL A   1      39.866  27.721  31.115  1.00  0.00     0.049 A 
ATOM     49  C   UNL A   1      41.834  33.109  30.968  1.00  0.00     0.074 A 
ATOM     50  C   UNL A   1      38.825  27.565  32.010  1.00  0.00     0.029 A 
ATOM     51  N   UNL A   1      40.821  28.462  31.769  1.00  0.00    -0.354 N 
ATOM     52  N   UNL A   1      41.452  32.761  32.162  1.00  0.00    -0.248 NA
ATOM     53  C   UNL A   1      42.520  32.079  30.203  1.00  0.00     0.031 C 
ATOM     54  C   UNL A   1      38.994  28.616  32.955  1.00  0.00     0.029 A 
ATOM     55  C   UNL A   1      40.158  29.311  32.620  1.00  0.00     0.049 A 
ATOM     56  H   UNL A   1      41.796  28.396  31.650  1.00  0.00     0.167 HD
ATOM     57  C   UNL A   1      41.440  31.376  32.135  1.00  0.00     0.074 A 
ATOM     58  C   UNL A   1      42.196  31.013  30.938  1.00  0.00     0.031 C 
ATOM     59  C   UNL A   1      40.590  30.659  32.927  1.00  0.00     0.031 A 
BRANCH  46  60
ATOM     60  C   UNL A   1      41.091  26.762  29.054  1.00  0.00    -0.014 A 
ATOM     61  C   UNL A   1      40.877  25.483  28.504  1.00  0.00     0.010 A 
ATOM     62  C   UNL A   1      42.327  27.380  28.784  1.00  0.00     0.010 A 
ATOM     63  C   UNL A   1      41.848  24.833  27.745  1.00  0.00     0.020 A 
ATOM     64  C   UNL A   1      43.293  26.757  27.984  1.00  0.00     0.020 A 
ATOM     65  C   UNL A   1      43.048  25.481  27.477  1.00  0.00     0.054 A 
BRANCH  65  66
ATOM     66  S   UNL A   1      44.237  24.652  26.399  1.00  0.00     0.124 S 
ATOM     67  O   UNL A   1      45.506  24.985  27.041  1.00  0.00    -0.237 OA
ATOM     68  O   UNL A   1      43.828  23.254  26.499  1.00  0.00    -0.237 OA
ATOM     69  O   UNL A   1      44.013  25.274  25.097  1.00  0.00    -0.744 OA
ENDBRANCH  65  66
ENDBRANCH  46  60
BRANCH  47  70
ATOM     70  C   UNL A   1      42.190  35.275  29.615  1.00  0.00    -0.014 A 
ATOM     71  C   UNL A   1      43.161  35.926  30.399  1.00  0.00     0.010 A 
ATOM     72  C   UNL A   1      41.864  35.849  28.365  1.00  0.00     0.010 A 
ATOM     73  C   UNL A   1      43.698  37.160  30.010  1.00  0.00     0.020 A 
ATOM     74  C   UNL A   1      42.397  37.089  27.971  1.00  0.00     0.020 A 
ATOM     75  C   UNL A   1      43.275  37.757  28.822  1.00  0.00     0.054 A 
BRANCH  75  76
ATOM     76  S   UNL A   1      43.802  39.464  28.484  1.00  0.00     0.124 S 
ATOM     77  O   UNL A   1      42.566  40.069  27.994  1.00  0.00    -0.237 OA
ATOM     78  O   UNL A   1      44.245  39.924  29.797  1.00  0.00    -0.237 OA
ATOM     79  O   UNL A   1      44.861  39.312  27.490  1.00  0.00    -0.744 OA
ENDBRANCH  75  76
ENDBRANCH  47  70
BRANCH  59  80
ATOM     80  C   UNL A   1      39.829  31.372  34.029  1.00  0.00    -0.014 A 
ATOM     81  C   UNL A   1      40.491  31.562  35.257  1.00  0.00     0.010 A 
ATOM     82  C   UNL A   1      38.455  31.680  33.960  1.00  0.00     0.010 A 
ATOM     83  C   UNL A   1      39.802  32.007  36.387  1.00  0.00     0.020 A 
ATOM     84  C   UNL A   1      37.762  32.156  35.085  1.00  0.00     0.020 A 
ATOM     85  C   UNL A   1      38.438  32.290  36.299  1.00  0.00     0.054 A 
BRANCH  85  86
ATOM     86  S   UNL A   1      37.572  32.809  37.805  1.00  0.00     0.124 S 
ATOM     87  O   UNL A   1      36.260  33.195  37.289  1.00  0.00    -0.237 OA
ATOM     88  O   UNL A   1      37.588  31.595  38.621  1.00  0.00    -0.237 OA
ATOM     89  O   UNL A   1      38.383  33.909  38.321  1.00  0.00    -0.744 OA
ENDBRANCH  85  86
ENDBRANCH  59  80
ENDBRANCH  33  34
ENDBRANCH  26  28
ENDBRANCH  25  26
ENDBRANCH  24  25
ENDBRANCH   1  24
TORSDOF 18
ENDMDL
