MODEL 1
REMARK VINA RESULT:     -10.5      0.000      0.000
REMARK SMILES C[C@@H](C(=O)OCCOCCOC(=O)c1ccc(-c2c3nc(c(-c4ccc(S(=O)(=O)[O-])cc4)c4ccc([nH]4)c(-c4ccc(S(=O)(=O)[O-])cc4)c4nc(c(-c5ccc(S(=O)(=O)[O-])cc5)c5ccc2[nH]5)C=C4)C=C3)cc1)c1ccn(C(F)F)c(=O)c1
REMARK SMILES IDX 9 1 8 2 7 3 6 4 5 5 3 6 4 7 2 8 1 9 74 10 75 11 83 12 76 13
REMARK SMILES IDX 81 14 77 15 82 16 78 17 79 18 80 19 10 20 11 21 12 22 13 23
REMARK SMILES IDX 14 24 15 25 73 26 16 27 72 28 17 29 18 30 19 31 66 32 20 33
REMARK SMILES IDX 71 34 65 35 67 36 21 37 70 38 64 39 63 40 22 42 52 43 33 44
REMARK SMILES IDX 51 45 34 46 37 47 50 48 68 49 35 50 36 51 49 53 69 54 38 55
REMARK SMILES IDX 23 56 24 57 32 58 25 59 31 60 26 61 27 62 28 63 29 64 30 65
REMARK SMILES IDX 53 66 54 67 62 68 55 69 61 70 56 71 57 72 58 73 59 74 60 75
REMARK SMILES IDX 39 76 40 77 48 78 41 79 47 80 42 81 43 82 44 83 45 84 46 85
REMARK H PARENT 67 41 37 52
REMARK Flexibility Score: inf
ROOT
ATOM      1  C   UNL A   1      38.507  22.100  25.768  1.00  0.00     0.202 C 
ENDROOT
BRANCH   1   2
ATOM      2  O   UNL A   1      37.173  22.596  25.664  1.00  0.00    -0.374 OA
BRANCH   2   3
ATOM      3  C   UNL A   1      36.858  23.399  24.524  1.00  0.00     0.202 C 
BRANCH   3   4
ATOM      4  C   UNL A   1      35.827  22.813  23.558  1.00  0.00     0.261 C 
BRANCH   4   5
ATOM      5  O   UNL A   1      34.577  23.517  23.656  1.00  0.00    -0.463 OA
BRANCH   5   6
ATOM      6  C   UNL A   1      33.515  22.931  23.041  1.00  0.00     0.313 C 
ATOM      7  O   UNL A   1      33.306  22.983  21.832  1.00  0.00    -0.252 OA
BRANCH   6   8
ATOM      8  C   UNL A   1      32.600  22.172  24.020  1.00  0.00     0.126 C 
ATOM      9  C   UNL A   1      32.658  22.696  25.462  1.00  0.00     0.025 C 
BRANCH   8  10
ATOM     10  C   UNL A   1      32.845  20.666  23.885  1.00  0.00    -0.027 A 
ATOM     11  C   UNL A   1      33.780  20.071  24.828  1.00  0.00     0.023 A 
ATOM     12  C   UNL A   1      32.291  19.862  22.957  1.00  0.00     0.076 A 
ATOM     13  C   UNL A   1      34.066  18.766  24.791  1.00  0.00     0.095 A 
ATOM     14  C   UNL A   1      32.615  18.404  22.887  1.00  0.00     0.255 A 
ATOM     15  N   UNL A   1      33.501  17.937  23.841  1.00  0.00    -0.258 N 
ATOM     16  O   UNL A   1      32.092  17.730  22.004  1.00  0.00    -0.269 OA
BRANCH  15  17
ATOM     17  C   UNL A   1      33.861  16.544  23.787  1.00  0.00     0.451 C 
ATOM     18  F   UNL A   1      35.010  16.298  24.461  1.00  0.00    -0.185 F 
ATOM     19  F   UNL A   1      32.886  15.772  24.327  1.00  0.00    -0.185 F 
ENDBRANCH  15  17
ENDBRANCH   8  10
ENDBRANCH   6   8
ENDBRANCH   5   6
ENDBRANCH   4   5
ENDBRANCH   3   4
ENDBRANCH   2   3
ENDBRANCH   1   2
BRANCH   1  20
ATOM     20  C   UNL A   1      39.505  22.960  26.558  1.00  0.00     0.261 C 
BRANCH  20  21
ATOM     21  O   UNL A   1      39.139  24.353  26.574  1.00  0.00    -0.460 OA
BRANCH  21  22
ATOM     22  C   UNL A   1      40.179  25.211  26.435  1.00  0.00     0.338 C 
ATOM     23  O   UNL A   1      40.813  25.437  25.410  1.00  0.00    -0.246 OA
BRANCH  22  24
ATOM     24  C   UNL A   1      40.360  26.013  27.659  1.00  0.00     0.060 A 
ATOM     25  C   UNL A   1      39.393  25.878  28.663  1.00  0.00     0.016 A 
ATOM     26  C   UNL A   1      41.398  26.939  27.796  1.00  0.00     0.016 A 
ATOM     27  C   UNL A   1      39.427  26.704  29.784  1.00  0.00     0.010 A 
ATOM     28  C   UNL A   1      41.426  27.774  28.919  1.00  0.00     0.010 A 
ATOM     29  C   UNL A   1      40.419  27.687  29.899  1.00  0.00    -0.014 A 
BRANCH  29  30
ATOM     30  C   UNL A   1      40.306  28.711  30.967  1.00  0.00     0.031 A 
ATOM     31  C   UNL A   1      41.207  28.617  32.169  1.00  0.00     0.074 A 
ATOM     32  C   UNL A   1      39.449  29.741  30.848  1.00  0.00     0.049 A 
ATOM     33  N   UNL A   1      41.281  29.403  33.212  1.00  0.00    -0.248 NA
ATOM     34  C   UNL A   1      42.151  27.487  32.197  1.00  0.00     0.031 C 
ATOM     35  C   UNL A   1      38.554  29.971  29.714  1.00  0.00     0.029 A 
ATOM     36  N   UNL A   1      39.191  30.789  31.697  1.00  0.00    -0.354 N 
ATOM     37  C   UNL A   1      42.276  28.865  34.021  1.00  0.00     0.074 A 
ATOM     38  C   UNL A   1      42.756  27.669  33.362  1.00  0.00     0.031 C 
ATOM     39  C   UNL A   1      37.841  31.088  29.942  1.00  0.00     0.029 A 
ATOM     40  C   UNL A   1      38.208  31.636  31.246  1.00  0.00     0.049 A 
ATOM     41  H   UNL A   1      39.668  30.921  32.549  1.00  0.00     0.167 HD
ATOM     42  C   UNL A   1      42.754  29.327  35.201  1.00  0.00     0.031 A 
ATOM     43  C   UNL A   1      37.654  32.719  31.826  1.00  0.00     0.031 A 
ATOM     44  C   UNL A   1      42.267  30.507  35.865  1.00  0.00     0.049 A 
ATOM     45  C   UNL A   1      38.151  33.175  33.173  1.00  0.00     0.074 A 
ATOM     46  C   UNL A   1      42.691  31.057  37.062  1.00  0.00     0.029 A 
ATOM     47  N   UNL A   1      41.244  31.314  35.394  1.00  0.00    -0.354 N 
ATOM     48  N   UNL A   1      39.105  32.665  33.915  1.00  0.00    -0.248 NA
ATOM     49  C   UNL A   1      37.502  34.358  33.755  1.00  0.00     0.031 C 
ATOM     50  C   UNL A   1      41.889  32.170  37.339  1.00  0.00     0.029 A 
ATOM     51  C   UNL A   1      41.004  32.345  36.287  1.00  0.00     0.049 A 
ATOM     52  H   UNL A   1      40.758  31.175  34.549  1.00  0.00     0.167 HD
ATOM     53  C   UNL A   1      39.185  33.479  35.040  1.00  0.00     0.074 A 
ATOM     54  C   UNL A   1      38.194  34.520  34.876  1.00  0.00     0.031 C 
ATOM     55  C   UNL A   1      40.009  33.373  36.113  1.00  0.00     0.031 A 
BRANCH  42  56
ATOM     56  C   UNL A   1      43.842  28.528  35.865  1.00  0.00    -0.014 A 
ATOM     57  C   UNL A   1      43.539  27.478  36.751  1.00  0.00     0.010 A 
ATOM     58  C   UNL A   1      45.190  28.814  35.579  1.00  0.00     0.010 A 
ATOM     59  C   UNL A   1      44.563  26.756  37.370  1.00  0.00     0.020 A 
ATOM     60  C   UNL A   1      46.216  28.078  36.176  1.00  0.00     0.020 A 
ATOM     61  C   UNL A   1      45.896  27.065  37.083  1.00  0.00     0.054 A 
BRANCH  61  62
ATOM     62  S   UNL A   1      47.206  26.106  37.891  1.00  0.00     0.124 S 
ATOM     63  O   UNL A   1      46.788  26.144  39.291  1.00  0.00    -0.237 OA
ATOM     64  O   UNL A   1      47.100  24.803  37.240  1.00  0.00    -0.237 OA
ATOM     65  O   UNL A   1      48.423  26.855  37.585  1.00  0.00    -0.744 OA
ENDBRANCH  61  62
ENDBRANCH  42  56
BRANCH  43  66
ATOM     66  C   UNL A   1      36.545  33.438  31.141  1.00  0.00    -0.014 A 
ATOM     67  C   UNL A   1      36.723  33.982  29.856  1.00  0.00     0.010 A 
ATOM     68  C   UNL A   1      35.296  33.573  31.776  1.00  0.00     0.010 A 
ATOM     69  C   UNL A   1      35.673  34.656  29.224  1.00  0.00     0.020 A 
ATOM     70  C   UNL A   1      34.239  34.224  31.135  1.00  0.00     0.020 A 
ATOM     71  C   UNL A   1      34.437  34.770  29.866  1.00  0.00     0.054 A 
BRANCH  71  72
ATOM     72  S   UNL A   1      33.069  35.592  29.003  1.00  0.00     0.124 S 
ATOM     73  O   UNL A   1      33.774  36.576  28.186  1.00  0.00    -0.237 OA
ATOM     74  O   UNL A   1      32.450  34.490  28.271  1.00  0.00    -0.237 OA
ATOM     75  O   UNL A   1      32.261  36.140  30.089  1.00  0.00    -0.744 OA
ENDBRANCH  71  72
ENDBRANCH  43  66
BRANCH  55  76
ATOM     76  C   UNL A   1      39.898  34.427  37.182  1.00  0.00    -0.014 A 
ATOM     77  C   UNL A   1      40.592  35.646  37.078  1.00  0.00     0.010 A 
ATOM     78  C   UNL A   1      39.041  34.217  38.278  1.00  0.00     0.010 A 
ATOM     79  C   UNL A   1      40.453  36.623  38.069  1.00  0.00     0.020 A 
ATOM     80  C   UNL A   1      38.880  35.202  39.256  1.00  0.00     0.020 A 
ATOM     81  C   UNL A   1      39.598  36.394  39.152  1.00  0.00     0.054 A 
BRANCH  81  82
ATOM     82  S   UNL A   1      39.400  37.695  40.401  1.00  0.00     0.124 S 
ATOM     83  O   UNL A   1      40.669  38.409  40.298  1.00  0.00    -0.237 OA
ATOM     84  O   UNL A   1      38.227  38.424  39.923  1.00  0.00    -0.237 OA
ATOM     85  O   UNL A   1      39.200  36.954  41.643  1.00  0.00    -0.744 OA
ENDBRANCH  81  82
ENDBRANCH  55  76
ENDBRANCH  29  30
ENDBRANCH  22  24
ENDBRANCH  21  22
ENDBRANCH  20  21
ENDBRANCH   1  20
TORSDOF 19
ENDMDL
MODEL 2
REMARK VINA RESULT:      -9.8      2.312      3.172
REMARK SMILES C[C@@H](C(=O)OCCOCCOC(=O)c1ccc(-c2c3nc(c(-c4ccc(S(=O)(=O)[O-])cc4)c4ccc([nH]4)c(-c4ccc(S(=O)(=O)[O-])cc4)c4nc(c(-c5ccc(S(=O)(=O)[O-])cc5)c5ccc2[nH]5)C=C4)C=C3)cc1)c1ccn(C(F)F)c(=O)c1
REMARK SMILES IDX 9 1 8 2 7 3 6 4 5 5 3 6 4 7 2 8 1 9 74 10 75 11 83 12 76 13
REMARK SMILES IDX 81 14 77 15 82 16 78 17 79 18 80 19 10 20 11 21 12 22 13 23
REMARK SMILES IDX 14 24 15 25 73 26 16 27 72 28 17 29 18 30 19 31 66 32 20 33
REMARK SMILES IDX 71 34 65 35 67 36 21 37 70 38 64 39 63 40 22 42 52 43 33 44
REMARK SMILES IDX 51 45 34 46 37 47 50 48 68 49 35 50 36 51 49 53 69 54 38 55
REMARK SMILES IDX 23 56 24 57 32 58 25 59 31 60 26 61 27 62 28 63 29 64 30 65
REMARK SMILES IDX 53 66 54 67 62 68 55 69 61 70 56 71 57 72 58 73 59 74 60 75
REMARK SMILES IDX 39 76 40 77 48 78 41 79 47 80 42 81 43 82 44 83 45 84 46 85
REMARK H PARENT 67 41 37 52
REMARK Flexibility Score: inf
ROOT
ATOM      1  C   UNL A   1      38.570  22.092  25.752  1.00  0.00     0.202 C 
ENDROOT
BRANCH   1   2
ATOM      2  O   UNL A   1      37.227  22.531  25.549  1.00  0.00    -0.374 OA
BRANCH   2   3
ATOM      3  C   UNL A   1      36.196  21.544  25.618  1.00  0.00     0.202 C 
BRANCH   3   4
ATOM      4  C   UNL A   1      35.047  21.844  26.582  1.00  0.00     0.261 C 
BRANCH   4   5
ATOM      5  O   UNL A   1      33.871  21.099  26.222  1.00  0.00    -0.463 OA
BRANCH   5   6
ATOM      6  C   UNL A   1      32.730  21.824  26.073  1.00  0.00     0.313 C 
ATOM      7  O   UNL A   1      32.262  22.556  26.941  1.00  0.00    -0.252 OA
BRANCH   6   8
ATOM      8  C   UNL A   1      32.086  21.649  24.686  1.00  0.00     0.126 C 
ATOM      9  C   UNL A   1      32.697  20.512  23.853  1.00  0.00     0.025 C 
BRANCH   8  10
ATOM     10  C   UNL A   1      32.040  23.002  23.969  1.00  0.00    -0.027 A 
ATOM     11  C   UNL A   1      30.853  23.816  24.190  1.00  0.00     0.023 A 
ATOM     12  C   UNL A   1      32.986  23.482  23.139  1.00  0.00     0.076 A 
ATOM     13  C   UNL A   1      30.714  25.010  23.607  1.00  0.00     0.095 A 
ATOM     14  C   UNL A   1      32.836  24.806  22.461  1.00  0.00     0.255 A 
ATOM     15  N   UNL A   1      31.680  25.507  22.755  1.00  0.00    -0.258 N 
ATOM     16  O   UNL A   1      33.725  25.177  21.700  1.00  0.00    -0.269 OA
BRANCH  15  17
ATOM     17  C   UNL A   1      31.488  26.773  22.097  1.00  0.00     0.451 C 
ATOM     18  F   UNL A   1      30.260  27.288  22.353  1.00  0.00    -0.185 F 
ATOM     19  F   UNL A   1      32.412  27.676  22.507  1.00  0.00    -0.185 F 
ENDBRANCH  15  17
ENDBRANCH   8  10
ENDBRANCH   6   8
ENDBRANCH   5   6
ENDBRANCH   4   5
ENDBRANCH   3   4
ENDBRANCH   2   3
ENDBRANCH   1   2
BRANCH   1  20
ATOM     20  C   UNL A   1      39.441  22.943  26.687  1.00  0.00     0.261 C 
BRANCH  20  21
ATOM     21  O   UNL A   1      39.099  24.340  26.639  1.00  0.00    -0.460 OA
BRANCH  21  22
ATOM     22  C   UNL A   1      40.160  25.178  26.532  1.00  0.00     0.338 C 
ATOM     23  O   UNL A   1      40.829  25.393  25.528  1.00  0.00    -0.246 OA
BRANCH  22  24
ATOM     24  C   UNL A   1      40.321  25.973  27.764  1.00  0.00     0.060 A 
ATOM     25  C   UNL A   1      39.267  25.948  28.686  1.00  0.00     0.016 A 
ATOM     26  C   UNL A   1      41.432  26.792  27.981  1.00  0.00     0.016 A 
ATOM     27  C   UNL A   1      39.293  26.781  29.803  1.00  0.00     0.010 A 
ATOM     28  C   UNL A   1      41.453  27.634  29.100  1.00  0.00     0.010 A 
ATOM     29  C   UNL A   1      40.367  27.661  29.994  1.00  0.00    -0.014 A 
BRANCH  29  30
ATOM     30  C   UNL A   1      40.271  28.704  31.045  1.00  0.00     0.031 A 
ATOM     31  C   UNL A   1      41.183  28.624  32.240  1.00  0.00     0.074 A 
ATOM     32  C   UNL A   1      39.420  29.738  30.916  1.00  0.00     0.049 A 
ATOM     33  N   UNL A   1      41.273  29.428  33.269  1.00  0.00    -0.248 NA
ATOM     34  C   UNL A   1      42.118  27.488  32.279  1.00  0.00     0.031 C 
ATOM     35  C   UNL A   1      38.517  29.955  29.786  1.00  0.00     0.029 A 
ATOM     36  N   UNL A   1      39.179  30.803  31.749  1.00  0.00    -0.354 N 
ATOM     37  C   UNL A   1      42.271  28.896  34.077  1.00  0.00     0.074 A 
ATOM     38  C   UNL A   1      42.735  27.686  33.436  1.00  0.00     0.031 C 
ATOM     39  C   UNL A   1      37.815  31.081  30.000  1.00  0.00     0.029 A 
ATOM     40  C   UNL A   1      38.198  31.649  31.292  1.00  0.00     0.049 A 
ATOM     41  H   UNL A   1      39.664  30.946  32.594  1.00  0.00     0.167 HD
ATOM     42  C   UNL A   1      42.763  29.375  35.245  1.00  0.00     0.031 A 
ATOM     43  C   UNL A   1      37.657  32.746  31.857  1.00  0.00     0.031 A 
ATOM     44  C   UNL A   1      42.291  30.571  35.892  1.00  0.00     0.049 A 
ATOM     45  C   UNL A   1      38.170  33.222  33.191  1.00  0.00     0.074 A 
ATOM     46  C   UNL A   1      42.730  31.139  37.076  1.00  0.00     0.029 A 
ATOM     47  N   UNL A   1      41.269  31.378  35.416  1.00  0.00    -0.354 N 
ATOM     48  N   UNL A   1      39.127  32.718  33.933  1.00  0.00    -0.248 NA
ATOM     49  C   UNL A   1      37.535  34.421  33.759  1.00  0.00     0.031 C 
ATOM     50  C   UNL A   1      41.939  32.263  37.340  1.00  0.00     0.029 A 
ATOM     51  C   UNL A   1      41.045  32.425  36.293  1.00  0.00     0.049 A 
ATOM     52  H   UNL A   1      40.775  31.227  34.578  1.00  0.00     0.167 HD
ATOM     53  C   UNL A   1      39.223  33.551  35.044  1.00  0.00     0.074 A 
ATOM     54  C   UNL A   1      38.238  34.597  34.870  1.00  0.00     0.031 C 
ATOM     55  C   UNL A   1      40.057  33.458  36.110  1.00  0.00     0.031 A 
BRANCH  42  56
ATOM     56  C   UNL A   1      43.851  28.580  35.913  1.00  0.00    -0.014 A 
ATOM     57  C   UNL A   1      45.208  28.821  35.630  1.00  0.00     0.010 A 
ATOM     58  C   UNL A   1      43.515  27.595  36.860  1.00  0.00     0.010 A 
ATOM     59  C   UNL A   1      46.206  28.064  36.249  1.00  0.00     0.020 A 
ATOM     60  C   UNL A   1      44.510  26.853  37.499  1.00  0.00     0.020 A 
ATOM     61  C   UNL A   1      45.850  27.080  37.176  1.00  0.00     0.054 A 
BRANCH  61  62
ATOM     62  S   UNL A   1      47.164  26.118  37.974  1.00  0.00     0.124 S 
ATOM     63  O   UNL A   1      48.014  27.170  38.528  1.00  0.00    -0.237 OA
ATOM     64  O   UNL A   1      46.431  25.321  38.954  1.00  0.00    -0.237 OA
ATOM     65  O   UNL A   1      47.754  25.358  36.873  1.00  0.00    -0.744 OA
ENDBRANCH  61  62
ENDBRANCH  42  56
BRANCH  43  66
ATOM     66  C   UNL A   1      36.548  33.461  31.170  1.00  0.00    -0.014 A 
ATOM     67  C   UNL A   1      36.695  33.924  29.850  1.00  0.00     0.010 A 
ATOM     68  C   UNL A   1      35.327  33.675  31.839  1.00  0.00     0.010 A 
ATOM     69  C   UNL A   1      35.645  34.596  29.217  1.00  0.00     0.020 A 
ATOM     70  C   UNL A   1      34.268  34.324  31.198  1.00  0.00     0.020 A 
ATOM     71  C   UNL A   1      34.437  34.788  29.893  1.00  0.00     0.054 A 
BRANCH  71  72
ATOM     72  S   UNL A   1      33.066  35.605  29.030  1.00  0.00     0.124 S 
ATOM     73  O   UNL A   1      32.220  36.032  30.141  1.00  0.00    -0.237 OA
ATOM     74  O   UNL A   1      33.744  36.675  28.302  1.00  0.00    -0.237 OA
ATOM     75  O   UNL A   1      32.512  34.546  28.190  1.00  0.00    -0.744 OA
ENDBRANCH  71  72
ENDBRANCH  43  66
BRANCH  55  76
ATOM     76  C   UNL A   1      39.963  34.531  37.162  1.00  0.00    -0.014 A 
ATOM     77  C   UNL A   1      39.018  34.452  38.200  1.00  0.00     0.010 A 
ATOM     78  C   UNL A   1      40.873  35.605  37.143  1.00  0.00     0.010 A 
ATOM     79  C   UNL A   1      38.965  35.445  39.183  1.00  0.00     0.020 A 
ATOM     80  C   UNL A   1      40.840  36.584  38.138  1.00  0.00     0.020 A 
ATOM     81  C   UNL A   1      39.876  36.506  39.145  1.00  0.00     0.054 A 
BRANCH  81  82
ATOM     82  S   UNL A   1      39.817  37.757  40.457  1.00  0.00     0.124 S 
ATOM     83  O   UNL A   1      39.361  36.976  41.602  1.00  0.00    -0.237 OA
ATOM     84  O   UNL A   1      41.201  38.221  40.522  1.00  0.00    -0.237 OA
ATOM     85  O   UNL A   1      38.862  38.741  39.953  1.00  0.00    -0.744 OA
ENDBRANCH  81  82
ENDBRANCH  55  76
ENDBRANCH  29  30
ENDBRANCH  22  24
ENDBRANCH  21  22
ENDBRANCH  20  21
ENDBRANCH   1  20
TORSDOF 19
ENDMDL
MODEL 3
REMARK VINA RESULT:      -9.8      3.983      9.820
REMARK SMILES C[C@@H](C(=O)OCCOCCOC(=O)c1ccc(-c2c3nc(c(-c4ccc(S(=O)(=O)[O-])cc4)c4ccc([nH]4)c(-c4ccc(S(=O)(=O)[O-])cc4)c4nc(c(-c5ccc(S(=O)(=O)[O-])cc5)c5ccc2[nH]5)C=C4)C=C3)cc1)c1ccn(C(F)F)c(=O)c1
REMARK SMILES IDX 9 1 8 2 7 3 6 4 5 5 3 6 4 7 2 8 1 9 74 10 75 11 83 12 76 13
REMARK SMILES IDX 81 14 77 15 82 16 78 17 79 18 80 19 10 20 11 21 12 22 13 23
REMARK SMILES IDX 14 24 15 25 73 26 16 27 72 28 17 29 18 30 19 31 66 32 20 33
REMARK SMILES IDX 71 34 65 35 67 36 21 37 70 38 64 39 63 40 22 42 52 43 33 44
REMARK SMILES IDX 51 45 34 46 37 47 50 48 68 49 35 50 36 51 49 53 69 54 38 55
REMARK SMILES IDX 23 56 24 57 32 58 25 59 31 60 26 61 27 62 28 63 29 64 30 65
REMARK SMILES IDX 53 66 54 67 62 68 55 69 61 70 56 71 57 72 58 73 59 74 60 75
REMARK SMILES IDX 39 76 40 77 48 78 41 79 47 80 42 81 43 82 44 83 45 84 46 85
REMARK H PARENT 67 41 37 52
REMARK Flexibility Score: inf
ROOT
ATOM      1  C   UNL A   1      32.054  29.267  25.617  1.00  0.00     0.202 C 
ENDROOT
BRANCH   1   2
ATOM      2  O   UNL A   1      32.363  27.877  25.722  1.00  0.00    -0.374 OA
BRANCH   2   3
ATOM      3  C   UNL A   1      32.591  27.162  24.506  1.00  0.00     0.202 C 
BRANCH   3   4
ATOM      4  C   UNL A   1      33.829  26.262  24.481  1.00  0.00     0.261 C 
BRANCH   4   5
ATOM      5  O   UNL A   1      33.456  24.878  24.593  1.00  0.00    -0.463 OA
BRANCH   5   6
ATOM      6  C   UNL A   1      34.259  23.992  23.946  1.00  0.00     0.313 C 
ATOM      7  O   UNL A   1      34.842  24.234  22.893  1.00  0.00    -0.252 OA
BRANCH   6   8
ATOM      8  C   UNL A   1      34.380  22.645  24.682  1.00  0.00     0.126 C 
ATOM      9  C   UNL A   1      33.357  22.457  25.813  1.00  0.00     0.025 C 
BRANCH   8  10
ATOM     10  C   UNL A   1      35.835  22.421  25.103  1.00  0.00    -0.027 A 
ATOM     11  C   UNL A   1      36.520  23.555  25.706  1.00  0.00     0.023 A 
ATOM     12  C   UNL A   1      36.533  21.281  24.938  1.00  0.00     0.076 A 
ATOM     13  C   UNL A   1      37.793  23.465  26.103  1.00  0.00     0.095 A 
ATOM     14  C   UNL A   1      37.964  21.168  25.356  1.00  0.00     0.255 A 
ATOM     15  N   UNL A   1      38.513  22.298  25.936  1.00  0.00    -0.258 N 
ATOM     16  O   UNL A   1      38.549  20.108  25.160  1.00  0.00    -0.269 OA
BRANCH  15  17
ATOM     17  C   UNL A   1      39.898  22.237  26.325  1.00  0.00     0.451 C 
ATOM     18  F   UNL A   1      40.511  23.438  26.182  1.00  0.00    -0.185 F 
ATOM     19  F   UNL A   1      40.020  21.858  27.620  1.00  0.00    -0.185 F 
ENDBRANCH  15  17
ENDBRANCH   8  10
ENDBRANCH   6   8
ENDBRANCH   5   6
ENDBRANCH   4   5
ENDBRANCH   3   4
ENDBRANCH   2   3
ENDBRANCH   1   2
BRANCH   1  20
ATOM     20  C   UNL A   1      32.383  30.141  26.836  1.00  0.00     0.261 C 
BRANCH  20  21
ATOM     21  O   UNL A   1      33.565  29.700  27.528  1.00  0.00    -0.460 OA
BRANCH  21  22
ATOM     22  C   UNL A   1      34.461  30.681  27.797  1.00  0.00     0.338 C 
ATOM     23  O   UNL A   1      34.227  31.879  27.910  1.00  0.00    -0.246 OA
BRANCH  22  24
ATOM     24  C   UNL A   1      35.778  30.107  28.131  1.00  0.00     0.060 A 
ATOM     25  C   UNL A   1      35.917  29.513  29.392  1.00  0.00     0.016 A 
ATOM     26  C   UNL A   1      36.877  30.217  27.276  1.00  0.00     0.016 A 
ATOM     27  C   UNL A   1      37.166  29.075  29.826  1.00  0.00     0.010 A 
ATOM     28  C   UNL A   1      38.134  29.784  27.717  1.00  0.00     0.010 A 
ATOM     29  C   UNL A   1      38.291  29.246  29.008  1.00  0.00    -0.014 A 
BRANCH  29  30
ATOM     30  C   UNL A   1      39.642  29.000  29.571  1.00  0.00     0.031 A 
ATOM     31  C   UNL A   1      40.146  29.886  30.678  1.00  0.00     0.074 A 
ATOM     32  C   UNL A   1      40.392  27.970  29.139  1.00  0.00     0.049 A 
ATOM     33  N   UNL A   1      41.287  29.846  31.317  1.00  0.00    -0.248 NA
ATOM     34  C   UNL A   1      39.241  30.959  31.126  1.00  0.00     0.031 C 
ATOM     35  C   UNL A   1      40.001  27.013  28.105  1.00  0.00     0.029 A 
ATOM     36  N   UNL A   1      41.646  27.559  29.520  1.00  0.00    -0.354 N 
ATOM     37  C   UNL A   1      41.240  30.885  32.239  1.00  0.00     0.074 A 
ATOM     38  C   UNL A   1      39.971  31.556  32.057  1.00  0.00     0.031 C 
ATOM     39  C   UNL A   1      40.998  26.129  27.930  1.00  0.00     0.029 A 
ATOM     40  C   UNL A   1      42.108  26.473  28.818  1.00  0.00     0.049 A 
ATOM     41  H   UNL A   1      42.164  28.003  30.231  1.00  0.00     0.167 HD
ATOM     42  C   UNL A   1      42.166  31.246  33.160  1.00  0.00     0.031 A 
ATOM     43  C   UNL A   1      43.295  25.839  28.871  1.00  0.00     0.031 A 
ATOM     44  C   UNL A   1      43.435  30.589  33.332  1.00  0.00     0.049 A 
ATOM     45  C   UNL A   1      44.339  26.300  29.854  1.00  0.00     0.074 A 
ATOM     46  C   UNL A   1      44.437  30.879  34.241  1.00  0.00     0.029 A 
ATOM     47  N   UNL A   1      43.880  29.517  32.574  1.00  0.00    -0.354 N 
ATOM     48  N   UNL A   1      44.271  27.273  30.732  1.00  0.00    -0.248 NA
ATOM     49  C   UNL A   1      45.616  25.572  29.859  1.00  0.00     0.031 C 
ATOM     50  C   UNL A   1      45.510  30.013  33.999  1.00  0.00     0.029 A 
ATOM     51  C   UNL A   1      45.152  29.148  32.977  1.00  0.00     0.049 A 
ATOM     52  H   UNL A   1      43.368  29.083  31.854  1.00  0.00     0.167 HD
ATOM     53  C   UNL A   1      45.487  27.258  31.408  1.00  0.00     0.074 A 
ATOM     54  C   UNL A   1      46.264  26.173  30.848  1.00  0.00     0.031 C 
ATOM     55  C   UNL A   1      45.918  28.069  32.407  1.00  0.00     0.031 A 
BRANCH  42  56
ATOM     56  C   UNL A   1      41.847  32.428  34.034  1.00  0.00    -0.014 A 
ATOM     57  C   UNL A   1      41.181  32.268  35.263  1.00  0.00     0.010 A 
ATOM     58  C   UNL A   1      42.242  33.718  33.633  1.00  0.00     0.010 A 
ATOM     59  C   UNL A   1      40.880  33.380  36.054  1.00  0.00     0.020 A 
ATOM     60  C   UNL A   1      41.965  34.829  34.433  1.00  0.00     0.020 A 
ATOM     61  C   UNL A   1      41.269  34.654  35.632  1.00  0.00     0.054 A 
BRANCH  61  62
ATOM     62  S   UNL A   1      40.876  36.079  36.683  1.00  0.00     0.124 S 
ATOM     63  O   UNL A   1      40.476  35.432  37.930  1.00  0.00    -0.237 OA
ATOM     64  O   UNL A   1      42.142  36.805  36.730  1.00  0.00    -0.237 OA
ATOM     65  O   UNL A   1      39.800  36.756  35.960  1.00  0.00    -0.744 OA
ENDBRANCH  61  62
ENDBRANCH  42  56
BRANCH  43  66
ATOM     66  C   UNL A   1      43.570  24.706  27.946  1.00  0.00    -0.014 A 
ATOM     67  C   UNL A   1      43.183  23.395  28.275  1.00  0.00     0.010 A 
ATOM     68  C   UNL A   1      44.218  24.941  26.718  1.00  0.00     0.010 A 
ATOM     69  C   UNL A   1      43.448  22.339  27.397  1.00  0.00     0.020 A 
ATOM     70  C   UNL A   1      44.460  23.891  25.829  1.00  0.00     0.020 A 
ATOM     71  C   UNL A   1      44.082  22.594  26.178  1.00  0.00     0.054 A 
BRANCH  71  72
ATOM     72  S   UNL A   1      44.359  21.221  25.026  1.00  0.00     0.124 S 
ATOM     73  O   UNL A   1      44.344  21.901  23.734  1.00  0.00    -0.237 OA
ATOM     74  O   UNL A   1      45.658  20.706  25.455  1.00  0.00    -0.237 OA
ATOM     75  O   UNL A   1      43.230  20.329  25.279  1.00  0.00    -0.744 OA
ENDBRANCH  71  72
ENDBRANCH  43  66
BRANCH  55  76
ATOM     76  C   UNL A   1      47.283  27.799  32.982  1.00  0.00    -0.014 A 
ATOM     77  C   UNL A   1      47.449  26.961  34.099  1.00  0.00     0.010 A 
ATOM     78  C   UNL A   1      48.420  28.347  32.360  1.00  0.00     0.010 A 
ATOM     79  C   UNL A   1      48.728  26.701  34.601  1.00  0.00     0.020 A 
ATOM     80  C   UNL A   1      49.700  28.067  32.843  1.00  0.00     0.020 A 
ATOM     81  C   UNL A   1      49.846  27.257  33.970  1.00  0.00     0.054 A 
BRANCH  81  82
ATOM     82  S   UNL A   1      51.497  26.868  34.612  1.00  0.00     0.124 S 
ATOM     83  O   UNL A   1      52.056  28.198  34.837  1.00  0.00    -0.237 OA
ATOM     84  O   UNL A   1      51.201  26.098  35.818  1.00  0.00    -0.237 OA
ATOM     85  O   UNL A   1      52.118  26.105  33.532  1.00  0.00    -0.744 OA
ENDBRANCH  81  82
ENDBRANCH  55  76
ENDBRANCH  29  30
ENDBRANCH  22  24
ENDBRANCH  21  22
ENDBRANCH  20  21
ENDBRANCH   1  20
TORSDOF 19
ENDMDL
