MODEL 1
REMARK VINA RESULT:     -11.1      0.000      0.000
REMARK SMILES Cc1cn2c(=O)cc(CSc3ccccc3C(=O)OCCOCCOC(=O)c3ccc(-c4c5nc(c(-c6ccc(S(=O)(=O)[O-])cc6)c6ccc([nH]6)c(-c6ccc(S(=O)(=O)[O-])cc6)c6nc(c(-c7ccc(S(=O)(=O)[O-])cc7)c7ccc4[nH]7)C=C6)C=C5)cc3)nc2s1
REMARK SMILES IDX 22 1 21 2 20 3 19 4 17 5 18 6 16 7 11 8 12 9 13 10 15 11
REMARK SMILES IDX 14 12 10 13 9 14 8 15 1 16 2 17 3 18 90 19 4 20 89 21 5 22
REMARK SMILES IDX 88 23 6 24 7 25 23 26 24 27 25 28 26 29 27 30 28 31 29 32
REMARK SMILES IDX 87 33 30 34 86 35 31 36 32 37 33 38 80 39 34 40 85 41 79 42
REMARK SMILES IDX 81 43 35 44 84 45 78 46 77 47 36 49 66 50 47 51 65 52 48 53
REMARK SMILES IDX 51 54 64 55 82 56 49 57 50 58 63 60 83 61 52 62 37 63 38 64
REMARK SMILES IDX 46 65 39 66 45 67 40 68 41 69 42 70 43 71 44 72 67 73 68 74
REMARK SMILES IDX 76 75 69 76 75 77 70 78 71 79 72 80 73 81 74 82 53 83 54 84
REMARK SMILES IDX 62 85 55 86 61 87 56 88 57 89 58 90 59 91 60 92
REMARK H PARENT 81 48 51 59
REMARK Flexibility Score: inf
ROOT
ATOM      1  O   UNL A   1      44.509  20.627  24.389  1.00  0.00    -0.374 OA
ENDROOT
BRANCH   1   2
ATOM      2  C   UNL A   1      44.057  19.428  25.012  1.00  0.00     0.202 C 
BRANCH   2   3
ATOM      3  C   UNL A   1      42.889  19.516  25.982  1.00  0.00     0.261 C 
BRANCH   3   4
ATOM      4  O   UNL A   1      42.650  20.827  26.504  1.00  0.00    -0.460 OA
BRANCH   4   5
ATOM      5  C   UNL A   1      41.515  20.945  27.228  1.00  0.00     0.339 C 
ATOM      6  O   UNL A   1      40.855  20.035  27.707  1.00  0.00    -0.246 OA
BRANCH   5   7
ATOM      7  C   UNL A   1      41.178  22.351  27.513  1.00  0.00     0.073 A 
ATOM      8  C   UNL A   1      39.986  22.979  27.113  1.00  0.00     0.022 A 
ATOM      9  C   UNL A   1      39.774  24.305  27.527  1.00  0.00     0.016 A 
ATOM     10  C   UNL A   1      40.708  24.976  28.329  1.00  0.00     0.001 A 
ATOM     11  C   UNL A   1      42.108  23.026  28.325  1.00  0.00     0.017 A 
ATOM     12  C   UNL A   1      41.877  24.336  28.728  1.00  0.00     0.001 A 
BRANCH   8  13
ATOM     13  S   UNL A   1      38.749  22.231  26.051  1.00  0.00    -0.119 SA
BRANCH  13  14
ATOM     14  C   UNL A   1      37.716  23.663  25.562  1.00  0.00     0.131 C 
BRANCH  14  15
ATOM     15  C   UNL A   1      36.273  23.289  25.296  1.00  0.00     0.059 A 
ATOM     16  C   UNL A   1      30.325  22.979  26.644  1.00  0.00     0.058 C 
ATOM     17  C   UNL A   1      31.743  22.788  26.236  1.00  0.00     0.022 A 
ATOM     18  C   UNL A   1      32.241  22.936  25.000  1.00  0.00     0.111 A 
ATOM     19  S   UNL A   1      33.022  22.486  27.395  1.00  0.00    -0.102 S 
ATOM     20  N   UNL A   1      33.618  22.915  24.942  1.00  0.00    -0.258 N 
ATOM     21  C   UNL A   1      34.240  22.803  26.162  1.00  0.00     0.197 A 
ATOM     22  C   UNL A   1      34.357  23.080  23.800  1.00  0.00     0.258 A 
ATOM     23  N   UNL A   1      35.501  22.950  26.392  1.00  0.00    -0.224 NA
ATOM     24  O   UNL A   1      33.925  23.069  22.651  1.00  0.00    -0.269 OA
ATOM     25  C   UNL A   1      35.800  23.296  24.038  1.00  0.00     0.097 A 
ENDBRANCH  14  15
ENDBRANCH  13  14
ENDBRANCH   8  13
ENDBRANCH   5   7
ENDBRANCH   4   5
ENDBRANCH   3   4
ENDBRANCH   2   3
ENDBRANCH   1   2
BRANCH   1  26
ATOM     26  C   UNL A   1      45.437  21.468  25.061  1.00  0.00     0.202 C 
BRANCH  26  27
ATOM     27  C   UNL A   1      45.386  22.979  24.852  1.00  0.00     0.261 C 
BRANCH  27  28
ATOM     28  O   UNL A   1      44.761  23.711  25.895  1.00  0.00    -0.460 OA
BRANCH  28  29
ATOM     29  C   UNL A   1      43.589  24.255  25.488  1.00  0.00     0.338 C 
ATOM     30  O   UNL A   1      42.705  23.699  24.863  1.00  0.00    -0.246 OA
BRANCH  29  31
ATOM     31  C   UNL A   1      43.579  25.694  25.750  1.00  0.00     0.060 A 
ATOM     32  C   UNL A   1      44.294  26.106  26.875  1.00  0.00     0.016 A 
ATOM     33  C   UNL A   1      42.604  26.499  25.142  1.00  0.00     0.016 A 
ATOM     34  C   UNL A   1      43.872  27.238  27.530  1.00  0.00     0.010 A 
ATOM     35  C   UNL A   1      42.177  27.627  25.806  1.00  0.00     0.010 A 
ATOM     36  C   UNL A   1      42.762  27.930  27.033  1.00  0.00    -0.014 A 
BRANCH  36  37
ATOM     37  C   UNL A   1      42.284  29.040  27.823  1.00  0.00     0.031 A 
ATOM     38  C   UNL A   1      43.277  30.115  27.969  1.00  0.00     0.074 A 
ATOM     39  C   UNL A   1      41.060  29.100  28.372  1.00  0.00     0.049 A 
ATOM     40  N   UNL A   1      44.019  30.350  28.997  1.00  0.00    -0.248 NA
ATOM     41  C   UNL A   1      43.605  30.904  26.775  1.00  0.00     0.031 C 
ATOM     42  C   UNL A   1      39.903  28.240  28.113  1.00  0.00     0.029 A 
ATOM     43  N   UNL A   1      40.575  30.031  29.236  1.00  0.00    -0.354 N 
ATOM     44  C   UNL A   1      44.753  31.476  28.661  1.00  0.00     0.074 A 
ATOM     45  C   UNL A   1      44.608  31.650  27.236  1.00  0.00     0.031 C 
ATOM     46  C   UNL A   1      38.799  28.821  28.639  1.00  0.00     0.029 A 
ATOM     47  C   UNL A   1      39.197  30.005  29.385  1.00  0.00     0.049 A 
ATOM     48  H   UNL A   1      41.153  30.669  29.714  1.00  0.00     0.167 HD
ATOM     49  C   UNL A   1      45.175  32.350  29.612  1.00  0.00     0.031 A 
ATOM     50  C   UNL A   1      38.451  30.940  30.022  1.00  0.00     0.031 A 
ATOM     51  C   UNL A   1      45.088  31.805  30.940  1.00  0.00     0.049 A 
ATOM     52  C   UNL A   1      39.348  31.624  30.989  1.00  0.00     0.074 A 
ATOM     53  C   UNL A   1      45.647  30.731  31.601  1.00  0.00     0.029 A 
ATOM     54  N   UNL A   1      44.017  32.219  31.696  1.00  0.00    -0.354 N 
ATOM     55  N   UNL A   1      39.867  31.039  32.034  1.00  0.00    -0.248 NA
ATOM     56  C   UNL A   1      39.973  32.883  30.609  1.00  0.00     0.031 C 
ATOM     57  C   UNL A   1      44.654  30.300  32.529  1.00  0.00     0.029 A 
ATOM     58  C   UNL A   1      43.548  31.145  32.405  1.00  0.00     0.049 A 
ATOM     59  H   UNL A   1      43.650  33.131  31.723  1.00  0.00     0.167 HD
ATOM     60  C   UNL A   1      41.112  31.627  32.189  1.00  0.00     0.074 A 
ATOM     61  C   UNL A   1      41.067  32.835  31.374  1.00  0.00     0.031 C 
ATOM     62  C   UNL A   1      42.153  30.939  32.742  1.00  0.00     0.031 A 
BRANCH  49  63
ATOM     63  C   UNL A   1      45.198  33.836  29.369  1.00  0.00    -0.014 A 
ATOM     64  C   UNL A   1      43.996  34.490  29.047  1.00  0.00     0.010 A 
ATOM     65  C   UNL A   1      46.402  34.536  29.139  1.00  0.00     0.010 A 
ATOM     66  C   UNL A   1      44.006  35.761  28.461  1.00  0.00     0.020 A 
ATOM     67  C   UNL A   1      46.420  35.821  28.603  1.00  0.00     0.020 A 
ATOM     68  C   UNL A   1      45.221  36.411  28.233  1.00  0.00     0.054 A 
BRANCH  68  69
ATOM     69  S   UNL A   1      45.230  37.986  27.347  1.00  0.00     0.124 S 
ATOM     70  O   UNL A   1      43.831  38.117  26.955  1.00  0.00    -0.237 OA
ATOM     71  O   UNL A   1      45.693  38.913  28.377  1.00  0.00    -0.237 OA
ATOM     72  O   UNL A   1      46.170  37.758  26.252  1.00  0.00    -0.744 OA
ENDBRANCH  68  69
ENDBRANCH  49  63
BRANCH  50  73
ATOM     73  C   UNL A   1      37.138  31.495  29.605  1.00  0.00    -0.014 A 
ATOM     74  C   UNL A   1      36.107  31.660  30.551  1.00  0.00     0.010 A 
ATOM     75  C   UNL A   1      36.987  32.136  28.358  1.00  0.00     0.010 A 
ATOM     76  C   UNL A   1      35.022  32.514  30.299  1.00  0.00     0.020 A 
ATOM     77  C   UNL A   1      35.898  32.976  28.093  1.00  0.00     0.020 A 
ATOM     78  C   UNL A   1      34.942  33.193  29.082  1.00  0.00     0.054 A 
BRANCH  78  79
ATOM     79  S   UNL A   1      33.645  34.441  28.842  1.00  0.00     0.124 S 
ATOM     80  O   UNL A   1      33.156  34.653  30.202  1.00  0.00    -0.237 OA
ATOM     81  O   UNL A   1      34.389  35.552  28.257  1.00  0.00    -0.237 OA
ATOM     82  O   UNL A   1      32.699  33.788  27.939  1.00  0.00    -0.744 OA
ENDBRANCH  78  79
ENDBRANCH  50  73
BRANCH  62  83
ATOM     83  C   UNL A   1      41.848  29.717  33.567  1.00  0.00    -0.014 A 
ATOM     84  C   UNL A   1      41.827  28.410  33.046  1.00  0.00     0.010 A 
ATOM     85  C   UNL A   1      41.773  29.894  34.960  1.00  0.00     0.010 A 
ATOM     86  C   UNL A   1      41.750  27.304  33.908  1.00  0.00     0.020 A 
ATOM     87  C   UNL A   1      41.709  28.798  35.821  1.00  0.00     0.020 A 
ATOM     88  C   UNL A   1      41.709  27.508  35.292  1.00  0.00     0.054 A 
BRANCH  88  89
ATOM     89  S   UNL A   1      41.718  26.073  36.405  1.00  0.00     0.124 S 
ATOM     90  O   UNL A   1      40.652  26.390  37.350  1.00  0.00    -0.237 OA
ATOM     91  O   UNL A   1      41.442  24.964  35.494  1.00  0.00    -0.237 OA
ATOM     92  O   UNL A   1      43.066  26.078  36.971  1.00  0.00    -0.744 OA
ENDBRANCH  88  89
ENDBRANCH  62  83
ENDBRANCH  36  37
ENDBRANCH  29  31
ENDBRANCH  28  29
ENDBRANCH  27  28
ENDBRANCH  26  27
ENDBRANCH   1  26
TORSDOF 20
ENDMDL
MODEL 2
REMARK VINA RESULT:     -11.0      1.675      1.993
REMARK SMILES Cc1cn2c(=O)cc(CSc3ccccc3C(=O)OCCOCCOC(=O)c3ccc(-c4c5nc(c(-c6ccc(S(=O)(=O)[O-])cc6)c6ccc([nH]6)c(-c6ccc(S(=O)(=O)[O-])cc6)c6nc(c(-c7ccc(S(=O)(=O)[O-])cc7)c7ccc4[nH]7)C=C6)C=C5)cc3)nc2s1
REMARK SMILES IDX 22 1 21 2 20 3 19 4 17 5 18 6 16 7 11 8 12 9 13 10 15 11
REMARK SMILES IDX 14 12 10 13 9 14 8 15 1 16 2 17 3 18 90 19 4 20 89 21 5 22
REMARK SMILES IDX 88 23 6 24 7 25 23 26 24 27 25 28 26 29 27 30 28 31 29 32
REMARK SMILES IDX 87 33 30 34 86 35 31 36 32 37 33 38 80 39 34 40 85 41 79 42
REMARK SMILES IDX 81 43 35 44 84 45 78 46 77 47 36 49 66 50 47 51 65 52 48 53
REMARK SMILES IDX 51 54 64 55 82 56 49 57 50 58 63 60 83 61 52 62 37 63 38 64
REMARK SMILES IDX 46 65 39 66 45 67 40 68 41 69 42 70 43 71 44 72 67 73 68 74
REMARK SMILES IDX 76 75 69 76 75 77 70 78 71 79 72 80 73 81 74 82 53 83 54 84
REMARK SMILES IDX 62 85 55 86 61 87 56 88 57 89 58 90 59 91 60 92
REMARK H PARENT 81 48 51 59
REMARK Flexibility Score: inf
ROOT
ATOM      1  O   UNL A   1      44.273  20.752  24.665  1.00  0.00    -0.374 OA
ENDROOT
BRANCH   1   2
ATOM      2  C   UNL A   1      43.708  19.533  25.136  1.00  0.00     0.202 C 
BRANCH   2   3
ATOM      3  C   UNL A   1      42.449  19.604  25.987  1.00  0.00     0.261 C 
BRANCH   3   4
ATOM      4  O   UNL A   1      41.900  20.920  26.122  1.00  0.00    -0.460 OA
BRANCH   4   5
ATOM      5  C   UNL A   1      40.860  21.008  26.981  1.00  0.00     0.339 C 
ATOM      6  O   UNL A   1      40.488  20.152  27.770  1.00  0.00    -0.246 OA
BRANCH   5   7
ATOM      7  C   UNL A   1      40.244  22.346  26.976  1.00  0.00     0.073 A 
ATOM      8  C   UNL A   1      39.007  22.649  26.383  1.00  0.00     0.022 A 
ATOM      9  C   UNL A   1      38.513  23.957  26.528  1.00  0.00     0.016 A 
ATOM     10  C   UNL A   1      39.219  24.924  27.257  1.00  0.00     0.001 A 
ATOM     11  C   UNL A   1      40.943  23.319  27.714  1.00  0.00     0.017 A 
ATOM     12  C   UNL A   1      40.436  24.606  27.850  1.00  0.00     0.001 A 
BRANCH   8  13
ATOM     13  S   UNL A   1      38.046  21.503  25.392  1.00  0.00    -0.119 SA
BRANCH  13  14
ATOM     14  C   UNL A   1      36.379  22.262  25.397  1.00  0.00     0.131 C 
BRANCH  14  15
ATOM     15  C   UNL A   1      35.270  21.257  25.170  1.00  0.00     0.059 A 
ATOM     16  C   UNL A   1      32.789  15.677  25.259  1.00  0.00     0.058 C 
ATOM     17  C   UNL A   1      33.281  17.054  24.981  1.00  0.00     0.022 A 
ATOM     18  C   UNL A   1      32.607  18.194  25.184  1.00  0.00     0.111 A 
ATOM     19  S   UNL A   1      34.928  17.380  24.481  1.00  0.00    -0.102 S 
ATOM     20  N   UNL A   1      33.373  19.332  25.052  1.00  0.00    -0.258 N 
ATOM     21  C   UNL A   1      34.702  19.099  24.790  1.00  0.00     0.197 A 
ATOM     22  C   UNL A   1      32.918  20.610  25.243  1.00  0.00     0.258 A 
ATOM     23  N   UNL A   1      35.649  19.976  24.811  1.00  0.00    -0.224 NA
ATOM     24  O   UNL A   1      31.744  20.950  25.361  1.00  0.00    -0.269 OA
ATOM     25  C   UNL A   1      33.987  21.629  25.317  1.00  0.00     0.097 A 
ENDBRANCH  14  15
ENDBRANCH  13  14
ENDBRANCH   8  13
ENDBRANCH   5   7
ENDBRANCH   4   5
ENDBRANCH   3   4
ENDBRANCH   2   3
ENDBRANCH   1   2
BRANCH   1  26
ATOM     26  C   UNL A   1      45.270  21.414  25.431  1.00  0.00     0.202 C 
BRANCH  26  27
ATOM     27  C   UNL A   1      45.371  22.937  25.397  1.00  0.00     0.261 C 
BRANCH  27  28
ATOM     28  O   UNL A   1      44.534  23.617  26.320  1.00  0.00    -0.460 OA
BRANCH  28  29
ATOM     29  C   UNL A   1      43.503  24.235  25.695  1.00  0.00     0.338 C 
ATOM     30  O   UNL A   1      42.722  23.733  24.906  1.00  0.00    -0.246 OA
BRANCH  29  31
ATOM     31  C   UNL A   1      43.538  25.674  25.957  1.00  0.00     0.060 A 
ATOM     32  C   UNL A   1      44.188  26.055  27.131  1.00  0.00     0.016 A 
ATOM     33  C   UNL A   1      42.646  26.519  25.282  1.00  0.00     0.016 A 
ATOM     34  C   UNL A   1      43.771  27.207  27.755  1.00  0.00     0.010 A 
ATOM     35  C   UNL A   1      42.222  27.667  25.915  1.00  0.00     0.010 A 
ATOM     36  C   UNL A   1      42.731  27.946  27.181  1.00  0.00    -0.014 A 
BRANCH  36  37
ATOM     37  C   UNL A   1      42.248  29.078  27.936  1.00  0.00     0.031 A 
ATOM     38  C   UNL A   1      43.235  30.163  28.046  1.00  0.00     0.074 A 
ATOM     39  C   UNL A   1      41.024  29.148  28.484  1.00  0.00     0.049 A 
ATOM     40  N   UNL A   1      43.976  30.435  29.065  1.00  0.00    -0.248 NA
ATOM     41  C   UNL A   1      43.556  30.915  26.827  1.00  0.00     0.031 C 
ATOM     42  C   UNL A   1      39.872  28.273  28.256  1.00  0.00     0.029 A 
ATOM     43  N   UNL A   1      40.535  30.103  29.319  1.00  0.00    -0.354 N 
ATOM     44  C   UNL A   1      44.703  31.554  28.691  1.00  0.00     0.074 A 
ATOM     45  C   UNL A   1      44.555  31.682  27.262  1.00  0.00     0.031 C 
ATOM     46  C   UNL A   1      38.765  28.863  28.764  1.00  0.00     0.029 A 
ATOM     47  C   UNL A   1      39.157  30.073  29.471  1.00  0.00     0.049 A 
ATOM     48  H   UNL A   1      41.109  30.759  29.776  1.00  0.00     0.167 HD
ATOM     49  C   UNL A   1      45.121  32.461  29.613  1.00  0.00     0.031 A 
ATOM     50  C   UNL A   1      38.407  31.023  30.080  1.00  0.00     0.031 A 
ATOM     51  C   UNL A   1      45.039  31.958  30.958  1.00  0.00     0.049 A 
ATOM     52  C   UNL A   1      39.300  31.743  31.023  1.00  0.00     0.074 A 
ATOM     53  C   UNL A   1      45.606  30.909  31.652  1.00  0.00     0.029 A 
ATOM     54  N   UNL A   1      43.967  32.389  31.702  1.00  0.00    -0.354 N 
ATOM     55  N   UNL A   1      39.825  31.195  32.085  1.00  0.00    -0.248 NA
ATOM     56  C   UNL A   1      39.918  32.993  30.602  1.00  0.00     0.031 C 
ATOM     57  C   UNL A   1      44.617  30.502  32.595  1.00  0.00     0.029 A 
ATOM     58  C   UNL A   1      43.506  31.336  32.446  1.00  0.00     0.049 A 
ATOM     59  H   UNL A   1      43.594  33.300  31.701  1.00  0.00     0.167 HD
ATOM     60  C   UNL A   1      41.067  31.796  32.219  1.00  0.00     0.074 A 
ATOM     61  C   UNL A   1      41.012  32.976  31.366  1.00  0.00     0.031 C 
ATOM     62  C   UNL A   1      42.112  31.132  32.792  1.00  0.00     0.031 A 
BRANCH  49  63
ATOM     63  C   UNL A   1      45.135  33.938  29.323  1.00  0.00    -0.014 A 
ATOM     64  C   UNL A   1      46.334  34.535  28.895  1.00  0.00     0.010 A 
ATOM     65  C   UNL A   1      44.101  34.795  29.760  1.00  0.00     0.010 A 
ATOM     66  C   UNL A   1      46.509  35.922  28.964  1.00  0.00     0.020 A 
ATOM     67  C   UNL A   1      44.248  36.179  29.785  1.00  0.00     0.020 A 
ATOM     68  C   UNL A   1      45.466  36.731  29.421  1.00  0.00     0.054 A 
BRANCH  68  69
ATOM     69  S   UNL A   1      45.752  38.502  29.642  1.00  0.00     0.124 S 
ATOM     70  O   UNL A   1      44.860  38.812  30.755  1.00  0.00    -0.237 OA
ATOM     71  O   UNL A   1      47.181  38.545  29.940  1.00  0.00    -0.237 OA
ATOM     72  O   UNL A   1      45.369  39.075  28.354  1.00  0.00    -0.744 OA
ENDBRANCH  68  69
ENDBRANCH  49  63
BRANCH  50  73
ATOM     73  C   UNL A   1      37.089  31.557  29.647  1.00  0.00    -0.014 A 
ATOM     74  C   UNL A   1      36.078  31.801  30.598  1.00  0.00     0.010 A 
ATOM     75  C   UNL A   1      36.918  32.104  28.359  1.00  0.00     0.010 A 
ATOM     76  C   UNL A   1      34.994  32.643  30.304  1.00  0.00     0.020 A 
ATOM     77  C   UNL A   1      35.830  32.931  28.053  1.00  0.00     0.020 A 
ATOM     78  C   UNL A   1      34.896  33.230  29.040  1.00  0.00     0.054 A 
BRANCH  78  79
ATOM     79  S   UNL A   1      33.603  34.467  28.733  1.00  0.00     0.124 S 
ATOM     80  O   UNL A   1      34.362  35.585  28.178  1.00  0.00    -0.237 OA
ATOM     81  O   UNL A   1      32.725  33.772  27.797  1.00  0.00    -0.237 OA
ATOM     82  O   UNL A   1      33.030  34.705  30.057  1.00  0.00    -0.744 OA
ENDBRANCH  78  79
ENDBRANCH  50  73
BRANCH  62  83
ATOM     83  C   UNL A   1      41.816  29.935  33.656  1.00  0.00    -0.014 A 
ATOM     84  C   UNL A   1      41.775  28.615  33.171  1.00  0.00     0.010 A 
ATOM     85  C   UNL A   1      41.772  30.150  35.045  1.00  0.00     0.010 A 
ATOM     86  C   UNL A   1      41.708  27.533  34.064  1.00  0.00     0.020 A 
ATOM     87  C   UNL A   1      41.719  29.078  35.936  1.00  0.00     0.020 A 
ATOM     88  C   UNL A   1      41.698  27.774  35.442  1.00  0.00     0.054 A 
BRANCH  88  89
ATOM     89  S   UNL A   1      41.721  26.369  36.594  1.00  0.00     0.124 S 
ATOM     90  O   UNL A   1      41.451  25.231  35.720  1.00  0.00    -0.237 OA
ATOM     91  O   UNL A   1      43.072  26.433  37.145  1.00  0.00    -0.237 OA
ATOM     92  O   UNL A   1      40.656  26.681  37.546  1.00  0.00    -0.744 OA
ENDBRANCH  88  89
ENDBRANCH  62  83
ENDBRANCH  36  37
ENDBRANCH  29  31
ENDBRANCH  28  29
ENDBRANCH  27  28
ENDBRANCH  26  27
ENDBRANCH   1  26
TORSDOF 20
ENDMDL
MODEL 3
REMARK VINA RESULT:     -10.8      2.630      9.702
REMARK SMILES Cc1cn2c(=O)cc(CSc3ccccc3C(=O)OCCOCCOC(=O)c3ccc(-c4c5nc(c(-c6ccc(S(=O)(=O)[O-])cc6)c6ccc([nH]6)c(-c6ccc(S(=O)(=O)[O-])cc6)c6nc(c(-c7ccc(S(=O)(=O)[O-])cc7)c7ccc4[nH]7)C=C6)C=C5)cc3)nc2s1
REMARK SMILES IDX 22 1 21 2 20 3 19 4 17 5 18 6 16 7 11 8 12 9 13 10 15 11
REMARK SMILES IDX 14 12 10 13 9 14 8 15 1 16 2 17 3 18 90 19 4 20 89 21 5 22
REMARK SMILES IDX 88 23 6 24 7 25 23 26 24 27 25 28 26 29 27 30 28 31 29 32
REMARK SMILES IDX 87 33 30 34 86 35 31 36 32 37 33 38 80 39 34 40 85 41 79 42
REMARK SMILES IDX 81 43 35 44 84 45 78 46 77 47 36 49 66 50 47 51 65 52 48 53
REMARK SMILES IDX 51 54 64 55 82 56 49 57 50 58 63 60 83 61 52 62 37 63 38 64
REMARK SMILES IDX 46 65 39 66 45 67 40 68 41 69 42 70 43 71 44 72 67 73 68 74
REMARK SMILES IDX 76 75 69 76 75 77 70 78 71 79 72 80 73 81 74 82 53 83 54 84
REMARK SMILES IDX 62 85 55 86 61 87 56 88 57 89 58 90 59 91 60 92
REMARK H PARENT 81 48 51 59
REMARK Flexibility Score: inf
ROOT
ATOM      1  O   UNL A   1      32.869  29.339  25.793  1.00  0.00    -0.374 OA
ENDROOT
BRANCH   1   2
ATOM      2  C   UNL A   1      33.802  28.264  25.736  1.00  0.00     0.202 C 
BRANCH   2   3
ATOM      3  C   UNL A   1      33.317  26.869  26.099  1.00  0.00     0.261 C 
BRANCH   3   4
ATOM      4  O   UNL A   1      33.972  25.812  25.390  1.00  0.00    -0.460 OA
BRANCH   4   5
ATOM      5  C   UNL A   1      33.710  24.573  25.862  1.00  0.00     0.339 C 
ATOM      6  O   UNL A   1      32.705  24.215  26.459  1.00  0.00    -0.246 OA
BRANCH   5   7
ATOM      7  C   UNL A   1      34.743  23.597  25.474  1.00  0.00     0.073 A 
ATOM      8  C   UNL A   1      34.480  22.270  25.095  1.00  0.00     0.022 A 
ATOM      9  C   UNL A   1      35.566  21.481  24.677  1.00  0.00     0.016 A 
ATOM     10  C   UNL A   1      36.865  22.003  24.618  1.00  0.00     0.001 A 
ATOM     11  C   UNL A   1      36.049  24.118  25.405  1.00  0.00     0.017 A 
ATOM     12  C   UNL A   1      37.108  23.323  24.984  1.00  0.00     0.001 A 
BRANCH   8  13
ATOM     13  S   UNL A   1      32.868  21.489  25.176  1.00  0.00    -0.119 SA
BRANCH  13  14
ATOM     14  C   UNL A   1      32.247  21.662  23.462  1.00  0.00     0.131 C 
BRANCH  14  15
ATOM     15  C   UNL A   1      32.046  23.105  23.047  1.00  0.00     0.059 A 
ATOM     16  C   UNL A   1      30.215  28.871  23.877  1.00  0.00     0.058 C 
ATOM     17  C   UNL A   1      30.541  27.492  23.424  1.00  0.00     0.022 A 
ATOM     18  C   UNL A   1      31.608  27.124  22.701  1.00  0.00     0.111 A 
ATOM     19  S   UNL A   1      29.615  26.093  23.930  1.00  0.00    -0.102 S 
ATOM     20  N   UNL A   1      31.782  25.761  22.608  1.00  0.00    -0.258 N 
ATOM     21  C   UNL A   1      30.867  25.018  23.315  1.00  0.00     0.197 A 
ATOM     22  C   UNL A   1      32.817  25.145  21.953  1.00  0.00     0.258 A 
ATOM     23  N   UNL A   1      30.927  23.749  23.542  1.00  0.00    -0.224 NA
ATOM     24  O   UNL A   1      33.618  25.687  21.196  1.00  0.00    -0.269 OA
ATOM     25  C   UNL A   1      32.935  23.698  22.232  1.00  0.00     0.097 A 
ENDBRANCH  14  15
ENDBRANCH  13  14
ENDBRANCH   8  13
ENDBRANCH   5   7
ENDBRANCH   4   5
ENDBRANCH   3   4
ENDBRANCH   2   3
ENDBRANCH   1   2
BRANCH   1  26
ATOM     26  C   UNL A   1      32.680  30.050  27.008  1.00  0.00     0.202 C 
BRANCH  26  27
ATOM     27  C   UNL A   1      33.194  31.481  27.141  1.00  0.00     0.261 C 
BRANCH  27  28
ATOM     28  O   UNL A   1      33.848  31.775  28.366  1.00  0.00    -0.460 OA
BRANCH  28  29
ATOM     29  C   UNL A   1      35.139  32.133  28.168  1.00  0.00     0.338 C 
ATOM     30  O   UNL A   1      35.551  32.985  27.402  1.00  0.00    -0.246 OA
BRANCH  29  31
ATOM     31  C   UNL A   1      36.034  31.224  28.886  1.00  0.00     0.060 A 
ATOM     32  C   UNL A   1      37.026  31.838  29.652  1.00  0.00     0.016 A 
ATOM     33  C   UNL A   1      36.108  29.879  28.497  1.00  0.00     0.016 A 
ATOM     34  C   UNL A   1      38.207  31.162  29.839  1.00  0.00     0.010 A 
ATOM     35  C   UNL A   1      37.297  29.209  28.677  1.00  0.00     0.010 A 
ATOM     36  C   UNL A   1      38.355  29.892  29.270  1.00  0.00    -0.014 A 
BRANCH  36  37
ATOM     37  C   UNL A   1      39.655  29.276  29.391  1.00  0.00     0.031 A 
ATOM     38  C   UNL A   1      40.021  28.967  30.782  1.00  0.00     0.074 A 
ATOM     39  C   UNL A   1      40.458  29.003  28.349  1.00  0.00     0.049 A 
ATOM     40  N   UNL A   1      40.821  29.637  31.540  1.00  0.00    -0.248 NA
ATOM     41  C   UNL A   1      39.278  27.896  31.458  1.00  0.00     0.031 C 
ATOM     42  C   UNL A   1      40.135  29.025  26.922  1.00  0.00     0.029 A 
ATOM     43  N   UNL A   1      41.742  28.556  28.377  1.00  0.00    -0.354 N 
ATOM     44  C   UNL A   1      40.862  28.931  32.731  1.00  0.00     0.074 A 
ATOM     45  C   UNL A   1      39.761  28.000  32.696  1.00  0.00     0.031 C 
ATOM     46  C   UNL A   1      41.125  28.404  26.238  1.00  0.00     0.029 A 
ATOM     47  C   UNL A   1      42.202  28.076  27.160  1.00  0.00     0.049 A 
ATOM     48  H   UNL A   1      42.296  28.572  29.190  1.00  0.00     0.167 HD
ATOM     49  C   UNL A   1      41.967  28.950  33.522  1.00  0.00     0.031 A 
ATOM     50  C   UNL A   1      43.359  27.398  26.963  1.00  0.00     0.031 A 
ATOM     51  C   UNL A   1      42.875  30.010  33.175  1.00  0.00     0.049 A 
ATOM     52  C   UNL A   1      44.272  27.767  28.075  1.00  0.00     0.074 A 
ATOM     53  C   UNL A   1      42.812  31.388  33.135  1.00  0.00     0.029 A 
ATOM     54  N   UNL A   1      43.978  29.646  32.438  1.00  0.00    -0.354 N 
ATOM     55  N   UNL A   1      44.769  28.963  28.239  1.00  0.00    -0.248 NA
ATOM     56  C   UNL A   1      44.364  26.893  29.237  1.00  0.00     0.031 C 
ATOM     57  C   UNL A   1      43.657  31.775  32.055  1.00  0.00     0.029 A 
ATOM     58  C   UNL A   1      44.212  30.618  31.502  1.00  0.00     0.049 A 
ATOM     59  H   UNL A   1      44.509  28.826  32.563  1.00  0.00     0.167 HD
ATOM     60  C   UNL A   1      44.857  29.127  29.612  1.00  0.00     0.074 A 
ATOM     61  C   UNL A   1      44.722  27.785  30.165  1.00  0.00     0.031 C 
ATOM     62  C   UNL A   1      44.756  30.362  30.182  1.00  0.00     0.031 A 
BRANCH  49  63
ATOM     63  C   UNL A   1      42.430  27.727  34.268  1.00  0.00    -0.014 A 
ATOM     64  C   UNL A   1      42.476  27.766  35.673  1.00  0.00     0.010 A 
ATOM     65  C   UNL A   1      43.113  26.673  33.623  1.00  0.00     0.010 A 
ATOM     66  C   UNL A   1      43.225  26.827  36.392  1.00  0.00     0.020 A 
ATOM     67  C   UNL A   1      43.820  25.706  34.332  1.00  0.00     0.020 A 
ATOM     68  C   UNL A   1      43.901  25.811  35.713  1.00  0.00     0.054 A 
BRANCH  68  69
ATOM     69  S   UNL A   1      44.980  24.693  36.637  1.00  0.00     0.124 S 
ATOM     70  O   UNL A   1      44.635  25.019  38.017  1.00  0.00    -0.237 OA
ATOM     71  O   UNL A   1      44.541  23.384  36.162  1.00  0.00    -0.237 OA
ATOM     72  O   UNL A   1      46.322  25.088  36.217  1.00  0.00    -0.744 OA
ENDBRANCH  68  69
ENDBRANCH  49  63
BRANCH  50  73
ATOM     73  C   UNL A   1      43.584  26.218  26.089  1.00  0.00    -0.014 A 
ATOM     74  C   UNL A   1      44.866  25.960  25.565  1.00  0.00     0.010 A 
ATOM     75  C   UNL A   1      42.627  25.186  26.006  1.00  0.00     0.010 A 
ATOM     76  C   UNL A   1      45.207  24.690  25.075  1.00  0.00     0.020 A 
ATOM     77  C   UNL A   1      42.954  23.921  25.503  1.00  0.00     0.020 A 
ATOM     78  C   UNL A   1      44.255  23.668  25.078  1.00  0.00     0.054 A 
BRANCH  78  79
ATOM     79  S   UNL A   1      44.758  21.982  24.628  1.00  0.00     0.124 S 
ATOM     80  O   UNL A   1      44.524  21.958  23.186  1.00  0.00    -0.237 OA
ATOM     81  O   UNL A   1      46.158  21.956  25.042  1.00  0.00    -0.237 OA
ATOM     82  O   UNL A   1      43.865  21.132  25.414  1.00  0.00    -0.744 OA
ENDBRANCH  78  79
ENDBRANCH  50  73
BRANCH  62  83
ATOM     83  C   UNL A   1      44.981  31.574  29.317  1.00  0.00    -0.014 A 
ATOM     84  C   UNL A   1      46.246  32.148  29.094  1.00  0.00     0.010 A 
ATOM     85  C   UNL A   1      43.888  32.020  28.552  1.00  0.00     0.010 A 
ATOM     86  C   UNL A   1      46.412  33.137  28.112  1.00  0.00     0.020 A 
ATOM     87  C   UNL A   1      44.051  32.993  27.566  1.00  0.00     0.020 A 
ATOM     88  C   UNL A   1      45.314  33.539  27.342  1.00  0.00     0.054 A 
BRANCH  88  89
ATOM     89  S   UNL A   1      45.557  34.740  26.001  1.00  0.00     0.124 S 
ATOM     90  O   UNL A   1      46.755  34.240  25.333  1.00  0.00    -0.237 OA
ATOM     91  O   UNL A   1      44.315  34.620  25.240  1.00  0.00    -0.237 OA
ATOM     92  O   UNL A   1      45.727  36.014  26.699  1.00  0.00    -0.744 OA
ENDBRANCH  88  89
ENDBRANCH  62  83
ENDBRANCH  36  37
ENDBRANCH  29  31
ENDBRANCH  28  29
ENDBRANCH  27  28
ENDBRANCH  26  27
ENDBRANCH   1  26
TORSDOF 20
ENDMDL
