MODEL 1
REMARK VINA RESULT:      -8.8      0.000      0.000
REMARK SMILES CC(C)C[C@H](NC(=O)[C@@H](NC(=O)[C@H](C)NC(=O)CNC(=O)OCc1ccccc1)C(C)C)C(=O)OCCOCCOC(=O)c1ccc(-c2c3nc(c(-c4ccc(S(=O)(=O)[O-])cc4)c4ccc([nH]4)c(-c4ccc(S(=O)(=O)[O-])cc4)c4nc(c(-c5ccc(S(=O)(=O)[O-])cc5)c5ccc2[nH]5)C=C4)C=C3)cc1
REMARK SMILES IDX 33 1 34 2 5 3 4 4 2 5 1 6 3 7 6 8 7 9 8 11 9 12 10 13 11 14
REMARK SMILES IDX 12 16 13 17 14 18 15 19 16 20 17 22 18 23 19 24 20 25 21 27
REMARK SMILES IDX 22 28 23 29 24 30 25 31 29 32 26 33 28 34 27 35 30 36 31 37
REMARK SMILES IDX 32 38 35 39 36 40 37 41 38 42 39 43 40 44 41 45 42 46 43 47
REMARK SMILES IDX 44 48 45 49 103 50 46 51 102 52 47 53 48 54 49 55 96 56
REMARK SMILES IDX 50 57 101 58 95 59 97 60 51 61 100 62 94 63 93 64 52 66
REMARK SMILES IDX 82 67 63 68 81 69 64 70 67 71 80 72 98 73 65 74 66 75 79 77
REMARK SMILES IDX 99 78 68 79 53 80 54 81 62 82 55 83 61 84 56 85 57 86 58 87
REMARK SMILES IDX 59 88 60 89 83 90 84 91 92 92 85 93 91 94 86 95 87 96 88 97
REMARK SMILES IDX 89 98 90 99 69 100 70 101 78 102 71 103 77 104 72 105 73 106
REMARK SMILES IDX 74 107 75 108 76 109
REMARK H PARENT 6 10 10 15 15 21 19 26 97 65 67 76
REMARK Flexibility Score: inf
ROOT
ATOM      1  C   UNL A   1      35.264  20.173  25.059  1.00  0.00     0.328 C 
ATOM      2  O   UNL A   1      35.068  19.091  24.531  1.00  0.00    -0.250 OA
ENDROOT
BRANCH   1   3
ATOM      3  C   UNL A   1      34.076  21.055  25.359  1.00  0.00     0.192 C 
BRANCH   3   4
ATOM      4  C   UNL A   1      33.619  20.831  26.801  1.00  0.00     0.040 C 
BRANCH   4   5
ATOM      5  C   UNL A   1      33.973  22.059  27.687  1.00  0.00    -0.015 C 
ATOM      6  C   UNL A   1      34.753  23.127  26.913  1.00  0.00     0.007 C 
ATOM      7  C   UNL A   1      32.730  22.677  28.314  1.00  0.00     0.007 C 
ENDBRANCH   4   5
ENDBRANCH   3   4
BRANCH   3   8
ATOM      8  N   UNL A   1      33.061  20.974  24.337  1.00  0.00    -0.341 N 
ATOM      9  C   UNL A   1      32.553  21.979  23.565  1.00  0.00     0.243 C 
ATOM     10  H   UNL A   1      32.685  20.079  24.176  1.00  0.00     0.164 HD
ATOM     11  O   UNL A   1      31.924  21.589  22.574  1.00  0.00    -0.273 OA
BRANCH   9  12
ATOM     12  C   UNL A   1      32.643  23.537  23.886  1.00  0.00     0.174 C 
BRANCH  12  13
ATOM     13  N   UNL A   1      32.053  24.129  25.114  1.00  0.00    -0.342 N 
ATOM     14  C   UNL A   1      31.150  25.081  25.478  1.00  0.00     0.242 C 
ATOM     15  H   UNL A   1      32.433  23.698  25.915  1.00  0.00     0.164 HD
ATOM     16  O   UNL A   1      30.819  24.989  26.671  1.00  0.00    -0.273 OA
BRANCH  14  17
ATOM     17  C   UNL A   1      30.675  26.317  24.641  1.00  0.00     0.168 C 
ATOM     18  C   UNL A   1      29.678  25.837  23.574  1.00  0.00     0.041 C 
BRANCH  17  19
ATOM     19  N   UNL A   1      31.663  27.146  23.970  1.00  0.00    -0.343 N 
ATOM     20  C   UNL A   1      31.498  28.382  23.400  1.00  0.00     0.240 C 
ATOM     21  H   UNL A   1      32.571  26.769  23.917  1.00  0.00     0.164 HD
ATOM     22  O   UNL A   1      32.432  28.824  22.727  1.00  0.00    -0.273 OA
BRANCH  20  23
ATOM     23  C   UNL A   1      30.180  29.161  23.557  1.00  0.00     0.219 C 
BRANCH  23  24
ATOM     24  N   UNL A   1      30.405  30.468  24.152  1.00  0.00    -0.312 N 
ATOM     25  C   UNL A   1      31.059  30.760  25.318  1.00  0.00     0.407 C 
ATOM     26  H   UNL A   1      30.041  31.236  23.657  1.00  0.00     0.167 HD
ATOM     27  O   UNL A   1      30.976  31.870  25.818  1.00  0.00    -0.225 OA
BRANCH  25  28
ATOM     28  O   UNL A   1      31.735  29.718  25.847  1.00  0.00    -0.445 OA
BRANCH  28  29
ATOM     29  C   UNL A   1      32.044  29.773  27.254  1.00  0.00     0.270 C 
BRANCH  29  30
ATOM     30  C   UNL A   1      33.511  30.020  27.481  1.00  0.00    -0.011 A 
ATOM     31  C   UNL A   1      33.924  31.256  27.987  1.00  0.00     0.007 A 
ATOM     32  C   UNL A   1      34.487  29.064  27.160  1.00  0.00     0.007 A 
ATOM     33  C   UNL A   1      35.280  31.553  28.109  1.00  0.00     0.000 A 
ATOM     34  C   UNL A   1      35.844  29.373  27.245  1.00  0.00     0.000 A 
ATOM     35  C   UNL A   1      36.239  30.623  27.709  1.00  0.00     0.000 A 
ENDBRANCH  29  30
ENDBRANCH  28  29
ENDBRANCH  25  28
ENDBRANCH  23  24
ENDBRANCH  20  23
ENDBRANCH  17  19
ENDBRANCH  14  17
ENDBRANCH  12  13
BRANCH  12  36
ATOM     36  C   UNL A   1      33.965  24.240  23.480  1.00  0.00     0.015 C 
ATOM     37  C   UNL A   1      35.098  23.347  22.980  1.00  0.00     0.010 C 
ATOM     38  C   UNL A   1      33.716  25.302  22.387  1.00  0.00     0.010 C 
ENDBRANCH  12  36
ENDBRANCH   9  12
ENDBRANCH   3   8
ENDBRANCH   1   3
BRANCH   1  39
ATOM     39  O   UNL A   1      36.485  20.688  25.341  1.00  0.00    -0.462 OA
BRANCH  39  40
ATOM     40  C   UNL A   1      37.547  20.048  24.601  1.00  0.00     0.261 C 
BRANCH  40  41
ATOM     41  C   UNL A   1      38.250  18.905  25.332  1.00  0.00     0.202 C 
BRANCH  41  42
ATOM     42  O   UNL A   1      39.665  19.031  25.461  1.00  0.00    -0.374 OA
BRANCH  42  43
ATOM     43  C   UNL A   1      40.101  20.031  26.383  1.00  0.00     0.202 C 
BRANCH  43  44
ATOM     44  C   UNL A   1      41.616  20.058  26.539  1.00  0.00     0.261 C 
BRANCH  44  45
ATOM     45  O   UNL A   1      42.173  20.409  25.268  1.00  0.00    -0.460 OA
BRANCH  45  46
ATOM     46  C   UNL A   1      43.524  20.360  25.229  1.00  0.00     0.338 C 
ATOM     47  O   UNL A   1      44.208  19.434  24.832  1.00  0.00    -0.246 OA
BRANCH  46  48
ATOM     48  C   UNL A   1      44.049  21.712  25.533  1.00  0.00     0.060 A 
ATOM     49  C   UNL A   1      44.948  21.819  26.601  1.00  0.00     0.016 A 
ATOM     50  C   UNL A   1      43.752  22.835  24.746  1.00  0.00     0.016 A 
ATOM     51  C   UNL A   1      45.480  23.055  26.938  1.00  0.00     0.010 A 
ATOM     52  C   UNL A   1      44.294  24.076  25.078  1.00  0.00     0.010 A 
ATOM     53  C   UNL A   1      45.114  24.194  26.210  1.00  0.00    -0.014 A 
BRANCH  53  54
ATOM     54  C   UNL A   1      45.410  25.521  26.784  1.00  0.00     0.031 A 
ATOM     55  C   UNL A   1      46.764  26.117  26.507  1.00  0.00     0.074 A 
ATOM     56  C   UNL A   1      44.466  26.207  27.450  1.00  0.00     0.049 A 
ATOM     57  N   UNL A   1      47.234  27.290  26.839  1.00  0.00    -0.248 NA
ATOM     58  C   UNL A   1      47.713  25.280  25.749  1.00  0.00     0.031 C 
ATOM     59  C   UNL A   1      43.113  25.726  27.735  1.00  0.00     0.029 A 
ATOM     60  N   UNL A   1      44.499  27.463  27.994  1.00  0.00    -0.354 N 
ATOM     61  C   UNL A   1      48.523  27.335  26.320  1.00  0.00     0.074 A 
ATOM     62  C   UNL A   1      48.782  26.059  25.695  1.00  0.00     0.031 C 
ATOM     63  C   UNL A   1      42.443  26.682  28.402  1.00  0.00     0.029 A 
ATOM     64  C   UNL A   1      43.326  27.828  28.608  1.00  0.00     0.049 A 
ATOM     65  H   UNL A   1      45.288  28.049  27.948  1.00  0.00     0.167 HD
ATOM     66  C   UNL A   1      49.405  28.360  26.345  1.00  0.00     0.031 A 
ATOM     67  C   UNL A   1      43.011  28.958  29.271  1.00  0.00     0.031 A 
ATOM     68  C   UNL A   1      49.141  29.617  26.991  1.00  0.00     0.049 A 
ATOM     69  C   UNL A   1      44.040  30.057  29.347  1.00  0.00     0.074 A 
ATOM     70  C   UNL A   1      49.965  30.723  27.094  1.00  0.00     0.029 A 
ATOM     71  N   UNL A   1      47.958  29.934  27.643  1.00  0.00    -0.354 N 
ATOM     72  N   UNL A   1      45.249  30.093  28.836  1.00  0.00    -0.248 NA
ATOM     73  C   UNL A   1      43.655  31.274  30.073  1.00  0.00     0.031 C 
ATOM     74  C   UNL A   1      49.302  31.687  27.860  1.00  0.00     0.029 A 
ATOM     75  C   UNL A   1      48.039  31.208  28.173  1.00  0.00     0.049 A 
ATOM     76  H   UNL A   1      47.178  29.339  27.718  1.00  0.00     0.167 HD
ATOM     77  C   UNL A   1      45.762  31.344  29.164  1.00  0.00     0.074 A 
ATOM     78  C   UNL A   1      44.717  32.043  29.886  1.00  0.00     0.031 C 
ATOM     79  C   UNL A   1      46.985  31.870  28.901  1.00  0.00     0.031 A 
BRANCH  66  80
ATOM     80  C   UNL A   1      50.738  28.151  25.678  1.00  0.00    -0.014 A 
ATOM     81  C   UNL A   1      50.936  28.487  24.326  1.00  0.00     0.010 A 
ATOM     82  C   UNL A   1      51.823  27.655  26.424  1.00  0.00     0.010 A 
ATOM     83  C   UNL A   1      52.186  28.312  23.727  1.00  0.00     0.020 A 
ATOM     84  C   UNL A   1      53.083  27.505  25.836  1.00  0.00     0.020 A 
ATOM     85  C   UNL A   1      53.254  27.827  24.489  1.00  0.00     0.054 A 
BRANCH  85  86
ATOM     86  S   UNL A   1      54.880  27.665  23.700  1.00  0.00     0.124 S 
ATOM     87  O   UNL A   1      55.534  28.909  24.098  1.00  0.00    -0.237 OA
ATOM     88  O   UNL A   1      55.411  26.450  24.313  1.00  0.00    -0.237 OA
ATOM     89  O   UNL A   1      54.567  27.556  22.277  1.00  0.00    -0.744 OA
ENDBRANCH  85  86
ENDBRANCH  66  80
BRANCH  67  90
ATOM     90  C   UNL A   1      41.687  29.092  29.939  1.00  0.00    -0.014 A 
ATOM     91  C   UNL A   1      41.439  28.515  31.197  1.00  0.00     0.010 A 
ATOM     92  C   UNL A   1      40.648  29.791  29.295  1.00  0.00     0.010 A 
ATOM     93  C   UNL A   1      40.172  28.607  31.782  1.00  0.00     0.020 A 
ATOM     94  C   UNL A   1      39.391  29.915  29.891  1.00  0.00     0.020 A 
ATOM     95  C   UNL A   1      39.155  29.306  31.124  1.00  0.00     0.054 A 
BRANCH  95  96
ATOM     96  S   UNL A   1      37.525  29.438  31.911  1.00  0.00     0.124 S 
ATOM     97  O   UNL A   1      37.487  30.844  32.297  1.00  0.00    -0.237 OA
ATOM     98  O   UNL A   1      36.623  29.050  30.830  1.00  0.00    -0.237 OA
ATOM     99  O   UNL A   1      37.604  28.485  33.016  1.00  0.00    -0.744 OA
ENDBRANCH  95  96
ENDBRANCH  67  90
BRANCH  79 100
ATOM    100  C   UNL A   1      47.239  33.274  29.382  1.00  0.00    -0.014 A 
ATOM    101  C   UNL A   1      47.793  33.521  30.651  1.00  0.00     0.010 A 
ATOM    102  C   UNL A   1      46.935  34.362  28.543  1.00  0.00     0.010 A 
ATOM    103  C   UNL A   1      47.978  34.831  31.096  1.00  0.00     0.020 A 
ATOM    104  C   UNL A   1      47.153  35.673  28.971  1.00  0.00     0.020 A 
ATOM    105  C   UNL A   1      47.650  35.899  30.255  1.00  0.00     0.054 A 
BRANCH 105 106
ATOM    106  S   UNL A   1      47.898  37.590  30.859  1.00  0.00     0.124 S 
ATOM    107  O   UNL A   1      46.973  37.647  31.987  1.00  0.00    -0.237 OA
ATOM    108  O   UNL A   1      49.316  37.602  31.207  1.00  0.00    -0.237 OA
ATOM    109  O   UNL A   1      47.537  38.423  29.714  1.00  0.00    -0.744 OA
ENDBRANCH 105 106
ENDBRANCH  79 100
ENDBRANCH  53  54
ENDBRANCH  46  48
ENDBRANCH  45  46
ENDBRANCH  44  45
ENDBRANCH  43  44
ENDBRANCH  42  43
ENDBRANCH  41  42
ENDBRANCH  40  41
ENDBRANCH  39  40
ENDBRANCH   1  39
TORSDOF 30
ENDMDL
MODEL 2
REMARK VINA RESULT:      -8.8      5.657      9.787
REMARK SMILES CC(C)C[C@H](NC(=O)[C@@H](NC(=O)[C@H](C)NC(=O)CNC(=O)OCc1ccccc1)C(C)C)C(=O)OCCOCCOC(=O)c1ccc(-c2c3nc(c(-c4ccc(S(=O)(=O)[O-])cc4)c4ccc([nH]4)c(-c4ccc(S(=O)(=O)[O-])cc4)c4nc(c(-c5ccc(S(=O)(=O)[O-])cc5)c5ccc2[nH]5)C=C4)C=C3)cc1
REMARK SMILES IDX 33 1 34 2 5 3 4 4 2 5 1 6 3 7 6 8 7 9 8 11 9 12 10 13 11 14
REMARK SMILES IDX 12 16 13 17 14 18 15 19 16 20 17 22 18 23 19 24 20 25 21 27
REMARK SMILES IDX 22 28 23 29 24 30 25 31 29 32 26 33 28 34 27 35 30 36 31 37
REMARK SMILES IDX 32 38 35 39 36 40 37 41 38 42 39 43 40 44 41 45 42 46 43 47
REMARK SMILES IDX 44 48 45 49 103 50 46 51 102 52 47 53 48 54 49 55 96 56
REMARK SMILES IDX 50 57 101 58 95 59 97 60 51 61 100 62 94 63 93 64 52 66
REMARK SMILES IDX 82 67 63 68 81 69 64 70 67 71 80 72 98 73 65 74 66 75 79 77
REMARK SMILES IDX 99 78 68 79 53 80 54 81 62 82 55 83 61 84 56 85 57 86 58 87
REMARK SMILES IDX 59 88 60 89 83 90 84 91 92 92 85 93 91 94 86 95 87 96 88 97
REMARK SMILES IDX 89 98 90 99 69 100 70 101 78 102 71 103 77 104 72 105 73 106
REMARK SMILES IDX 74 107 75 108 76 109
REMARK H PARENT 6 10 10 15 15 21 19 26 97 65 67 76
REMARK Flexibility Score: inf
ROOT
ATOM      1  C   UNL A   1      32.449  26.699  26.160  1.00  0.00     0.328 C 
ATOM      2  O   UNL A   1      33.340  25.926  26.472  1.00  0.00    -0.250 OA
ENDROOT
BRANCH   1   3
ATOM      3  C   UNL A   1      31.148  26.130  25.648  1.00  0.00     0.192 C 
BRANCH   3   4
ATOM      4  C   UNL A   1      30.247  27.266  25.160  1.00  0.00     0.040 C 
BRANCH   4   5
ATOM      5  C   UNL A   1      30.131  27.249  23.610  1.00  0.00    -0.015 C 
ATOM      6  C   UNL A   1      28.753  27.713  23.126  1.00  0.00     0.007 C 
ATOM      7  C   UNL A   1      31.220  28.088  22.955  1.00  0.00     0.007 C 
ENDBRANCH   4   5
ENDBRANCH   3   4
BRANCH   3   8
ATOM      8  N   UNL A   1      30.561  25.186  26.568  1.00  0.00    -0.341 N 
ATOM      9  C   UNL A   1      30.628  23.823  26.540  1.00  0.00     0.243 C 
ATOM     10  H   UNL A   1      30.046  25.575  27.310  1.00  0.00     0.164 HD
ATOM     11  O   UNL A   1      30.299  23.277  27.601  1.00  0.00    -0.273 OA
BRANCH   9  12
ATOM     12  C   UNL A   1      31.000  22.934  25.272  1.00  0.00     0.174 C 
BRANCH  12  13
ATOM     13  N   UNL A   1      31.240  23.526  23.931  1.00  0.00    -0.342 N 
ATOM     14  C   UNL A   1      32.276  23.881  23.123  1.00  0.00     0.242 C 
ATOM     15  H   UNL A   1      30.382  23.724  23.490  1.00  0.00     0.164 HD
ATOM     16  O   UNL A   1      31.914  24.094  21.954  1.00  0.00    -0.273 OA
BRANCH  14  17
ATOM     17  C   UNL A   1      33.747  24.216  23.544  1.00  0.00     0.168 C 
ATOM     18  C   UNL A   1      34.035  25.688  23.208  1.00  0.00     0.041 C 
BRANCH  17  19
ATOM     19  N   UNL A   1      34.841  23.426  23.002  1.00  0.00    -0.343 N 
ATOM     20  C   UNL A   1      36.040  23.108  23.587  1.00  0.00     0.240 C 
ATOM     21  H   UNL A   1      34.702  23.072  22.093  1.00  0.00     0.164 HD
ATOM     22  O   UNL A   1      36.894  22.576  22.875  1.00  0.00    -0.273 OA
BRANCH  20  23
ATOM     23  C   UNL A   1      36.320  23.448  25.062  1.00  0.00     0.219 C 
BRANCH  23  24
ATOM     24  N   UNL A   1      37.244  22.498  25.659  1.00  0.00    -0.312 N 
ATOM     25  C   UNL A   1      38.498  22.741  26.151  1.00  0.00     0.407 C 
ATOM     26  H   UNL A   1      36.931  21.567  25.714  1.00  0.00     0.167 HD
ATOM     27  O   UNL A   1      39.254  21.820  26.411  1.00  0.00    -0.225 OA
BRANCH  25  28
ATOM     28  O   UNL A   1      38.799  24.052  26.267  1.00  0.00    -0.445 OA
BRANCH  28  29
ATOM     29  C   UNL A   1      39.893  24.406  27.138  1.00  0.00     0.270 C 
BRANCH  29  30
ATOM     30  C   UNL A   1      40.247  25.863  27.005  1.00  0.00    -0.011 A 
ATOM     31  C   UNL A   1      39.566  26.802  27.784  1.00  0.00     0.007 A 
ATOM     32  C   UNL A   1      41.211  26.316  26.092  1.00  0.00     0.007 A 
ATOM     33  C   UNL A   1      39.796  28.165  27.608  1.00  0.00     0.000 A 
ATOM     34  C   UNL A   1      41.415  27.680  25.888  1.00  0.00     0.000 A 
ATOM     35  C   UNL A   1      40.698  28.605  26.639  1.00  0.00     0.000 A 
ENDBRANCH  29  30
ENDBRANCH  28  29
ENDBRANCH  25  28
ENDBRANCH  23  24
ENDBRANCH  20  23
ENDBRANCH  17  19
ENDBRANCH  14  17
ENDBRANCH  12  13
BRANCH  12  36
ATOM     36  C   UNL A   1      31.922  21.717  25.543  1.00  0.00     0.015 C 
ATOM     37  C   UNL A   1      32.360  20.898  24.330  1.00  0.00     0.010 C 
ATOM     38  C   UNL A   1      33.209  22.147  26.280  1.00  0.00     0.010 C 
ENDBRANCH  12  36
ENDBRANCH   9  12
ENDBRANCH   3   8
ENDBRANCH   1   3
BRANCH   1  39
ATOM     39  O   UNL A   1      32.556  28.050  26.170  1.00  0.00    -0.462 OA
BRANCH  39  40
ATOM     40  C   UNL A   1      33.094  28.559  27.409  1.00  0.00     0.261 C 
BRANCH  40  41
ATOM     41  C   UNL A   1      33.951  29.817  27.276  1.00  0.00     0.202 C 
BRANCH  41  42
ATOM     42  O   UNL A   1      33.260  30.997  26.870  1.00  0.00    -0.374 OA
BRANCH  42  43
ATOM     43  C   UNL A   1      33.385  32.106  27.762  1.00  0.00     0.202 C 
BRANCH  43  44
ATOM     44  C   UNL A   1      34.838  32.495  28.006  1.00  0.00     0.261 C 
BRANCH  44  45
ATOM     45  O   UNL A   1      34.844  33.831  28.520  1.00  0.00    -0.460 OA
BRANCH  45  46
ATOM     46  C   UNL A   1      34.770  33.901  29.868  1.00  0.00     0.338 C 
ATOM     47  O   UNL A   1      33.796  34.214  30.529  1.00  0.00    -0.246 OA
BRANCH  46  48
ATOM     48  C   UNL A   1      36.006  33.312  30.435  1.00  0.00     0.060 A 
ATOM     49  C   UNL A   1      35.864  32.140  31.187  1.00  0.00     0.016 A 
ATOM     50  C   UNL A   1      37.283  33.829  30.168  1.00  0.00     0.016 A 
ATOM     51  C   UNL A   1      36.981  31.535  31.745  1.00  0.00     0.010 A 
ATOM     52  C   UNL A   1      38.407  33.215  30.718  1.00  0.00     0.010 A 
ATOM     53  C   UNL A   1      38.248  32.100  31.555  1.00  0.00    -0.014 A 
BRANCH  53  54
ATOM     54  C   UNL A   1      39.356  31.650  32.421  1.00  0.00     0.031 A 
ATOM     55  C   UNL A   1      40.326  30.650  31.854  1.00  0.00     0.074 A 
ATOM     56  C   UNL A   1      39.537  32.190  33.638  1.00  0.00     0.049 A 
ATOM     57  N   UNL A   1      41.412  30.157  32.388  1.00  0.00    -0.248 NA
ATOM     58  C   UNL A   1      40.036  30.140  30.500  1.00  0.00     0.031 C 
ATOM     59  C   UNL A   1      38.670  33.194  34.257  1.00  0.00     0.029 A 
ATOM     60  N   UNL A   1      40.524  31.979  34.564  1.00  0.00    -0.354 N 
ATOM     61  C   UNL A   1      41.939  29.295  31.433  1.00  0.00     0.074 A 
ATOM     62  C   UNL A   1      41.033  29.290  30.308  1.00  0.00     0.031 C 
ATOM     63  C   UNL A   1      39.167  33.513  35.464  1.00  0.00     0.029 A 
ATOM     64  C   UNL A   1      40.371  32.722  35.709  1.00  0.00     0.049 A 
ATOM     65  H   UNL A   1      41.271  31.355  34.422  1.00  0.00     0.167 HD
ATOM     66  C   UNL A   1      43.089  28.585  31.484  1.00  0.00     0.031 A 
ATOM     67  C   UNL A   1      41.117  32.746  36.831  1.00  0.00     0.031 A 
ATOM     68  C   UNL A   1      43.970  28.583  32.619  1.00  0.00     0.049 A 
ATOM     69  C   UNL A   1      42.356  31.890  36.889  1.00  0.00     0.074 A 
ATOM     70  C   UNL A   1      45.155  27.890  32.790  1.00  0.00     0.029 A 
ATOM     71  N   UNL A   1      43.759  29.312  33.780  1.00  0.00    -0.354 N 
ATOM     72  N   UNL A   1      42.852  31.092  35.971  1.00  0.00    -0.248 NA
ATOM     73  C   UNL A   1      43.144  31.950  38.126  1.00  0.00     0.031 C 
ATOM     74  C   UNL A   1      45.630  28.157  34.078  1.00  0.00     0.029 A 
ATOM     75  C   UNL A   1      44.778  29.068  34.683  1.00  0.00     0.049 A 
ATOM     76  H   UNL A   1      42.996  29.914  33.939  1.00  0.00     0.167 HD
ATOM     77  C   UNL A   1      44.021  30.570  36.515  1.00  0.00     0.074 A 
ATOM     78  C   UNL A   1      44.172  31.171  37.825  1.00  0.00     0.031 C 
ATOM     79  C   UNL A   1      44.891  29.671  35.987  1.00  0.00     0.031 A 
BRANCH  66  80
ATOM     80  C   UNL A   1      43.441  27.740  30.288  1.00  0.00    -0.014 A 
ATOM     81  C   UNL A   1      44.233  28.250  29.244  1.00  0.00     0.010 A 
ATOM     82  C   UNL A   1      43.013  26.401  30.229  1.00  0.00     0.010 A 
ATOM     83  C   UNL A   1      44.574  27.445  28.154  1.00  0.00     0.020 A 
ATOM     84  C   UNL A   1      43.375  25.584  29.154  1.00  0.00     0.020 A 
ATOM     85  C   UNL A   1      44.147  26.114  28.119  1.00  0.00     0.054 A 
BRANCH  85  86
ATOM     86  S   UNL A   1      44.653  25.077  26.719  1.00  0.00     0.124 S 
ATOM     87  O   UNL A   1      45.986  24.643  27.131  1.00  0.00    -0.237 OA
ATOM     88  O   UNL A   1      43.628  24.036  26.707  1.00  0.00    -0.237 OA
ATOM     89  O   UNL A   1      44.622  25.991  25.580  1.00  0.00    -0.744 OA
ENDBRANCH  85  86
ENDBRANCH  66  80
BRANCH  67  90
ATOM     90  C   UNL A   1      40.699  33.579  37.993  1.00  0.00    -0.014 A 
ATOM     91  C   UNL A   1      41.221  34.869  38.195  1.00  0.00     0.010 A 
ATOM     92  C   UNL A   1      39.780  33.064  38.926  1.00  0.00     0.010 A 
ATOM     93  C   UNL A   1      40.856  35.612  39.323  1.00  0.00     0.020 A 
ATOM     94  C   UNL A   1      39.386  33.816  40.035  1.00  0.00     0.020 A 
ATOM     95  C   UNL A   1      39.941  35.080  40.236  1.00  0.00     0.054 A 
BRANCH  95  96
ATOM     96  S   UNL A   1      39.459  36.071  41.678  1.00  0.00     0.124 S 
ATOM     97  O   UNL A   1      38.735  35.097  42.488  1.00  0.00    -0.237 OA
ATOM     98  O   UNL A   1      40.750  36.504  42.207  1.00  0.00    -0.237 OA
ATOM     99  O   UNL A   1      38.643  37.137  41.100  1.00  0.00    -0.744 OA
ENDBRANCH  95  96
ENDBRANCH  67  90
BRANCH  79 100
ATOM    100  C   UNL A   1      46.088  29.309  36.826  1.00  0.00    -0.014 A 
ATOM    101  C   UNL A   1      47.338  29.919  36.613  1.00  0.00     0.010 A 
ATOM    102  C   UNL A   1      45.955  28.358  37.854  1.00  0.00     0.010 A 
ATOM    103  C   UNL A   1      48.447  29.536  37.370  1.00  0.00     0.020 A 
ATOM    104  C   UNL A   1      47.053  28.000  38.638  1.00  0.00     0.020 A 
ATOM    105  C   UNL A   1      48.298  28.573  38.374  1.00  0.00     0.054 A 
BRANCH 105 106
ATOM    106  S   UNL A   1      49.754  28.093  39.341  1.00  0.00     0.124 S 
ATOM    107  O   UNL A   1      49.237  28.134  40.705  1.00  0.00    -0.237 OA
ATOM    108  O   UNL A   1      50.058  26.761  38.823  1.00  0.00    -0.237 OA
ATOM    109  O   UNL A   1      50.740  29.121  39.016  1.00  0.00    -0.744 OA
ENDBRANCH 105 106
ENDBRANCH  79 100
ENDBRANCH  53  54
ENDBRANCH  46  48
ENDBRANCH  45  46
ENDBRANCH  44  45
ENDBRANCH  43  44
ENDBRANCH  42  43
ENDBRANCH  41  42
ENDBRANCH  40  41
ENDBRANCH  39  40
ENDBRANCH   1  39
TORSDOF 30
ENDMDL
MODEL 3
REMARK VINA RESULT:      -8.6      1.776      8.037
REMARK SMILES CC(C)C[C@H](NC(=O)[C@@H](NC(=O)[C@H](C)NC(=O)CNC(=O)OCc1ccccc1)C(C)C)C(=O)OCCOCCOC(=O)c1ccc(-c2c3nc(c(-c4ccc(S(=O)(=O)[O-])cc4)c4ccc([nH]4)c(-c4ccc(S(=O)(=O)[O-])cc4)c4nc(c(-c5ccc(S(=O)(=O)[O-])cc5)c5ccc2[nH]5)C=C4)C=C3)cc1
REMARK SMILES IDX 33 1 34 2 5 3 4 4 2 5 1 6 3 7 6 8 7 9 8 11 9 12 10 13 11 14
REMARK SMILES IDX 12 16 13 17 14 18 15 19 16 20 17 22 18 23 19 24 20 25 21 27
REMARK SMILES IDX 22 28 23 29 24 30 25 31 29 32 26 33 28 34 27 35 30 36 31 37
REMARK SMILES IDX 32 38 35 39 36 40 37 41 38 42 39 43 40 44 41 45 42 46 43 47
REMARK SMILES IDX 44 48 45 49 103 50 46 51 102 52 47 53 48 54 49 55 96 56
REMARK SMILES IDX 50 57 101 58 95 59 97 60 51 61 100 62 94 63 93 64 52 66
REMARK SMILES IDX 82 67 63 68 81 69 64 70 67 71 80 72 98 73 65 74 66 75 79 77
REMARK SMILES IDX 99 78 68 79 53 80 54 81 62 82 55 83 61 84 56 85 57 86 58 87
REMARK SMILES IDX 59 88 60 89 83 90 84 91 92 92 85 93 91 94 86 95 87 96 88 97
REMARK SMILES IDX 89 98 90 99 69 100 70 101 78 102 71 103 77 104 72 105 73 106
REMARK SMILES IDX 74 107 75 108 76 109
REMARK H PARENT 6 10 10 15 15 21 19 26 97 65 67 76
REMARK Flexibility Score: inf
ROOT
ATOM      1  C   UNL A   1      36.624  23.054  24.516  1.00  0.00     0.328 C 
ATOM      2  O   UNL A   1      37.149  23.343  23.454  1.00  0.00    -0.250 OA
ENDROOT
BRANCH   1   3
ATOM      3  C   UNL A   1      35.119  22.968  24.578  1.00  0.00     0.192 C 
BRANCH   3   4
ATOM      4  C   UNL A   1      34.705  21.884  25.574  1.00  0.00     0.040 C 
BRANCH   4   5
ATOM      5  C   UNL A   1      33.446  22.323  26.374  1.00  0.00    -0.015 C 
ATOM      6  C   UNL A   1      32.206  21.506  25.998  1.00  0.00     0.007 C 
ATOM      7  C   UNL A   1      33.680  22.248  27.877  1.00  0.00     0.007 C 
ENDBRANCH   4   5
ENDBRANCH   3   4
BRANCH   3   8
ATOM      8  N   UNL A   1      34.518  22.908  23.268  1.00  0.00    -0.341 N 
ATOM      9  C   UNL A   1      33.781  23.863  22.628  1.00  0.00     0.243 C 
ATOM     10  H   UNL A   1      34.658  22.070  22.771  1.00  0.00     0.164 HD
ATOM     11  O   UNL A   1      33.649  23.672  21.413  1.00  0.00    -0.273 OA
BRANCH   9  12
ATOM     12  C   UNL A   1      33.049  25.095  23.323  1.00  0.00     0.174 C 
BRANCH  12  13
ATOM     13  N   UNL A   1      33.332  26.503  22.943  1.00  0.00    -0.342 N 
ATOM     14  C   UNL A   1      33.861  27.637  23.480  1.00  0.00     0.242 C 
ATOM     15  H   UNL A   1      33.050  26.666  22.014  1.00  0.00     0.164 HD
ATOM     16  O   UNL A   1      34.116  28.495  22.618  1.00  0.00    -0.273 OA
BRANCH  14  17
ATOM     17  C   UNL A   1      33.982  28.011  24.995  1.00  0.00     0.168 C 
ATOM     18  C   UNL A   1      33.847  26.730  25.833  1.00  0.00     0.041 C 
BRANCH  17  19
ATOM     19  N   UNL A   1      33.075  28.997  25.561  1.00  0.00    -0.343 N 
ATOM     20  C   UNL A   1      31.891  29.463  25.050  1.00  0.00     0.240 C 
ATOM     21  H   UNL A   1      33.347  29.380  26.426  1.00  0.00     0.164 HD
ATOM     22  O   UNL A   1      31.374  30.431  25.612  1.00  0.00    -0.273 OA
BRANCH  20  23
ATOM     23  C   UNL A   1      31.262  28.829  23.796  1.00  0.00     0.219 C 
BRANCH  23  24
ATOM     24  N   UNL A   1      30.325  27.775  24.148  1.00  0.00    -0.312 N 
ATOM     25  C   UNL A   1      29.117  27.495  23.568  1.00  0.00     0.407 C 
ATOM     26  H   UNL A   1      30.592  27.192  24.894  1.00  0.00     0.167 HD
ATOM     27  O   UNL A   1      28.331  26.734  24.106  1.00  0.00    -0.225 OA
BRANCH  25  28
ATOM     28  O   UNL A   1      28.892  28.161  22.416  1.00  0.00    -0.445 OA
BRANCH  28  29
ATOM     29  C   UNL A   1      27.662  28.905  22.311  1.00  0.00     0.270 C 
BRANCH  29  30
ATOM     30  C   UNL A   1      27.918  30.388  22.336  1.00  0.00    -0.011 A 
ATOM     31  C   UNL A   1      27.853  31.111  21.142  1.00  0.00     0.007 A 
ATOM     32  C   UNL A   1      28.264  31.066  23.515  1.00  0.00     0.007 A 
ATOM     33  C   UNL A   1      28.188  32.463  21.114  1.00  0.00     0.000 A 
ATOM     34  C   UNL A   1      28.637  32.409  23.483  1.00  0.00     0.000 A 
ATOM     35  C   UNL A   1      28.610  33.104  22.279  1.00  0.00     0.000 A 
ENDBRANCH  29  30
ENDBRANCH  28  29
ENDBRANCH  25  28
ENDBRANCH  23  24
ENDBRANCH  20  23
ENDBRANCH  17  19
ENDBRANCH  14  17
ENDBRANCH  12  13
BRANCH  12  36
ATOM     36  C   UNL A   1      31.557  24.881  23.689  1.00  0.00     0.015 C 
ATOM     37  C   UNL A   1      30.886  23.620  23.149  1.00  0.00     0.010 C 
ATOM     38  C   UNL A   1      31.357  24.874  25.220  1.00  0.00     0.010 C 
ENDBRANCH  12  36
ENDBRANCH   9  12
ENDBRANCH   3   8
ENDBRANCH   1   3
BRANCH   1  39
ATOM     39  O   UNL A   1      37.289  22.869  25.683  1.00  0.00    -0.462 OA
BRANCH  39  40
ATOM     40  C   UNL A   1      38.065  21.652  25.699  1.00  0.00     0.261 C 
BRANCH  40  41
ATOM     41  C   UNL A   1      39.559  21.839  25.958  1.00  0.00     0.202 C 
BRANCH  41  42
ATOM     42  O   UNL A   1      39.980  21.656  27.309  1.00  0.00    -0.374 OA
BRANCH  42  43
ATOM     43  C   UNL A   1      40.921  20.600  27.510  1.00  0.00     0.202 C 
BRANCH  43  44
ATOM     44  C   UNL A   1      41.204  19.822  26.230  1.00  0.00     0.261 C 
BRANCH  44  45
ATOM     45  O   UNL A   1      42.041  20.641  25.406  1.00  0.00    -0.460 OA
BRANCH  45  46
ATOM     46  C   UNL A   1      43.365  20.440  25.598  1.00  0.00     0.338 C 
ATOM     47  O   UNL A   1      43.958  19.379  25.527  1.00  0.00    -0.246 OA
BRANCH  46  48
ATOM     48  C   UNL A   1      44.029  21.762  25.684  1.00  0.00     0.060 A 
ATOM     49  C   UNL A   1      44.569  22.121  26.925  1.00  0.00     0.016 A 
ATOM     50  C   UNL A   1      44.208  22.594  24.569  1.00  0.00     0.016 A 
ATOM     51  C   UNL A   1      45.207  23.344  27.075  1.00  0.00     0.010 A 
ATOM     52  C   UNL A   1      44.859  23.818  24.716  1.00  0.00     0.010 A 
ATOM     53  C   UNL A   1      45.308  24.217  25.984  1.00  0.00    -0.014 A 
BRANCH  53  54
ATOM     54  C   UNL A   1      45.673  25.624  26.241  1.00  0.00     0.031 A 
ATOM     55  C   UNL A   1      44.585  26.558  26.696  1.00  0.00     0.074 A 
ATOM     56  C   UNL A   1      46.953  26.025  26.159  1.00  0.00     0.049 A 
ATOM     57  N   UNL A   1      44.667  27.812  27.050  1.00  0.00    -0.248 NA
ATOM     58  C   UNL A   1      43.221  26.001  26.767  1.00  0.00     0.031 C 
ATOM     59  C   UNL A   1      48.082  25.182  25.762  1.00  0.00     0.029 A 
ATOM     60  N   UNL A   1      47.518  27.245  26.422  1.00  0.00    -0.354 N 
ATOM     61  C   UNL A   1      43.375  28.188  27.397  1.00  0.00     0.074 A 
ATOM     62  C   UNL A   1      42.518  27.049  27.166  1.00  0.00     0.031 C 
ATOM     63  C   UNL A   1      49.209  25.913  25.811  1.00  0.00     0.029 A 
ATOM     64  C   UNL A   1      48.877  27.276  26.219  1.00  0.00     0.049 A 
ATOM     65  H   UNL A   1      47.001  28.024  26.727  1.00  0.00     0.167 HD
ATOM     66  C   UNL A   1      42.945  29.374  27.885  1.00  0.00     0.031 A 
ATOM     67  C   UNL A   1      49.746  28.299  26.340  1.00  0.00     0.031 A 
ATOM     68  C   UNL A   1      43.806  30.506  28.089  1.00  0.00     0.049 A 
ATOM     69  C   UNL A   1      49.227  29.631  26.818  1.00  0.00     0.074 A 
ATOM     70  C   UNL A   1      43.480  31.763  28.563  1.00  0.00     0.029 A 
ATOM     71  N   UNL A   1      45.169  30.515  27.829  1.00  0.00    -0.354 N 
ATOM     72  N   UNL A   1      48.005  29.966  27.159  1.00  0.00    -0.248 NA
ATOM     73  C   UNL A   1      50.208  30.716  26.942  1.00  0.00     0.031 C 
ATOM     74  C   UNL A   1      44.636  32.550  28.535  1.00  0.00     0.029 A 
ATOM     75  C   UNL A   1      45.695  31.763  28.109  1.00  0.00     0.049 A 
ATOM     76  H   UNL A   1      45.685  29.747  27.494  1.00  0.00     0.167 HD
ATOM     77  C   UNL A   1      48.074  31.298  27.558  1.00  0.00     0.074 A 
ATOM     78  C   UNL A   1      49.465  31.690  27.446  1.00  0.00     0.031 C 
ATOM     79  C   UNL A   1      47.083  32.127  27.972  1.00  0.00     0.031 A 
BRANCH  66  80
ATOM     80  C   UNL A   1      41.480  29.507  28.206  1.00  0.00    -0.014 A 
ATOM     81  C   UNL A   1      40.503  29.426  27.197  1.00  0.00     0.010 A 
ATOM     82  C   UNL A   1      41.069  29.670  29.542  1.00  0.00     0.010 A 
ATOM     83  C   UNL A   1      39.146  29.524  27.514  1.00  0.00     0.020 A 
ATOM     84  C   UNL A   1      39.711  29.741  29.867  1.00  0.00     0.020 A 
ATOM     85  C   UNL A   1      38.758  29.676  28.849  1.00  0.00     0.054 A 
BRANCH  85  86
ATOM     86  S   UNL A   1      36.987  29.744  29.236  1.00  0.00     0.124 S 
ATOM     87  O   UNL A   1      36.752  31.183  29.323  1.00  0.00    -0.237 OA
ATOM     88  O   UNL A   1      36.384  29.076  28.085  1.00  0.00    -0.237 OA
ATOM     89  O   UNL A   1      36.880  29.019  30.500  1.00  0.00    -0.744 OA
ENDBRANCH  85  86
ENDBRANCH  66  80
BRANCH  67  90
ATOM     90  C   UNL A   1      51.178  28.113  25.976  1.00  0.00    -0.014 A 
ATOM     91  C   UNL A   1      52.138  27.755  26.939  1.00  0.00     0.010 A 
ATOM     92  C   UNL A   1      51.593  28.321  24.647  1.00  0.00     0.010 A 
ATOM     93  C   UNL A   1      53.487  27.639  26.586  1.00  0.00     0.020 A 
ATOM     94  C   UNL A   1      52.933  28.173  24.283  1.00  0.00     0.020 A 
ATOM     95  C   UNL A   1      53.876  27.850  25.259  1.00  0.00     0.054 A 
BRANCH  95  96
ATOM     96  S   UNL A   1      55.625  27.668  24.815  1.00  0.00     0.124 S 
ATOM     97  O   UNL A   1      56.221  27.261  26.084  1.00  0.00    -0.237 OA
ATOM     98  O   UNL A   1      55.581  26.644  23.775  1.00  0.00    -0.237 OA
ATOM     99  O   UNL A   1      55.998  29.002  24.348  1.00  0.00    -0.744 OA
ENDBRANCH  95  96
ENDBRANCH  67  90
BRANCH  79 100
ATOM    100  C   UNL A   1      47.482  33.528  28.353  1.00  0.00    -0.014 A 
ATOM    101  C   UNL A   1      47.299  34.604  27.465  1.00  0.00     0.010 A 
ATOM    102  C   UNL A   1      48.032  33.773  29.624  1.00  0.00     0.010 A 
ATOM    103  C   UNL A   1      47.718  35.888  27.819  1.00  0.00     0.020 A 
ATOM    104  C   UNL A   1      48.417  35.062  29.995  1.00  0.00     0.020 A 
ATOM    105  C   UNL A   1      48.282  36.107  29.080  1.00  0.00     0.054 A 
BRANCH 105 106
ATOM    106  S   UNL A   1      48.820  37.783  29.513  1.00  0.00     0.124 S 
ATOM    107  O   UNL A   1      47.779  38.202  30.447  1.00  0.00    -0.237 OA
ATOM    108  O   UNL A   1      50.137  37.555  30.100  1.00  0.00    -0.237 OA
ATOM    109  O   UNL A   1      48.828  38.486  28.232  1.00  0.00    -0.744 OA
ENDBRANCH 105 106
ENDBRANCH  79 100
ENDBRANCH  53  54
ENDBRANCH  46  48
ENDBRANCH  45  46
ENDBRANCH  44  45
ENDBRANCH  43  44
ENDBRANCH  42  43
ENDBRANCH  41  42
ENDBRANCH  40  41
ENDBRANCH  39  40
ENDBRANCH   1  39
TORSDOF 30
ENDMDL
