MODEL 1
REMARK VINA RESULT:      -9.6      0.000      0.000
REMARK SMILES COc1cc2nc(SCC(=O)OCCOCCOC(=O)c3ccc(-c4c5nc(c(-c6ccc(S(=O)(=O)[O-])cc6)c6ccc([nH]6)c(-c6ccc(S(=O)(=O)[O-])cc6)c6nc(c(-c7ccc(S(=O)(=O)[O-])cc7)c7ccc4[nH]7)C=C6)C=C5)cc3)nc(O)c2cc1OC
REMARK SMILES IDX 15 1 14 2 13 3 12 4 10 5 11 6 9 7 8 8 7 9 3 10 4 11 86 12
REMARK SMILES IDX 5 13 85 14 6 15 84 16 82 17 81 18 2 19 1 20 87 21 88 22
REMARK SMILES IDX 83 23 16 25 17 26 18 27 19 28 20 29 21 30 22 31 80 32 23 33
REMARK SMILES IDX 79 34 24 35 25 36 26 37 73 38 27 39 78 40 72 41 74 42 28 43
REMARK SMILES IDX 77 44 71 45 70 46 29 48 59 49 40 50 58 51 41 52 44 53 57 54
REMARK SMILES IDX 75 55 42 56 43 57 56 59 76 60 45 61 30 62 31 63 39 64 32 65
REMARK SMILES IDX 38 66 33 67 34 68 35 69 36 70 37 71 60 72 61 73 69 74 62 75
REMARK SMILES IDX 68 76 63 77 64 78 65 79 66 80 67 81 46 82 47 83 55 84 48 85
REMARK SMILES IDX 54 86 49 87 50 88 51 89 52 90 53 91
REMARK H PARENT 83 24 74 47 44 58
REMARK Flexibility Score: inf
ROOT
ATOM      1  O   UNL A   1      35.592  33.707  29.916  1.00  0.00    -0.374 OA
ENDROOT
BRANCH   1   2
ATOM      2  C   UNL A   1      35.845  33.027  28.689  1.00  0.00     0.202 C 
BRANCH   2   3
ATOM      3  C   UNL A   1      34.648  32.513  27.874  1.00  0.00     0.261 C 
BRANCH   3   4
ATOM      4  O   UNL A   1      34.123  31.241  28.316  1.00  0.00    -0.463 OA
BRANCH   4   5
ATOM      5  C   UNL A   1      34.458  30.167  27.551  1.00  0.00     0.316 C 
ATOM      6  O   UNL A   1      35.618  29.821  27.327  1.00  0.00    -0.251 OA
BRANCH   5   7
ATOM      7  C   UNL A   1      33.307  29.374  26.965  1.00  0.00     0.200 C 
BRANCH   7   8
ATOM      8  S   UNL A   1      33.609  28.439  25.446  1.00  0.00    -0.074 SA
BRANCH   8   9
ATOM      9  C   UNL A   1      32.749  26.901  25.711  1.00  0.00     0.192 A 
ATOM     10  C   UNL A   1      33.515  22.229  25.981  1.00  0.00     0.162 A 
ATOM     11  C   UNL A   1      33.908  23.550  26.235  1.00  0.00     0.079 A 
ATOM     12  C   UNL A   1      32.236  21.954  25.485  1.00  0.00     0.161 A 
ATOM     13  C   UNL A   1      33.072  24.627  25.975  1.00  0.00     0.083 A 
ATOM     14  C   UNL A   1      31.358  23.024  25.294  1.00  0.00     0.066 A 
ATOM     15  N   UNL A   1      33.545  25.877  26.074  1.00  0.00    -0.222 NA
ATOM     16  C   UNL A   1      31.775  24.359  25.548  1.00  0.00     0.066 A 
ATOM     17  C   UNL A   1      31.010  25.506  25.345  1.00  0.00     0.223 A 
ATOM     18  N   UNL A   1      31.454  26.773  25.389  1.00  0.00    -0.187 NA
BRANCH  10  19
ATOM     19  O   UNL A   1      34.432  21.267  26.324  1.00  0.00    -0.493 OA
ATOM     20  C   UNL A   1      35.677  21.392  25.636  1.00  0.00     0.278 C 
ENDBRANCH  10  19
BRANCH  12  21
ATOM     21  O   UNL A   1      31.910  20.643  25.271  1.00  0.00    -0.493 OA
ATOM     22  C   UNL A   1      32.384  20.039  24.073  1.00  0.00     0.278 C 
ENDBRANCH  12  21
BRANCH  17  23
ATOM     23  O   UNL A   1      29.723  25.403  24.905  1.00  0.00    -0.493 OA
ATOM     24  H   UNL A   1      29.548  25.279  23.992  1.00  0.00     0.295 HD
ENDBRANCH  17  23
ENDBRANCH   8   9
ENDBRANCH   7   8
ENDBRANCH   5   7
ENDBRANCH   4   5
ENDBRANCH   3   4
ENDBRANCH   2   3
ENDBRANCH   1   2
BRANCH   1  25
ATOM     25  C   UNL A   1      34.762  33.059  30.871  1.00  0.00     0.202 C 
BRANCH  25  26
ATOM     26  C   UNL A   1      35.409  32.087  31.861  1.00  0.00     0.261 C 
BRANCH  26  27
ATOM     27  O   UNL A   1      36.737  31.700  31.533  1.00  0.00    -0.460 OA
BRANCH  27  28
ATOM     28  C   UNL A   1      36.851  30.411  31.147  1.00  0.00     0.338 C 
ATOM     29  O   UNL A   1      35.969  29.571  31.052  1.00  0.00    -0.246 OA
BRANCH  28  30
ATOM     30  C   UNL A   1      38.222  30.208  30.684  1.00  0.00     0.060 A 
ATOM     31  C   UNL A   1      39.233  29.859  31.581  1.00  0.00     0.016 A 
ATOM     32  C   UNL A   1      38.471  30.353  29.317  1.00  0.00     0.016 A 
ATOM     33  C   UNL A   1      40.512  29.622  31.090  1.00  0.00     0.010 A 
ATOM     34  C   UNL A   1      39.746  30.109  28.829  1.00  0.00     0.010 A 
ATOM     35  C   UNL A   1      40.766  29.719  29.710  1.00  0.00    -0.014 A 
BRANCH  35  36
ATOM     36  C   UNL A   1      42.060  29.278  29.155  1.00  0.00     0.031 A 
ATOM     37  C   UNL A   1      43.212  30.224  29.045  1.00  0.00     0.074 A 
ATOM     38  C   UNL A   1      42.149  28.014  28.697  1.00  0.00     0.049 A 
ATOM     39  N   UNL A   1      44.412  29.996  28.582  1.00  0.00    -0.248 NA
ATOM     40  C   UNL A   1      42.989  31.604  29.503  1.00  0.00     0.031 C 
ATOM     41  C   UNL A   1      41.060  27.035  28.740  1.00  0.00     0.029 A 
ATOM     42  N   UNL A   1      43.187  27.338  28.116  1.00  0.00    -0.354 N 
ATOM     43  C   UNL A   1      45.097  31.197  28.706  1.00  0.00     0.074 A 
ATOM     44  C   UNL A   1      44.160  32.166  29.233  1.00  0.00     0.031 C 
ATOM     45  C   UNL A   1      41.501  25.871  28.246  1.00  0.00     0.029 A 
ATOM     46  C   UNL A   1      42.882  26.034  27.804  1.00  0.00     0.049 A 
ATOM     47  H   UNL A   1      44.066  27.744  27.938  1.00  0.00     0.167 HD
ATOM     48  C   UNL A   1      46.396  31.448  28.424  1.00  0.00     0.031 A 
ATOM     49  C   UNL A   1      43.632  25.074  27.228  1.00  0.00     0.031 A 
ATOM     50  C   UNL A   1      47.296  30.465  27.877  1.00  0.00     0.049 A 
ATOM     51  C   UNL A   1      45.056  25.391  26.876  1.00  0.00     0.074 A 
ATOM     52  C   UNL A   1      48.639  30.606  27.576  1.00  0.00     0.029 A 
ATOM     53  N   UNL A   1      46.947  29.161  27.541  1.00  0.00    -0.354 N 
ATOM     54  N   UNL A   1      45.714  26.512  27.059  1.00  0.00    -0.248 NA
ATOM     55  C   UNL A   1      45.847  24.320  26.257  1.00  0.00     0.031 C 
ATOM     56  C   UNL A   1      49.079  29.421  26.984  1.00  0.00     0.029 A 
ATOM     57  C   UNL A   1      48.039  28.502  27.001  1.00  0.00     0.049 A 
ATOM     58  H   UNL A   1      46.055  28.765  27.669  1.00  0.00     0.167 HD
ATOM     59  C   UNL A   1      47.002  26.278  26.594  1.00  0.00     0.074 A 
ATOM     60  C   UNL A   1      47.035  24.902  26.140  1.00  0.00     0.031 C 
ATOM     61  C   UNL A   1      48.056  27.130  26.546  1.00  0.00     0.031 A 
BRANCH  48  62
ATOM     62  C   UNL A   1      46.932  32.830  28.709  1.00  0.00    -0.014 A 
ATOM     63  C   UNL A   1      47.426  33.147  29.988  1.00  0.00     0.010 A 
ATOM     64  C   UNL A   1      46.852  33.848  27.740  1.00  0.00     0.010 A 
ATOM     65  C   UNL A   1      47.801  34.457  30.303  1.00  0.00     0.020 A 
ATOM     66  C   UNL A   1      47.260  35.152  28.039  1.00  0.00     0.020 A 
ATOM     67  C   UNL A   1      47.710  35.452  29.327  1.00  0.00     0.054 A 
BRANCH  67  68
ATOM     68  S   UNL A   1      48.183  37.149  29.758  1.00  0.00     0.124 S 
ATOM     69  O   UNL A   1      49.303  36.935  30.670  1.00  0.00    -0.237 OA
ATOM     70  O   UNL A   1      48.527  37.723  28.459  1.00  0.00    -0.237 OA
ATOM     71  O   UNL A   1      46.975  37.698  30.370  1.00  0.00    -0.744 OA
ENDBRANCH  67  68
ENDBRANCH  48  62
BRANCH  49  72
ATOM     72  C   UNL A   1      43.036  23.722  27.033  1.00  0.00    -0.014 A 
ATOM     73  C   UNL A   1      43.128  22.748  28.046  1.00  0.00     0.010 A 
ATOM     74  C   UNL A   1      42.511  23.357  25.781  1.00  0.00     0.010 A 
ATOM     75  C   UNL A   1      42.787  21.418  27.785  1.00  0.00     0.020 A 
ATOM     76  C   UNL A   1      42.134  22.034  25.529  1.00  0.00     0.020 A 
ATOM     77  C   UNL A   1      42.311  21.067  26.519  1.00  0.00     0.054 A 
BRANCH  77  78
ATOM     78  S   UNL A   1      41.981  19.317  26.173  1.00  0.00     0.124 S 
ATOM     79  O   UNL A   1      42.390  18.682  27.423  1.00  0.00    -0.237 OA
ATOM     80  O   UNL A   1      40.546  19.312  25.905  1.00  0.00    -0.237 OA
ATOM     81  O   UNL A   1      42.830  19.029  25.020  1.00  0.00    -0.744 OA
ENDBRANCH  77  78
ENDBRANCH  49  72
BRANCH  61  82
ATOM     82  C   UNL A   1      49.354  26.621  25.970  1.00  0.00    -0.014 A 
ATOM     83  C   UNL A   1      50.285  25.978  26.809  1.00  0.00     0.010 A 
ATOM     84  C   UNL A   1      49.717  26.912  24.644  1.00  0.00     0.010 A 
ATOM     85  C   UNL A   1      51.573  25.689  26.352  1.00  0.00     0.020 A 
ATOM     86  C   UNL A   1      50.992  26.590  24.170  1.00  0.00     0.020 A 
ATOM     87  C   UNL A   1      51.922  26.011  25.037  1.00  0.00     0.054 A 
BRANCH  87  88
ATOM     88  S   UNL A   1      53.619  25.691  24.484  1.00  0.00     0.124 S 
ATOM     89  O   UNL A   1      53.755  24.257  24.724  1.00  0.00    -0.237 OA
ATOM     90  O   UNL A   1      53.579  26.095  23.082  1.00  0.00    -0.237 OA
ATOM     91  O   UNL A   1      54.429  26.546  25.349  1.00  0.00    -0.744 OA
ENDBRANCH  87  88
ENDBRANCH  61  82
ENDBRANCH  35  36
ENDBRANCH  28  30
ENDBRANCH  27  28
ENDBRANCH  26  27
ENDBRANCH  25  26
ENDBRANCH   1  25
TORSDOF 22
ENDMDL
MODEL 2
REMARK VINA RESULT:      -9.2      1.959      9.239
REMARK SMILES COc1cc2nc(SCC(=O)OCCOCCOC(=O)c3ccc(-c4c5nc(c(-c6ccc(S(=O)(=O)[O-])cc6)c6ccc([nH]6)c(-c6ccc(S(=O)(=O)[O-])cc6)c6nc(c(-c7ccc(S(=O)(=O)[O-])cc7)c7ccc4[nH]7)C=C6)C=C5)cc3)nc(O)c2cc1OC
REMARK SMILES IDX 15 1 14 2 13 3 12 4 10 5 11 6 9 7 8 8 7 9 3 10 4 11 86 12
REMARK SMILES IDX 5 13 85 14 6 15 84 16 82 17 81 18 2 19 1 20 87 21 88 22
REMARK SMILES IDX 83 23 16 25 17 26 18 27 19 28 20 29 21 30 22 31 80 32 23 33
REMARK SMILES IDX 79 34 24 35 25 36 26 37 73 38 27 39 78 40 72 41 74 42 28 43
REMARK SMILES IDX 77 44 71 45 70 46 29 48 59 49 40 50 58 51 41 52 44 53 57 54
REMARK SMILES IDX 75 55 42 56 43 57 56 59 76 60 45 61 30 62 31 63 39 64 32 65
REMARK SMILES IDX 38 66 33 67 34 68 35 69 36 70 37 71 60 72 61 73 69 74 62 75
REMARK SMILES IDX 68 76 63 77 64 78 65 79 66 80 67 81 46 82 47 83 55 84 48 85
REMARK SMILES IDX 54 86 49 87 50 88 51 89 52 90 53 91
REMARK H PARENT 83 24 74 47 44 58
REMARK Flexibility Score: inf
ROOT
ATOM      1  O   UNL A   1      37.947  21.133  24.740  1.00  0.00    -0.374 OA
ENDROOT
BRANCH   1   2
ATOM      2  C   UNL A   1      36.759  20.405  25.038  1.00  0.00     0.202 C 
BRANCH   2   3
ATOM      3  C   UNL A   1      35.523  21.182  25.516  1.00  0.00     0.261 C 
BRANCH   3   4
ATOM      4  O   UNL A   1      34.460  21.277  24.543  1.00  0.00    -0.463 OA
BRANCH   4   5
ATOM      5  C   UNL A   1      33.537  20.277  24.577  1.00  0.00     0.316 C 
ATOM      6  O   UNL A   1      33.766  19.150  25.014  1.00  0.00    -0.251 OA
BRANCH   5   7
ATOM      7  C   UNL A   1      32.161  20.614  24.041  1.00  0.00     0.200 C 
BRANCH   7   8
ATOM      8  S   UNL A   1      32.017  21.997  22.883  1.00  0.00    -0.074 SA
BRANCH   8   9
ATOM      9  C   UNL A   1      31.449  23.348  23.895  1.00  0.00     0.192 A 
ATOM     10  C   UNL A   1      31.239  28.084  23.975  1.00  0.00     0.162 A 
ATOM     11  C   UNL A   1      31.166  26.868  23.283  1.00  0.00     0.079 A 
ATOM     12  C   UNL A   1      31.319  28.100  25.372  1.00  0.00     0.161 A 
ATOM     13  C   UNL A   1      31.206  25.647  23.941  1.00  0.00     0.083 A 
ATOM     14  C   UNL A   1      31.281  26.879  26.050  1.00  0.00     0.066 A 
ATOM     15  N   UNL A   1      31.301  24.511  23.235  1.00  0.00    -0.222 NA
ATOM     16  C   UNL A   1      31.215  25.654  25.333  1.00  0.00     0.066 A 
ATOM     17  C   UNL A   1      31.225  24.378  25.894  1.00  0.00     0.223 A 
ATOM     18  N   UNL A   1      31.364  23.220  25.227  1.00  0.00    -0.187 NA
BRANCH  10  19
ATOM     19  O   UNL A   1      31.149  29.210  23.196  1.00  0.00    -0.493 OA
ATOM     20  C   UNL A   1      29.826  29.739  23.107  1.00  0.00     0.278 C 
ENDBRANCH  10  19
BRANCH  12  21
ATOM     21  O   UNL A   1      31.376  29.321  25.987  1.00  0.00    -0.493 OA
ATOM     22  C   UNL A   1      32.031  29.389  27.248  1.00  0.00     0.278 C 
ENDBRANCH  12  21
BRANCH  17  23
ATOM     23  O   UNL A   1      31.256  24.225  27.248  1.00  0.00    -0.493 OA
ATOM     24  H   UNL A   1      32.040  24.418  27.724  1.00  0.00     0.295 HD
ENDBRANCH  17  23
ENDBRANCH   8   9
ENDBRANCH   7   8
ENDBRANCH   5   7
ENDBRANCH   4   5
ENDBRANCH   3   4
ENDBRANCH   2   3
ENDBRANCH   1   2
BRANCH   1  25
ATOM     25  C   UNL A   1      38.529  21.903  25.782  1.00  0.00     0.202 C 
BRANCH  25  26
ATOM     26  C   UNL A   1      39.770  21.354  26.491  1.00  0.00     0.261 C 
BRANCH  26  27
ATOM     27  O   UNL A   1      40.079  20.000  26.187  1.00  0.00    -0.460 OA
BRANCH  27  28
ATOM     28  C   UNL A   1      41.400  19.723  26.206  1.00  0.00     0.338 C 
ATOM     29  O   UNL A   1      41.950  18.656  25.979  1.00  0.00    -0.246 OA
BRANCH  28  30
ATOM     30  C   UNL A   1      42.114  20.985  26.388  1.00  0.00     0.060 A 
ATOM     31  C   UNL A   1      42.491  21.755  25.286  1.00  0.00     0.016 A 
ATOM     32  C   UNL A   1      42.380  21.395  27.696  1.00  0.00     0.016 A 
ATOM     33  C   UNL A   1      43.121  22.975  25.506  1.00  0.00     0.010 A 
ATOM     34  C   UNL A   1      43.001  22.617  27.912  1.00  0.00     0.010 A 
ATOM     35  C   UNL A   1      43.352  23.422  26.819  1.00  0.00    -0.014 A 
BRANCH  35  36
ATOM     36  C   UNL A   1      43.833  24.795  27.068  1.00  0.00     0.031 A 
ATOM     37  C   UNL A   1      45.261  25.164  26.826  1.00  0.00     0.074 A 
ATOM     38  C   UNL A   1      42.959  25.684  27.575  1.00  0.00     0.049 A 
ATOM     39  N   UNL A   1      45.843  26.322  26.994  1.00  0.00    -0.248 NA
ATOM     40  C   UNL A   1      46.155  24.100  26.344  1.00  0.00     0.031 C 
ATOM     41  C   UNL A   1      41.553  25.396  27.868  1.00  0.00     0.029 A 
ATOM     42  N   UNL A   1      43.112  26.998  27.928  1.00  0.00    -0.354 N 
ATOM     43  C   UNL A   1      47.167  26.134  26.624  1.00  0.00     0.074 A 
ATOM     44  C   UNL A   1      47.317  24.737  26.279  1.00  0.00     0.031 C 
ATOM     45  C   UNL A   1      40.963  26.511  28.317  1.00  0.00     0.029 A 
ATOM     46  C   UNL A   1      41.956  27.577  28.394  1.00  0.00     0.049 A 
ATOM     47  H   UNL A   1      43.967  27.481  27.856  1.00  0.00     0.167 HD
ATOM     48  C   UNL A   1      48.154  27.058  26.560  1.00  0.00     0.031 A 
ATOM     49  C   UNL A   1      41.719  28.829  28.833  1.00  0.00     0.031 A 
ATOM     50  C   UNL A   1      47.977  28.438  26.936  1.00  0.00     0.049 A 
ATOM     51  C   UNL A   1      42.842  29.824  28.801  1.00  0.00     0.074 A 
ATOM     52  C   UNL A   1      48.902  29.465  26.887  1.00  0.00     0.029 A 
ATOM     53  N   UNL A   1      46.800  28.986  27.435  1.00  0.00    -0.354 N 
ATOM     54  N   UNL A   1      44.075  29.653  28.386  1.00  0.00    -0.248 NA
ATOM     55  C   UNL A   1      42.547  31.181  29.279  1.00  0.00     0.031 C 
ATOM     56  C   UNL A   1      48.315  30.608  27.432  1.00  0.00     0.029 A 
ATOM     57  C   UNL A   1      46.990  30.325  27.735  1.00  0.00     0.049 A 
ATOM     58  H   UNL A   1      45.956  28.494  27.558  1.00  0.00     0.167 HD
ATOM     59  C   UNL A   1      44.702  30.883  28.535  1.00  0.00     0.074 A 
ATOM     60  C   UNL A   1      43.705  31.795  29.060  1.00  0.00     0.031 C 
ATOM     61  C   UNL A   1      45.987  31.221  28.264  1.00  0.00     0.031 A 
BRANCH  48  62
ATOM     62  C   UNL A   1      49.508  26.621  26.059  1.00  0.00    -0.014 A 
ATOM     63  C   UNL A   1      50.379  25.907  26.903  1.00  0.00     0.010 A 
ATOM     64  C   UNL A   1      49.964  27.007  24.785  1.00  0.00     0.010 A 
ATOM     65  C   UNL A   1      51.684  25.613  26.498  1.00  0.00     0.020 A 
ATOM     66  C   UNL A   1      51.257  26.684  24.360  1.00  0.00     0.020 A 
ATOM     67  C   UNL A   1      52.116  26.009  25.230  1.00  0.00     0.054 A 
BRANCH  67  68
ATOM     68  S   UNL A   1      53.818  25.635  24.728  1.00  0.00     0.124 S 
ATOM     69  O   UNL A   1      53.810  25.996  23.313  1.00  0.00    -0.237 OA
ATOM     70  O   UNL A   1      54.605  26.507  25.598  1.00  0.00    -0.237 OA
ATOM     71  O   UNL A   1      53.953  24.207  25.007  1.00  0.00    -0.744 OA
ENDBRANCH  67  68
ENDBRANCH  48  62
BRANCH  49  72
ATOM     72  C   UNL A   1      40.338  29.187  29.260  1.00  0.00    -0.014 A 
ATOM     73  C   UNL A   1      39.409  29.688  28.327  1.00  0.00     0.010 A 
ATOM     74  C   UNL A   1      39.994  29.172  30.623  1.00  0.00     0.010 A 
ATOM     75  C   UNL A   1      38.201  30.245  28.757  1.00  0.00     0.020 A 
ATOM     76  C   UNL A   1      38.771  29.695  31.053  1.00  0.00     0.020 A 
ATOM     77  C   UNL A   1      37.900  30.264  30.121  1.00  0.00     0.054 A 
BRANCH  77  78
ATOM     78  S   UNL A   1      36.379  31.091  30.662  1.00  0.00     0.124 S 
ATOM     79  O   UNL A   1      35.579  31.076  29.440  1.00  0.00    -0.237 OA
ATOM     80  O   UNL A   1      35.907  30.218  31.733  1.00  0.00    -0.237 OA
ATOM     81  O   UNL A   1      36.838  32.409  31.091  1.00  0.00    -0.744 OA
ENDBRANCH  77  78
ENDBRANCH  49  72
BRANCH  61  82
ATOM     82  C   UNL A   1      46.420  32.641  28.537  1.00  0.00    -0.014 A 
ATOM     83  C   UNL A   1      46.780  33.021  29.844  1.00  0.00     0.010 A 
ATOM     84  C   UNL A   1      46.323  33.627  27.541  1.00  0.00     0.010 A 
ATOM     85  C   UNL A   1      46.977  34.366  30.164  1.00  0.00     0.020 A 
ATOM     86  C   UNL A   1      46.558  34.971  27.848  1.00  0.00     0.020 A 
ATOM     87  C   UNL A   1      46.851  35.334  29.164  1.00  0.00     0.054 A 
BRANCH  87  88
ATOM     88  S   UNL A   1      47.043  37.081  29.615  1.00  0.00     0.124 S 
ATOM     89  O   UNL A   1      48.399  37.111  30.154  1.00  0.00    -0.237 OA
ATOM     90  O   UNL A   1      46.856  37.762  28.336  1.00  0.00    -0.237 OA
ATOM     91  O   UNL A   1      45.979  37.302  30.592  1.00  0.00    -0.744 OA
ENDBRANCH  87  88
ENDBRANCH  61  82
ENDBRANCH  35  36
ENDBRANCH  28  30
ENDBRANCH  27  28
ENDBRANCH  26  27
ENDBRANCH  25  26
ENDBRANCH   1  25
TORSDOF 22
ENDMDL
MODEL 3
REMARK VINA RESULT:      -9.2      5.972      8.279
REMARK SMILES COc1cc2nc(SCC(=O)OCCOCCOC(=O)c3ccc(-c4c5nc(c(-c6ccc(S(=O)(=O)[O-])cc6)c6ccc([nH]6)c(-c6ccc(S(=O)(=O)[O-])cc6)c6nc(c(-c7ccc(S(=O)(=O)[O-])cc7)c7ccc4[nH]7)C=C6)C=C5)cc3)nc(O)c2cc1OC
REMARK SMILES IDX 15 1 14 2 13 3 12 4 10 5 11 6 9 7 8 8 7 9 3 10 4 11 86 12
REMARK SMILES IDX 5 13 85 14 6 15 84 16 82 17 81 18 2 19 1 20 87 21 88 22
REMARK SMILES IDX 83 23 16 25 17 26 18 27 19 28 20 29 21 30 22 31 80 32 23 33
REMARK SMILES IDX 79 34 24 35 25 36 26 37 73 38 27 39 78 40 72 41 74 42 28 43
REMARK SMILES IDX 77 44 71 45 70 46 29 48 59 49 40 50 58 51 41 52 44 53 57 54
REMARK SMILES IDX 75 55 42 56 43 57 56 59 76 60 45 61 30 62 31 63 39 64 32 65
REMARK SMILES IDX 38 66 33 67 34 68 35 69 36 70 37 71 60 72 61 73 69 74 62 75
REMARK SMILES IDX 68 76 63 77 64 78 65 79 66 80 67 81 46 82 47 83 55 84 48 85
REMARK SMILES IDX 54 86 49 87 50 88 51 89 52 90 53 91
REMARK H PARENT 83 24 74 47 44 58
REMARK Flexibility Score: inf
ROOT
ATOM      1  O   UNL A   1      33.611  29.986  27.012  1.00  0.00    -0.374 OA
ENDROOT
BRANCH   1   2
ATOM      2  C   UNL A   1      32.253  29.599  27.208  1.00  0.00     0.202 C 
BRANCH   2   3
ATOM      3  C   UNL A   1      31.570  28.748  26.126  1.00  0.00     0.261 C 
BRANCH   3   4
ATOM      4  O   UNL A   1      31.907  29.117  24.771  1.00  0.00    -0.463 OA
BRANCH   4   5
ATOM      5  C   UNL A   1      30.985  28.792  23.824  1.00  0.00     0.316 C 
ATOM      6  O   UNL A   1      29.780  29.015  23.936  1.00  0.00    -0.251 OA
BRANCH   5   7
ATOM      7  C   UNL A   1      31.516  28.125  22.571  1.00  0.00     0.200 C 
BRANCH   7   8
ATOM      8  S   UNL A   1      33.238  27.570  22.570  1.00  0.00    -0.074 SA
BRANCH   8   9
ATOM      9  C   UNL A   1      33.117  25.796  22.692  1.00  0.00     0.192 A 
ATOM     10  C   UNL A   1      31.109  22.392  25.311  1.00  0.00     0.162 A 
ATOM     11  C   UNL A   1      31.063  23.651  24.698  1.00  0.00     0.079 A 
ATOM     12  C   UNL A   1      32.171  21.517  25.055  1.00  0.00     0.161 A 
ATOM     13  C   UNL A   1      32.072  24.092  23.853  1.00  0.00     0.083 A 
ATOM     14  C   UNL A   1      33.152  21.919  24.144  1.00  0.00     0.066 A 
ATOM     15  N   UNL A   1      32.073  25.361  23.421  1.00  0.00    -0.222 NA
ATOM     16  C   UNL A   1      33.095  23.204  23.537  1.00  0.00     0.066 A 
ATOM     17  C   UNL A   1      34.039  23.734  22.659  1.00  0.00     0.223 A 
ATOM     18  N   UNL A   1      34.102  25.008  22.238  1.00  0.00    -0.187 NA
BRANCH  10  19
ATOM     19  O   UNL A   1      30.023  22.077  26.090  1.00  0.00    -0.493 OA
ATOM     20  C   UNL A   1      29.726  23.062  27.080  1.00  0.00     0.278 C 
ENDBRANCH  10  19
BRANCH  12  21
ATOM     21  O   UNL A   1      32.150  20.299  25.675  1.00  0.00    -0.493 OA
ATOM     22  C   UNL A   1      33.263  19.438  25.466  1.00  0.00     0.278 C 
ENDBRANCH  12  21
BRANCH  17  23
ATOM     23  O   UNL A   1      35.113  22.987  22.275  1.00  0.00    -0.493 OA
ATOM     24  H   UNL A   1      35.395  22.997  21.381  1.00  0.00     0.295 HD
ENDBRANCH  17  23
ENDBRANCH   8   9
ENDBRANCH   7   8
ENDBRANCH   5   7
ENDBRANCH   4   5
ENDBRANCH   3   4
ENDBRANCH   2   3
ENDBRANCH   1   2
BRANCH   1  25
ATOM     25  C   UNL A   1      34.060  31.171  27.656  1.00  0.00     0.202 C 
BRANCH  25  26
ATOM     26  C   UNL A   1      33.136  32.391  27.666  1.00  0.00     0.261 C 
BRANCH  26  27
ATOM     27  O   UNL A   1      33.806  33.645  27.701  1.00  0.00    -0.460 OA
BRANCH  27  28
ATOM     28  C   UNL A   1      33.662  34.309  28.868  1.00  0.00     0.338 C 
ATOM     29  O   UNL A   1      32.733  35.019  29.222  1.00  0.00    -0.246 OA
BRANCH  28  30
ATOM     30  C   UNL A   1      34.756  33.901  29.747  1.00  0.00     0.060 A 
ATOM     31  C   UNL A   1      34.500  33.187  30.918  1.00  0.00     0.016 A 
ATOM     32  C   UNL A   1      36.056  34.233  29.358  1.00  0.00     0.016 A 
ATOM     33  C   UNL A   1      35.574  32.771  31.698  1.00  0.00     0.010 A 
ATOM     34  C   UNL A   1      37.125  33.811  30.133  1.00  0.00     0.010 A 
ATOM     35  C   UNL A   1      36.890  33.058  31.293  1.00  0.00    -0.014 A 
BRANCH  35  36
ATOM     36  C   UNL A   1      38.037  32.455  31.999  1.00  0.00     0.031 A 
ATOM     37  C   UNL A   1      38.539  33.032  33.284  1.00  0.00     0.074 A 
ATOM     38  C   UNL A   1      38.652  31.407  31.418  1.00  0.00     0.049 A 
ATOM     39  N   UNL A   1      39.533  32.624  34.027  1.00  0.00    -0.248 NA
ATOM     40  C   UNL A   1      37.846  34.224  33.796  1.00  0.00     0.031 C 
ATOM     41  C   UNL A   1      38.242  30.801  30.148  1.00  0.00     0.029 A 
ATOM     42  N   UNL A   1      39.735  30.668  31.809  1.00  0.00    -0.354 N 
ATOM     43  C   UNL A   1      39.579  33.496  35.105  1.00  0.00     0.074 A 
ATOM     44  C   UNL A   1      38.550  34.491  34.889  1.00  0.00     0.031 C 
ATOM     45  C   UNL A   1      39.039  29.756  29.887  1.00  0.00     0.029 A 
ATOM     46  C   UNL A   1      40.045  29.650  30.938  1.00  0.00     0.049 A 
ATOM     47  H   UNL A   1      40.243  30.846  32.633  1.00  0.00     0.167 HD
ATOM     48  C   UNL A   1      40.395  33.447  36.183  1.00  0.00     0.031 A 
ATOM     49  C   UNL A   1      41.028  28.730  30.981  1.00  0.00     0.031 A 
ATOM     50  C   UNL A   1      41.426  32.455  36.355  1.00  0.00     0.049 A 
ATOM     51  C   UNL A   1      41.954  28.725  32.163  1.00  0.00     0.074 A 
ATOM     52  C   UNL A   1      42.294  32.297  37.420  1.00  0.00     0.029 A 
ATOM     53  N   UNL A   1      41.736  31.456  35.438  1.00  0.00    -0.354 N 
ATOM     54  N   UNL A   1      41.947  29.515  33.211  1.00  0.00    -0.248 NA
ATOM     55  C   UNL A   1      43.010  27.705  32.181  1.00  0.00     0.031 C 
ATOM     56  C   UNL A   1      43.178  31.262  37.113  1.00  0.00     0.029 A 
ATOM     57  C   UNL A   1      42.806  30.706  35.897  1.00  0.00     0.049 A 
ATOM     58  H   UNL A   1      41.264  31.305  34.588  1.00  0.00     0.167 HD
ATOM     59  C   UNL A   1      42.984  29.078  34.025  1.00  0.00     0.074 A 
ATOM     60  C   UNL A   1      43.584  27.941  33.356  1.00  0.00     0.031 C 
ATOM     61  C   UNL A   1      43.399  29.578  35.215  1.00  0.00     0.031 A 
BRANCH  48  62
ATOM     62  C   UNL A   1      40.206  34.479  37.267  1.00  0.00    -0.014 A 
ATOM     63  C   UNL A   1      39.377  34.203  38.371  1.00  0.00     0.010 A 
ATOM     64  C   UNL A   1      40.766  35.764  37.145  1.00  0.00     0.010 A 
ATOM     65  C   UNL A   1      39.089  35.195  39.312  1.00  0.00     0.020 A 
ATOM     66  C   UNL A   1      40.510  36.750  38.102  1.00  0.00     0.020 A 
ATOM     67  C   UNL A   1      39.653  36.465  39.168  1.00  0.00     0.054 A 
BRANCH  67  68
ATOM     68  S   UNL A   1      39.253  37.745  40.388  1.00  0.00     0.124 S 
ATOM     69  O   UNL A   1      40.554  38.361  40.629  1.00  0.00    -0.237 OA
ATOM     70  O   UNL A   1      38.284  38.574  39.673  1.00  0.00    -0.237 OA
ATOM     71  O   UNL A   1      38.701  36.990  41.511  1.00  0.00    -0.744 OA
ENDBRANCH  67  68
ENDBRANCH  48  62
BRANCH  49  72
ATOM     72  C   UNL A   1      41.107  27.715  29.893  1.00  0.00    -0.014 A 
ATOM     73  C   UNL A   1      42.063  27.841  28.867  1.00  0.00     0.010 A 
ATOM     74  C   UNL A   1      40.132  26.708  29.796  1.00  0.00     0.010 A 
ATOM     75  C   UNL A   1      41.990  27.037  27.726  1.00  0.00     0.020 A 
ATOM     76  C   UNL A   1      40.079  25.876  28.673  1.00  0.00     0.020 A 
ATOM     77  C   UNL A   1      40.984  26.073  27.629  1.00  0.00     0.054 A 
BRANCH  77  78
ATOM     78  S   UNL A   1      40.845  25.118  26.093  1.00  0.00     0.124 S 
ATOM     79  O   UNL A   1      41.752  24.002  26.351  1.00  0.00    -0.237 OA
ATOM     80  O   UNL A   1      39.425  24.779  26.058  1.00  0.00    -0.237 OA
ATOM     81  O   UNL A   1      41.286  26.055  25.064  1.00  0.00    -0.744 OA
ENDBRANCH  77  78
ENDBRANCH  49  72
BRANCH  61  82
ATOM     82  C   UNL A   1      44.576  28.918  35.890  1.00  0.00    -0.014 A 
ATOM     83  C   UNL A   1      45.879  29.390  35.641  1.00  0.00     0.010 A 
ATOM     84  C   UNL A   1      44.408  27.742  36.642  1.00  0.00     0.010 A 
ATOM     85  C   UNL A   1      46.992  28.671  36.080  1.00  0.00     0.020 A 
ATOM     86  C   UNL A   1      45.520  27.040  37.117  1.00  0.00     0.020 A 
ATOM     87  C   UNL A   1      46.804  27.491  36.804  1.00  0.00     0.054 A 
BRANCH  87  88
ATOM     88  S   UNL A   1      48.261  26.536  37.306  1.00  0.00     0.124 S 
ATOM     89  O   UNL A   1      48.757  26.036  36.027  1.00  0.00    -0.237 OA
ATOM     90  O   UNL A   1      49.095  27.543  37.956  1.00  0.00    -0.237 OA
ATOM     91  O   UNL A   1      47.714  25.519  38.202  1.00  0.00    -0.744 OA
ENDBRANCH  87  88
ENDBRANCH  61  82
ENDBRANCH  35  36
ENDBRANCH  28  30
ENDBRANCH  27  28
ENDBRANCH  26  27
ENDBRANCH  25  26
ENDBRANCH   1  25
TORSDOF 22
ENDMDL
