MODEL 1
REMARK VINA RESULT:     -11.8      0.000      0.000
REMARK SMILES COc1cc2c(cc1OC)[C@H](C(=O)OCCOCCOC(=O)c1ccc(-c3c4nc(c(-c5ccc(S(=O)(=O)[O-])cc5)c5ccc([nH]5)c(-c5ccc(S(=O)(=O)[O-])cc5)c5nc(c(-c6ccc(S(=O)(=O)[O-])cc6)c6ccc3[nH]6)C=C5)C=C4)cc1)[C@H](c1cccc(Cl)c1)N(C)C2=O
REMARK SMILES IDX 18 1 17 2 16 3 15 4 14 5 12 6 13 7 11 8 3 9 4 10 8 11 5 12
REMARK SMILES IDX 7 13 6 14 93 15 91 16 94 17 83 18 92 19 2 20 1 21 9 22 10 23
REMARK SMILES IDX 84 24 85 25 90 26 86 27 88 28 87 29 89 30 19 31 20 32 21 33
REMARK SMILES IDX 22 34 23 35 24 36 82 37 25 38 81 39 26 40 27 41 28 42 75 43
REMARK SMILES IDX 29 44 80 45 74 46 76 47 30 48 79 49 73 50 72 51 31 53 61 54
REMARK SMILES IDX 42 55 60 56 43 57 46 58 59 59 77 60 44 61 45 62 58 64 78 65
REMARK SMILES IDX 47 66 32 67 33 68 41 69 34 70 40 71 35 72 36 73 37 74 38 75
REMARK SMILES IDX 39 76 62 77 63 78 71 79 64 80 70 81 65 82 66 83 67 84 68 85
REMARK SMILES IDX 69 86 48 87 49 88 57 89 50 90 56 91 51 92 52 93 53 94 54 95
REMARK SMILES IDX 55 96
REMARK H PARENT 76 52 46 63
REMARK Flexibility Score: inf
ROOT
ATOM      1  C   UNL A   1      34.324  32.761  28.084  1.00  0.00     0.202 C 
ENDROOT
BRANCH   1   2
ATOM      2  O   UNL A   1      33.046  32.165  27.867  1.00  0.00    -0.374 OA
BRANCH   2   3
ATOM      3  C   UNL A   1      32.934  31.119  26.907  1.00  0.00     0.202 C 
BRANCH   3   4
ATOM      4  C   UNL A   1      32.107  29.886  27.288  1.00  0.00     0.261 C 
BRANCH   4   5
ATOM      5  O   UNL A   1      32.891  28.690  27.377  1.00  0.00    -0.463 OA
BRANCH   5   6
ATOM      6  C   UNL A   1      32.327  27.593  26.792  1.00  0.00     0.316 C 
ATOM      7  O   UNL A   1      31.338  27.016  27.227  1.00  0.00    -0.251 OA
BRANCH   6   8
ATOM      8  C   UNL A   1      33.137  27.142  25.581  1.00  0.00     0.157 C 
ATOM      9  C   UNL A   1      32.319  22.975  24.855  1.00  0.00     0.161 A 
ATOM     10  C   UNL A   1      32.731  23.811  23.801  1.00  0.00     0.064 A 
ATOM     11  C   UNL A   1      32.331  23.454  26.168  1.00  0.00     0.161 A 
ATOM     12  C   UNL A   1      33.084  25.142  24.048  1.00  0.00     0.048 A 
ATOM     13  C   UNL A   1      32.695  24.781  26.396  1.00  0.00     0.056 A 
ATOM     14  C   UNL A   1      32.974  25.657  25.340  1.00  0.00    -0.015 A 
ATOM     15  C   UNL A   1      33.564  26.010  22.932  1.00  0.00     0.254 C 
ATOM     16  N   UNL A   1      33.529  27.389  23.146  1.00  0.00    -0.333 N 
ATOM     17  O   UNL A   1      33.952  25.500  21.886  1.00  0.00    -0.269 OA
ATOM     18  C   UNL A   1      32.792  27.956  24.296  1.00  0.00     0.134 C 
ATOM     19  C   UNL A   1      33.970  28.278  22.084  1.00  0.00     0.147 C 
BRANCH   9  20
ATOM     20  O   UNL A   1      31.807  21.736  24.584  1.00  0.00    -0.493 OA
ATOM     21  C   UNL A   1      32.698  20.908  23.844  1.00  0.00     0.278 C 
ENDBRANCH   9  20
BRANCH  11  22
ATOM     22  O   UNL A   1      32.024  22.812  27.333  1.00  0.00    -0.493 OA
ATOM     23  C   UNL A   1      33.057  22.179  28.064  1.00  0.00     0.278 C 
ENDBRANCH  11  22
BRANCH  18  24
ATOM     24  C   UNL A   1      31.304  28.162  23.976  1.00  0.00    -0.023 A 
ATOM     25  C   UNL A   1      30.446  27.047  23.912  1.00  0.00     0.006 A 
ATOM     26  C   UNL A   1      30.742  29.423  23.708  1.00  0.00     0.026 A 
ATOM     27  C   UNL A   1      29.117  27.172  23.498  1.00  0.00     0.002 A 
ATOM     28  C   UNL A   1      29.405  29.548  23.320  1.00  0.00     0.041 A 
ATOM     29  C   UNL A   1      28.597  28.425  23.192  1.00  0.00     0.020 A 
ATOM     30  Cl  UNL A   1      28.757  31.108  22.990  1.00  0.00    -0.084 Cl
ENDBRANCH  18  24
ENDBRANCH   6   8
ENDBRANCH   5   6
ENDBRANCH   4   5
ENDBRANCH   3   4
ENDBRANCH   2   3
ENDBRANCH   1   2
BRANCH   1  31
ATOM     31  C   UNL A   1      35.589  31.925  27.872  1.00  0.00     0.261 C 
BRANCH  31  32
ATOM     32  O   UNL A   1      35.571  30.700  28.624  1.00  0.00    -0.460 OA
BRANCH  32  33
ATOM     33  C   UNL A   1      36.423  30.674  29.677  1.00  0.00     0.338 C 
ATOM     34  O   UNL A   1      36.216  31.108  30.802  1.00  0.00    -0.246 OA
BRANCH  33  35
ATOM     35  C   UNL A   1      37.614  29.879  29.352  1.00  0.00     0.060 A 
ATOM     36  C   UNL A   1      38.359  29.346  30.412  1.00  0.00     0.016 A 
ATOM     37  C   UNL A   1      38.067  29.778  28.036  1.00  0.00     0.016 A 
ATOM     38  C   UNL A   1      39.595  28.754  30.164  1.00  0.00     0.010 A 
ATOM     39  C   UNL A   1      39.312  29.195  27.791  1.00  0.00     0.010 A 
ATOM     40  C   UNL A   1      40.097  28.719  28.857  1.00  0.00    -0.014 A 
BRANCH  40  41
ATOM     41  C   UNL A   1      41.510  28.346  28.619  1.00  0.00     0.031 A 
ATOM     42  C   UNL A   1      42.563  29.416  28.701  1.00  0.00     0.074 A 
ATOM     43  C   UNL A   1      41.846  27.077  28.332  1.00  0.00     0.049 A 
ATOM     44  N   UNL A   1      43.841  29.340  28.440  1.00  0.00    -0.248 NA
ATOM     45  C   UNL A   1      42.113  30.751  29.134  1.00  0.00     0.031 C 
ATOM     46  C   UNL A   1      40.918  25.947  28.278  1.00  0.00     0.029 A 
ATOM     47  N   UNL A   1      43.063  26.529  28.015  1.00  0.00    -0.354 N 
ATOM     48  C   UNL A   1      44.346  30.617  28.659  1.00  0.00     0.074 A 
ATOM     49  C   UNL A   1      43.234  31.452  29.058  1.00  0.00     0.031 C 
ATOM     50  C   UNL A   1      41.599  24.841  27.930  1.00  0.00     0.029 A 
ATOM     51  C   UNL A   1      42.999  25.194  27.700  1.00  0.00     0.049 A 
ATOM     52  H   UNL A   1      43.902  27.045  28.015  1.00  0.00     0.167 HD
ATOM     53  C   UNL A   1      45.622  31.055  28.535  1.00  0.00     0.031 A 
ATOM     54  C   UNL A   1      43.956  24.360  27.246  1.00  0.00     0.031 A 
ATOM     55  C   UNL A   1      46.719  30.221  28.122  1.00  0.00     0.049 A 
ATOM     56  C   UNL A   1      45.353  24.885  27.045  1.00  0.00     0.074 A 
ATOM     57  C   UNL A   1      48.050  30.565  27.968  1.00  0.00     0.029 A 
ATOM     58  N   UNL A   1      46.608  28.880  27.791  1.00  0.00    -0.354 N 
ATOM     59  N   UNL A   1      45.818  26.093  27.263  1.00  0.00    -0.248 NA
ATOM     60  C   UNL A   1      46.355  23.935  26.540  1.00  0.00     0.031 C 
ATOM     61  C   UNL A   1      48.737  29.441  27.497  1.00  0.00     0.029 A 
ATOM     62  C   UNL A   1      47.844  28.384  27.413  1.00  0.00     0.049 A 
ATOM     63  H   UNL A   1      45.775  28.356  27.821  1.00  0.00     0.167 HD
ATOM     64  C   UNL A   1      47.173  26.039  26.951  1.00  0.00     0.074 A 
ATOM     65  C   UNL A   1      47.453  24.681  26.534  1.00  0.00     0.031 C 
ATOM     66  C   UNL A   1      48.102  27.024  27.011  1.00  0.00     0.031 A 
BRANCH  53  67
ATOM     67  C   UNL A   1      45.888  32.510  28.810  1.00  0.00    -0.014 A 
ATOM     68  C   UNL A   1      46.273  32.951  30.089  1.00  0.00     0.010 A 
ATOM     69  C   UNL A   1      45.774  33.447  27.768  1.00  0.00     0.010 A 
ATOM     70  C   UNL A   1      46.502  34.309  30.328  1.00  0.00     0.020 A 
ATOM     71  C   UNL A   1      46.027  34.802  27.996  1.00  0.00     0.020 A 
ATOM     72  C   UNL A   1      46.371  35.227  29.281  1.00  0.00     0.054 A 
BRANCH  72  73
ATOM     73  S   UNL A   1      46.686  36.982  29.614  1.00  0.00     0.124 S 
ATOM     74  O   UNL A   1      45.991  37.628  28.503  1.00  0.00    -0.237 OA
ATOM     75  O   UNL A   1      46.080  37.174  30.930  1.00  0.00    -0.237 OA
ATOM     76  O   UNL A   1      48.143  37.086  29.582  1.00  0.00    -0.744 OA
ENDBRANCH  72  73
ENDBRANCH  53  67
BRANCH  54  77
ATOM     77  C   UNL A   1      43.616  22.948  26.926  1.00  0.00    -0.014 A 
ATOM     78  C   UNL A   1      44.198  22.302  25.823  1.00  0.00     0.010 A 
ATOM     79  C   UNL A   1      42.712  22.236  27.738  1.00  0.00     0.010 A 
ATOM     80  C   UNL A   1      43.873  20.974  25.528  1.00  0.00     0.020 A 
ATOM     81  C   UNL A   1      42.405  20.901  27.461  1.00  0.00     0.020 A 
ATOM     82  C   UNL A   1      42.979  20.282  26.351  1.00  0.00     0.054 A 
BRANCH  82  83
ATOM     83  S   UNL A   1      42.615  18.542  25.983  1.00  0.00     0.124 S 
ATOM     84  O   UNL A   1      41.171  18.574  25.771  1.00  0.00    -0.237 OA
ATOM     85  O   UNL A   1      43.425  18.294  24.792  1.00  0.00    -0.237 OA
ATOM     86  O   UNL A   1      43.058  17.839  27.185  1.00  0.00    -0.744 OA
ENDBRANCH  82  83
ENDBRANCH  54  77
BRANCH  66  87
ATOM     87  C   UNL A   1      49.522  26.667  26.662  1.00  0.00    -0.014 A 
ATOM     88  C   UNL A   1      50.417  26.198  27.638  1.00  0.00     0.010 A 
ATOM     89  C   UNL A   1      49.934  26.722  25.317  1.00  0.00     0.010 A 
ATOM     90  C   UNL A   1      51.709  25.805  27.276  1.00  0.00     0.020 A 
ATOM     91  C   UNL A   1      51.216  26.307  24.950  1.00  0.00     0.020 A 
ATOM     92  C   UNL A   1      52.099  25.859  25.934  1.00  0.00     0.054 A 
BRANCH  92  93
ATOM     93  S   UNL A   1      53.757  25.278  25.480  1.00  0.00     0.124 S 
ATOM     94  O   UNL A   1      54.326  24.937  26.781  1.00  0.00    -0.237 OA
ATOM     95  O   UNL A   1      53.471  24.145  24.603  1.00  0.00    -0.237 OA
ATOM     96  O   UNL A   1      54.360  26.434  24.818  1.00  0.00    -0.744 OA
ENDBRANCH  92  93
ENDBRANCH  66  87
ENDBRANCH  40  41
ENDBRANCH  33  35
ENDBRANCH  32  33
ENDBRANCH  31  32
ENDBRANCH   1  31
TORSDOF 20
ENDMDL
MODEL 2
REMARK VINA RESULT:     -11.6      2.788      8.724
REMARK SMILES COc1cc2c(cc1OC)[C@H](C(=O)OCCOCCOC(=O)c1ccc(-c3c4nc(c(-c5ccc(S(=O)(=O)[O-])cc5)c5ccc([nH]5)c(-c5ccc(S(=O)(=O)[O-])cc5)c5nc(c(-c6ccc(S(=O)(=O)[O-])cc6)c6ccc3[nH]6)C=C5)C=C4)cc1)[C@H](c1cccc(Cl)c1)N(C)C2=O
REMARK SMILES IDX 18 1 17 2 16 3 15 4 14 5 12 6 13 7 11 8 3 9 4 10 8 11 5 12
REMARK SMILES IDX 7 13 6 14 93 15 91 16 94 17 83 18 92 19 2 20 1 21 9 22 10 23
REMARK SMILES IDX 84 24 85 25 90 26 86 27 88 28 87 29 89 30 19 31 20 32 21 33
REMARK SMILES IDX 22 34 23 35 24 36 82 37 25 38 81 39 26 40 27 41 28 42 75 43
REMARK SMILES IDX 29 44 80 45 74 46 76 47 30 48 79 49 73 50 72 51 31 53 61 54
REMARK SMILES IDX 42 55 60 56 43 57 46 58 59 59 77 60 44 61 45 62 58 64 78 65
REMARK SMILES IDX 47 66 32 67 33 68 41 69 34 70 40 71 35 72 36 73 37 74 38 75
REMARK SMILES IDX 39 76 62 77 63 78 71 79 64 80 70 81 65 82 66 83 67 84 68 85
REMARK SMILES IDX 69 86 48 87 49 88 57 89 50 90 56 91 51 92 52 93 53 94 54 95
REMARK SMILES IDX 55 96
REMARK H PARENT 76 52 46 63
REMARK Flexibility Score: inf
ROOT
ATOM      1  C   UNL A   1      39.540  22.434  27.128  1.00  0.00     0.202 C 
ENDROOT
BRANCH   1   2
ATOM      2  O   UNL A   1      39.754  23.782  26.710  1.00  0.00    -0.374 OA
BRANCH   2   3
ATOM      3  C   UNL A   1      38.634  24.551  26.284  1.00  0.00     0.202 C 
BRANCH   3   4
ATOM      4  C   UNL A   1      37.329  23.806  25.982  1.00  0.00     0.261 C 
BRANCH   4   5
ATOM      5  O   UNL A   1      37.201  23.432  24.606  1.00  0.00    -0.463 OA
BRANCH   5   6
ATOM      6  C   UNL A   1      35.922  23.439  24.129  1.00  0.00     0.316 C 
ATOM      7  O   UNL A   1      35.624  23.231  22.960  1.00  0.00    -0.251 OA
BRANCH   6   8
ATOM      8  C   UNL A   1      34.932  23.820  25.225  1.00  0.00     0.157 C 
ATOM      9  C   UNL A   1      31.807  26.221  23.486  1.00  0.00     0.161 A 
ATOM     10  C   UNL A   1      31.558  25.467  24.646  1.00  0.00     0.064 A 
ATOM     11  C   UNL A   1      33.109  26.322  22.987  1.00  0.00     0.161 A 
ATOM     12  C   UNL A   1      32.593  24.756  25.267  1.00  0.00     0.048 A 
ATOM     13  C   UNL A   1      34.129  25.615  23.624  1.00  0.00     0.056 A 
ATOM     14  C   UNL A   1      33.866  24.754  24.697  1.00  0.00    -0.015 A 
ATOM     15  C   UNL A   1      32.332  23.996  26.524  1.00  0.00     0.254 C 
ATOM     16  N   UNL A   1      33.265  23.019  26.875  1.00  0.00    -0.333 N 
ATOM     17  O   UNL A   1      31.326  24.237  27.185  1.00  0.00    -0.269 OA
ATOM     18  C   UNL A   1      34.290  22.572  25.908  1.00  0.00     0.134 C 
ATOM     19  C   UNL A   1      33.047  22.238  28.082  1.00  0.00     0.147 C 
BRANCH   9  20
ATOM     20  O   UNL A   1      30.764  26.764  22.787  1.00  0.00    -0.493 OA
ATOM     21  C   UNL A   1      29.692  27.193  23.619  1.00  0.00     0.278 C 
ENDBRANCH   9  20
BRANCH  11  22
ATOM     22  O   UNL A   1      33.582  27.029  21.920  1.00  0.00    -0.493 OA
ATOM     23  C   UNL A   1      34.080  28.338  22.125  1.00  0.00     0.278 C 
ENDBRANCH  11  22
BRANCH  18  24
ATOM     24  C   UNL A   1      33.763  21.463  24.985  1.00  0.00    -0.023 A 
ATOM     25  C   UNL A   1      32.765  21.764  24.038  1.00  0.00     0.006 A 
ATOM     26  C   UNL A   1      34.206  20.130  25.054  1.00  0.00     0.026 A 
ATOM     27  C   UNL A   1      32.164  20.763  23.269  1.00  0.00     0.002 A 
ATOM     28  C   UNL A   1      33.622  19.136  24.264  1.00  0.00     0.041 A 
ATOM     29  C   UNL A   1      32.587  19.444  23.388  1.00  0.00     0.020 A 
ATOM     30  Cl  UNL A   1      34.184  17.513  24.384  1.00  0.00    -0.084 Cl
ENDBRANCH  18  24
ENDBRANCH   6   8
ENDBRANCH   5   6
ENDBRANCH   4   5
ENDBRANCH   3   4
ENDBRANCH   2   3
ENDBRANCH   1   2
BRANCH   1  31
ATOM     31  C   UNL A   1      39.907  21.287  26.184  1.00  0.00     0.261 C 
BRANCH  31  32
ATOM     32  O   UNL A   1      40.820  20.352  26.784  1.00  0.00    -0.460 OA
BRANCH  32  33
ATOM     33  C   UNL A   1      41.978  20.180  26.103  1.00  0.00     0.338 C 
ATOM     34  O   UNL A   1      42.221  19.315  25.273  1.00  0.00    -0.246 OA
BRANCH  33  35
ATOM     35  C   UNL A   1      42.893  21.301  26.357  1.00  0.00     0.060 A 
ATOM     36  C   UNL A   1      43.094  21.697  27.686  1.00  0.00     0.016 A 
ATOM     37  C   UNL A   1      43.432  22.035  25.300  1.00  0.00     0.016 A 
ATOM     38  C   UNL A   1      43.794  22.868  27.963  1.00  0.00     0.010 A 
ATOM     39  C   UNL A   1      44.123  23.216  25.580  1.00  0.00     0.010 A 
ATOM     40  C   UNL A   1      44.271  23.657  26.909  1.00  0.00    -0.014 A 
BRANCH  40  41
ATOM     41  C   UNL A   1      44.770  25.024  27.177  1.00  0.00     0.031 A 
ATOM     42  C   UNL A   1      43.790  26.078  27.614  1.00  0.00     0.074 A 
ATOM     43  C   UNL A   1      46.072  25.322  27.030  1.00  0.00     0.049 A 
ATOM     44  N   UNL A   1      43.982  27.355  27.813  1.00  0.00    -0.248 NA
ATOM     45  C   UNL A   1      42.408  25.630  27.859  1.00  0.00     0.031 C 
ATOM     46  C   UNL A   1      47.121  24.370  26.662  1.00  0.00     0.029 A 
ATOM     47  N   UNL A   1      46.731  26.518  27.157  1.00  0.00    -0.354 N 
ATOM     48  C   UNL A   1      42.745  27.868  28.189  1.00  0.00     0.074 A 
ATOM     49  C   UNL A   1      41.806  26.768  28.174  1.00  0.00     0.031 C 
ATOM     50  C   UNL A   1      48.292  25.025  26.577  1.00  0.00     0.029 A 
ATOM     51  C   UNL A   1      48.067  26.445  26.845  1.00  0.00     0.049 A 
ATOM     52  H   UNL A   1      46.288  27.349  27.446  1.00  0.00     0.167 HD
ATOM     53  C   UNL A   1      42.422  29.142  28.513  1.00  0.00     0.031 A 
ATOM     54  C   UNL A   1      48.994  27.419  26.754  1.00  0.00     0.031 A 
ATOM     55  C   UNL A   1      43.358  30.233  28.510  1.00  0.00     0.049 A 
ATOM     56  C   UNL A   1      48.596  28.841  27.048  1.00  0.00     0.074 A 
ATOM     57  C   UNL A   1      43.134  31.561  28.826  1.00  0.00     0.029 A 
ATOM     58  N   UNL A   1      44.697  30.121  28.167  1.00  0.00    -0.354 N 
ATOM     59  N   UNL A   1      47.425  29.311  27.410  1.00  0.00    -0.248 NA
ATOM     60  C   UNL A   1      49.644  29.865  26.926  1.00  0.00     0.031 C 
ATOM     61  C   UNL A   1      44.328  32.263  28.627  1.00  0.00     0.029 A 
ATOM     62  C   UNL A   1      45.308  31.361  28.243  1.00  0.00     0.049 A 
ATOM     63  H   UNL A   1      45.147  29.285  27.908  1.00  0.00     0.167 HD
ATOM     64  C   UNL A   1      47.604  30.679  27.587  1.00  0.00     0.074 A 
ATOM     65  C   UNL A   1      48.995  30.961  27.298  1.00  0.00     0.031 C 
ATOM     66  C   UNL A   1      46.699  31.617  27.961  1.00  0.00     0.031 A 
BRANCH  53  67
ATOM     67  C   UNL A   1      40.985  29.428  28.858  1.00  0.00    -0.014 A 
ATOM     68  C   UNL A   1      39.976  29.372  27.879  1.00  0.00     0.010 A 
ATOM     69  C   UNL A   1      40.636  29.734  30.185  1.00  0.00     0.010 A 
ATOM     70  C   UNL A   1      38.649  29.656  28.217  1.00  0.00     0.020 A 
ATOM     71  C   UNL A   1      39.308  29.993  30.532  1.00  0.00     0.020 A 
ATOM     72  C   UNL A   1      38.325  29.970  29.541  1.00  0.00     0.054 A 
BRANCH  72  73
ATOM     73  S   UNL A   1      36.594  30.322  29.955  1.00  0.00     0.124 S 
ATOM     74  O   UNL A   1      35.915  30.006  28.701  1.00  0.00    -0.237 OA
ATOM     75  O   UNL A   1      36.334  29.400  31.059  1.00  0.00    -0.237 OA
ATOM     76  O   UNL A   1      36.604  31.736  30.318  1.00  0.00    -0.744 OA
ENDBRANCH  72  73
ENDBRANCH  53  67
BRANCH  54  77
ATOM     77  C   UNL A   1      50.383  27.083  26.343  1.00  0.00    -0.014 A 
ATOM     78  C   UNL A   1      51.380  26.853  27.305  1.00  0.00     0.010 A 
ATOM     79  C   UNL A   1      50.712  26.979  24.978  1.00  0.00     0.010 A 
ATOM     80  C   UNL A   1      52.684  26.538  26.911  1.00  0.00     0.020 A 
ATOM     81  C   UNL A   1      52.008  26.639  24.581  1.00  0.00     0.020 A 
ATOM     82  C   UNL A   1      52.989  26.431  25.551  1.00  0.00     0.054 A 
BRANCH  82  83
ATOM     83  S   UNL A   1      54.674  25.966  25.063  1.00  0.00     0.124 S 
ATOM     84  O   UNL A   1      55.472  26.544  26.140  1.00  0.00    -0.237 OA
ATOM     85  O   UNL A   1      54.605  24.507  25.038  1.00  0.00    -0.237 OA
ATOM     86  O   UNL A   1      54.837  26.596  23.754  1.00  0.00    -0.744 OA
ENDBRANCH  82  83
ENDBRANCH  54  77
BRANCH  66  87
ATOM     87  C   UNL A   1      47.186  33.030  28.128  1.00  0.00    -0.014 A 
ATOM     88  C   UNL A   1      47.062  33.972  27.093  1.00  0.00     0.010 A 
ATOM     89  C   UNL A   1      47.698  33.439  29.374  1.00  0.00     0.010 A 
ATOM     90  C   UNL A   1      47.457  35.297  27.297  1.00  0.00     0.020 A 
ATOM     91  C   UNL A   1      48.071  34.768  29.588  1.00  0.00     0.020 A 
ATOM     92  C   UNL A   1      47.956  35.688  28.544  1.00  0.00     0.054 A 
BRANCH  92  93
ATOM     93  S   UNL A   1      48.397  37.428  28.805  1.00  0.00     0.124 S 
ATOM     94  O   UNL A   1      48.053  38.025  27.517  1.00  0.00    -0.237 OA
ATOM     95  O   UNL A   1      47.541  37.812  29.925  1.00  0.00    -0.237 OA
ATOM     96  O   UNL A   1      49.826  37.382  29.109  1.00  0.00    -0.744 OA
ENDBRANCH  92  93
ENDBRANCH  66  87
ENDBRANCH  40  41
ENDBRANCH  33  35
ENDBRANCH  32  33
ENDBRANCH  31  32
ENDBRANCH   1  31
TORSDOF 20
ENDMDL
MODEL 3
REMARK VINA RESULT:     -11.4      6.531     12.144
REMARK SMILES COc1cc2c(cc1OC)[C@H](C(=O)OCCOCCOC(=O)c1ccc(-c3c4nc(c(-c5ccc(S(=O)(=O)[O-])cc5)c5ccc([nH]5)c(-c5ccc(S(=O)(=O)[O-])cc5)c5nc(c(-c6ccc(S(=O)(=O)[O-])cc6)c6ccc3[nH]6)C=C5)C=C4)cc1)[C@H](c1cccc(Cl)c1)N(C)C2=O
REMARK SMILES IDX 18 1 17 2 16 3 15 4 14 5 12 6 13 7 11 8 3 9 4 10 8 11 5 12
REMARK SMILES IDX 7 13 6 14 93 15 91 16 94 17 83 18 92 19 2 20 1 21 9 22 10 23
REMARK SMILES IDX 84 24 85 25 90 26 86 27 88 28 87 29 89 30 19 31 20 32 21 33
REMARK SMILES IDX 22 34 23 35 24 36 82 37 25 38 81 39 26 40 27 41 28 42 75 43
REMARK SMILES IDX 29 44 80 45 74 46 76 47 30 48 79 49 73 50 72 51 31 53 61 54
REMARK SMILES IDX 42 55 60 56 43 57 46 58 59 59 77 60 44 61 45 62 58 64 78 65
REMARK SMILES IDX 47 66 32 67 33 68 41 69 34 70 40 71 35 72 36 73 37 74 38 75
REMARK SMILES IDX 39 76 62 77 63 78 71 79 64 80 70 81 65 82 66 83 67 84 68 85
REMARK SMILES IDX 69 86 48 87 49 88 57 89 50 90 56 91 51 92 52 93 53 94 54 95
REMARK SMILES IDX 55 96
REMARK H PARENT 76 52 46 63
REMARK Flexibility Score: inf
ROOT
ATOM      1  C   UNL A   1      40.330  22.947  27.412  1.00  0.00     0.202 C 
ENDROOT
BRANCH   1   2
ATOM      2  O   UNL A   1      39.544  22.143  26.534  1.00  0.00    -0.374 OA
BRANCH   2   3
ATOM      3  C   UNL A   1      38.247  22.601  26.166  1.00  0.00     0.202 C 
BRANCH   3   4
ATOM      4  C   UNL A   1      37.881  22.589  24.678  1.00  0.00     0.261 C 
BRANCH   4   5
ATOM      5  O   UNL A   1      36.584  22.037  24.422  1.00  0.00    -0.463 OA
BRANCH   5   6
ATOM      6  C   UNL A   1      35.658  22.936  23.978  1.00  0.00     0.316 C 
ATOM      7  O   UNL A   1      35.599  23.348  22.826  1.00  0.00    -0.251 OA
BRANCH   6   8
ATOM      8  C   UNL A   1      34.768  23.414  25.120  1.00  0.00     0.157 C 
ATOM      9  C   UNL A   1      31.848  26.157  23.534  1.00  0.00     0.161 A 
ATOM     10  C   UNL A   1      31.572  25.425  24.703  1.00  0.00     0.064 A 
ATOM     11  C   UNL A   1      33.130  26.119  22.976  1.00  0.00     0.161 A 
ATOM     12  C   UNL A   1      32.550  24.601  25.273  1.00  0.00     0.048 A 
ATOM     13  C   UNL A   1      34.094  25.299  23.563  1.00  0.00     0.056 A 
ATOM     14  C   UNL A   1      33.788  24.464  24.645  1.00  0.00    -0.015 A 
ATOM     15  C   UNL A   1      32.264  23.863  26.539  1.00  0.00     0.254 C 
ATOM     16  N   UNL A   1      33.100  22.787  26.843  1.00  0.00    -0.333 N 
ATOM     17  O   UNL A   1      31.323  24.208  27.247  1.00  0.00    -0.269 OA
ATOM     18  C   UNL A   1      34.025  22.239  25.828  1.00  0.00     0.134 C 
ATOM     19  C   UNL A   1      32.853  22.025  28.057  1.00  0.00     0.147 C 
BRANCH   9  20
ATOM     20  O   UNL A   1      30.840  26.816  22.886  1.00  0.00    -0.493 OA
ATOM     21  C   UNL A   1      30.373  27.961  23.592  1.00  0.00     0.278 C 
ENDBRANCH   9  20
BRANCH  11  22
ATOM     22  O   UNL A   1      33.627  26.778  21.890  1.00  0.00    -0.493 OA
ATOM     23  C   UNL A   1      33.920  28.159  21.996  1.00  0.00     0.278 C 
ENDBRANCH  11  22
BRANCH  18  24
ATOM     24  C   UNL A   1      33.337  21.202  24.928  1.00  0.00    -0.023 A 
ATOM     25  C   UNL A   1      33.192  19.876  25.381  1.00  0.00     0.006 A 
ATOM     26  C   UNL A   1      32.861  21.497  23.638  1.00  0.00     0.026 A 
ATOM     27  C   UNL A   1      32.692  18.871  24.548  1.00  0.00     0.002 A 
ATOM     28  C   UNL A   1      32.336  20.496  22.817  1.00  0.00     0.041 A 
ATOM     29  C   UNL A   1      32.270  19.180  23.259  1.00  0.00     0.020 A 
ATOM     30  Cl  UNL A   1      31.773  20.896  21.240  1.00  0.00    -0.084 Cl
ENDBRANCH  18  24
ENDBRANCH   6   8
ENDBRANCH   5   6
ENDBRANCH   4   5
ENDBRANCH   3   4
ENDBRANCH   2   3
ENDBRANCH   1   2
BRANCH   1  31
ATOM     31  C   UNL A   1      40.961  24.238  26.886  1.00  0.00     0.261 C 
BRANCH  31  32
ATOM     32  O   UNL A   1      39.997  25.290  26.711  1.00  0.00    -0.460 OA
BRANCH  32  33
ATOM     33  C   UNL A   1      40.533  26.508  26.460  1.00  0.00     0.338 C 
ATOM     34  O   UNL A   1      41.094  26.868  25.434  1.00  0.00    -0.246 OA
BRANCH  33  35
ATOM     35  C   UNL A   1      40.201  27.446  27.541  1.00  0.00     0.060 A 
ATOM     36  C   UNL A   1      40.829  28.699  27.541  1.00  0.00     0.016 A 
ATOM     37  C   UNL A   1      39.395  27.048  28.608  1.00  0.00     0.016 A 
ATOM     38  C   UNL A   1      40.697  29.541  28.641  1.00  0.00     0.010 A 
ATOM     39  C   UNL A   1      39.274  27.890  29.716  1.00  0.00     0.010 A 
ATOM     40  C   UNL A   1      39.957  29.120  29.753  1.00  0.00    -0.014 A 
BRANCH  40  41
ATOM     41  C   UNL A   1      40.034  29.879  31.022  1.00  0.00     0.031 A 
ATOM     42  C   UNL A   1      41.155  29.576  31.977  1.00  0.00     0.074 A 
ATOM     43  C   UNL A   1      39.119  30.818  31.317  1.00  0.00     0.049 A 
ATOM     44  N   UNL A   1      41.367  30.045  33.179  1.00  0.00    -0.248 NA
ATOM     45  C   UNL A   1      42.172  28.615  31.515  1.00  0.00     0.031 C 
ATOM     46  C   UNL A   1      38.020  31.232  30.445  1.00  0.00     0.029 A 
ATOM     47  N   UNL A   1      38.962  31.582  32.446  1.00  0.00    -0.354 N 
ATOM     48  C   UNL A   1      42.530  29.425  33.625  1.00  0.00     0.074 A 
ATOM     49  C   UNL A   1      42.968  28.535  32.572  1.00  0.00     0.031 C 
ATOM     50  C   UNL A   1      37.290  32.166  31.080  1.00  0.00     0.029 A 
ATOM     51  C   UNL A   1      37.847  32.384  32.414  1.00  0.00     0.049 A 
ATOM     52  H   UNL A   1      39.589  31.557  33.204  1.00  0.00     0.167 HD
ATOM     53  C   UNL A   1      43.171  29.581  34.806  1.00  0.00     0.031 A 
ATOM     54  C   UNL A   1      37.319  33.179  33.366  1.00  0.00     0.031 A 
ATOM     55  C   UNL A   1      42.719  30.457  35.854  1.00  0.00     0.049 A 
ATOM     56  C   UNL A   1      38.009  33.283  34.701  1.00  0.00     0.074 A 
ATOM     57  C   UNL A   1      43.298  30.692  37.089  1.00  0.00     0.029 A 
ATOM     58  N   UNL A   1      41.575  31.236  35.791  1.00  0.00    -0.354 N 
ATOM     59  N   UNL A   1      39.111  32.697  35.106  1.00  0.00    -0.248 NA
ATOM     60  C   UNL A   1      37.386  34.156  35.706  1.00  0.00     0.031 C 
ATOM     61  C   UNL A   1      42.476  31.578  37.792  1.00  0.00     0.029 A 
ATOM     62  C   UNL A   1      41.416  31.938  36.974  1.00  0.00     0.049 A 
ATOM     63  H   UNL A   1      40.964  31.284  35.021  1.00  0.00     0.167 HD
ATOM     64  C   UNL A   1      39.330  33.156  36.401  1.00  0.00     0.074 A 
ATOM     65  C   UNL A   1      38.249  34.069  36.710  1.00  0.00     0.031 C 
ATOM     66  C   UNL A   1      40.338  32.852  37.256  1.00  0.00     0.031 A 
BRANCH  53  67
ATOM     67  C   UNL A   1      44.407  28.756  35.042  1.00  0.00    -0.014 A 
ATOM     68  C   UNL A   1      45.683  29.242  34.705  1.00  0.00     0.010 A 
ATOM     69  C   UNL A   1      44.292  27.484  35.631  1.00  0.00     0.010 A 
ATOM     70  C   UNL A   1      46.818  28.454  34.918  1.00  0.00     0.020 A 
ATOM     71  C   UNL A   1      45.426  26.704  35.870  1.00  0.00     0.020 A 
ATOM     72  C   UNL A   1      46.681  27.187  35.494  1.00  0.00     0.054 A 
BRANCH  72  73
ATOM     73  S   UNL A   1      48.170  26.189  35.772  1.00  0.00     0.124 S 
ATOM     74  O   UNL A   1      48.917  27.020  36.713  1.00  0.00    -0.237 OA
ATOM     75  O   UNL A   1      47.629  24.949  36.323  1.00  0.00    -0.237 OA
ATOM     76  O   UNL A   1      48.761  26.070  34.442  1.00  0.00    -0.744 OA
ENDBRANCH  72  73
ENDBRANCH  53  67
BRANCH  54  77
ATOM     77  C   UNL A   1      36.057  33.918  33.098  1.00  0.00    -0.014 A 
ATOM     78  C   UNL A   1      36.087  35.222  32.575  1.00  0.00     0.010 A 
ATOM     79  C   UNL A   1      34.813  33.312  33.353  1.00  0.00     0.010 A 
ATOM     80  C   UNL A   1      34.896  35.911  32.326  1.00  0.00     0.020 A 
ATOM     81  C   UNL A   1      33.621  33.988  33.081  1.00  0.00     0.020 A 
ATOM     82  C   UNL A   1      33.671  35.289  32.579  1.00  0.00     0.054 A 
BRANCH  82  83
ATOM     83  S   UNL A   1      32.137  36.181  32.195  1.00  0.00     0.124 S 
ATOM     84  O   UNL A   1      31.138  35.121  32.293  1.00  0.00    -0.237 OA
ATOM     85  O   UNL A   1      32.090  37.196  33.245  1.00  0.00    -0.237 OA
ATOM     86  O   UNL A   1      32.372  36.699  30.849  1.00  0.00    -0.744 OA
ENDBRANCH  82  83
ENDBRANCH  54  77
BRANCH  66  87
ATOM     87  C   UNL A   1      40.353  33.545  38.591  1.00  0.00    -0.014 A 
ATOM     88  C   UNL A   1      41.041  34.755  38.778  1.00  0.00     0.010 A 
ATOM     89  C   UNL A   1      39.594  33.013  39.651  1.00  0.00     0.010 A 
ATOM     90  C   UNL A   1      40.981  35.416  40.008  1.00  0.00     0.020 A 
ATOM     91  C   UNL A   1      39.514  33.683  40.873  1.00  0.00     0.020 A 
ATOM     92  C   UNL A   1      40.216  34.878  41.047  1.00  0.00     0.054 A 
BRANCH  92  93
ATOM     93  S   UNL A   1      40.098  35.789  42.611  1.00  0.00     0.124 S 
ATOM     94  O   UNL A   1      41.291  36.630  42.564  1.00  0.00    -0.237 OA
ATOM     95  O   UNL A   1      38.826  36.495  42.477  1.00  0.00    -0.237 OA
ATOM     96  O   UNL A   1      40.115  34.738  43.627  1.00  0.00    -0.744 OA
ENDBRANCH  92  93
ENDBRANCH  66  87
ENDBRANCH  40  41
ENDBRANCH  33  35
ENDBRANCH  32  33
ENDBRANCH  31  32
ENDBRANCH   1  31
TORSDOF 20
ENDMDL
