MODEL 1
REMARK VINA RESULT:      -8.7      0.000      0.000
REMARK SMILES O=C(Cc1ccc(=O)n(C(F)F)c1)OCCOCCOC(=O)c1ccc(-c2c3nc(c(-c4ccc(S(=O)(=O)[O-])cc4)c4ccc([nH]4)c(-c4ccc(S(=O)(=O)[O-])cc4)c4nc(c(-c5ccc(S(=O)(=O)[O-])cc5)c5ccc2[nH]5)C=C4)C=C3)cc1
REMARK SMILES IDX 18 1 17 2 16 3 15 4 14 5 2 6 1 7 3 8 4 9 5 10 13 11 6 12
REMARK SMILES IDX 9 13 7 14 8 15 10 16 11 17 12 18 19 19 20 20 21 21 22 22
REMARK SMILES IDX 23 23 24 24 82 25 25 26 81 27 26 28 27 29 28 30 75 31 29 32
REMARK SMILES IDX 80 33 74 34 76 35 30 36 79 37 73 38 72 39 31 41 61 42 42 43
REMARK SMILES IDX 60 44 43 45 46 46 59 47 77 48 44 49 45 50 58 52 78 53 47 54
REMARK SMILES IDX 32 55 33 56 41 57 34 58 40 59 35 60 36 61 37 62 38 63 39 64
REMARK SMILES IDX 62 65 63 66 71 67 64 68 70 69 65 70 66 71 67 72 68 73 69 74
REMARK SMILES IDX 48 75 49 76 57 77 50 78 56 79 51 80 52 81 53 82 54 83 55 84
REMARK H PARENT 76 40 46 51
REMARK Flexibility Score: inf
ROOT
ATOM      1  C   UNL A   1      40.848  19.577  26.364  1.00  0.00     0.202 C 
ENDROOT
BRANCH   1   2
ATOM      2  O   UNL A   1      41.882  19.448  25.377  1.00  0.00    -0.374 OA
BRANCH   2   3
ATOM      3  C   UNL A   1      43.139  18.996  25.872  1.00  0.00     0.202 C 
BRANCH   3   4
ATOM      4  C   UNL A   1      44.317  19.183  24.929  1.00  0.00     0.261 C 
BRANCH   4   5
ATOM      5  O   UNL A   1      45.137  20.324  25.253  1.00  0.00    -0.463 OA
BRANCH   5   6
ATOM      6  C   UNL A   1      44.963  21.588  24.797  1.00  0.00     0.310 C 
ATOM      7  O   UNL A   1      43.944  21.875  24.168  1.00  0.00    -0.252 OA
BRANCH   6   8
ATOM      8  C   UNL A   1      46.033  22.638  25.043  1.00  0.00     0.159 C 
BRANCH   8   9
ATOM      9  C   UNL A   1      45.847  23.453  26.295  1.00  0.00    -0.020 A 
ATOM     10  C   UNL A   1      46.974  24.262  26.720  1.00  0.00     0.011 A 
ATOM     11  C   UNL A   1      44.787  23.331  27.112  1.00  0.00     0.099 A 
ATOM     12  C   UNL A   1      46.989  24.827  27.932  1.00  0.00     0.072 A 
ATOM     13  N   UNL A   1      44.786  23.892  28.376  1.00  0.00    -0.258 N 
ATOM     14  C   UNL A   1      45.839  24.654  28.862  1.00  0.00     0.254 A 
ATOM     15  O   UNL A   1      45.908  25.169  29.972  1.00  0.00    -0.269 OA
BRANCH  13  16
ATOM     16  C   UNL A   1      43.711  23.605  29.295  1.00  0.00     0.451 C 
ATOM     17  F   UNL A   1      42.592  23.252  28.617  1.00  0.00    -0.185 F 
ATOM     18  F   UNL A   1      44.046  22.588  30.123  1.00  0.00    -0.185 F 
ENDBRANCH  13  16
ENDBRANCH   8   9
ENDBRANCH   6   8
ENDBRANCH   5   6
ENDBRANCH   4   5
ENDBRANCH   3   4
ENDBRANCH   2   3
ENDBRANCH   1   2
BRANCH   1  19
ATOM     19  C   UNL A   1      40.780  20.937  27.075  1.00  0.00     0.261 C 
BRANCH  19  20
ATOM     20  O   UNL A   1      40.544  22.000  26.132  1.00  0.00    -0.460 OA
BRANCH  20  21
ATOM     21  C   UNL A   1      39.418  22.733  26.324  1.00  0.00     0.338 C 
ATOM     22  O   UNL A   1      38.270  22.322  26.327  1.00  0.00    -0.246 OA
BRANCH  21  23
ATOM     23  C   UNL A   1      39.815  24.073  26.817  1.00  0.00     0.060 A 
ATOM     24  C   UNL A   1      39.685  24.427  28.162  1.00  0.00     0.016 A 
ATOM     25  C   UNL A   1      40.281  25.007  25.882  1.00  0.00     0.016 A 
ATOM     26  C   UNL A   1      40.050  25.710  28.573  1.00  0.00     0.010 A 
ATOM     27  C   UNL A   1      40.641  26.291  26.293  1.00  0.00     0.010 A 
ATOM     28  C   UNL A   1      40.546  26.644  27.645  1.00  0.00    -0.014 A 
BRANCH  28  29
ATOM     29  C   UNL A   1      41.135  27.918  28.120  1.00  0.00     0.031 A 
ATOM     30  C   UNL A   1      40.296  29.014  28.696  1.00  0.00     0.074 A 
ATOM     31  C   UNL A   1      42.466  28.076  27.988  1.00  0.00     0.049 A 
ATOM     32  N   UNL A   1      40.685  30.146  29.223  1.00  0.00    -0.248 NA
ATOM     33  C   UNL A   1      38.837  28.827  28.676  1.00  0.00     0.031 C 
ATOM     34  C   UNL A   1      43.367  27.075  27.413  1.00  0.00     0.029 A 
ATOM     35  N   UNL A   1      43.291  29.116  28.329  1.00  0.00    -0.354 N 
ATOM     36  C   UNL A   1      39.527  30.805  29.611  1.00  0.00     0.074 A 
ATOM     37  C   UNL A   1      38.415  29.962  29.223  1.00  0.00     0.031 C 
ATOM     38  C   UNL A   1      44.623  27.535  27.472  1.00  0.00     0.029 A 
ATOM     39  C   UNL A   1      44.617  28.874  28.053  1.00  0.00     0.049 A 
ATOM     40  H   UNL A   1      42.967  29.953  28.733  1.00  0.00     0.167 HD
ATOM     41  C   UNL A   1      39.414  31.999  30.241  1.00  0.00     0.031 A 
ATOM     42  C   UNL A   1      45.711  29.637  28.248  1.00  0.00     0.031 A 
ATOM     43  C   UNL A   1      40.538  32.828  30.598  1.00  0.00     0.049 A 
ATOM     44  C   UNL A   1      45.560  30.972  28.916  1.00  0.00     0.074 A 
ATOM     45  C   UNL A   1      40.529  34.020  31.302  1.00  0.00     0.029 A 
ATOM     46  N   UNL A   1      41.861  32.572  30.263  1.00  0.00    -0.354 N 
ATOM     47  N   UNL A   1      44.467  31.535  29.372  1.00  0.00    -0.248 NA
ATOM     48  C   UNL A   1      46.777  31.769  29.109  1.00  0.00     0.031 C 
ATOM     49  C   UNL A   1      41.830  34.526  31.316  1.00  0.00     0.029 A 
ATOM     50  C   UNL A   1      42.669  33.611  30.699  1.00  0.00     0.049 A 
ATOM     51  H   UNL A   1      42.179  31.772  29.786  1.00  0.00     0.167 HD
ATOM     52  C   UNL A   1      44.863  32.748  29.920  1.00  0.00     0.074 A 
ATOM     53  C   UNL A   1      46.300  32.833  29.747  1.00  0.00     0.031 C 
ATOM     54  C   UNL A   1      44.100  33.697  30.512  1.00  0.00     0.031 A 
BRANCH  41  55
ATOM     55  C   UNL A   1      38.035  32.500  30.591  1.00  0.00    -0.014 A 
ATOM     56  C   UNL A   1      37.390  33.420  29.744  1.00  0.00     0.010 A 
ATOM     57  C   UNL A   1      37.428  32.159  31.813  1.00  0.00     0.010 A 
ATOM     58  C   UNL A   1      36.175  34.004  30.117  1.00  0.00     0.020 A 
ATOM     59  C   UNL A   1      36.199  32.719  32.177  1.00  0.00     0.020 A 
ATOM     60  C   UNL A   1      35.590  33.653  31.336  1.00  0.00     0.054 A 
BRANCH  60  61
ATOM     61  S   UNL A   1      34.014  34.419  31.807  1.00  0.00     0.124 S 
ATOM     62  O   UNL A   1      34.441  35.721  32.310  1.00  0.00    -0.237 OA
ATOM     63  O   UNL A   1      33.278  34.439  30.545  1.00  0.00    -0.237 OA
ATOM     64  O   UNL A   1      33.478  33.504  32.813  1.00  0.00    -0.744 OA
ENDBRANCH  60  61
ENDBRANCH  41  55
BRANCH  42  65
ATOM     65  C   UNL A   1      47.033  29.081  27.850  1.00  0.00    -0.014 A 
ATOM     66  C   UNL A   1      47.395  29.022  26.490  1.00  0.00     0.010 A 
ATOM     67  C   UNL A   1      47.843  28.441  28.804  1.00  0.00     0.010 A 
ATOM     68  C   UNL A   1      48.489  28.257  26.082  1.00  0.00     0.020 A 
ATOM     69  C   UNL A   1      48.956  27.698  28.400  1.00  0.00     0.020 A 
ATOM     70  C   UNL A   1      49.246  27.577  27.039  1.00  0.00     0.054 A 
BRANCH  70  71
ATOM     71  S   UNL A   1      50.573  26.476  26.474  1.00  0.00     0.124 S 
ATOM     72  O   UNL A   1      51.741  27.350  26.556  1.00  0.00    -0.237 OA
ATOM     73  O   UNL A   1      50.527  25.393  27.452  1.00  0.00    -0.237 OA
ATOM     74  O   UNL A   1      50.161  26.109  25.121  1.00  0.00    -0.744 OA
ENDBRANCH  70  71
ENDBRANCH  42  65
BRANCH  54  75
ATOM     75  C   UNL A   1      44.771  34.949  31.020  1.00  0.00    -0.014 A 
ATOM     76  C   UNL A   1      45.175  35.024  32.366  1.00  0.00     0.010 A 
ATOM     77  C   UNL A   1      44.825  36.104  30.222  1.00  0.00     0.010 A 
ATOM     78  C   UNL A   1      45.556  36.246  32.925  1.00  0.00     0.020 A 
ATOM     79  C   UNL A   1      45.235  37.324  30.771  1.00  0.00     0.020 A 
ATOM     80  C   UNL A   1      45.563  37.393  32.127  1.00  0.00     0.054 A 
BRANCH  80  81
ATOM     81  S   UNL A   1      45.965  38.986  32.895  1.00  0.00     0.124 S 
ATOM     82  O   UNL A   1      47.120  38.645  33.721  1.00  0.00    -0.237 OA
ATOM     83  O   UNL A   1      46.246  39.837  31.741  1.00  0.00    -0.237 OA
ATOM     84  O   UNL A   1      44.751  39.329  33.632  1.00  0.00    -0.744 OA
ENDBRANCH  80  81
ENDBRANCH  54  75
ENDBRANCH  28  29
ENDBRANCH  21  23
ENDBRANCH  20  21
ENDBRANCH  19  20
ENDBRANCH   1  19
TORSDOF 19
ENDMDL
MODEL 2
REMARK VINA RESULT:      -8.5      5.553     10.427
REMARK SMILES O=C(Cc1ccc(=O)n(C(F)F)c1)OCCOCCOC(=O)c1ccc(-c2c3nc(c(-c4ccc(S(=O)(=O)[O-])cc4)c4ccc([nH]4)c(-c4ccc(S(=O)(=O)[O-])cc4)c4nc(c(-c5ccc(S(=O)(=O)[O-])cc5)c5ccc2[nH]5)C=C4)C=C3)cc1
REMARK SMILES IDX 18 1 17 2 16 3 15 4 14 5 2 6 1 7 3 8 4 9 5 10 13 11 6 12
REMARK SMILES IDX 9 13 7 14 8 15 10 16 11 17 12 18 19 19 20 20 21 21 22 22
REMARK SMILES IDX 23 23 24 24 82 25 25 26 81 27 26 28 27 29 28 30 75 31 29 32
REMARK SMILES IDX 80 33 74 34 76 35 30 36 79 37 73 38 72 39 31 41 61 42 42 43
REMARK SMILES IDX 60 44 43 45 46 46 59 47 77 48 44 49 45 50 58 52 78 53 47 54
REMARK SMILES IDX 32 55 33 56 41 57 34 58 40 59 35 60 36 61 37 62 38 63 39 64
REMARK SMILES IDX 62 65 63 66 71 67 64 68 70 69 65 70 66 71 67 72 68 73 69 74
REMARK SMILES IDX 48 75 49 76 57 77 50 78 56 79 51 80 52 81 53 82 54 83 55 84
REMARK H PARENT 76 40 46 51
REMARK Flexibility Score: inf
ROOT
ATOM      1  C   UNL A   1      40.060  22.321  26.789  1.00  0.00     0.202 C 
ENDROOT
BRANCH   1   2
ATOM      2  O   UNL A   1      39.176  21.494  26.017  1.00  0.00    -0.374 OA
BRANCH   2   3
ATOM      3  C   UNL A   1      38.025  22.155  25.502  1.00  0.00     0.202 C 
BRANCH   3   4
ATOM      4  C   UNL A   1      37.953  23.649  25.775  1.00  0.00     0.261 C 
BRANCH   4   5
ATOM      5  O   UNL A   1      36.612  24.129  26.000  1.00  0.00    -0.463 OA
BRANCH   5   6
ATOM      6  C   UNL A   1      35.481  23.384  25.968  1.00  0.00     0.310 C 
ATOM      7  O   UNL A   1      35.027  22.918  27.013  1.00  0.00    -0.252 OA
BRANCH   6   8
ATOM      8  C   UNL A   1      34.793  23.106  24.642  1.00  0.00     0.159 C 
BRANCH   8   9
ATOM      9  C   UNL A   1      34.092  21.777  24.556  1.00  0.00    -0.020 A 
ATOM     10  C   UNL A   1      32.665  21.774  24.819  1.00  0.00     0.011 A 
ATOM     11  C   UNL A   1      34.735  20.603  24.432  1.00  0.00     0.099 A 
ATOM     12  C   UNL A   1      32.007  20.623  24.999  1.00  0.00     0.072 A 
ATOM     13  N   UNL A   1      34.080  19.401  24.631  1.00  0.00    -0.258 N 
ATOM     14  C   UNL A   1      32.724  19.321  24.913  1.00  0.00     0.254 A 
ATOM     15  O   UNL A   1      32.085  18.294  25.111  1.00  0.00    -0.269 OA
BRANCH  13  16
ATOM     16  C   UNL A   1      34.826  18.166  24.660  1.00  0.00     0.451 C 
ATOM     17  F   UNL A   1      34.585  17.445  23.538  1.00  0.00    -0.185 F 
ATOM     18  F   UNL A   1      36.155  18.410  24.734  1.00  0.00    -0.185 F 
ENDBRANCH  13  16
ENDBRANCH   8   9
ENDBRANCH   6   8
ENDBRANCH   5   6
ENDBRANCH   4   5
ENDBRANCH   3   4
ENDBRANCH   2   3
ENDBRANCH   1   2
BRANCH   1  19
ATOM     19  C   UNL A   1      41.537  22.279  26.368  1.00  0.00     0.261 C 
BRANCH  19  20
ATOM     20  O   UNL A   1      42.306  23.259  27.090  1.00  0.00    -0.460 OA
BRANCH  20  21
ATOM     21  C   UNL A   1      42.414  24.483  26.511  1.00  0.00     0.338 C 
ATOM     22  O   UNL A   1      42.551  24.720  25.323  1.00  0.00    -0.246 OA
BRANCH  21  23
ATOM     23  C   UNL A   1      42.050  25.506  27.519  1.00  0.00     0.060 A 
ATOM     24  C   UNL A   1      40.868  25.419  28.258  1.00  0.00     0.016 A 
ATOM     25  C   UNL A   1      42.905  26.605  27.680  1.00  0.00     0.016 A 
ATOM     26  C   UNL A   1      40.557  26.422  29.179  1.00  0.00     0.010 A 
ATOM     27  C   UNL A   1      42.591  27.609  28.596  1.00  0.00     0.010 A 
ATOM     28  C   UNL A   1      41.425  27.514  29.366  1.00  0.00    -0.014 A 
BRANCH  28  29
ATOM     29  C   UNL A   1      41.203  28.451  30.492  1.00  0.00     0.031 A 
ATOM     30  C   UNL A   1      42.057  28.432  31.720  1.00  0.00     0.074 A 
ATOM     31  C   UNL A   1      40.176  29.315  30.389  1.00  0.00     0.049 A 
ATOM     32  N   UNL A   1      42.028  29.246  32.744  1.00  0.00    -0.248 NA
ATOM     33  C   UNL A   1      43.068  27.369  31.821  1.00  0.00     0.031 C 
ATOM     34  C   UNL A   1      39.268  29.392  29.242  1.00  0.00     0.029 A 
ATOM     35  N   UNL A   1      39.724  30.289  31.242  1.00  0.00    -0.354 N 
ATOM     36  C   UNL A   1      43.020  28.806  33.609  1.00  0.00     0.074 A 
ATOM     37  C   UNL A   1      43.610  27.628  33.006  1.00  0.00     0.031 C 
ATOM     38  C   UNL A   1      38.390  30.382  29.447  1.00  0.00     0.029 A 
ATOM     39  C   UNL A   1      38.646  30.987  30.752  1.00  0.00     0.049 A 
ATOM     40  H   UNL A   1      40.133  30.472  32.118  1.00  0.00     0.167 HD
ATOM     41  C   UNL A   1      43.402  29.348  34.790  1.00  0.00     0.031 A 
ATOM     42  C   UNL A   1      37.940  32.006  31.282  1.00  0.00     0.031 A 
ATOM     43  C   UNL A   1      42.784  30.511  35.377  1.00  0.00     0.049 A 
ATOM     44  C   UNL A   1      38.358  32.569  32.608  1.00  0.00     0.074 A 
ATOM     45  C   UNL A   1      43.147  31.177  36.534  1.00  0.00     0.029 A 
ATOM     46  N   UNL A   1      41.666  31.164  34.874  1.00  0.00    -0.354 N 
ATOM     47  N   UNL A   1      39.366  32.209  33.365  1.00  0.00    -0.248 NA
ATOM     48  C   UNL A   1      37.561  33.678  33.148  1.00  0.00     0.031 C 
ATOM     49  C   UNL A   1      42.201  32.175  36.777  1.00  0.00     0.029 A 
ATOM     50  C   UNL A   1      41.295  32.192  35.727  1.00  0.00     0.049 A 
ATOM     51  H   UNL A   1      41.205  30.932  34.036  1.00  0.00     0.167 HD
ATOM     52  C   UNL A   1      39.336  33.053  34.467  1.00  0.00     0.074 A 
ATOM     53  C   UNL A   1      38.215  33.952  34.273  1.00  0.00     0.031 C 
ATOM     54  C   UNL A   1      40.168  33.077  35.536  1.00  0.00     0.031 A 
BRANCH  41  55
ATOM     55  C   UNL A   1      44.539  28.704  35.544  1.00  0.00    -0.014 A 
ATOM     56  C   UNL A   1      44.264  27.737  36.529  1.00  0.00     0.010 A 
ATOM     57  C   UNL A   1      45.864  29.138  35.368  1.00  0.00     0.010 A 
ATOM     58  C   UNL A   1      45.287  27.230  37.337  1.00  0.00     0.020 A 
ATOM     59  C   UNL A   1      46.895  28.612  36.153  1.00  0.00     0.020 A 
ATOM     60  C   UNL A   1      46.597  27.676  37.146  1.00  0.00     0.054 A 
BRANCH  60  61
ATOM     61  S   UNL A   1      47.914  27.008  38.201  1.00  0.00     0.124 S 
ATOM     62  O   UNL A   1      47.277  26.986  39.514  1.00  0.00    -0.237 OA
ATOM     63  O   UNL A   1      48.174  25.702  37.601  1.00  0.00    -0.237 OA
ATOM     64  O   UNL A   1      48.997  27.978  38.047  1.00  0.00    -0.744 OA
ENDBRANCH  60  61
ENDBRANCH  41  55
BRANCH  42  65
ATOM     65  C   UNL A   1      36.816  32.569  30.486  1.00  0.00    -0.014 A 
ATOM     66  C   UNL A   1      37.020  33.704  29.678  1.00  0.00     0.010 A 
ATOM     67  C   UNL A   1      35.508  32.092  30.681  1.00  0.00     0.010 A 
ATOM     68  C   UNL A   1      35.931  34.406  29.156  1.00  0.00     0.020 A 
ATOM     69  C   UNL A   1      34.417  32.776  30.135  1.00  0.00     0.020 A 
ATOM     70  C   UNL A   1      34.635  33.952  29.413  1.00  0.00     0.054 A 
BRANCH  70  71
ATOM     71  S   UNL A   1      33.235  34.957  28.847  1.00  0.00     0.124 S 
ATOM     72  O   UNL A   1      32.523  35.208  30.097  1.00  0.00    -0.237 OA
ATOM     73  O   UNL A   1      33.895  36.117  28.254  1.00  0.00    -0.237 OA
ATOM     74  O   UNL A   1      32.546  34.083  27.900  1.00  0.00    -0.744 OA
ENDBRANCH  70  71
ENDBRANCH  42  65
BRANCH  54  75
ATOM     75  C   UNL A   1      39.916  34.092  36.623  1.00  0.00    -0.014 A 
ATOM     76  C   UNL A   1      40.663  35.285  36.646  1.00  0.00     0.010 A 
ATOM     77  C   UNL A   1      39.088  33.780  37.714  1.00  0.00     0.010 A 
ATOM     78  C   UNL A   1      40.639  36.115  37.769  1.00  0.00     0.020 A 
ATOM     79  C   UNL A   1      39.039  34.623  38.829  1.00  0.00     0.020 A 
ATOM     80  C   UNL A   1      39.842  35.766  38.863  1.00  0.00     0.054 A 
BRANCH  80  81
ATOM     81  S   UNL A   1      39.901  36.803  40.350  1.00  0.00     0.124 S 
ATOM     82  O   UNL A   1      40.468  38.046  39.834  1.00  0.00    -0.237 OA
ATOM     83  O   UNL A   1      38.497  36.870  40.750  1.00  0.00    -0.237 OA
ATOM     84  O   UNL A   1      40.764  36.053  41.259  1.00  0.00    -0.744 OA
ENDBRANCH  80  81
ENDBRANCH  54  75
ENDBRANCH  28  29
ENDBRANCH  21  23
ENDBRANCH  20  21
ENDBRANCH  19  20
ENDBRANCH   1  19
TORSDOF 19
ENDMDL
MODEL 3
REMARK VINA RESULT:      -8.4      4.812      9.982
REMARK SMILES O=C(Cc1ccc(=O)n(C(F)F)c1)OCCOCCOC(=O)c1ccc(-c2c3nc(c(-c4ccc(S(=O)(=O)[O-])cc4)c4ccc([nH]4)c(-c4ccc(S(=O)(=O)[O-])cc4)c4nc(c(-c5ccc(S(=O)(=O)[O-])cc5)c5ccc2[nH]5)C=C4)C=C3)cc1
REMARK SMILES IDX 18 1 17 2 16 3 15 4 14 5 2 6 1 7 3 8 4 9 5 10 13 11 6 12
REMARK SMILES IDX 9 13 7 14 8 15 10 16 11 17 12 18 19 19 20 20 21 21 22 22
REMARK SMILES IDX 23 23 24 24 82 25 25 26 81 27 26 28 27 29 28 30 75 31 29 32
REMARK SMILES IDX 80 33 74 34 76 35 30 36 79 37 73 38 72 39 31 41 61 42 42 43
REMARK SMILES IDX 60 44 43 45 46 46 59 47 77 48 44 49 45 50 58 52 78 53 47 54
REMARK SMILES IDX 32 55 33 56 41 57 34 58 40 59 35 60 36 61 37 62 38 63 39 64
REMARK SMILES IDX 62 65 63 66 71 67 64 68 70 69 65 70 66 71 67 72 68 73 69 74
REMARK SMILES IDX 48 75 49 76 57 77 50 78 56 79 51 80 52 81 53 82 54 83 55 84
REMARK H PARENT 76 40 46 51
REMARK Flexibility Score: inf
ROOT
ATOM      1  C   UNL A   1      31.814  29.303  25.857  1.00  0.00     0.202 C 
ENDROOT
BRANCH   1   2
ATOM      2  O   UNL A   1      31.075  29.545  24.651  1.00  0.00    -0.374 OA
BRANCH   2   3
ATOM      3  C   UNL A   1      31.491  28.783  23.523  1.00  0.00     0.202 C 
BRANCH   3   4
ATOM      4  C   UNL A   1      30.845  27.413  23.387  1.00  0.00     0.261 C 
BRANCH   4   5
ATOM      5  O   UNL A   1      31.325  26.453  24.350  1.00  0.00    -0.463 OA
BRANCH   5   6
ATOM      6  C   UNL A   1      31.065  25.123  24.349  1.00  0.00     0.310 C 
ATOM      7  O   UNL A   1      30.461  24.619  25.296  1.00  0.00    -0.252 OA
BRANCH   6   8
ATOM      8  C   UNL A   1      31.538  24.258  23.194  1.00  0.00     0.159 C 
BRANCH   8   9
ATOM      9  C   UNL A   1      32.592  23.243  23.550  1.00  0.00    -0.020 A 
ATOM     10  C   UNL A   1      32.236  21.847  23.382  1.00  0.00     0.011 A 
ATOM     11  C   UNL A   1      33.744  23.553  24.171  1.00  0.00     0.099 A 
ATOM     12  C   UNL A   1      33.009  20.881  23.890  1.00  0.00     0.072 A 
ATOM     13  N   UNL A   1      34.550  22.573  24.719  1.00  0.00    -0.258 N 
ATOM     14  C   UNL A   1      34.260  21.220  24.622  1.00  0.00     0.254 A 
ATOM     15  O   UNL A   1      34.923  20.302  25.093  1.00  0.00    -0.269 OA
BRANCH  13  16
ATOM     16  C   UNL A   1      35.690  22.939  25.525  1.00  0.00     0.451 C 
ATOM     17  F   UNL A   1      36.486  23.803  24.849  1.00  0.00    -0.185 F 
ATOM     18  F   UNL A   1      35.294  23.534  26.674  1.00  0.00    -0.185 F 
ENDBRANCH  13  16
ENDBRANCH   8   9
ENDBRANCH   6   8
ENDBRANCH   5   6
ENDBRANCH   4   5
ENDBRANCH   3   4
ENDBRANCH   2   3
ENDBRANCH   1   2
BRANCH   1  19
ATOM     19  C   UNL A   1      32.784  30.420  26.273  1.00  0.00     0.261 C 
BRANCH  19  20
ATOM     20  O   UNL A   1      33.739  29.941  27.238  1.00  0.00    -0.460 OA
BRANCH  20  21
ATOM     21  C   UNL A   1      34.446  30.889  27.904  1.00  0.00     0.338 C 
ATOM     22  O   UNL A   1      34.015  31.931  28.369  1.00  0.00    -0.246 OA
BRANCH  21  23
ATOM     23  C   UNL A   1      35.777  30.327  28.235  1.00  0.00     0.060 A 
ATOM     24  C   UNL A   1      36.828  30.343  27.314  1.00  0.00     0.016 A 
ATOM     25  C   UNL A   1      35.944  29.726  29.490  1.00  0.00     0.016 A 
ATOM     26  C   UNL A   1      38.057  29.778  27.665  1.00  0.00     0.010 A 
ATOM     27  C   UNL A   1      37.171  29.157  29.837  1.00  0.00     0.010 A 
ATOM     28  C   UNL A   1      38.241  29.198  28.934  1.00  0.00    -0.014 A 
BRANCH  28  29
ATOM     29  C   UNL A   1      39.598  28.803  29.377  1.00  0.00     0.031 A 
ATOM     30  C   UNL A   1      40.430  29.679  30.259  1.00  0.00     0.074 A 
ATOM     31  C   UNL A   1      40.081  27.628  28.933  1.00  0.00     0.049 A 
ATOM     32  N   UNL A   1      41.599  29.425  30.789  1.00  0.00    -0.248 NA
ATOM     33  C   UNL A   1      39.894  31.008  30.588  1.00  0.00     0.031 C 
ATOM     34  C   UNL A   1      39.356  26.715  28.046  1.00  0.00     0.029 A 
ATOM     35  N   UNL A   1      41.275  26.995  29.163  1.00  0.00    -0.354 N 
ATOM     36  C   UNL A   1      41.938  30.552  31.524  1.00  0.00     0.074 A 
ATOM     37  C   UNL A   1      40.867  31.510  31.341  1.00  0.00     0.031 C 
ATOM     38  C   UNL A   1      40.105  25.626  27.835  1.00  0.00     0.029 A 
ATOM     39  C   UNL A   1      41.376  25.774  28.538  1.00  0.00     0.049 A 
ATOM     40  H   UNL A   1      41.990  27.377  29.723  1.00  0.00     0.167 HD
ATOM     41  C   UNL A   1      43.040  30.755  32.286  1.00  0.00     0.031 A 
ATOM     42  C   UNL A   1      42.373  24.867  28.532  1.00  0.00     0.031 A 
ATOM     43  C   UNL A   1      44.102  29.791  32.435  1.00  0.00     0.049 A 
ATOM     44  C   UNL A   1      43.600  25.127  29.354  1.00  0.00     0.074 A 
ATOM     45  C   UNL A   1      45.224  29.876  33.241  1.00  0.00     0.029 A 
ATOM     46  N   UNL A   1      44.191  28.586  31.752  1.00  0.00    -0.354 N 
ATOM     47  N   UNL A   1      43.860  26.153  30.128  1.00  0.00    -0.248 NA
ATOM     48  C   UNL A   1      44.661  24.112  29.318  1.00  0.00     0.031 C 
ATOM     49  C   UNL A   1      46.031  28.767  32.981  1.00  0.00     0.029 A 
ATOM     50  C   UNL A   1      45.375  27.943  32.078  1.00  0.00     0.049 A 
ATOM     51  H   UNL A   1      43.514  28.237  31.128  1.00  0.00     0.167 HD
ATOM     52  C   UNL A   1      45.108  25.905  30.684  1.00  0.00     0.074 A 
ATOM     53  C   UNL A   1      45.548  24.625  30.166  1.00  0.00     0.031 C 
ATOM     54  C   UNL A   1      45.816  26.673  31.548  1.00  0.00     0.031 A 
BRANCH  41  55
ATOM     55  C   UNL A   1      43.174  32.064  33.023  1.00  0.00    -0.014 A 
ATOM     56  C   UNL A   1      43.898  33.122  32.443  1.00  0.00     0.010 A 
ATOM     57  C   UNL A   1      42.691  32.209  34.336  1.00  0.00     0.010 A 
ATOM     58  C   UNL A   1      44.155  34.292  33.165  1.00  0.00     0.020 A 
ATOM     59  C   UNL A   1      42.920  33.389  35.051  1.00  0.00     0.020 A 
ATOM     60  C   UNL A   1      43.668  34.415  34.468  1.00  0.00     0.054 A 
BRANCH  60  61
ATOM     61  S   UNL A   1      44.008  35.940  35.392  1.00  0.00     0.124 S 
ATOM     62  O   UNL A   1      42.792  36.099  36.184  1.00  0.00    -0.237 OA
ATOM     63  O   UNL A   1      45.212  35.596  36.145  1.00  0.00    -0.237 OA
ATOM     64  O   UNL A   1      44.206  36.937  34.342  1.00  0.00    -0.744 OA
ENDBRANCH  60  61
ENDBRANCH  41  55
BRANCH  42  65
ATOM     65  C   UNL A   1      42.174  23.613  27.757  1.00  0.00    -0.014 A 
ATOM     66  C   UNL A   1      41.380  22.575  28.282  1.00  0.00     0.010 A 
ATOM     67  C   UNL A   1      42.925  23.378  26.592  1.00  0.00     0.010 A 
ATOM     68  C   UNL A   1      41.412  21.301  27.712  1.00  0.00     0.020 A 
ATOM     69  C   UNL A   1      42.936  22.111  26.001  1.00  0.00     0.020 A 
ATOM     70  C   UNL A   1      42.213  21.071  26.591  1.00  0.00     0.054 A 
BRANCH  70  71
ATOM     71  S   UNL A   1      42.350  19.377  25.954  1.00  0.00     0.124 S 
ATOM     72  O   UNL A   1      40.955  19.052  25.668  1.00  0.00    -0.237 OA
ATOM     73  O   UNL A   1      43.210  19.545  24.787  1.00  0.00    -0.237 OA
ATOM     74  O   UNL A   1      42.947  18.641  27.066  1.00  0.00    -0.744 OA
ENDBRANCH  70  71
ENDBRANCH  42  65
BRANCH  54  75
ATOM     75  C   UNL A   1      47.170  26.187  32.000  1.00  0.00    -0.014 A 
ATOM     76  C   UNL A   1      48.272  26.292  31.131  1.00  0.00     0.010 A 
ATOM     77  C   UNL A   1      47.307  25.461  33.195  1.00  0.00     0.010 A 
ATOM     78  C   UNL A   1      49.466  25.624  31.414  1.00  0.00     0.020 A 
ATOM     79  C   UNL A   1      48.509  24.815  33.497  1.00  0.00     0.020 A 
ATOM     80  C   UNL A   1      49.568  24.871  32.587  1.00  0.00     0.054 A 
BRANCH  80  81
ATOM     81  S   UNL A   1      51.090  23.931  32.889  1.00  0.00     0.124 S 
ATOM     82  O   UNL A   1      52.008  24.512  31.912  1.00  0.00    -0.237 OA
ATOM     83  O   UNL A   1      51.383  24.235  34.287  1.00  0.00    -0.237 OA
ATOM     84  O   UNL A   1      50.697  22.548  32.629  1.00  0.00    -0.744 OA
ENDBRANCH  80  81
ENDBRANCH  54  75
ENDBRANCH  28  29
ENDBRANCH  21  23
ENDBRANCH  20  21
ENDBRANCH  19  20
ENDBRANCH   1  19
TORSDOF 19
ENDMDL
