MODEL 1
REMARK VINA RESULT:     -12.3      0.000      0.000
REMARK SMILES COc1cccc(-c2nn(-c3cc4c(cc3C(N)=O)OCO4)cc2C(=O)OCCOCCOC(=O)c2ccc(-c3c4nc(c(-c5ccc(S(=O)(=O)[O-])cc5)c5ccc([nH]5)c(-c5ccc(S(=O)(=O)[O-])cc5)c5nc(c(-c6ccc(S(=O)(=O)[O-])cc6)c6ccc3[nH]6)C=C5)C=C4)cc2)c1
REMARK SMILES IDX 31 1 30 2 29 3 28 4 27 5 25 6 26 7 24 8 8 9 9 10 10 11 23 12
REMARK SMILES IDX 7 13 3 14 4 15 96 16 5 17 6 18 2 19 1 20 11 21 12 22 16 23
REMARK SMILES IDX 13 24 15 25 14 26 22 27 20 28 21 29 17 30 18 31 19 32 32 35
REMARK SMILES IDX 33 36 34 37 35 38 36 39 37 40 95 41 38 42 94 43 39 44 40 45
REMARK SMILES IDX 41 46 88 47 42 48 93 49 87 50 89 51 43 52 92 53 86 54 85 55
REMARK SMILES IDX 44 57 74 58 55 59 73 60 56 61 59 62 72 63 90 64 57 65 58 66
REMARK SMILES IDX 71 68 91 69 60 70 45 71 46 72 54 73 47 74 53 75 48 76 49 77
REMARK SMILES IDX 50 78 51 79 52 80 75 81 76 82 84 83 77 84 83 85 78 86 79 87
REMARK SMILES IDX 80 88 81 89 82 90 61 91 62 92 70 93 63 94 69 95 64 96 65 97
REMARK SMILES IDX 66 98 67 99 68 100
REMARK H PARENT 18 33 18 34 89 56 59 67
REMARK Flexibility Score: inf
ROOT
ATOM      1  C   UNL A   1      38.120  22.723  26.110  1.00  0.00     0.202 C 
ENDROOT
BRANCH   1   2
ATOM      2  O   UNL A   1      37.705  23.533  25.018  1.00  0.00    -0.374 OA
BRANCH   2   3
ATOM      3  C   UNL A   1      36.324  23.653  24.681  1.00  0.00     0.202 C 
BRANCH   3   4
ATOM      4  C   UNL A   1      35.297  23.807  25.804  1.00  0.00     0.261 C 
BRANCH   4   5
ATOM      5  O   UNL A   1      34.595  22.586  26.075  1.00  0.00    -0.460 OA
BRANCH   5   6
ATOM      6  C   UNL A   1      33.360  22.742  26.641  1.00  0.00     0.342 C 
ATOM      7  O   UNL A   1      33.126  22.649  27.835  1.00  0.00    -0.246 OA
BRANCH   6   8
ATOM      8  C   UNL A   1      32.359  23.127  25.674  1.00  0.00     0.106 A 
ATOM      9  C   UNL A   1      31.900  22.413  24.532  1.00  0.00     0.107 A 
ATOM     10  N   UNL A   1      31.083  23.177  23.782  1.00  0.00    -0.167 NA
ATOM     11  N   UNL A   1      31.207  24.408  24.345  1.00  0.00    -0.239 N 
ATOM     12  C   UNL A   1      31.654  24.310  25.641  1.00  0.00     0.131 A 
BRANCH   9  13
ATOM     13  C   UNL A   1      32.205  21.027  24.200  1.00  0.00     0.007 A 
ATOM     14  C   UNL A   1      32.530  18.728  24.888  1.00  0.00     0.119 A 
ATOM     15  C   UNL A   1      32.502  18.329  23.549  1.00  0.00     0.046 A 
ATOM     16  C   UNL A   1      32.378  20.078  25.214  1.00  0.00     0.056 A 
ATOM     17  C   UNL A   1      32.342  19.269  22.534  1.00  0.00     0.005 A 
ATOM     18  C   UNL A   1      32.219  20.619  22.860  1.00  0.00     0.011 A 
BRANCH  14  19
ATOM     19  O   UNL A   1      32.755  17.718  25.785  1.00  0.00    -0.497 OA
ATOM     20  C   UNL A   1      33.145  16.471  25.223  1.00  0.00     0.278 C 
ENDBRANCH  14  19
ENDBRANCH   9  13
BRANCH  11  21
ATOM     21  C   UNL A   1      30.877  25.599  23.651  1.00  0.00     0.081 A 
ATOM     22  C   UNL A   1      29.617  26.176  23.901  1.00  0.00     0.079 A 
ATOM     23  C   UNL A   1      31.787  26.207  22.729  1.00  0.00     0.069 A 
ATOM     24  C   UNL A   1      29.335  27.380  23.294  1.00  0.00     0.167 A 
ATOM     25  C   UNL A   1      31.501  27.494  22.246  1.00  0.00     0.066 A 
ATOM     26  C   UNL A   1      30.266  28.033  22.523  1.00  0.00     0.166 A 
ATOM     27  O   UNL A   1      28.158  28.059  23.349  1.00  0.00    -0.454 OA
ATOM     28  O   UNL A   1      29.797  29.200  22.006  1.00  0.00    -0.454 OA
ATOM     29  C   UNL A   1      28.408  29.107  22.386  1.00  0.00     0.468 C 
BRANCH  23  30
ATOM     30  C   UNL A   1      32.875  25.418  22.040  1.00  0.00     0.251 C 
ATOM     31  N   UNL A   1      32.548  24.258  21.392  1.00  0.00    -0.366 N 
ATOM     32  O   UNL A   1      34.066  25.690  22.108  1.00  0.00    -0.269 OA
ATOM     33  H   UNL A   1      31.606  23.989  21.308  1.00  0.00     0.159 HD
ATOM     34  H   UNL A   1      33.258  23.692  21.008  1.00  0.00     0.159 HD
ENDBRANCH  23  30
ENDBRANCH  11  21
ENDBRANCH   6   8
ENDBRANCH   5   6
ENDBRANCH   4   5
ENDBRANCH   3   4
ENDBRANCH   2   3
ENDBRANCH   1   2
BRANCH   1  35
ATOM     35  C   UNL A   1      39.529  22.146  26.128  1.00  0.00     0.261 C 
BRANCH  35  36
ATOM     36  O   UNL A   1      40.455  22.988  26.784  1.00  0.00    -0.460 OA
BRANCH  36  37
ATOM     37  C   UNL A   1      41.585  23.175  26.063  1.00  0.00     0.338 C 
ATOM     38  O   UNL A   1      42.226  22.332  25.463  1.00  0.00    -0.246 OA
BRANCH  37  39
ATOM     39  C   UNL A   1      42.023  24.559  26.255  1.00  0.00     0.060 A 
ATOM     40  C   UNL A   1      42.956  24.745  27.274  1.00  0.00     0.016 A 
ATOM     41  C   UNL A   1      41.238  25.602  25.743  1.00  0.00     0.016 A 
ATOM     42  C   UNL A   1      42.884  25.910  27.992  1.00  0.00     0.010 A 
ATOM     43  C   UNL A   1      41.159  26.760  26.469  1.00  0.00     0.010 A 
ATOM     44  C   UNL A   1      41.901  26.840  27.643  1.00  0.00    -0.014 A 
BRANCH  44  45
ATOM     45  C   UNL A   1      41.721  27.977  28.506  1.00  0.00     0.031 A 
ATOM     46  C   UNL A   1      42.854  28.913  28.403  1.00  0.00     0.074 A 
ATOM     47  C   UNL A   1      40.602  28.169  29.225  1.00  0.00     0.049 A 
ATOM     48  N   UNL A   1      43.823  29.054  29.244  1.00  0.00    -0.248 NA
ATOM     49  C   UNL A   1      43.077  29.568  27.103  1.00  0.00     0.031 C 
ATOM     50  C   UNL A   1      39.328  27.448  29.164  1.00  0.00     0.029 A 
ATOM     51  N   UNL A   1      40.339  29.161  30.106  1.00  0.00    -0.354 N 
ATOM     52  C   UNL A   1      44.647  30.014  28.679  1.00  0.00     0.074 A 
ATOM     53  C   UNL A   1      44.294  30.080  27.284  1.00  0.00     0.031 C 
ATOM     54  C   UNL A   1      38.371  28.200  29.759  1.00  0.00     0.029 A 
ATOM     55  C   UNL A   1      38.990  29.381  30.343  1.00  0.00     0.049 A 
ATOM     56  H   UNL A   1      41.047  29.684  30.545  1.00  0.00     0.167 HD
ATOM     57  C   UNL A   1      45.317  30.909  29.453  1.00  0.00     0.031 A 
ATOM     58  C   UNL A   1      38.452  30.515  30.867  1.00  0.00     0.031 A 
ATOM     59  C   UNL A   1      45.347  30.500  30.834  1.00  0.00     0.049 A 
ATOM     60  C   UNL A   1      39.562  31.228  31.568  1.00  0.00     0.074 A 
ATOM     61  C   UNL A   1      45.806  29.376  31.496  1.00  0.00     0.029 A 
ATOM     62  N   UNL A   1      44.449  31.103  31.689  1.00  0.00    -0.354 N 
ATOM     63  N   UNL A   1      40.168  30.737  32.619  1.00  0.00    -0.248 NA
ATOM     64  C   UNL A   1      40.340  32.194  30.802  1.00  0.00     0.031 C 
ATOM     65  C   UNL A   1      44.811  29.099  32.479  1.00  0.00     0.029 A 
ATOM     66  C   UNL A   1      43.851  30.111  32.425  1.00  0.00     0.049 A 
ATOM     67  H   UNL A   1      44.269  32.068  31.757  1.00  0.00     0.167 HD
ATOM     68  C   UNL A   1      41.520  30.989  32.408  1.00  0.00     0.074 A 
ATOM     69  C   UNL A   1      41.557  31.950  31.303  1.00  0.00     0.031 C 
ATOM     70  C   UNL A   1      42.493  30.180  32.928  1.00  0.00     0.031 A 
BRANCH  57  71
ATOM     71  C   UNL A   1      45.535  32.336  29.027  1.00  0.00    -0.014 A 
ATOM     72  C   UNL A   1      44.429  33.202  28.975  1.00  0.00     0.010 A 
ATOM     73  C   UNL A   1      46.731  32.785  28.424  1.00  0.00     0.010 A 
ATOM     74  C   UNL A   1      44.503  34.426  28.298  1.00  0.00     0.020 A 
ATOM     75  C   UNL A   1      46.830  34.021  27.792  1.00  0.00     0.020 A 
ATOM     76  C   UNL A   1      45.702  34.821  27.703  1.00  0.00     0.054 A 
BRANCH  76  77
ATOM     77  S   UNL A   1      45.764  36.357  26.757  1.00  0.00     0.124 S 
ATOM     78  O   UNL A   1      46.527  37.226  27.646  1.00  0.00    -0.237 OA
ATOM     79  O   UNL A   1      46.446  35.937  25.537  1.00  0.00    -0.237 OA
ATOM     80  O   UNL A   1      44.356  36.712  26.587  1.00  0.00    -0.744 OA
ENDBRANCH  76  77
ENDBRANCH  57  71
BRANCH  58  81
ATOM     81  C   UNL A   1      37.207  31.190  30.393  1.00  0.00    -0.014 A 
ATOM     82  C   UNL A   1      36.220  31.653  31.284  1.00  0.00     0.010 A 
ATOM     83  C   UNL A   1      37.105  31.614  29.050  1.00  0.00     0.010 A 
ATOM     84  C   UNL A   1      35.205  32.535  30.857  1.00  0.00     0.020 A 
ATOM     85  C   UNL A   1      36.097  32.483  28.614  1.00  0.00     0.020 A 
ATOM     86  C   UNL A   1      35.161  32.958  29.525  1.00  0.00     0.054 A 
BRANCH  86  87
ATOM     87  S   UNL A   1      33.959  34.222  29.006  1.00  0.00     0.124 S 
ATOM     88  O   UNL A   1      33.154  33.503  28.024  1.00  0.00    -0.237 OA
ATOM     89  O   UNL A   1      33.285  34.554  30.257  1.00  0.00    -0.237 OA
ATOM     90  O   UNL A   1      34.796  35.288  28.456  1.00  0.00    -0.744 OA
ENDBRANCH  86  87
ENDBRANCH  58  81
BRANCH  70  91
ATOM     91  C   UNL A   1      42.109  29.121  33.940  1.00  0.00    -0.014 A 
ATOM     92  C   UNL A   1      41.677  27.822  33.602  1.00  0.00     0.010 A 
ATOM     93  C   UNL A   1      42.384  29.400  35.290  1.00  0.00     0.010 A 
ATOM     94  C   UNL A   1      41.506  26.841  34.594  1.00  0.00     0.020 A 
ATOM     95  C   UNL A   1      42.235  28.424  36.279  1.00  0.00     0.020 A 
ATOM     96  C   UNL A   1      41.787  27.150  35.928  1.00  0.00     0.054 A 
BRANCH  96  97
ATOM     97  S   UNL A   1      41.607  25.873  37.207  1.00  0.00     0.124 S 
ATOM     98  O   UNL A   1      41.821  24.640  36.456  1.00  0.00    -0.237 OA
ATOM     99  O   UNL A   1      42.656  26.219  38.163  1.00  0.00    -0.237 OA
ATOM    100  O   UNL A   1      40.244  26.065  37.702  1.00  0.00    -0.744 OA
ENDBRANCH  96  97
ENDBRANCH  70  91
ENDBRANCH  44  45
ENDBRANCH  37  39
ENDBRANCH  36  37
ENDBRANCH  35  36
ENDBRANCH   1  35
TORSDOF 21
ENDMDL
MODEL 2
REMARK VINA RESULT:     -11.9      1.794      2.294
REMARK SMILES COc1cccc(-c2nn(-c3cc4c(cc3C(N)=O)OCO4)cc2C(=O)OCCOCCOC(=O)c2ccc(-c3c4nc(c(-c5ccc(S(=O)(=O)[O-])cc5)c5ccc([nH]5)c(-c5ccc(S(=O)(=O)[O-])cc5)c5nc(c(-c6ccc(S(=O)(=O)[O-])cc6)c6ccc3[nH]6)C=C5)C=C4)cc2)c1
REMARK SMILES IDX 31 1 30 2 29 3 28 4 27 5 25 6 26 7 24 8 8 9 9 10 10 11 23 12
REMARK SMILES IDX 7 13 3 14 4 15 96 16 5 17 6 18 2 19 1 20 11 21 12 22 16 23
REMARK SMILES IDX 13 24 15 25 14 26 22 27 20 28 21 29 17 30 18 31 19 32 32 35
REMARK SMILES IDX 33 36 34 37 35 38 36 39 37 40 95 41 38 42 94 43 39 44 40 45
REMARK SMILES IDX 41 46 88 47 42 48 93 49 87 50 89 51 43 52 92 53 86 54 85 55
REMARK SMILES IDX 44 57 74 58 55 59 73 60 56 61 59 62 72 63 90 64 57 65 58 66
REMARK SMILES IDX 71 68 91 69 60 70 45 71 46 72 54 73 47 74 53 75 48 76 49 77
REMARK SMILES IDX 50 78 51 79 52 80 75 81 76 82 84 83 77 84 83 85 78 86 79 87
REMARK SMILES IDX 80 88 81 89 82 90 61 91 62 92 70 93 63 94 69 95 64 96 65 97
REMARK SMILES IDX 66 98 67 99 68 100
REMARK H PARENT 18 33 18 34 89 56 59 67
REMARK Flexibility Score: inf
ROOT
ATOM      1  C   UNL A   1      40.577  21.830  27.226  1.00  0.00     0.202 C 
ENDROOT
BRANCH   1   2
ATOM      2  O   UNL A   1      39.501  21.399  26.404  1.00  0.00    -0.374 OA
BRANCH   2   3
ATOM      3  C   UNL A   1      38.578  22.340  25.857  1.00  0.00     0.202 C 
BRANCH   3   4
ATOM      4  C   UNL A   1      37.118  21.925  25.671  1.00  0.00     0.261 C 
BRANCH   4   5
ATOM      5  O   UNL A   1      36.784  21.702  24.294  1.00  0.00    -0.460 OA
BRANCH   5   6
ATOM      6  C   UNL A   1      36.390  22.815  23.606  1.00  0.00     0.342 C 
ATOM      7  O   UNL A   1      36.881  23.193  22.554  1.00  0.00    -0.246 OA
BRANCH   6   8
ATOM      8  C   UNL A   1      35.249  23.460  24.213  1.00  0.00     0.106 A 
ATOM      9  C   UNL A   1      33.887  23.048  24.214  1.00  0.00     0.107 A 
ATOM     10  N   UNL A   1      33.095  24.002  24.738  1.00  0.00    -0.167 NA
ATOM     11  N   UNL A   1      33.933  25.065  24.864  1.00  0.00    -0.239 N 
ATOM     12  C   UNL A   1      35.244  24.652  24.902  1.00  0.00     0.131 A 
BRANCH   9  13
ATOM     13  C   UNL A   1      33.373  21.760  23.763  1.00  0.00     0.007 A 
ATOM     14  C   UNL A   1      32.954  19.410  24.171  1.00  0.00     0.119 A 
ATOM     15  C   UNL A   1      32.141  19.364  23.035  1.00  0.00     0.046 A 
ATOM     16  C   UNL A   1      33.568  20.610  24.537  1.00  0.00     0.056 A 
ATOM     17  C   UNL A   1      31.953  20.501  22.254  1.00  0.00     0.005 A 
ATOM     18  C   UNL A   1      32.589  21.691  22.605  1.00  0.00     0.011 A 
BRANCH  14  19
ATOM     19  O   UNL A   1      33.108  18.213  24.817  1.00  0.00    -0.497 OA
ATOM     20  C   UNL A   1      33.904  17.246  24.142  1.00  0.00     0.278 C 
ENDBRANCH  14  19
ENDBRANCH   9  13
BRANCH  11  21
ATOM     21  C   UNL A   1      33.462  26.398  24.969  1.00  0.00     0.081 A 
ATOM     22  C   UNL A   1      33.166  26.890  26.255  1.00  0.00     0.079 A 
ATOM     23  C   UNL A   1      33.292  27.226  23.815  1.00  0.00     0.069 A 
ATOM     24  C   UNL A   1      32.795  28.212  26.362  1.00  0.00     0.167 A 
ATOM     25  C   UNL A   1      33.042  28.596  23.996  1.00  0.00     0.066 A 
ATOM     26  C   UNL A   1      32.772  29.044  25.269  1.00  0.00     0.166 A 
ATOM     27  O   UNL A   1      32.402  28.855  27.494  1.00  0.00    -0.454 OA
ATOM     28  O   UNL A   1      32.373  30.307  25.577  1.00  0.00    -0.454 OA
ATOM     29  C   UNL A   1      31.967  30.119  26.948  1.00  0.00     0.468 C 
BRANCH  23  30
ATOM     30  C   UNL A   1      33.087  26.646  22.436  1.00  0.00     0.251 C 
ATOM     31  N   UNL A   1      31.883  26.824  21.810  1.00  0.00    -0.366 N 
ATOM     32  O   UNL A   1      33.898  25.927  21.867  1.00  0.00    -0.269 OA
ATOM     33  H   UNL A   1      31.194  27.392  22.222  1.00  0.00     0.159 HD
ATOM     34  H   UNL A   1      31.707  26.383  20.947  1.00  0.00     0.159 HD
ENDBRANCH  23  30
ENDBRANCH  11  21
ENDBRANCH   6   8
ENDBRANCH   5   6
ENDBRANCH   4   5
ENDBRANCH   3   4
ENDBRANCH   2   3
ENDBRANCH   1   2
BRANCH   1  35
ATOM     35  C   UNL A   1      41.853  22.357  26.583  1.00  0.00     0.261 C 
BRANCH  35  36
ATOM     36  O   UNL A   1      41.917  23.768  26.572  1.00  0.00    -0.460 OA
BRANCH  36  37
ATOM     37  C   UNL A   1      42.773  24.241  25.637  1.00  0.00     0.338 C 
ATOM     38  O   UNL A   1      43.363  23.601  24.787  1.00  0.00    -0.246 OA
BRANCH  37  39
ATOM     39  C   UNL A   1      43.015  25.657  25.916  1.00  0.00     0.060 A 
ATOM     40  C   UNL A   1      43.892  25.908  26.971  1.00  0.00     0.016 A 
ATOM     41  C   UNL A   1      42.108  26.614  25.438  1.00  0.00     0.016 A 
ATOM     42  C   UNL A   1      43.646  27.009  27.748  1.00  0.00     0.010 A 
ATOM     43  C   UNL A   1      41.856  27.706  26.222  1.00  0.00     0.010 A 
ATOM     44  C   UNL A   1      42.554  27.818  27.420  1.00  0.00    -0.014 A 
BRANCH  44  45
ATOM     45  C   UNL A   1      42.203  28.870  28.338  1.00  0.00     0.031 A 
ATOM     46  C   UNL A   1      43.236  29.920  28.371  1.00  0.00     0.074 A 
ATOM     47  C   UNL A   1      41.028  28.898  28.989  1.00  0.00     0.049 A 
ATOM     48  N   UNL A   1      44.130  30.100  29.283  1.00  0.00    -0.248 NA
ATOM     49  C   UNL A   1      43.468  30.682  27.132  1.00  0.00     0.031 C 
ATOM     50  C   UNL A   1      39.843  28.058  28.797  1.00  0.00     0.029 A 
ATOM     51  N   UNL A   1      40.608  29.796  29.910  1.00  0.00    -0.354 N 
ATOM     52  C   UNL A   1      44.883  31.175  28.836  1.00  0.00     0.074 A 
ATOM     53  C   UNL A   1      44.611  31.300  27.427  1.00  0.00     0.031 C 
ATOM     54  C   UNL A   1      38.777  28.667  29.371  1.00  0.00     0.029 A 
ATOM     55  C   UNL A   1      39.232  29.861  30.067  1.00  0.00     0.049 A 
ATOM     56  H   UNL A   1      41.229  30.356  30.427  1.00  0.00     0.167 HD
ATOM     57  C   UNL A   1      45.406  32.078  29.707  1.00  0.00     0.031 A 
ATOM     58  C   UNL A   1      38.546  30.897  30.622  1.00  0.00     0.031 A 
ATOM     59  C   UNL A   1      45.393  31.580  31.060  1.00  0.00     0.049 A 
ATOM     60  C   UNL A   1      39.529  31.668  31.440  1.00  0.00     0.074 A 
ATOM     61  C   UNL A   1      45.926  30.466  31.680  1.00  0.00     0.029 A 
ATOM     62  N   UNL A   1      44.386  32.029  31.886  1.00  0.00    -0.354 N 
ATOM     63  N   UNL A   1      40.118  31.171  32.497  1.00  0.00    -0.248 NA
ATOM     64  C   UNL A   1      40.247  32.758  30.790  1.00  0.00     0.031 C 
ATOM     65  C   UNL A   1      44.907  30.023  32.574  1.00  0.00     0.029 A 
ATOM     66  C   UNL A   1      43.851  30.935  32.517  1.00  0.00     0.049 A 
ATOM     67  H   UNL A   1      44.101  32.965  32.002  1.00  0.00     0.167 HD
ATOM     68  C   UNL A   1      41.446  31.572  32.395  1.00  0.00     0.074 A 
ATOM     69  C   UNL A   1      41.450  32.604  31.357  1.00  0.00     0.031 C 
ATOM     70  C   UNL A   1      42.465  30.831  32.929  1.00  0.00     0.031 A 
BRANCH  57  71
ATOM     71  C   UNL A   1      45.498  33.545  29.387  1.00  0.00    -0.014 A 
ATOM     72  C   UNL A   1      46.447  34.328  30.067  1.00  0.00     0.010 A 
ATOM     73  C   UNL A   1      44.514  34.233  28.642  1.00  0.00     0.010 A 
ATOM     74  C   UNL A   1      46.374  35.726  30.051  1.00  0.00     0.020 A 
ATOM     75  C   UNL A   1      44.461  35.623  28.579  1.00  0.00     0.020 A 
ATOM     76  C   UNL A   1      45.374  36.362  29.314  1.00  0.00     0.054 A 
BRANCH  76  77
ATOM     77  S   UNL A   1      45.232  38.161  29.372  1.00  0.00     0.124 S 
ATOM     78  O   UNL A   1      43.866  38.368  28.901  1.00  0.00    -0.237 OA
ATOM     79  O   UNL A   1      45.468  38.441  30.785  1.00  0.00    -0.237 OA
ATOM     80  O   UNL A   1      46.284  38.617  28.467  1.00  0.00    -0.744 OA
ENDBRANCH  76  77
ENDBRANCH  57  71
BRANCH  58  81
ATOM     81  C   UNL A   1      37.269  31.474  30.106  1.00  0.00    -0.014 A 
ATOM     82  C   UNL A   1      36.166  31.721  30.946  1.00  0.00     0.010 A 
ATOM     83  C   UNL A   1      37.220  32.027  28.808  1.00  0.00     0.010 A 
ATOM     84  C   UNL A   1      35.086  32.524  30.519  1.00  0.00     0.020 A 
ATOM     85  C   UNL A   1      36.150  32.818  28.372  1.00  0.00     0.020 A 
ATOM     86  C   UNL A   1      35.096  33.081  29.237  1.00  0.00     0.054 A 
BRANCH  86  87
ATOM     87  S   UNL A   1      33.791  34.249  28.739  1.00  0.00     0.124 S 
ATOM     88  O   UNL A   1      32.995  33.452  27.812  1.00  0.00    -0.237 OA
ATOM     89  O   UNL A   1      33.150  34.572  30.009  1.00  0.00    -0.237 OA
ATOM     90  O   UNL A   1      34.532  35.352  28.126  1.00  0.00    -0.744 OA
ENDBRANCH  86  87
ENDBRANCH  58  81
BRANCH  70  91
ATOM     91  C   UNL A   1      42.133  29.672  33.846  1.00  0.00    -0.014 A 
ATOM     92  C   UNL A   1      41.913  28.351  33.404  1.00  0.00     0.010 A 
ATOM     93  C   UNL A   1      42.240  29.901  35.229  1.00  0.00     0.010 A 
ATOM     94  C   UNL A   1      41.782  27.298  34.326  1.00  0.00     0.020 A 
ATOM     95  C   UNL A   1      42.130  28.856  36.150  1.00  0.00     0.020 A 
ATOM     96  C   UNL A   1      41.893  27.559  35.695  1.00  0.00     0.054 A 
BRANCH  96  97
ATOM     97  S   UNL A   1      41.766  26.194  36.887  1.00  0.00     0.124 S 
ATOM     98  O   UNL A   1      40.427  26.378  37.437  1.00  0.00    -0.237 OA
ATOM     99  O   UNL A   1      41.947  25.012  36.048  1.00  0.00    -0.237 OA
ATOM    100  O   UNL A   1      42.859  26.449  37.825  1.00  0.00    -0.744 OA
ENDBRANCH  96  97
ENDBRANCH  70  91
ENDBRANCH  44  45
ENDBRANCH  37  39
ENDBRANCH  36  37
ENDBRANCH  35  36
ENDBRANCH   1  35
TORSDOF 21
ENDMDL
MODEL 3
REMARK VINA RESULT:     -11.5      2.465      3.381
REMARK SMILES COc1cccc(-c2nn(-c3cc4c(cc3C(N)=O)OCO4)cc2C(=O)OCCOCCOC(=O)c2ccc(-c3c4nc(c(-c5ccc(S(=O)(=O)[O-])cc5)c5ccc([nH]5)c(-c5ccc(S(=O)(=O)[O-])cc5)c5nc(c(-c6ccc(S(=O)(=O)[O-])cc6)c6ccc3[nH]6)C=C5)C=C4)cc2)c1
REMARK SMILES IDX 31 1 30 2 29 3 28 4 27 5 25 6 26 7 24 8 8 9 9 10 10 11 23 12
REMARK SMILES IDX 7 13 3 14 4 15 96 16 5 17 6 18 2 19 1 20 11 21 12 22 16 23
REMARK SMILES IDX 13 24 15 25 14 26 22 27 20 28 21 29 17 30 18 31 19 32 32 35
REMARK SMILES IDX 33 36 34 37 35 38 36 39 37 40 95 41 38 42 94 43 39 44 40 45
REMARK SMILES IDX 41 46 88 47 42 48 93 49 87 50 89 51 43 52 92 53 86 54 85 55
REMARK SMILES IDX 44 57 74 58 55 59 73 60 56 61 59 62 72 63 90 64 57 65 58 66
REMARK SMILES IDX 71 68 91 69 60 70 45 71 46 72 54 73 47 74 53 75 48 76 49 77
REMARK SMILES IDX 50 78 51 79 52 80 75 81 76 82 84 83 77 84 83 85 78 86 79 87
REMARK SMILES IDX 80 88 81 89 82 90 61 91 62 92 70 93 63 94 69 95 64 96 65 97
REMARK SMILES IDX 66 98 67 99 68 100
REMARK H PARENT 18 33 18 34 89 56 59 67
REMARK Flexibility Score: inf
ROOT
ATOM      1  C   UNL A   1      41.220  19.965  26.783  1.00  0.00     0.202 C 
ENDROOT
BRANCH   1   2
ATOM      2  O   UNL A   1      40.001  20.016  26.053  1.00  0.00    -0.374 OA
BRANCH   2   3
ATOM      3  C   UNL A   1      39.174  21.178  26.094  1.00  0.00     0.202 C 
BRANCH   3   4
ATOM      4  C   UNL A   1      37.950  21.250  25.180  1.00  0.00     0.261 C 
BRANCH   4   5
ATOM      5  O   UNL A   1      37.152  22.417  25.425  1.00  0.00    -0.460 OA
BRANCH   5   6
ATOM      6  C   UNL A   1      36.440  22.867  24.349  1.00  0.00     0.342 C 
ATOM      7  O   UNL A   1      36.755  22.689  23.183  1.00  0.00    -0.246 OA
BRANCH   6   8
ATOM      8  C   UNL A   1      35.206  23.508  24.737  1.00  0.00     0.106 A 
ATOM      9  C   UNL A   1      33.868  23.078  24.514  1.00  0.00     0.107 A 
ATOM     10  N   UNL A   1      32.988  24.032  24.873  1.00  0.00    -0.167 NA
ATOM     11  N   UNL A   1      33.782  25.109  25.118  1.00  0.00    -0.239 N 
ATOM     12  C   UNL A   1      35.071  24.714  25.388  1.00  0.00     0.131 A 
BRANCH   9  13
ATOM     13  C   UNL A   1      33.452  21.775  24.010  1.00  0.00     0.007 A 
ATOM     14  C   UNL A   1      33.352  19.367  24.252  1.00  0.00     0.119 A 
ATOM     15  C   UNL A   1      32.419  19.308  23.213  1.00  0.00     0.046 A 
ATOM     16  C   UNL A   1      33.867  20.603  24.654  1.00  0.00     0.056 A 
ATOM     17  C   UNL A   1      32.012  20.468  22.561  1.00  0.00     0.005 A 
ATOM     18  C   UNL A   1      32.548  21.697  22.944  1.00  0.00     0.011 A 
BRANCH  14  19
ATOM     19  O   UNL A   1      33.716  18.153  24.770  1.00  0.00    -0.497 OA
ATOM     20  C   UNL A   1      35.042  17.731  24.475  1.00  0.00     0.278 C 
ENDBRANCH  14  19
ENDBRANCH   9  13
BRANCH  11  21
ATOM     21  C   UNL A   1      33.286  26.437  25.110  1.00  0.00     0.081 A 
ATOM     22  C   UNL A   1      32.954  27.020  26.349  1.00  0.00     0.079 A 
ATOM     23  C   UNL A   1      33.130  27.172  23.894  1.00  0.00     0.069 A 
ATOM     24  C   UNL A   1      32.558  28.339  26.346  1.00  0.00     0.167 A 
ATOM     25  C   UNL A   1      32.852  28.547  23.965  1.00  0.00     0.066 A 
ATOM     26  C   UNL A   1      32.546  29.085  25.193  1.00  0.00     0.166 A 
ATOM     27  O   UNL A   1      32.130  29.058  27.418  1.00  0.00    -0.454 OA
ATOM     28  O   UNL A   1      32.120  30.360  25.395  1.00  0.00    -0.454 OA
ATOM     29  C   UNL A   1      31.686  30.270  26.769  1.00  0.00     0.468 C 
BRANCH  23  30
ATOM     30  C   UNL A   1      32.966  26.485  22.558  1.00  0.00     0.251 C 
ATOM     31  N   UNL A   1      31.874  25.687  22.350  1.00  0.00    -0.366 N 
ATOM     32  O   UNL A   1      33.805  26.508  21.668  1.00  0.00    -0.269 OA
ATOM     33  H   UNL A   1      31.168  25.629  23.032  1.00  0.00     0.159 HD
ATOM     34  H   UNL A   1      31.795  25.169  21.515  1.00  0.00     0.159 HD
ENDBRANCH  23  30
ENDBRANCH  11  21
ENDBRANCH   6   8
ENDBRANCH   5   6
ENDBRANCH   4   5
ENDBRANCH   3   4
ENDBRANCH   2   3
ENDBRANCH   1   2
BRANCH   1  35
ATOM     35  C   UNL A   1      42.538  19.799  26.038  1.00  0.00     0.261 C 
BRANCH  35  36
ATOM     36  O   UNL A   1      42.845  20.908  25.219  1.00  0.00    -0.460 OA
BRANCH  36  37
ATOM     37  C   UNL A   1      44.172  21.020  24.975  1.00  0.00     0.338 C 
ATOM     38  O   UNL A   1      44.967  20.117  24.795  1.00  0.00    -0.246 OA
BRANCH  37  39
ATOM     39  C   UNL A   1      44.546  22.427  25.127  1.00  0.00     0.060 A 
ATOM     40  C   UNL A   1      45.480  22.683  26.130  1.00  0.00     0.016 A 
ATOM     41  C   UNL A   1      43.706  23.419  24.599  1.00  0.00     0.016 A 
ATOM     42  C   UNL A   1      45.360  23.860  26.820  1.00  0.00     0.010 A 
ATOM     43  C   UNL A   1      43.579  24.589  25.297  1.00  0.00     0.010 A 
ATOM     44  C   UNL A   1      44.330  24.734  26.460  1.00  0.00    -0.014 A 
BRANCH  44  45
ATOM     45  C   UNL A   1      44.106  25.883  27.298  1.00  0.00     0.031 A 
ATOM     46  C   UNL A   1      45.127  26.920  27.069  1.00  0.00     0.074 A 
ATOM     47  C   UNL A   1      43.034  25.994  28.100  1.00  0.00     0.049 A 
ATOM     48  N   UNL A   1      46.140  27.191  27.820  1.00  0.00    -0.248 NA
ATOM     49  C   UNL A   1      45.177  27.540  25.733  1.00  0.00     0.031 C 
ATOM     50  C   UNL A   1      41.839  25.149  28.170  1.00  0.00     0.029 A 
ATOM     51  N   UNL A   1      42.744  26.991  28.968  1.00  0.00    -0.354 N 
ATOM     52  C   UNL A   1      46.815  28.203  27.156  1.00  0.00     0.074 A 
ATOM     53  C   UNL A   1      46.346  28.176  25.795  1.00  0.00     0.031 C 
ATOM     54  C   UNL A   1      40.862  25.828  28.819  1.00  0.00     0.029 A 
ATOM     55  C   UNL A   1      41.403  27.086  29.309  1.00  0.00     0.049 A 
ATOM     56  H   UNL A   1      43.428  27.598  29.327  1.00  0.00     0.167 HD
ATOM     57  C   UNL A   1      47.451  29.190  27.842  1.00  0.00     0.031 A 
ATOM     58  C   UNL A   1      40.796  28.184  29.839  1.00  0.00     0.031 A 
ATOM     59  C   UNL A   1      47.633  28.843  29.229  1.00  0.00     0.049 A 
ATOM     60  C   UNL A   1      41.881  29.030  30.420  1.00  0.00     0.074 A 
ATOM     61  C   UNL A   1      48.254  27.798  29.886  1.00  0.00     0.029 A 
ATOM     62  N   UNL A   1      46.750  29.390  30.134  1.00  0.00    -0.354 N 
ATOM     63  N   UNL A   1      42.616  28.645  31.432  1.00  0.00    -0.248 NA
ATOM     64  C   UNL A   1      42.493  30.035  29.560  1.00  0.00     0.031 C 
ATOM     65  C   UNL A   1      47.374  27.466  30.957  1.00  0.00     0.029 A 
ATOM     66  C   UNL A   1      46.316  28.376  30.951  1.00  0.00     0.049 A 
ATOM     67  H   UNL A   1      46.479  30.335  30.186  1.00  0.00     0.167 HD
ATOM     68  C   UNL A   1      43.914  29.019  31.100  1.00  0.00     0.074 A 
ATOM     69  C   UNL A   1      43.765  29.932  29.965  1.00  0.00     0.031 C 
ATOM     70  C   UNL A   1      45.002  28.331  31.563  1.00  0.00     0.031 A 
BRANCH  57  71
ATOM     71  C   UNL A   1      47.489  30.613  27.352  1.00  0.00    -0.014 A 
ATOM     72  C   UNL A   1      48.603  31.408  27.671  1.00  0.00     0.010 A 
ATOM     73  C   UNL A   1      46.358  31.274  26.823  1.00  0.00     0.010 A 
ATOM     74  C   UNL A   1      48.561  32.801  27.525  1.00  0.00     0.020 A 
ATOM     75  C   UNL A   1      46.322  32.652  26.628  1.00  0.00     0.020 A 
ATOM     76  C   UNL A   1      47.416  33.412  27.013  1.00  0.00     0.054 A 
BRANCH  76  77
ATOM     77  S   UNL A   1      47.336  35.213  26.912  1.00  0.00     0.124 S 
ATOM     78  O   UNL A   1      46.894  35.416  25.536  1.00  0.00    -0.237 OA
ATOM     79  O   UNL A   1      46.359  35.534  27.949  1.00  0.00    -0.237 OA
ATOM     80  O   UNL A   1      48.705  35.633  27.202  1.00  0.00    -0.744 OA
ENDBRANCH  76  77
ENDBRANCH  57  71
BRANCH  58  81
ATOM     81  C   UNL A   1      39.456  28.713  29.448  1.00  0.00    -0.014 A 
ATOM     82  C   UNL A   1      38.476  29.049  30.403  1.00  0.00     0.010 A 
ATOM     83  C   UNL A   1      39.225  29.134  28.120  1.00  0.00     0.010 A 
ATOM     84  C   UNL A   1      37.342  29.811  30.049  1.00  0.00     0.020 A 
ATOM     85  C   UNL A   1      38.099  29.883  27.758  1.00  0.00     0.020 A 
ATOM     86  C   UNL A   1      37.171  30.238  28.729  1.00  0.00     0.054 A 
BRANCH  86  87
ATOM     87  S   UNL A   1      35.801  31.357  28.301  1.00  0.00     0.124 S 
ATOM     88  O   UNL A   1      35.018  30.551  27.370  1.00  0.00    -0.237 OA
ATOM     89  O   UNL A   1      35.180  31.611  29.596  1.00  0.00    -0.237 OA
ATOM     90  O   UNL A   1      36.473  32.511  27.704  1.00  0.00    -0.744 OA
ENDBRANCH  86  87
ENDBRANCH  58  81
BRANCH  70  91
ATOM     91  C   UNL A   1      44.810  27.283  32.639  1.00  0.00    -0.014 A 
ATOM     92  C   UNL A   1      44.339  27.560  33.938  1.00  0.00     0.010 A 
ATOM     93  C   UNL A   1      44.932  25.938  32.248  1.00  0.00     0.010 A 
ATOM     94  C   UNL A   1      44.021  26.516  34.825  1.00  0.00     0.020 A 
ATOM     95  C   UNL A   1      44.600  24.896  33.118  1.00  0.00     0.020 A 
ATOM     96  C   UNL A   1      44.154  25.189  34.406  1.00  0.00     0.054 A 
BRANCH  96  97
ATOM     97  S   UNL A   1      43.705  23.838  35.535  1.00  0.00     0.124 S 
ATOM     98  O   UNL A   1      44.277  22.669  34.873  1.00  0.00    -0.237 OA
ATOM     99  O   UNL A   1      44.347  24.232  36.786  1.00  0.00    -0.237 OA
ATOM    100  O   UNL A   1      42.243  23.878  35.561  1.00  0.00    -0.744 OA
ENDBRANCH  96  97
ENDBRANCH  70  91
ENDBRANCH  44  45
ENDBRANCH  37  39
ENDBRANCH  36  37
ENDBRANCH  35  36
ENDBRANCH   1  35
TORSDOF 21
ENDMDL
