MODEL 1
REMARK VINA RESULT:     -10.5      0.000      0.000
REMARK SMILES NS(=O)(=O)c1ccc(-n2nc(C(=O)NCCCC(=O)OCCOCCOC(=O)c3ccc(-c4c5nc(c(-c6ccc(S(=O)(=O)[O-])cc6)c6ccc([nH]6)c(-c6ccc(S(=O)(=O)[O-])cc6)c6nc(c(-c7ccc(S(=O)(=O)[O-])cc7)c7ccc4[nH]7)C=C6)C=C5)cc3)cc2-c2ccccc2)cc1
REMARK SMILES IDX 21 1 20 2 18 3 19 4 17 5 16 6 15 7 14 8 12 9 13 10 11 12
REMARK SMILES IDX 9 13 10 14 90 15 89 16 8 17 5 18 6 19 98 20 7 21 97 22 2 23
REMARK SMILES IDX 3 24 4 25 1 26 91 29 92 30 96 31 93 32 95 33 94 34 22 35
REMARK SMILES IDX 23 36 24 37 25 38 26 39 27 40 28 41 29 42 30 43 88 44 31 45
REMARK SMILES IDX 87 46 32 47 33 48 34 49 81 50 35 51 86 52 80 53 82 54 36 55
REMARK SMILES IDX 85 56 79 57 78 58 37 60 67 61 48 62 66 63 49 64 52 65 65 66
REMARK SMILES IDX 83 67 50 68 51 69 64 71 84 72 53 73 38 74 39 75 47 76 40 77
REMARK SMILES IDX 46 78 41 79 42 80 43 81 44 82 45 83 68 84 69 85 77 86 70 87
REMARK SMILES IDX 76 88 71 89 72 90 73 91 74 92 75 93 54 94 55 95 63 96 56 97
REMARK SMILES IDX 62 98 57 99 58 100 59 101 60 102 61 103
REMARK H PARENT 14 11 1 27 1 28 82 59 52 70
REMARK Flexibility Score: inf
ROOT
ATOM      1  C   UNL A   1      32.920  30.090  25.950  1.00  0.00     0.261 C 
ENDROOT
BRANCH   1   2
ATOM      2  O   UNL A   1      33.908  29.210  25.384  1.00  0.00    -0.463 OA
BRANCH   2   3
ATOM      3  C   UNL A   1      33.551  28.480  24.302  1.00  0.00     0.305 C 
ATOM      4  O   UNL A   1      34.238  28.328  23.301  1.00  0.00    -0.252 OA
BRANCH   3   5
ATOM      5  C   UNL A   1      32.171  27.867  24.454  1.00  0.00     0.124 C 
BRANCH   5   6
ATOM      6  C   UNL A   1      31.128  28.156  23.362  1.00  0.00     0.033 C 
BRANCH   6   7
ATOM      7  C   UNL A   1      30.624  26.943  22.577  1.00  0.00     0.117 C 
BRANCH   7   8
ATOM      8  N   UNL A   1      31.486  26.638  21.454  1.00  0.00    -0.351 N 
ATOM      9  C   UNL A   1      32.507  25.738  21.232  1.00  0.00     0.271 C 
ATOM     10  O   UNL A   1      32.970  25.758  20.087  1.00  0.00    -0.267 OA
ATOM     11  H   UNL A   1      31.301  27.203  20.669  1.00  0.00     0.163 HD
BRANCH   9  12
ATOM     12  C   UNL A   1      32.986  24.794  22.263  1.00  0.00     0.151 A 
ATOM     13  N   UNL A   1      34.439  23.800  23.507  1.00  0.00    -0.232 N 
ATOM     14  N   UNL A   1      34.220  24.939  22.808  1.00  0.00    -0.162 NA
ATOM     15  C   UNL A   1      33.294  23.044  23.601  1.00  0.00     0.075 A 
ATOM     16  C   UNL A   1      32.343  23.680  22.844  1.00  0.00     0.065 A 
BRANCH  13  17
ATOM     17  C   UNL A   1      35.698  23.488  24.083  1.00  0.00     0.065 A 
ATOM     18  C   UNL A   1      37.979  22.623  25.431  1.00  0.00     0.082 A 
ATOM     19  C   UNL A   1      37.647  22.038  24.209  1.00  0.00     0.024 A 
ATOM     20  C   UNL A   1      37.182  23.642  25.975  1.00  0.00     0.024 A 
ATOM     21  C   UNL A   1      36.501  22.469  23.539  1.00  0.00     0.030 A 
ATOM     22  C   UNL A   1      36.052  24.096  25.288  1.00  0.00     0.030 A 
BRANCH  18  23
ATOM     23  S   UNL A   1      39.404  22.093  26.341  1.00  0.00     0.238 S 
ATOM     24  O   UNL A   1      40.574  22.369  25.539  1.00  0.00    -0.207 OA
ATOM     25  O   UNL A   1      39.122  20.772  26.852  1.00  0.00    -0.207 OA
BRANCH  23  26
ATOM     26  N   UNL A   1      39.481  23.123  27.659  1.00  0.00    -0.225 NA
ATOM     27  H   UNL A   1      40.347  23.660  27.621  1.00  0.00     0.137 HD
ATOM     28  H   UNL A   1      39.457  22.576  28.520  1.00  0.00     0.137 HD
ENDBRANCH  23  26
ENDBRANCH  18  23
ENDBRANCH  13  17
BRANCH  15  29
ATOM     29  C   UNL A   1      33.226  21.743  24.212  1.00  0.00     0.000 A 
ATOM     30  C   UNL A   1      32.769  20.606  23.553  1.00  0.00     0.010 A 
ATOM     31  C   UNL A   1      33.533  21.707  25.567  1.00  0.00     0.010 A 
ATOM     32  C   UNL A   1      32.622  19.428  24.272  1.00  0.00     0.001 A 
ATOM     33  C   UNL A   1      33.366  20.547  26.281  1.00  0.00     0.001 A 
ATOM     34  C   UNL A   1      32.910  19.417  25.633  1.00  0.00     0.000 A 
ENDBRANCH  15  29
ENDBRANCH   9  12
ENDBRANCH   7   8
ENDBRANCH   6   7
ENDBRANCH   5   6
ENDBRANCH   3   5
ENDBRANCH   2   3
ENDBRANCH   1   2
BRANCH   1  35
ATOM     35  C   UNL A   1      33.334  30.524  27.355  1.00  0.00     0.202 C 
BRANCH  35  36
ATOM     36  O   UNL A   1      33.202  31.918  27.640  1.00  0.00    -0.374 OA
BRANCH  36  37
ATOM     37  C   UNL A   1      34.358  32.633  28.059  1.00  0.00     0.202 C 
BRANCH  37  38
ATOM     38  C   UNL A   1      34.276  33.355  29.398  1.00  0.00     0.261 C 
BRANCH  38  39
ATOM     39  O   UNL A   1      34.216  32.441  30.487  1.00  0.00    -0.460 OA
BRANCH  39  40
ATOM     40  C   UNL A   1      35.342  32.384  31.251  1.00  0.00     0.338 C 
ATOM     41  O   UNL A   1      35.527  32.909  32.326  1.00  0.00    -0.246 OA
BRANCH  40  42
ATOM     42  C   UNL A   1      36.383  31.704  30.463  1.00  0.00     0.060 A 
ATOM     43  C   UNL A   1      36.401  30.306  30.490  1.00  0.00     0.016 A 
ATOM     44  C   UNL A   1      37.481  32.438  30.028  1.00  0.00     0.016 A 
ATOM     45  C   UNL A   1      37.618  29.658  30.350  1.00  0.00     0.010 A 
ATOM     46  C   UNL A   1      38.685  31.793  29.957  1.00  0.00     0.010 A 
ATOM     47  C   UNL A   1      38.770  30.431  30.215  1.00  0.00    -0.014 A 
BRANCH  47  48
ATOM     48  C   UNL A   1      40.091  29.826  30.153  1.00  0.00     0.031 A 
ATOM     49  C   UNL A   1      40.664  29.691  31.521  1.00  0.00     0.074 A 
ATOM     50  C   UNL A   1      40.598  29.249  29.035  1.00  0.00     0.049 A 
ATOM     51  N   UNL A   1      41.570  30.438  32.055  1.00  0.00    -0.248 NA
ATOM     52  C   UNL A   1      39.980  28.817  32.497  1.00  0.00     0.031 C 
ATOM     53  C   UNL A   1      39.960  29.022  27.733  1.00  0.00     0.029 A 
ATOM     54  N   UNL A   1      41.781  28.592  28.875  1.00  0.00    -0.354 N 
ATOM     55  C   UNL A   1      41.751  29.938  33.338  1.00  0.00     0.074 A 
ATOM     56  C   UNL A   1      40.579  29.163  33.637  1.00  0.00     0.031 C 
ATOM     57  C   UNL A   1      40.666  28.097  27.028  1.00  0.00     0.029 A 
ATOM     58  C   UNL A   1      41.878  27.747  27.757  1.00  0.00     0.049 A 
ATOM     59  H   UNL A   1      42.528  28.705  29.507  1.00  0.00     0.167 HD
ATOM     60  C   UNL A   1      42.977  29.919  33.928  1.00  0.00     0.031 A 
ATOM     61  C   UNL A   1      42.854  26.809  27.536  1.00  0.00     0.031 A 
ATOM     62  C   UNL A   1      43.916  30.730  33.194  1.00  0.00     0.049 A 
ATOM     63  C   UNL A   1      43.961  27.174  28.470  1.00  0.00     0.074 A 
ATOM     64  C   UNL A   1      43.931  32.059  32.813  1.00  0.00     0.029 A 
ATOM     65  N   UNL A   1      44.761  30.072  32.328  1.00  0.00    -0.354 N 
ATOM     66  N   UNL A   1      44.671  28.257  28.329  1.00  0.00    -0.248 NA
ATOM     67  C   UNL A   1      43.955  26.607  29.815  1.00  0.00     0.031 C 
ATOM     68  C   UNL A   1      44.375  32.042  31.459  1.00  0.00     0.029 A 
ATOM     69  C   UNL A   1      44.720  30.732  31.124  1.00  0.00     0.049 A 
ATOM     70  H   UNL A   1      45.298  29.273  32.536  1.00  0.00     0.167 HD
ATOM     71  C   UNL A   1      44.831  28.751  29.615  1.00  0.00     0.074 A 
ATOM     72  C   UNL A   1      44.450  27.645  30.498  1.00  0.00     0.031 C 
ATOM     73  C   UNL A   1      44.933  30.094  29.841  1.00  0.00     0.031 A 
BRANCH  60  74
ATOM     74  C   UNL A   1      43.412  28.849  34.894  1.00  0.00    -0.014 A 
ATOM     75  C   UNL A   1      44.705  28.311  34.774  1.00  0.00     0.010 A 
ATOM     76  C   UNL A   1      42.520  28.182  35.763  1.00  0.00     0.010 A 
ATOM     77  C   UNL A   1      45.071  27.143  35.459  1.00  0.00     0.020 A 
ATOM     78  C   UNL A   1      42.887  27.048  36.486  1.00  0.00     0.020 A 
ATOM     79  C   UNL A   1      44.155  26.519  36.307  1.00  0.00     0.054 A 
BRANCH  79  80
ATOM     80  S   UNL A   1      44.610  24.974  37.127  1.00  0.00     0.124 S 
ATOM     81  O   UNL A   1      44.118  25.197  38.483  1.00  0.00    -0.237 OA
ATOM     82  O   UNL A   1      43.882  23.984  36.340  1.00  0.00    -0.237 OA
ATOM     83  O   UNL A   1      46.065  24.934  36.992  1.00  0.00    -0.744 OA
ENDBRANCH  79  80
ENDBRANCH  60  74
BRANCH  61  84
ATOM     84  C   UNL A   1      42.885  25.481  26.812  1.00  0.00    -0.014 A 
ATOM     85  C   UNL A   1      43.137  25.446  25.417  1.00  0.00     0.010 A 
ATOM     86  C   UNL A   1      43.014  24.254  27.489  1.00  0.00     0.010 A 
ATOM     87  C   UNL A   1      43.691  24.314  24.783  1.00  0.00     0.020 A 
ATOM     88  C   UNL A   1      43.607  23.130  26.874  1.00  0.00     0.020 A 
ATOM     89  C   UNL A   1      43.987  23.181  25.534  1.00  0.00     0.054 A 
BRANCH  89  90
ATOM     90  S   UNL A   1      45.038  21.862  24.836  1.00  0.00     0.124 S 
ATOM     91  O   UNL A   1      46.343  22.161  25.418  1.00  0.00    -0.237 OA
ATOM     92  O   UNL A   1      44.398  20.640  25.316  1.00  0.00    -0.237 OA
ATOM     93  O   UNL A   1      44.929  22.085  23.396  1.00  0.00    -0.744 OA
ENDBRANCH  89  90
ENDBRANCH  61  84
BRANCH  73  94
ATOM     94  C   UNL A   1      45.058  31.018  28.643  1.00  0.00    -0.014 A 
ATOM     95  C   UNL A   1      44.004  31.309  27.748  1.00  0.00     0.010 A 
ATOM     96  C   UNL A   1      46.252  31.746  28.517  1.00  0.00     0.010 A 
ATOM     97  C   UNL A   1      44.158  32.275  26.740  1.00  0.00     0.020 A 
ATOM     98  C   UNL A   1      46.405  32.722  27.530  1.00  0.00     0.020 A 
ATOM     99  C   UNL A   1      45.364  32.973  26.637  1.00  0.00     0.054 A 
BRANCH  99 100
ATOM    100  S   UNL A   1      45.560  34.235  25.346  1.00  0.00     0.124 S 
ATOM    101  O   UNL A   1      44.959  35.413  25.964  1.00  0.00    -0.237 OA
ATOM    102  O   UNL A   1      47.008  34.289  25.163  1.00  0.00    -0.237 OA
ATOM    103  O   UNL A   1      44.819  33.687  24.211  1.00  0.00    -0.744 OA
ENDBRANCH  99 100
ENDBRANCH  73  94
ENDBRANCH  47  48
ENDBRANCH  40  42
ENDBRANCH  39  40
ENDBRANCH  38  39
ENDBRANCH  37  38
ENDBRANCH  36  37
ENDBRANCH  35  36
ENDBRANCH   1  35
TORSDOF 25
ENDMDL
MODEL 2
REMARK VINA RESULT:      -9.8      3.818      9.489
REMARK SMILES NS(=O)(=O)c1ccc(-n2nc(C(=O)NCCCC(=O)OCCOCCOC(=O)c3ccc(-c4c5nc(c(-c6ccc(S(=O)(=O)[O-])cc6)c6ccc([nH]6)c(-c6ccc(S(=O)(=O)[O-])cc6)c6nc(c(-c7ccc(S(=O)(=O)[O-])cc7)c7ccc4[nH]7)C=C6)C=C5)cc3)cc2-c2ccccc2)cc1
REMARK SMILES IDX 21 1 20 2 18 3 19 4 17 5 16 6 15 7 14 8 12 9 13 10 11 12
REMARK SMILES IDX 9 13 10 14 90 15 89 16 8 17 5 18 6 19 98 20 7 21 97 22 2 23
REMARK SMILES IDX 3 24 4 25 1 26 91 29 92 30 96 31 93 32 95 33 94 34 22 35
REMARK SMILES IDX 23 36 24 37 25 38 26 39 27 40 28 41 29 42 30 43 88 44 31 45
REMARK SMILES IDX 87 46 32 47 33 48 34 49 81 50 35 51 86 52 80 53 82 54 36 55
REMARK SMILES IDX 85 56 79 57 78 58 37 60 67 61 48 62 66 63 49 64 52 65 65 66
REMARK SMILES IDX 83 67 50 68 51 69 64 71 84 72 53 73 38 74 39 75 47 76 40 77
REMARK SMILES IDX 46 78 41 79 42 80 43 81 44 82 45 83 68 84 69 85 77 86 70 87
REMARK SMILES IDX 76 88 71 89 72 90 73 91 74 92 75 93 54 94 55 95 63 96 56 97
REMARK SMILES IDX 62 98 57 99 58 100 59 101 60 102 61 103
REMARK H PARENT 14 11 1 27 1 28 82 59 52 70
REMARK Flexibility Score: inf
ROOT
ATOM      1  C   UNL A   1      43.091  23.350  25.032  1.00  0.00     0.261 C 
ENDROOT
BRANCH   1   2
ATOM      2  O   UNL A   1      42.852  22.006  25.487  1.00  0.00    -0.463 OA
BRANCH   2   3
ATOM      3  C   UNL A   1      42.818  21.794  26.823  1.00  0.00     0.305 C 
ATOM      4  O   UNL A   1      43.332  22.523  27.662  1.00  0.00    -0.252 OA
BRANCH   3   5
ATOM      5  C   UNL A   1      42.075  20.522  27.183  1.00  0.00     0.124 C 
BRANCH   5   6
ATOM      6  C   UNL A   1      41.131  19.914  26.133  1.00  0.00     0.033 C 
BRANCH   6   7
ATOM      7  C   UNL A   1      39.767  20.591  25.983  1.00  0.00     0.117 C 
BRANCH   7   8
ATOM      8  N   UNL A   1      39.792  21.956  26.466  1.00  0.00    -0.351 N 
ATOM      9  C   UNL A   1      38.892  23.001  26.470  1.00  0.00     0.271 C 
ATOM     10  O   UNL A   1      39.290  24.021  27.042  1.00  0.00    -0.267 OA
ATOM     11  H   UNL A   1      40.650  22.193  26.888  1.00  0.00     0.163 HD
BRANCH   9  12
ATOM     12  C   UNL A   1      37.542  22.901  25.876  1.00  0.00     0.151 A 
ATOM     13  N   UNL A   1      35.568  23.579  25.335  1.00  0.00    -0.232 N 
ATOM     14  N   UNL A   1      36.815  24.020  25.631  1.00  0.00    -0.162 NA
ATOM     15  C   UNL A   1      35.548  22.213  25.170  1.00  0.00     0.075 A 
ATOM     16  C   UNL A   1      36.808  21.764  25.475  1.00  0.00     0.065 A 
BRANCH  13  17
ATOM     17  C   UNL A   1      34.464  24.458  25.188  1.00  0.00     0.065 A 
ATOM     18  C   UNL A   1      32.118  25.888  24.724  1.00  0.00     0.082 A 
ATOM     19  C   UNL A   1      32.289  25.239  25.947  1.00  0.00     0.024 A 
ATOM     20  C   UNL A   1      33.116  25.832  23.739  1.00  0.00     0.024 A 
ATOM     21  C   UNL A   1      33.462  24.519  26.174  1.00  0.00     0.030 A 
ATOM     22  C   UNL A   1      34.306  25.137  23.980  1.00  0.00     0.030 A 
BRANCH  18  23
ATOM     23  S   UNL A   1      30.635  26.791  24.367  1.00  0.00     0.238 S 
ATOM     24  O   UNL A   1      30.420  26.748  22.939  1.00  0.00    -0.207 OA
ATOM     25  O   UNL A   1      30.703  28.037  25.093  1.00  0.00    -0.207 OA
BRANCH  23  26
ATOM     26  N   UNL A   1      29.405  25.887  25.057  1.00  0.00    -0.225 NA
ATOM     27  H   UNL A   1      29.652  25.654  26.018  1.00  0.00     0.137 HD
ATOM     28  H   UNL A   1      29.272  25.029  24.521  1.00  0.00     0.137 HD
ENDBRANCH  23  26
ENDBRANCH  18  23
ENDBRANCH  13  17
BRANCH  15  29
ATOM     29  C   UNL A   1      34.358  21.441  24.931  1.00  0.00     0.000 A 
ATOM     30  C   UNL A   1      33.951  20.384  25.738  1.00  0.00     0.010 A 
ATOM     31  C   UNL A   1      33.687  21.737  23.750  1.00  0.00     0.010 A 
ATOM     32  C   UNL A   1      32.859  19.622  25.345  1.00  0.00     0.001 A 
ATOM     33  C   UNL A   1      32.621  20.969  23.352  1.00  0.00     0.001 A 
ATOM     34  C   UNL A   1      32.215  19.916  24.149  1.00  0.00     0.000 A 
ENDBRANCH  15  29
ENDBRANCH   9  12
ENDBRANCH   7   8
ENDBRANCH   6   7
ENDBRANCH   5   6
ENDBRANCH   3   5
ENDBRANCH   2   3
ENDBRANCH   1   2
BRANCH   1  35
ATOM     35  C   UNL A   1      44.560  23.531  24.651  1.00  0.00     0.202 C 
BRANCH  35  36
ATOM     36  O   UNL A   1      45.283  24.505  25.405  1.00  0.00    -0.374 OA
BRANCH  36  37
ATOM     37  C   UNL A   1      44.652  25.750  25.681  1.00  0.00     0.202 C 
BRANCH  37  38
ATOM     38  C   UNL A   1      45.378  27.008  25.224  1.00  0.00     0.261 C 
BRANCH  38  39
ATOM     39  O   UNL A   1      44.662  28.187  25.574  1.00  0.00    -0.460 OA
BRANCH  39  40
ATOM     40  C   UNL A   1      45.419  29.179  26.118  1.00  0.00     0.338 C 
ATOM     41  O   UNL A   1      46.626  29.267  26.115  1.00  0.00    -0.246 OA
BRANCH  40  42
ATOM     42  C   UNL A   1      44.518  30.064  26.876  1.00  0.00     0.060 A 
ATOM     43  C   UNL A   1      45.100  31.108  27.602  1.00  0.00     0.016 A 
ATOM     44  C   UNL A   1      43.218  29.639  27.128  1.00  0.00     0.016 A 
ATOM     45  C   UNL A   1      44.478  31.532  28.765  1.00  0.00     0.010 A 
ATOM     46  C   UNL A   1      42.646  30.019  28.310  1.00  0.00     0.010 A 
ATOM     47  C   UNL A   1      43.313  30.881  29.170  1.00  0.00    -0.014 A 
BRANCH  47  48
ATOM     48  C   UNL A   1      42.653  31.209  30.424  1.00  0.00     0.031 A 
ATOM     49  C   UNL A   1      42.672  30.037  31.342  1.00  0.00     0.074 A 
ATOM     50  C   UNL A   1      42.306  32.472  30.778  1.00  0.00     0.049 A 
ATOM     51  N   UNL A   1      41.687  29.243  31.600  1.00  0.00    -0.248 NA
ATOM     52  C   UNL A   1      43.974  29.522  31.816  1.00  0.00     0.031 C 
ATOM     53  C   UNL A   1      42.569  33.738  30.086  1.00  0.00     0.029 A 
ATOM     54  N   UNL A   1      41.754  32.910  31.944  1.00  0.00    -0.354 N 
ATOM     55  C   UNL A   1      42.197  28.300  32.484  1.00  0.00     0.074 A 
ATOM     56  C   UNL A   1      43.625  28.351  32.347  1.00  0.00     0.031 C 
ATOM     57  C   UNL A   1      42.390  34.779  30.944  1.00  0.00     0.029 A 
ATOM     58  C   UNL A   1      41.877  34.283  32.214  1.00  0.00     0.049 A 
ATOM     59  H   UNL A   1      41.293  32.298  32.563  1.00  0.00     0.167 HD
ATOM     60  C   UNL A   1      41.438  27.788  33.491  1.00  0.00     0.031 A 
ATOM     61  C   UNL A   1      41.632  34.895  33.417  1.00  0.00     0.031 A 
ATOM     62  C   UNL A   1      40.046  28.113  33.306  1.00  0.00     0.049 A 
ATOM     63  C   UNL A   1      40.831  33.905  34.199  1.00  0.00     0.074 A 
ATOM     64  C   UNL A   1      39.144  27.888  32.283  1.00  0.00     0.029 A 
ATOM     65  N   UNL A   1      39.559  29.186  34.020  1.00  0.00    -0.354 N 
ATOM     66  N   UNL A   1      39.612  33.576  33.876  1.00  0.00    -0.248 NA
ATOM     67  C   UNL A   1      41.538  32.933  35.027  1.00  0.00     0.031 C 
ATOM     68  C   UNL A   1      38.448  29.123  32.137  1.00  0.00     0.029 A 
ATOM     69  C   UNL A   1      38.872  29.990  33.144  1.00  0.00     0.049 A 
ATOM     70  H   UNL A   1      39.681  29.346  34.984  1.00  0.00     0.167 HD
ATOM     71  C   UNL A   1      39.549  32.204  34.069  1.00  0.00     0.074 A 
ATOM     72  C   UNL A   1      40.734  31.876  34.867  1.00  0.00     0.031 C 
ATOM     73  C   UNL A   1      38.738  31.425  33.294  1.00  0.00     0.031 A 
BRANCH  60  74
ATOM     74  C   UNL A   1      42.006  27.378  34.824  1.00  0.00    -0.014 A 
ATOM     75  C   UNL A   1      42.748  28.317  35.563  1.00  0.00     0.010 A 
ATOM     76  C   UNL A   1      42.043  26.039  35.271  1.00  0.00     0.010 A 
ATOM     77  C   UNL A   1      43.517  27.925  36.668  1.00  0.00     0.020 A 
ATOM     78  C   UNL A   1      42.766  25.645  36.396  1.00  0.00     0.020 A 
ATOM     79  C   UNL A   1      43.522  26.589  37.072  1.00  0.00     0.054 A 
BRANCH  79  80
ATOM     80  S   UNL A   1      44.575  26.080  38.451  1.00  0.00     0.124 S 
ATOM     81  O   UNL A   1      44.580  24.628  38.305  1.00  0.00    -0.237 OA
ATOM     82  O   UNL A   1      45.830  26.757  38.143  1.00  0.00    -0.237 OA
ATOM     83  O   UNL A   1      43.864  26.585  39.625  1.00  0.00    -0.744 OA
ENDBRANCH  79  80
ENDBRANCH  60  74
BRANCH  61  84
ATOM     84  C   UNL A   1      42.198  36.118  34.104  1.00  0.00    -0.014 A 
ATOM     85  C   UNL A   1      42.126  36.228  35.516  1.00  0.00     0.010 A 
ATOM     86  C   UNL A   1      43.092  36.997  33.466  1.00  0.00     0.010 A 
ATOM     87  C   UNL A   1      43.041  37.008  36.255  1.00  0.00     0.020 A 
ATOM     88  C   UNL A   1      44.038  37.748  34.197  1.00  0.00     0.020 A 
ATOM     89  C   UNL A   1      44.038  37.712  35.589  1.00  0.00     0.054 A 
BRANCH  89  90
ATOM     90  S   UNL A   1      45.447  38.410  36.517  1.00  0.00     0.124 S 
ATOM     91  O   UNL A   1      45.169  39.842  36.478  1.00  0.00    -0.237 OA
ATOM     92  O   UNL A   1      45.326  37.779  37.828  1.00  0.00    -0.237 OA
ATOM     93  O   UNL A   1      46.602  37.975  35.733  1.00  0.00    -0.744 OA
ENDBRANCH  89  90
ENDBRANCH  61  84
BRANCH  73  94
ATOM     94  C   UNL A   1      37.769  32.112  32.349  1.00  0.00    -0.014 A 
ATOM     95  C   UNL A   1      38.131  32.660  31.097  1.00  0.00     0.010 A 
ATOM     96  C   UNL A   1      36.405  32.055  32.675  1.00  0.00     0.010 A 
ATOM     97  C   UNL A   1      37.156  33.163  30.220  1.00  0.00     0.020 A 
ATOM     98  C   UNL A   1      35.430  32.535  31.799  1.00  0.00     0.020 A 
ATOM     99  C   UNL A   1      35.808  33.100  30.581  1.00  0.00     0.054 A 
BRANCH  99 100
ATOM    100  S   UNL A   1      34.545  33.733  29.442  1.00  0.00     0.124 S 
ATOM    101  O   UNL A   1      33.593  34.367  30.350  1.00  0.00    -0.237 OA
ATOM    102  O   UNL A   1      35.303  34.642  28.588  1.00  0.00    -0.237 OA
ATOM    103  O   UNL A   1      34.051  32.531  28.771  1.00  0.00    -0.744 OA
ENDBRANCH  99 100
ENDBRANCH  73  94
ENDBRANCH  47  48
ENDBRANCH  40  42
ENDBRANCH  39  40
ENDBRANCH  38  39
ENDBRANCH  37  38
ENDBRANCH  36  37
ENDBRANCH  35  36
ENDBRANCH   1  35
TORSDOF 25
ENDMDL
MODEL 3
REMARK VINA RESULT:      -9.5      3.188      5.331
REMARK SMILES NS(=O)(=O)c1ccc(-n2nc(C(=O)NCCCC(=O)OCCOCCOC(=O)c3ccc(-c4c5nc(c(-c6ccc(S(=O)(=O)[O-])cc6)c6ccc([nH]6)c(-c6ccc(S(=O)(=O)[O-])cc6)c6nc(c(-c7ccc(S(=O)(=O)[O-])cc7)c7ccc4[nH]7)C=C6)C=C5)cc3)cc2-c2ccccc2)cc1
REMARK SMILES IDX 21 1 20 2 18 3 19 4 17 5 16 6 15 7 14 8 12 9 13 10 11 12
REMARK SMILES IDX 9 13 10 14 90 15 89 16 8 17 5 18 6 19 98 20 7 21 97 22 2 23
REMARK SMILES IDX 3 24 4 25 1 26 91 29 92 30 96 31 93 32 95 33 94 34 22 35
REMARK SMILES IDX 23 36 24 37 25 38 26 39 27 40 28 41 29 42 30 43 88 44 31 45
REMARK SMILES IDX 87 46 32 47 33 48 34 49 81 50 35 51 86 52 80 53 82 54 36 55
REMARK SMILES IDX 85 56 79 57 78 58 37 60 67 61 48 62 66 63 49 64 52 65 65 66
REMARK SMILES IDX 83 67 50 68 51 69 64 71 84 72 53 73 38 74 39 75 47 76 40 77
REMARK SMILES IDX 46 78 41 79 42 80 43 81 44 82 45 83 68 84 69 85 77 86 70 87
REMARK SMILES IDX 76 88 71 89 72 90 73 91 74 92 75 93 54 94 55 95 63 96 56 97
REMARK SMILES IDX 62 98 57 99 58 100 59 101 60 102 61 103
REMARK H PARENT 14 11 1 27 1 28 82 59 52 70
REMARK Flexibility Score: inf
ROOT
ATOM      1  C   UNL A   1      38.261  30.035  28.221  1.00  0.00     0.261 C 
ENDROOT
BRANCH   1   2
ATOM      2  O   UNL A   1      39.206  29.085  27.696  1.00  0.00    -0.463 OA
BRANCH   2   3
ATOM      3  C   UNL A   1      39.327  27.901  28.338  1.00  0.00     0.305 C 
ATOM      4  O   UNL A   1      38.989  27.693  29.497  1.00  0.00    -0.252 OA
BRANCH   3   5
ATOM      5  C   UNL A   1      39.957  26.834  27.462  1.00  0.00     0.124 C 
BRANCH   5   6
ATOM      6  C   UNL A   1      40.041  25.402  28.014  1.00  0.00     0.033 C 
BRANCH   6   7
ATOM      7  C   UNL A   1      38.903  24.460  27.615  1.00  0.00     0.117 C 
BRANCH   7   8
ATOM      8  N   UNL A   1      39.405  23.189  27.132  1.00  0.00    -0.351 N 
ATOM      9  C   UNL A   1      38.899  22.189  26.330  1.00  0.00     0.271 C 
ATOM     10  O   UNL A   1      39.684  21.261  26.108  1.00  0.00    -0.267 OA
ATOM     11  H   UNL A   1      40.316  22.997  27.451  1.00  0.00     0.163 HD
BRANCH   9  12
ATOM     12  C   UNL A   1      37.542  22.234  25.746  1.00  0.00     0.151 A 
ATOM     13  N   UNL A   1      35.550  23.000  25.436  1.00  0.00    -0.232 N 
ATOM     14  N   UNL A   1      36.795  23.363  25.831  1.00  0.00    -0.162 NA
ATOM     15  C   UNL A   1      35.549  21.734  24.895  1.00  0.00     0.075 A 
ATOM     16  C   UNL A   1      36.820  21.242  25.049  1.00  0.00     0.065 A 
BRANCH  13  17
ATOM     17  C   UNL A   1      34.430  23.863  25.552  1.00  0.00     0.065 A 
ATOM     18  C   UNL A   1      32.083  25.363  25.483  1.00  0.00     0.082 A 
ATOM     19  C   UNL A   1      32.165  24.267  26.341  1.00  0.00     0.024 A 
ATOM     20  C   UNL A   1      33.170  25.716  24.668  1.00  0.00     0.024 A 
ATOM     21  C   UNL A   1      33.340  23.514  26.369  1.00  0.00     0.030 A 
ATOM     22  C   UNL A   1      34.358  24.981  24.721  1.00  0.00     0.030 A 
BRANCH  18  23
ATOM     23  S   UNL A   1      30.605  26.336  25.381  1.00  0.00     0.238 S 
ATOM     24  O   UNL A   1      29.924  25.984  24.155  1.00  0.00    -0.207 OA
ATOM     25  O   UNL A   1      30.964  27.700  25.692  1.00  0.00    -0.207 OA
BRANCH  23  26
ATOM     26  N   UNL A   1      29.639  25.784  26.632  1.00  0.00    -0.225 NA
ATOM     27  H   UNL A   1      28.669  25.751  26.323  1.00  0.00     0.137 HD
ATOM     28  H   UNL A   1      29.722  26.416  27.429  1.00  0.00     0.137 HD
ENDBRANCH  23  26
ENDBRANCH  18  23
ENDBRANCH  13  17
BRANCH  15  29
ATOM     29  C   UNL A   1      34.367  21.038  24.461  1.00  0.00     0.000 A 
ATOM     30  C   UNL A   1      34.074  19.724  24.813  1.00  0.00     0.010 A 
ATOM     31  C   UNL A   1      33.576  21.725  23.547  1.00  0.00     0.010 A 
ATOM     32  C   UNL A   1      32.975  19.104  24.235  1.00  0.00     0.001 A 
ATOM     33  C   UNL A   1      32.502  21.103  22.961  1.00  0.00     0.001 A 
ATOM     34  C   UNL A   1      32.210  19.797  23.304  1.00  0.00     0.000 A 
ENDBRANCH  15  29
ENDBRANCH   9  12
ENDBRANCH   7   8
ENDBRANCH   6   7
ENDBRANCH   5   6
ENDBRANCH   3   5
ENDBRANCH   2   3
ENDBRANCH   1   2
BRANCH   1  35
ATOM     35  C   UNL A   1      36.941  29.344  28.557  1.00  0.00     0.202 C 
BRANCH  35  36
ATOM     36  O   UNL A   1      36.359  29.690  29.816  1.00  0.00    -0.374 OA
BRANCH  36  37
ATOM     37  C   UNL A   1      36.136  31.067  30.100  1.00  0.00     0.202 C 
BRANCH  37  38
ATOM     38  C   UNL A   1      36.882  31.655  31.290  1.00  0.00     0.261 C 
BRANCH  38  39
ATOM     39  O   UNL A   1      36.818  30.803  32.427  1.00  0.00    -0.460 OA
BRANCH  39  40
ATOM     40  C   UNL A   1      37.544  31.221  33.501  1.00  0.00     0.338 C 
ATOM     41  O   UNL A   1      37.486  32.297  34.051  1.00  0.00    -0.246 OA
BRANCH  40  42
ATOM     42  C   UNL A   1      38.555  30.189  33.785  1.00  0.00     0.060 A 
ATOM     43  C   UNL A   1      39.685  30.577  34.513  1.00  0.00     0.016 A 
ATOM     44  C   UNL A   1      38.532  29.009  33.050  1.00  0.00     0.016 A 
ATOM     45  C   UNL A   1      40.882  29.923  34.272  1.00  0.00     0.010 A 
ATOM     46  C   UNL A   1      39.731  28.414  32.773  1.00  0.00     0.010 A 
ATOM     47  C   UNL A   1      40.910  28.926  33.298  1.00  0.00    -0.014 A 
BRANCH  47  48
ATOM     48  C   UNL A   1      42.147  28.257  32.928  1.00  0.00     0.031 A 
ATOM     49  C   UNL A   1      42.563  27.307  33.997  1.00  0.00     0.074 A 
ATOM     50  C   UNL A   1      42.686  28.316  31.684  1.00  0.00     0.049 A 
ATOM     51  N   UNL A   1      43.498  27.487  34.868  1.00  0.00    -0.248 NA
ATOM     52  C   UNL A   1      41.686  26.160  34.313  1.00  0.00     0.031 C 
ATOM     53  C   UNL A   1      42.154  28.942  30.468  1.00  0.00     0.029 A 
ATOM     54  N   UNL A   1      43.790  27.680  31.201  1.00  0.00    -0.354 N 
ATOM     55  C   UNL A   1      43.490  26.344  35.658  1.00  0.00     0.074 A 
ATOM     56  C   UNL A   1      42.209  25.727  35.460  1.00  0.00     0.031 C 
ATOM     57  C   UNL A   1      42.807  28.458  29.377  1.00  0.00     0.029 A 
ATOM     58  C   UNL A   1      43.890  27.582  29.803  1.00  0.00     0.049 A 
ATOM     59  H   UNL A   1      44.480  27.310  31.799  1.00  0.00     0.167 HD
ATOM     60  C   UNL A   1      44.642  25.815  36.153  1.00  0.00     0.031 A 
ATOM     61  C   UNL A   1      44.762  26.781  29.110  1.00  0.00     0.031 A 
ATOM     62  C   UNL A   1      45.739  26.738  36.007  1.00  0.00     0.049 A 
ATOM     63  C   UNL A   1      45.808  26.396  30.104  1.00  0.00     0.074 A 
ATOM     64  C   UNL A   1      45.954  28.037  36.429  1.00  0.00     0.029 A 
ATOM     65  N   UNL A   1      46.578  26.539  34.932  1.00  0.00    -0.354 N 
ATOM     66  N   UNL A   1      46.656  27.253  30.598  1.00  0.00    -0.248 NA
ATOM     67  C   UNL A   1      45.602  25.194  30.906  1.00  0.00     0.031 C 
ATOM     68  C   UNL A   1      46.523  28.695  35.301  1.00  0.00     0.029 A 
ATOM     69  C   UNL A   1      46.735  27.748  34.298  1.00  0.00     0.049 A 
ATOM     70  H   UNL A   1      46.991  25.685  34.667  1.00  0.00     0.167 HD
ATOM     71  C   UNL A   1      46.749  26.930  31.944  1.00  0.00     0.074 A 
ATOM     72  C   UNL A   1      46.152  25.597  32.057  1.00  0.00     0.031 C 
ATOM     73  C   UNL A   1      46.992  27.894  32.880  1.00  0.00     0.031 A 
BRANCH  60  74
ATOM     74  C   UNL A   1      44.846  24.338  36.366  1.00  0.00    -0.014 A 
ATOM     75  C   UNL A   1      45.400  23.898  37.581  1.00  0.00     0.010 A 
ATOM     76  C   UNL A   1      44.738  23.385  35.330  1.00  0.00     0.010 A 
ATOM     77  C   UNL A   1      45.857  22.581  37.734  1.00  0.00     0.020 A 
ATOM     78  C   UNL A   1      45.145  22.061  35.485  1.00  0.00     0.020 A 
ATOM     79  C   UNL A   1      45.729  21.674  36.680  1.00  0.00     0.054 A 
BRANCH  79  80
ATOM     80  S   UNL A   1      46.389  20.001  36.861  1.00  0.00     0.124 S 
ATOM     81  O   UNL A   1      45.781  19.314  35.726  1.00  0.00    -0.237 OA
ATOM     82  O   UNL A   1      47.827  20.229  36.772  1.00  0.00    -0.237 OA
ATOM     83  O   UNL A   1      45.901  19.584  38.175  1.00  0.00    -0.744 OA
ENDBRANCH  79  80
ENDBRANCH  60  74
BRANCH  61  84
ATOM     84  C   UNL A   1      44.700  26.081  27.770  1.00  0.00    -0.014 A 
ATOM     85  C   UNL A   1      45.781  25.265  27.353  1.00  0.00     0.010 A 
ATOM     86  C   UNL A   1      43.497  25.914  27.059  1.00  0.00     0.010 A 
ATOM     87  C   UNL A   1      45.612  24.205  26.437  1.00  0.00     0.020 A 
ATOM     88  C   UNL A   1      43.306  24.832  26.174  1.00  0.00     0.020 A 
ATOM     89  C   UNL A   1      44.352  23.953  25.903  1.00  0.00     0.054 A 
BRANCH  89  90
ATOM     90  S   UNL A   1      44.020  22.385  25.029  1.00  0.00     0.124 S 
ATOM     91  O   UNL A   1      44.290  22.738  23.639  1.00  0.00    -0.237 OA
ATOM     92  O   UNL A   1      44.969  21.458  25.641  1.00  0.00    -0.237 OA
ATOM     93  O   UNL A   1      42.617  22.124  25.348  1.00  0.00    -0.744 OA
ENDBRANCH  89  90
ENDBRANCH  61  84
BRANCH  73  94
ATOM     94  C   UNL A   1      47.346  29.290  32.401  1.00  0.00    -0.014 A 
ATOM     95  C   UNL A   1      46.396  30.287  32.083  1.00  0.00     0.010 A 
ATOM     96  C   UNL A   1      48.701  29.655  32.430  1.00  0.00     0.010 A 
ATOM     97  C   UNL A   1      46.799  31.596  31.772  1.00  0.00     0.020 A 
ATOM     98  C   UNL A   1      49.107  30.959  32.142  1.00  0.00     0.020 A 
ATOM     99  C   UNL A   1      48.157  31.921  31.800  1.00  0.00     0.054 A 
BRANCH  99 100
ATOM    100  S   UNL A   1      48.681  33.617  31.417  1.00  0.00     0.124 S 
ATOM    101  O   UNL A   1      47.576  34.110  30.600  1.00  0.00    -0.237 OA
ATOM    102  O   UNL A   1      48.807  34.224  32.738  1.00  0.00    -0.237 OA
ATOM    103  O   UNL A   1      49.944  33.435  30.703  1.00  0.00    -0.744 OA
ENDBRANCH  99 100
ENDBRANCH  73  94
ENDBRANCH  47  48
ENDBRANCH  40  42
ENDBRANCH  39  40
ENDBRANCH  38  39
ENDBRANCH  37  38
ENDBRANCH  36  37
ENDBRANCH  35  36
ENDBRANCH   1  35
TORSDOF 25
ENDMDL
