MODEL 1
REMARK VINA RESULT:     -10.0      0.000      0.000
REMARK SMILES Nc1ccc(SCc2ccc(C(=O)OCCOCCOC(=O)c3ccc(-c4c5nc(c(-c6ccc(S(=O)(=O)[O-])cc6)c6ccc([nH]6)c(-c6ccc(S(=O)(=O)[O-])cc6)c6nc(c(-c7ccc(S(=O)(=O)[O-])cc7)c7ccc4[nH]7)C=C6)C=C5)cc3)o2)cc1
REMARK SMILES IDX 16 1 15 2 14 3 12 4 13 5 11 6 8 7 9 8 83 9 10 10 7 11 6 12
REMARK SMILES IDX 5 13 2 14 3 15 85 16 4 17 84 18 1 19 17 22 18 23 19 24 20 25
REMARK SMILES IDX 21 26 22 27 23 28 24 29 82 30 25 31 81 32 26 33 27 34 28 35
REMARK SMILES IDX 75 36 29 37 80 38 74 39 76 40 30 41 79 42 73 43 72 44 31 46
REMARK SMILES IDX 61 47 42 48 60 49 43 50 46 51 59 52 77 53 44 54 45 55 58 57
REMARK SMILES IDX 78 58 47 59 32 60 33 61 41 62 34 63 40 64 35 65 36 66 37 67
REMARK SMILES IDX 38 68 39 69 62 70 63 71 71 72 64 73 70 74 65 75 66 76 67 77
REMARK SMILES IDX 68 78 69 79 48 80 49 81 57 82 50 83 56 84 51 85 52 86 53 87
REMARK SMILES IDX 54 88 55 89
REMARK H PARENT 1 20 1 21 76 45 46 56
REMARK Flexibility Score: inf
ROOT
ATOM      1  C   UNL A   1      30.978  29.211  23.700  1.00  0.00     0.202 C 
ENDROOT
BRANCH   1   2
ATOM      2  C   UNL A   1      32.238  28.593  23.088  1.00  0.00     0.261 C 
BRANCH   2   3
ATOM      3  O   UNL A   1      32.010  27.200  22.818  1.00  0.00    -0.457 OA
BRANCH   3   4
ATOM      4  C   UNL A   1      33.125  26.460  22.555  1.00  0.00     0.374 C 
ATOM      5  O   UNL A   1      33.797  26.546  21.535  1.00  0.00    -0.242 OA
BRANCH   4   6
ATOM      6  C   UNL A   1      33.448  25.659  23.712  1.00  0.00     0.211 A 
ATOM      7  C   UNL A   1      34.634  24.116  24.765  1.00  0.00     0.115 A 
ATOM      8  C   UNL A   1      33.773  24.655  25.700  1.00  0.00     0.047 A 
ATOM      9  O   UNL A   1      34.437  24.731  23.569  1.00  0.00    -0.453 OA
ATOM     10  C   UNL A   1      33.016  25.651  25.026  1.00  0.00     0.058 A 
BRANCH   7  11
ATOM     11  C   UNL A   1      35.627  23.004  24.824  1.00  0.00     0.150 C 
BRANCH  11  12
ATOM     12  S   UNL A   1      35.226  21.608  25.931  1.00  0.00    -0.118 SA
BRANCH  12  13
ATOM     13  C   UNL A   1      34.302  20.458  24.910  1.00  0.00     0.008 A 
ATOM     14  C   UNL A   1      32.615  18.769  23.381  1.00  0.00     0.031 A 
ATOM     15  C   UNL A   1      32.370  20.139  23.456  1.00  0.00     0.026 A 
ATOM     16  C   UNL A   1      33.757  18.268  24.001  1.00  0.00     0.026 A 
ATOM     17  C   UNL A   1      33.191  20.971  24.228  1.00  0.00     0.017 A 
ATOM     18  C   UNL A   1      34.593  19.101  24.754  1.00  0.00     0.017 A 
BRANCH  14  19
ATOM     19  N   UNL A   1      31.829  17.948  22.585  1.00  0.00    -0.399 N 
ATOM     20  H   UNL A   1      31.822  18.070  21.608  1.00  0.00     0.156 HD
ATOM     21  H   UNL A   1      31.277  17.245  22.996  1.00  0.00     0.156 HD
ENDBRANCH  14  19
ENDBRANCH  12  13
ENDBRANCH  11  12
ENDBRANCH   7  11
ENDBRANCH   4   6
ENDBRANCH   3   4
ENDBRANCH   2   3
ENDBRANCH   1   2
BRANCH   1  22
ATOM     22  O   UNL A   1      31.219  29.987  24.877  1.00  0.00    -0.374 OA
BRANCH  22  23
ATOM     23  C   UNL A   1      32.349  29.607  25.667  1.00  0.00     0.202 C 
BRANCH  23  24
ATOM     24  C   UNL A   1      32.654  30.538  26.844  1.00  0.00     0.261 C 
BRANCH  24  25
ATOM     25  O   UNL A   1      33.652  29.966  27.708  1.00  0.00    -0.460 OA
BRANCH  25  26
ATOM     26  C   UNL A   1      34.542  30.851  28.217  1.00  0.00     0.338 C 
ATOM     27  O   UNL A   1      34.303  31.965  28.650  1.00  0.00    -0.246 OA
BRANCH  26  28
ATOM     28  C   UNL A   1      35.868  30.211  28.347  1.00  0.00     0.060 A 
ATOM     29  C   UNL A   1      36.218  29.713  29.608  1.00  0.00     0.016 A 
ATOM     30  C   UNL A   1      36.771  30.135  27.282  1.00  0.00     0.016 A 
ATOM     31  C   UNL A   1      37.487  29.183  29.824  1.00  0.00     0.010 A 
ATOM     32  C   UNL A   1      38.049  29.606  27.503  1.00  0.00     0.010 A 
ATOM     33  C   UNL A   1      38.423  29.159  28.782  1.00  0.00    -0.014 A 
BRANCH  33  34
ATOM     34  C   UNL A   1      39.829  28.788  29.076  1.00  0.00     0.031 A 
ATOM     35  C   UNL A   1      40.719  29.783  29.771  1.00  0.00     0.074 A 
ATOM     36  C   UNL A   1      40.298  27.567  28.766  1.00  0.00     0.049 A 
ATOM     37  N   UNL A   1      41.966  29.658  30.144  1.00  0.00    -0.248 NA
ATOM     38  C   UNL A   1      40.122  31.091  30.088  1.00  0.00     0.031 C 
ATOM     39  C   UNL A   1      39.528  26.503  28.122  1.00  0.00     0.029 A 
ATOM     40  N   UNL A   1      41.540  27.015  28.957  1.00  0.00    -0.354 N 
ATOM     41  C   UNL A   1      42.306  30.866  30.738  1.00  0.00     0.074 A 
ATOM     42  C   UNL A   1      41.143  31.723  30.651  1.00  0.00     0.031 C 
ATOM     43  C   UNL A   1      40.318  25.427  27.967  1.00  0.00     0.029 A 
ATOM     44  C   UNL A   1      41.653  25.732  28.480  1.00  0.00     0.049 A 
ATOM     45  H   UNL A   1      42.280  27.494  29.394  1.00  0.00     0.167 HD
ATOM     46  C   UNL A   1      43.477  31.230  31.313  1.00  0.00     0.031 A 
ATOM     47  C   UNL A   1      42.714  24.901  28.449  1.00  0.00     0.031 A 
ATOM     48  C   UNL A   1      44.641  30.388  31.387  1.00  0.00     0.049 A 
ATOM     49  C   UNL A   1      44.024  25.350  29.036  1.00  0.00     0.074 A 
ATOM     50  C   UNL A   1      45.867  30.662  31.968  1.00  0.00     0.029 A 
ATOM     51  N   UNL A   1      44.727  29.110  30.857  1.00  0.00    -0.354 N 
ATOM     52  N   UNL A   1      44.319  26.485  29.625  1.00  0.00    -0.248 NA
ATOM     53  C   UNL A   1      45.146  24.402  28.961  1.00  0.00     0.031 C 
ATOM     54  C   UNL A   1      46.711  29.568  31.745  1.00  0.00     0.029 A 
ATOM     55  C   UNL A   1      45.993  28.593  31.070  1.00  0.00     0.049 A 
ATOM     56  H   UNL A   1      43.994  28.640  30.397  1.00  0.00     0.167 HD
ATOM     57  C   UNL A   1      45.652  26.380  30.008  1.00  0.00     0.074 A 
ATOM     58  C   UNL A   1      46.103  25.065  29.595  1.00  0.00     0.031 C 
ATOM     59  C   UNL A   1      46.432  27.288  30.645  1.00  0.00     0.031 A 
BRANCH  46  60
ATOM     60  C   UNL A   1      43.564  32.622  31.878  1.00  0.00    -0.014 A 
ATOM     61  C   UNL A   1      43.322  32.869  33.242  1.00  0.00     0.010 A 
ATOM     62  C   UNL A   1      43.910  33.696  31.037  1.00  0.00     0.010 A 
ATOM     63  C   UNL A   1      43.385  34.170  33.746  1.00  0.00     0.020 A 
ATOM     64  C   UNL A   1      43.994  34.995  31.542  1.00  0.00     0.020 A 
ATOM     65  C   UNL A   1      43.713  35.227  32.890  1.00  0.00     0.054 A 
BRANCH  65  66
ATOM     66  S   UNL A   1      43.793  36.907  33.568  1.00  0.00     0.124 S 
ATOM     67  O   UNL A   1      44.840  36.772  34.579  1.00  0.00    -0.237 OA
ATOM     68  O   UNL A   1      44.149  37.711  32.401  1.00  0.00    -0.237 OA
ATOM     69  O   UNL A   1      42.448  37.136  34.090  1.00  0.00    -0.744 OA
ENDBRANCH  65  66
ENDBRANCH  46  60
BRANCH  47  70
ATOM     70  C   UNL A   1      42.583  23.559  27.823  1.00  0.00    -0.014 A 
ATOM     71  C   UNL A   1      42.838  23.376  26.454  1.00  0.00     0.010 A 
ATOM     72  C   UNL A   1      42.209  22.451  28.606  1.00  0.00     0.010 A 
ATOM     73  C   UNL A   1      42.714  22.110  25.875  1.00  0.00     0.020 A 
ATOM     74  C   UNL A   1      42.106  21.179  28.035  1.00  0.00     0.020 A 
ATOM     75  C   UNL A   1      42.351  21.018  26.671  1.00  0.00     0.054 A 
BRANCH  75  76
ATOM     76  S   UNL A   1      42.261  19.371  25.915  1.00  0.00     0.124 S 
ATOM     77  O   UNL A   1      40.844  19.265  25.585  1.00  0.00    -0.237 OA
ATOM     78  O   UNL A   1      43.168  19.493  24.777  1.00  0.00    -0.237 OA
ATOM     79  O   UNL A   1      42.728  18.484  26.979  1.00  0.00    -0.744 OA
ENDBRANCH  75  76
ENDBRANCH  47  70
BRANCH  59  80
ATOM     80  C   UNL A   1      47.851  26.888  30.952  1.00  0.00    -0.014 A 
ATOM     81  C   UNL A   1      48.908  27.251  30.099  1.00  0.00     0.010 A 
ATOM     82  C   UNL A   1      48.133  26.179  32.133  1.00  0.00     0.010 A 
ATOM     83  C   UNL A   1      50.220  26.886  30.407  1.00  0.00     0.020 A 
ATOM     84  C   UNL A   1      49.448  25.833  32.457  1.00  0.00     0.020 A 
ATOM     85  C   UNL A   1      50.483  26.175  31.583  1.00  0.00     0.054 A 
BRANCH  85  86
ATOM     86  S   UNL A   1      52.198  25.742  31.982  1.00  0.00     0.124 S 
ATOM     87  O   UNL A   1      52.529  26.726  33.009  1.00  0.00    -0.237 OA
ATOM     88  O   UNL A   1      52.083  24.362  32.450  1.00  0.00    -0.237 OA
ATOM     89  O   UNL A   1      52.902  25.906  30.712  1.00  0.00    -0.744 OA
ENDBRANCH  85  86
ENDBRANCH  59  80
ENDBRANCH  33  34
ENDBRANCH  26  28
ENDBRANCH  25  26
ENDBRANCH  24  25
ENDBRANCH  23  24
ENDBRANCH  22  23
ENDBRANCH   1  22
TORSDOF 21
ENDMDL
MODEL 2
REMARK VINA RESULT:      -9.8      4.224     10.439
REMARK SMILES Nc1ccc(SCc2ccc(C(=O)OCCOCCOC(=O)c3ccc(-c4c5nc(c(-c6ccc(S(=O)(=O)[O-])cc6)c6ccc([nH]6)c(-c6ccc(S(=O)(=O)[O-])cc6)c6nc(c(-c7ccc(S(=O)(=O)[O-])cc7)c7ccc4[nH]7)C=C6)C=C5)cc3)o2)cc1
REMARK SMILES IDX 16 1 15 2 14 3 12 4 13 5 11 6 8 7 9 8 83 9 10 10 7 11 6 12
REMARK SMILES IDX 5 13 2 14 3 15 85 16 4 17 84 18 1 19 17 22 18 23 19 24 20 25
REMARK SMILES IDX 21 26 22 27 23 28 24 29 82 30 25 31 81 32 26 33 27 34 28 35
REMARK SMILES IDX 75 36 29 37 80 38 74 39 76 40 30 41 79 42 73 43 72 44 31 46
REMARK SMILES IDX 61 47 42 48 60 49 43 50 46 51 59 52 77 53 44 54 45 55 58 57
REMARK SMILES IDX 78 58 47 59 32 60 33 61 41 62 34 63 40 64 35 65 36 66 37 67
REMARK SMILES IDX 38 68 39 69 62 70 63 71 71 72 64 73 70 74 65 75 66 76 67 77
REMARK SMILES IDX 68 78 69 79 48 80 49 81 57 82 50 83 56 84 51 85 52 86 53 87
REMARK SMILES IDX 54 88 55 89
REMARK H PARENT 1 20 1 21 76 45 46 56
REMARK Flexibility Score: inf
ROOT
ATOM      1  C   UNL A   1      40.495  21.469  27.386  1.00  0.00     0.202 C 
ENDROOT
BRANCH   1   2
ATOM      2  C   UNL A   1      39.953  21.530  25.955  1.00  0.00     0.261 C 
BRANCH   2   3
ATOM      3  O   UNL A   1      38.543  21.808  25.986  1.00  0.00    -0.457 OA
BRANCH   3   4
ATOM      4  C   UNL A   1      37.778  21.070  25.133  1.00  0.00     0.374 C 
ATOM      5  O   UNL A   1      37.863  19.857  24.987  1.00  0.00    -0.242 OA
BRANCH   4   6
ATOM      6  C   UNL A   1      36.782  21.924  24.527  1.00  0.00     0.211 A 
ATOM      7  C   UNL A   1      34.826  22.956  24.513  1.00  0.00     0.115 A 
ATOM      8  C   UNL A   1      35.497  23.371  23.380  1.00  0.00     0.047 A 
ATOM      9  O   UNL A   1      35.610  22.088  25.204  1.00  0.00    -0.453 OA
ATOM     10  C   UNL A   1      36.756  22.714  23.393  1.00  0.00     0.058 A 
BRANCH   7  11
ATOM     11  C   UNL A   1      33.455  23.228  25.035  1.00  0.00     0.150 C 
BRANCH  11  12
ATOM     12  S   UNL A   1      32.060  22.646  24.010  1.00  0.00    -0.118 SA
BRANCH  12  13
ATOM     13  C   UNL A   1      32.238  20.862  23.955  1.00  0.00     0.008 A 
ATOM     14  C   UNL A   1      32.708  18.069  24.065  1.00  0.00     0.031 A 
ATOM     15  C   UNL A   1      32.640  18.825  25.234  1.00  0.00     0.026 A 
ATOM     16  C   UNL A   1      32.449  18.703  22.852  1.00  0.00     0.026 A 
ATOM     17  C   UNL A   1      32.429  20.209  25.179  1.00  0.00     0.017 A 
ATOM     18  C   UNL A   1      32.214  20.083  22.796  1.00  0.00     0.017 A 
BRANCH  14  19
ATOM     19  N   UNL A   1      32.876  16.692  24.116  1.00  0.00    -0.399 N 
ATOM     20  H   UNL A   1      32.492  16.177  24.862  1.00  0.00     0.156 HD
ATOM     21  H   UNL A   1      33.380  16.231  23.408  1.00  0.00     0.156 HD
ENDBRANCH  14  19
ENDBRANCH  12  13
ENDBRANCH  11  12
ENDBRANCH   7  11
ENDBRANCH   4   6
ENDBRANCH   3   4
ENDBRANCH   2   3
ENDBRANCH   1   2
BRANCH   1  22
ATOM     22  O   UNL A   1      41.923  21.414  27.468  1.00  0.00    -0.374 OA
BRANCH  22  23
ATOM     23  C   UNL A   1      42.634  21.548  26.234  1.00  0.00     0.202 C 
BRANCH  23  24
ATOM     24  C   UNL A   1      43.516  22.796  26.133  1.00  0.00     0.261 C 
BRANCH  24  25
ATOM     25  O   UNL A   1      43.033  23.839  26.999  1.00  0.00    -0.460 OA
BRANCH  25  26
ATOM     26  C   UNL A   1      42.651  24.975  26.366  1.00  0.00     0.338 C 
ATOM     27  O   UNL A   1      42.592  25.161  25.163  1.00  0.00    -0.246 OA
BRANCH  26  28
ATOM     28  C   UNL A   1      42.127  25.946  27.351  1.00  0.00     0.060 A 
ATOM     29  C   UNL A   1      42.777  27.183  27.438  1.00  0.00     0.016 A 
ATOM     30  C   UNL A   1      41.060  25.647  28.202  1.00  0.00     0.016 A 
ATOM     31  C   UNL A   1      42.396  28.106  28.408  1.00  0.00     0.010 A 
ATOM     32  C   UNL A   1      40.682  26.575  29.181  1.00  0.00     0.010 A 
ATOM     33  C   UNL A   1      41.370  27.794  29.309  1.00  0.00    -0.014 A 
BRANCH  33  34
ATOM     34  C   UNL A   1      41.117  28.692  30.462  1.00  0.00     0.031 A 
ATOM     35  C   UNL A   1      42.001  28.594  31.676  1.00  0.00     0.074 A 
ATOM     36  C   UNL A   1      40.137  29.613  30.415  1.00  0.00     0.049 A 
ATOM     37  N   UNL A   1      41.972  29.296  32.778  1.00  0.00    -0.248 NA
ATOM     38  C   UNL A   1      43.058  27.570  31.639  1.00  0.00     0.031 C 
ATOM     39  C   UNL A   1      39.234  29.830  29.285  1.00  0.00     0.029 A 
ATOM     40  N   UNL A   1      39.742  30.541  31.345  1.00  0.00    -0.354 N 
ATOM     41  C   UNL A   1      43.002  28.801  33.568  1.00  0.00     0.074 A 
ATOM     42  C   UNL A   1      43.620  27.721  32.830  1.00  0.00     0.031 C 
ATOM     43  C   UNL A   1      38.386  30.827  29.592  1.00  0.00     0.029 A 
ATOM     44  C   UNL A   1      38.672  31.302  30.945  1.00  0.00     0.049 A 
ATOM     45  H   UNL A   1      40.184  30.650  32.218  1.00  0.00     0.167 HD
ATOM     46  C   UNL A   1      43.405  29.213  34.794  1.00  0.00     0.031 A 
ATOM     47  C   UNL A   1      37.991  32.265  31.598  1.00  0.00     0.031 A 
ATOM     48  C   UNL A   1      42.784  30.277  35.538  1.00  0.00     0.049 A 
ATOM     49  C   UNL A   1      38.417  32.663  32.985  1.00  0.00     0.074 A 
ATOM     50  C   UNL A   1      43.134  30.778  36.779  1.00  0.00     0.029 A 
ATOM     51  N   UNL A   1      41.678  30.996  35.114  1.00  0.00    -0.354 N 
ATOM     52  N   UNL A   1      39.416  32.208  33.704  1.00  0.00    -0.248 NA
ATOM     53  C   UNL A   1      37.627  33.712  33.647  1.00  0.00     0.031 C 
ATOM     54  C   UNL A   1      42.210  31.768  37.127  1.00  0.00     0.029 A 
ATOM     55  C   UNL A   1      41.314  31.917  36.080  1.00  0.00     0.049 A 
ATOM     56  H   UNL A   1      41.219  30.870  34.252  1.00  0.00     0.167 HD
ATOM     57  C   UNL A   1      39.386  32.927  34.894  1.00  0.00     0.074 A 
ATOM     58  C   UNL A   1      38.279  33.857  34.793  1.00  0.00     0.031 C 
ATOM     59  C   UNL A   1      40.203  32.829  35.972  1.00  0.00     0.031 A 
BRANCH  46  60
ATOM     60  C   UNL A   1      44.560  28.481  35.421  1.00  0.00    -0.014 A 
ATOM     61  C   UNL A   1      45.889  28.862  35.163  1.00  0.00     0.010 A 
ATOM     62  C   UNL A   1      44.312  27.407  36.296  1.00  0.00     0.010 A 
ATOM     63  C   UNL A   1      46.950  28.157  35.736  1.00  0.00     0.020 A 
ATOM     64  C   UNL A   1      45.370  26.713  36.888  1.00  0.00     0.020 A 
ATOM     65  C   UNL A   1      46.684  27.081  36.589  1.00  0.00     0.054 A 
BRANCH  65  66
ATOM     66  S   UNL A   1      48.077  26.184  37.325  1.00  0.00     0.124 S 
ATOM     67  O   UNL A   1      47.680  26.115  38.730  1.00  0.00    -0.237 OA
ATOM     68  O   UNL A   1      48.060  24.912  36.606  1.00  0.00    -0.237 OA
ATOM     69  O   UNL A   1      49.228  27.039  37.044  1.00  0.00    -0.744 OA
ENDBRANCH  65  66
ENDBRANCH  46  60
BRANCH  47  70
ATOM     70  C   UNL A   1      36.820  32.912  30.948  1.00  0.00    -0.014 A 
ATOM     71  C   UNL A   1      35.546  32.850  31.536  1.00  0.00     0.010 A 
ATOM     72  C   UNL A   1      36.984  33.606  29.735  1.00  0.00     0.010 A 
ATOM     73  C   UNL A   1      34.452  33.463  30.919  1.00  0.00     0.020 A 
ATOM     74  C   UNL A   1      35.896  34.239  29.126  1.00  0.00     0.020 A 
ATOM     75  C   UNL A   1      34.636  34.157  29.718  1.00  0.00     0.054 A 
BRANCH  75  76
ATOM     76  S   UNL A   1      33.217  35.002  28.967  1.00  0.00     0.124 S 
ATOM     77  O   UNL A   1      32.762  34.022  27.987  1.00  0.00    -0.237 OA
ATOM     78  O   UNL A   1      32.331  35.214  30.109  1.00  0.00    -0.237 OA
ATOM     79  O   UNL A   1      33.804  36.221  28.412  1.00  0.00    -0.744 OA
ENDBRANCH  75  76
ENDBRANCH  47  70
BRANCH  59  80
ATOM     80  C   UNL A   1      39.942  33.761  37.125  1.00  0.00    -0.014 A 
ATOM     81  C   UNL A   1      40.440  35.076  37.123  1.00  0.00     0.010 A 
ATOM     82  C   UNL A   1      39.149  33.328  38.203  1.00  0.00     0.010 A 
ATOM     83  C   UNL A   1      40.175  35.932  38.195  1.00  0.00     0.020 A 
ATOM     84  C   UNL A   1      38.861  34.190  39.266  1.00  0.00     0.020 A 
ATOM     85  C   UNL A   1      39.390  35.483  39.261  1.00  0.00     0.054 A 
BRANCH  85  86
ATOM     86  S   UNL A   1      39.028  36.623  40.625  1.00  0.00     0.124 S 
ATOM     87  O   UNL A   1      40.322  36.719  41.293  1.00  0.00    -0.237 OA
ATOM     88  O   UNL A   1      38.589  37.831  39.929  1.00  0.00    -0.237 OA
ATOM     89  O   UNL A   1      37.984  35.936  41.383  1.00  0.00    -0.744 OA
ENDBRANCH  85  86
ENDBRANCH  59  80
ENDBRANCH  33  34
ENDBRANCH  26  28
ENDBRANCH  25  26
ENDBRANCH  24  25
ENDBRANCH  23  24
ENDBRANCH  22  23
ENDBRANCH   1  22
TORSDOF 21
ENDMDL
MODEL 3
REMARK VINA RESULT:      -9.7      3.228      9.509
REMARK SMILES Nc1ccc(SCc2ccc(C(=O)OCCOCCOC(=O)c3ccc(-c4c5nc(c(-c6ccc(S(=O)(=O)[O-])cc6)c6ccc([nH]6)c(-c6ccc(S(=O)(=O)[O-])cc6)c6nc(c(-c7ccc(S(=O)(=O)[O-])cc7)c7ccc4[nH]7)C=C6)C=C5)cc3)o2)cc1
REMARK SMILES IDX 16 1 15 2 14 3 12 4 13 5 11 6 8 7 9 8 83 9 10 10 7 11 6 12
REMARK SMILES IDX 5 13 2 14 3 15 85 16 4 17 84 18 1 19 17 22 18 23 19 24 20 25
REMARK SMILES IDX 21 26 22 27 23 28 24 29 82 30 25 31 81 32 26 33 27 34 28 35
REMARK SMILES IDX 75 36 29 37 80 38 74 39 76 40 30 41 79 42 73 43 72 44 31 46
REMARK SMILES IDX 61 47 42 48 60 49 43 50 46 51 59 52 77 53 44 54 45 55 58 57
REMARK SMILES IDX 78 58 47 59 32 60 33 61 41 62 34 63 40 64 35 65 36 66 37 67
REMARK SMILES IDX 38 68 39 69 62 70 63 71 71 72 64 73 70 74 65 75 66 76 67 77
REMARK SMILES IDX 68 78 69 79 48 80 49 81 57 82 50 83 56 84 51 85 52 86 53 87
REMARK SMILES IDX 54 88 55 89
REMARK H PARENT 1 20 1 21 76 45 46 56
REMARK Flexibility Score: inf
ROOT
ATOM      1  C   UNL A   1      33.882  21.851  27.330  1.00  0.00     0.202 C 
ENDROOT
BRANCH   1   2
ATOM      2  C   UNL A   1      32.772  22.896  27.467  1.00  0.00     0.261 C 
BRANCH   2   3
ATOM      3  O   UNL A   1      31.710  22.596  26.545  1.00  0.00    -0.457 OA
BRANCH   3   4
ATOM      4  C   UNL A   1      30.531  23.240  26.775  1.00  0.00     0.374 C 
ATOM      5  O   UNL A   1      29.694  22.895  27.600  1.00  0.00    -0.242 OA
BRANCH   4   6
ATOM      6  C   UNL A   1      30.486  24.446  25.982  1.00  0.00     0.211 A 
ATOM      7  C   UNL A   1      30.994  25.639  24.190  1.00  0.00     0.115 A 
ATOM      8  C   UNL A   1      30.134  26.412  24.945  1.00  0.00     0.047 A 
ATOM      9  O   UNL A   1      31.197  24.451  24.818  1.00  0.00    -0.453 OA
ATOM     10  C   UNL A   1      29.802  25.643  26.092  1.00  0.00     0.058 A 
BRANCH   7  11
ATOM     11  C   UNL A   1      31.739  25.896  22.923  1.00  0.00     0.150 C 
BRANCH  11  12
ATOM     12  S   UNL A   1      33.462  26.478  23.091  1.00  0.00    -0.118 SA
BRANCH  12  13
ATOM     13  C   UNL A   1      33.404  27.733  24.372  1.00  0.00     0.008 A 
ATOM     14  C   UNL A   1      33.287  29.511  26.577  1.00  0.00     0.031 A 
ATOM     15  C   UNL A   1      34.022  28.329  26.655  1.00  0.00     0.026 A 
ATOM     16  C   UNL A   1      32.689  29.837  25.362  1.00  0.00     0.026 A 
ATOM     17  C   UNL A   1      34.063  27.440  25.573  1.00  0.00     0.017 A 
ATOM     18  C   UNL A   1      32.747  28.961  24.271  1.00  0.00     0.017 A 
BRANCH  14  19
ATOM     19  N   UNL A   1      33.278  30.414  27.631  1.00  0.00    -0.399 N 
ATOM     20  H   UNL A   1      34.127  30.742  28.006  1.00  0.00     0.156 HD
ATOM     21  H   UNL A   1      32.422  30.725  28.005  1.00  0.00     0.156 HD
ENDBRANCH  14  19
ENDBRANCH  12  13
ENDBRANCH  11  12
ENDBRANCH   7  11
ENDBRANCH   4   6
ENDBRANCH   3   4
ENDBRANCH   2   3
ENDBRANCH   1   2
BRANCH   1  22
ATOM     22  O   UNL A   1      34.380  21.698  25.997  1.00  0.00    -0.374 OA
BRANCH  22  23
ATOM     23  C   UNL A   1      34.873  22.883  25.366  1.00  0.00     0.202 C 
BRANCH  23  24
ATOM     24  C   UNL A   1      36.261  22.746  24.734  1.00  0.00     0.261 C 
BRANCH  24  25
ATOM     25  O   UNL A   1      37.176  23.709  25.287  1.00  0.00    -0.460 OA
BRANCH  25  26
ATOM     26  C   UNL A   1      38.234  23.179  25.946  1.00  0.00     0.338 C 
ATOM     27  O   UNL A   1      38.640  22.031  25.880  1.00  0.00    -0.246 OA
BRANCH  26  28
ATOM     28  C   UNL A   1      38.972  24.248  26.653  1.00  0.00     0.060 A 
ATOM     29  C   UNL A   1      38.678  24.440  28.008  1.00  0.00     0.016 A 
ATOM     30  C   UNL A   1      39.895  25.074  26.005  1.00  0.00     0.016 A 
ATOM     31  C   UNL A   1      39.267  25.490  28.709  1.00  0.00     0.010 A 
ATOM     32  C   UNL A   1      40.481  26.132  26.711  1.00  0.00     0.010 A 
ATOM     33  C   UNL A   1      40.145  26.364  28.056  1.00  0.00    -0.014 A 
BRANCH  33  34
ATOM     34  C   UNL A   1      40.598  27.593  28.752  1.00  0.00     0.031 A 
ATOM     35  C   UNL A   1      42.004  27.656  29.285  1.00  0.00     0.074 A 
ATOM     36  C   UNL A   1      39.784  28.656  28.874  1.00  0.00     0.049 A 
ATOM     37  N   UNL A   1      42.611  28.637  29.900  1.00  0.00    -0.248 NA
ATOM     38  C   UNL A   1      42.835  26.455  29.096  1.00  0.00     0.031 C 
ATOM     39  C   UNL A   1      38.411  28.732  28.372  1.00  0.00     0.029 A 
ATOM     40  N   UNL A   1      39.997  29.879  29.457  1.00  0.00    -0.354 N 
ATOM     41  C   UNL A   1      43.893  28.175  30.174  1.00  0.00     0.074 A 
ATOM     42  C   UNL A   1      43.967  26.816  29.684  1.00  0.00     0.031 C 
ATOM     43  C   UNL A   1      37.904  29.940  28.675  1.00  0.00     0.029 A 
ATOM     44  C   UNL A   1      38.906  30.712  29.409  1.00  0.00     0.049 A 
ATOM     45  H   UNL A   1      40.852  30.135  29.873  1.00  0.00     0.167 HD
ATOM     46  C   UNL A   1      44.920  28.825  30.773  1.00  0.00     0.031 A 
ATOM     47  C   UNL A   1      38.729  31.951  29.908  1.00  0.00     0.031 A 
ATOM     48  C   UNL A   1      44.845  30.171  31.277  1.00  0.00     0.049 A 
ATOM     49  C   UNL A   1      39.864  32.630  30.626  1.00  0.00     0.074 A 
ATOM     50  C   UNL A   1      45.839  30.920  31.881  1.00  0.00     0.029 A 
ATOM     51  N   UNL A   1      43.710  30.965  31.243  1.00  0.00    -0.354 N 
ATOM     52  N   UNL A   1      41.081  32.191  30.847  1.00  0.00    -0.248 NA
ATOM     53  C   UNL A   1      39.603  33.976  31.158  1.00  0.00     0.031 C 
ATOM     54  C   UNL A   1      45.291  32.151  32.258  1.00  0.00     0.029 A 
ATOM     55  C   UNL A   1      43.970  32.186  31.842  1.00  0.00     0.049 A 
ATOM     56  H   UNL A   1      42.847  30.700  30.851  1.00  0.00     0.167 HD
ATOM     57  C   UNL A   1      41.736  33.213  31.525  1.00  0.00     0.074 A 
ATOM     58  C   UNL A   1      40.785  34.298  31.666  1.00  0.00     0.031 C 
ATOM     59  C   UNL A   1      43.011  33.252  31.986  1.00  0.00     0.031 A 
BRANCH  46  60
ATOM     60  C   UNL A   1      46.207  28.066  30.945  1.00  0.00    -0.014 A 
ATOM     61  C   UNL A   1      46.429  27.257  32.074  1.00  0.00     0.010 A 
ATOM     62  C   UNL A   1      47.203  28.150  29.955  1.00  0.00     0.010 A 
ATOM     63  C   UNL A   1      47.639  26.577  32.229  1.00  0.00     0.020 A 
ATOM     64  C   UNL A   1      48.406  27.454  30.096  1.00  0.00     0.020 A 
ATOM     65  C   UNL A   1      48.624  26.686  31.242  1.00  0.00     0.054 A 
BRANCH  65  66
ATOM     66  S   UNL A   1      50.185  25.790  31.462  1.00  0.00     0.124 S 
ATOM     67  O   UNL A   1      50.313  25.092  30.184  1.00  0.00    -0.237 OA
ATOM     68  O   UNL A   1      51.147  26.866  31.688  1.00  0.00    -0.237 OA
ATOM     69  O   UNL A   1      49.933  24.933  32.618  1.00  0.00    -0.744 OA
ENDBRANCH  65  66
ENDBRANCH  46  60
BRANCH  47  70
ATOM     70  C   UNL A   1      37.413  32.627  29.758  1.00  0.00    -0.014 A 
ATOM     71  C   UNL A   1      36.370  32.380  30.666  1.00  0.00     0.010 A 
ATOM     72  C   UNL A   1      37.204  33.534  28.703  1.00  0.00     0.010 A 
ATOM     73  C   UNL A   1      35.137  33.022  30.519  1.00  0.00     0.020 A 
ATOM     74  C   UNL A   1      35.980  34.195  28.565  1.00  0.00     0.020 A 
ATOM     75  C   UNL A   1      34.952  33.928  29.470  1.00  0.00     0.054 A 
BRANCH  75  76
ATOM     76  S   UNL A   1      33.367  34.801  29.333  1.00  0.00     0.124 S 
ATOM     77  O   UNL A   1      32.949  34.893  30.728  1.00  0.00    -0.237 OA
ATOM     78  O   UNL A   1      33.751  36.062  28.703  1.00  0.00    -0.237 OA
ATOM     79  O   UNL A   1      32.564  33.915  28.492  1.00  0.00    -0.744 OA
ENDBRANCH  75  76
ENDBRANCH  47  70
BRANCH  59  80
ATOM     80  C   UNL A   1      43.460  34.514  32.674  1.00  0.00    -0.014 A 
ATOM     81  C   UNL A   1      44.074  35.554  31.955  1.00  0.00     0.010 A 
ATOM     82  C   UNL A   1      43.221  34.678  34.050  1.00  0.00     0.010 A 
ATOM     83  C   UNL A   1      44.470  36.725  32.606  1.00  0.00     0.020 A 
ATOM     84  C   UNL A   1      43.594  35.858  34.701  1.00  0.00     0.020 A 
ATOM     85  C   UNL A   1      44.231  36.869  33.976  1.00  0.00     0.054 A 
BRANCH  85  86
ATOM     86  S   UNL A   1      44.720  38.411  34.796  1.00  0.00     0.124 S 
ATOM     87  O   UNL A   1      45.015  37.955  36.151  1.00  0.00    -0.237 OA
ATOM     88  O   UNL A   1      45.877  38.841  34.013  1.00  0.00    -0.237 OA
ATOM     89  O   UNL A   1      43.539  39.261  34.667  1.00  0.00    -0.744 OA
ENDBRANCH  85  86
ENDBRANCH  59  80
ENDBRANCH  33  34
ENDBRANCH  26  28
ENDBRANCH  25  26
ENDBRANCH  24  25
ENDBRANCH  23  24
ENDBRANCH  22  23
ENDBRANCH   1  22
TORSDOF 21
ENDMDL
