MODEL 1
REMARK VINA RESULT:     -10.0      0.000      0.000
REMARK SMILES O=C(OCCOCCOC(=O)c1ccc(-n2cc(CSc3nc4ccccc4c(=O)n3-c3ccccc3)nn2)cc1)c1ccc(-c2c3nc(c(-c4ccc(S(=O)(=O)[O-])cc4)c4ccc([nH]4)c(-c4ccc(S(=O)(=O)[O-])cc4)c4nc(c(-c5ccc(S(=O)(=O)[O-])cc5)c5ccc2[nH]5)C=C4)C=C3)cc1
REMARK SMILES IDX 7 1 6 2 5 3 4 4 3 5 2 6 1 7 42 8 43 9 101 10 44 11 100 12
REMARK SMILES IDX 45 13 46 14 47 15 94 16 48 17 99 18 93 19 95 20 49 21 98 22
REMARK SMILES IDX 92 23 91 24 50 26 80 27 61 28 79 29 62 30 65 31 78 32 96 33
REMARK SMILES IDX 63 34 64 35 77 37 97 38 66 39 51 40 52 41 60 42 53 43 59 44
REMARK SMILES IDX 54 45 55 46 56 47 57 48 58 49 81 50 82 51 90 52 83 53 89 54
REMARK SMILES IDX 84 55 85 56 86 57 87 58 88 59 67 60 68 61 76 62 69 63 75 64
REMARK SMILES IDX 70 65 71 66 72 67 73 68 74 69 8 70 9 71 10 72 11 73 12 74
REMARK SMILES IDX 13 75 41 76 14 77 40 78 15 79 16 80 17 81 39 82 18 83 38 84
REMARK SMILES IDX 19 85 20 86 21 87 22 88 31 89 23 90 29 91 24 92 28 93 30 94
REMARK SMILES IDX 25 95 27 96 26 97 32 98 33 99 37 100 34 101 36 102 35 103
REMARK H PARENT 95 25 65 36
REMARK Flexibility Score: inf
ROOT
ATOM      1  C   UNL A   1      49.990  19.810  34.563  1.00  0.00     0.202 C 
ENDROOT
BRANCH   1   2
ATOM      2  O   UNL A   1      50.980  20.135  33.574  1.00  0.00    -0.374 OA
BRANCH   2   3
ATOM      3  C   UNL A   1      52.067  20.956  33.976  1.00  0.00     0.202 C 
BRANCH   3   4
ATOM      4  C   UNL A   1      51.884  22.471  34.031  1.00  0.00     0.261 C 
BRANCH   4   5
ATOM      5  O   UNL A   1      50.644  22.934  33.476  1.00  0.00    -0.460 OA
BRANCH   5   6
ATOM      6  C   UNL A   1      49.847  23.877  34.019  1.00  0.00     0.338 C 
ATOM      7  O   UNL A   1      49.795  24.002  35.241  1.00  0.00    -0.246 OA
BRANCH   6   8
ATOM      8  C   UNL A   1      49.202  24.902  33.156  1.00  0.00     0.060 A 
ATOM      9  C   UNL A   1      47.826  25.064  33.004  1.00  0.00     0.016 A 
ATOM     10  C   UNL A   1      50.071  25.606  32.306  1.00  0.00     0.016 A 
ATOM     11  C   UNL A   1      47.332  25.599  31.840  1.00  0.00     0.010 A 
ATOM     12  C   UNL A   1      49.578  26.219  31.173  1.00  0.00     0.010 A 
ATOM     13  C   UNL A   1      48.226  26.080  30.892  1.00  0.00    -0.014 A 
BRANCH  13  14
ATOM     14  C   UNL A   1      47.675  26.482  29.617  1.00  0.00     0.031 A 
ATOM     15  C   UNL A   1      46.613  27.506  29.745  1.00  0.00     0.074 A 
ATOM     16  C   UNL A   1      48.141  25.973  28.462  1.00  0.00     0.049 A 
ATOM     17  N   UNL A   1      45.348  27.368  29.524  1.00  0.00    -0.248 NA
ATOM     18  C   UNL A   1      46.974  28.770  30.410  1.00  0.00     0.031 C 
ATOM     19  C   UNL A   1      49.325  25.136  28.245  1.00  0.00     0.029 A 
ATOM     20  N   UNL A   1      47.708  26.206  27.200  1.00  0.00    -0.354 N 
ATOM     21  C   UNL A   1      44.787  28.612  29.794  1.00  0.00     0.074 A 
ATOM     22  C   UNL A   1      45.782  29.353  30.527  1.00  0.00     0.031 C 
ATOM     23  C   UNL A   1      49.665  25.181  26.936  1.00  0.00     0.029 A 
ATOM     24  C   UNL A   1      48.644  25.922  26.214  1.00  0.00     0.049 A 
ATOM     25  H   UNL A   1      46.807  26.546  26.999  1.00  0.00     0.167 HD
ATOM     26  C   UNL A   1      43.670  29.040  29.144  1.00  0.00     0.031 A 
ATOM     27  C   UNL A   1      48.611  26.357  24.927  1.00  0.00     0.031 A 
ATOM     28  C   UNL A   1      42.961  27.946  28.531  1.00  0.00     0.049 A 
ATOM     29  C   UNL A   1      47.207  26.757  24.645  1.00  0.00     0.074 A 
ATOM     30  C   UNL A   1      42.346  26.803  29.001  1.00  0.00     0.029 A 
ATOM     31  N   UNL A   1      43.169  27.743  27.187  1.00  0.00    -0.354 N 
ATOM     32  N   UNL A   1      46.217  25.905  24.629  1.00  0.00    -0.248 NA
ATOM     33  C   UNL A   1      46.827  28.141  24.891  1.00  0.00     0.031 C 
ATOM     34  C   UNL A   1      42.653  25.800  28.035  1.00  0.00     0.029 A 
ATOM     35  C   UNL A   1      43.367  26.400  26.995  1.00  0.00     0.049 A 
ATOM     36  H   UNL A   1      43.174  28.436  26.487  1.00  0.00     0.167 HD
ATOM     37  C   UNL A   1      45.175  26.549  25.282  1.00  0.00     0.074 A 
ATOM     38  C   UNL A   1      45.584  27.954  25.348  1.00  0.00     0.031 C 
ATOM     39  C   UNL A   1      44.222  25.847  25.966  1.00  0.00     0.031 A 
BRANCH  26  40
ATOM     40  C   UNL A   1      43.503  30.467  28.678  1.00  0.00    -0.014 A 
ATOM     41  C   UNL A   1      44.048  30.837  27.432  1.00  0.00     0.010 A 
ATOM     42  C   UNL A   1      43.110  31.514  29.539  1.00  0.00     0.010 A 
ATOM     43  C   UNL A   1      44.279  32.181  27.114  1.00  0.00     0.020 A 
ATOM     44  C   UNL A   1      43.297  32.856  29.214  1.00  0.00     0.020 A 
ATOM     45  C   UNL A   1      43.919  33.179  28.019  1.00  0.00     0.054 A 
BRANCH  45  46
ATOM     46  S   UNL A   1      44.342  34.899  27.659  1.00  0.00     0.124 S 
ATOM     47  O   UNL A   1      44.083  35.546  28.941  1.00  0.00    -0.237 OA
ATOM     48  O   UNL A   1      45.746  34.795  27.271  1.00  0.00    -0.237 OA
ATOM     49  O   UNL A   1      43.426  35.257  26.578  1.00  0.00    -0.744 OA
ENDBRANCH  45  46
ENDBRANCH  26  40
BRANCH  27  50
ATOM     50  C   UNL A   1      49.770  26.828  24.118  1.00  0.00    -0.014 A 
ATOM     51  C   UNL A   1      51.090  26.732  24.599  1.00  0.00     0.010 A 
ATOM     52  C   UNL A   1      49.597  27.126  22.750  1.00  0.00     0.010 A 
ATOM     53  C   UNL A   1      52.190  26.878  23.732  1.00  0.00     0.020 A 
ATOM     54  C   UNL A   1      50.686  27.278  21.883  1.00  0.00     0.020 A 
ATOM     55  C   UNL A   1      51.980  27.131  22.373  1.00  0.00     0.054 A 
BRANCH  55  56
ATOM     56  S   UNL A   1      53.392  27.151  21.227  1.00  0.00     0.124 S 
ATOM     57  O   UNL A   1      54.447  26.526  22.019  1.00  0.00    -0.237 OA
ATOM     58  O   UNL A   1      52.900  26.366  20.099  1.00  0.00    -0.237 OA
ATOM     59  O   UNL A   1      53.589  28.573  20.946  1.00  0.00    -0.744 OA
ENDBRANCH  55  56
ENDBRANCH  27  50
BRANCH  39  60
ATOM     60  C   UNL A   1      44.185  24.343  25.806  1.00  0.00    -0.014 A 
ATOM     61  C   UNL A   1      43.169  23.650  25.116  1.00  0.00     0.010 A 
ATOM     62  C   UNL A   1      45.311  23.621  26.236  1.00  0.00     0.010 A 
ATOM     63  C   UNL A   1      43.270  22.267  24.888  1.00  0.00     0.020 A 
ATOM     64  C   UNL A   1      45.426  22.250  25.998  1.00  0.00     0.020 A 
ATOM     65  C   UNL A   1      44.401  21.576  25.335  1.00  0.00     0.054 A 
BRANCH  65  66
ATOM     66  S   UNL A   1      44.551  19.795  25.013  1.00  0.00     0.124 S 
ATOM     67  O   UNL A   1      45.904  19.501  25.477  1.00  0.00    -0.237 OA
ATOM     68  O   UNL A   1      43.471  19.227  25.818  1.00  0.00    -0.237 OA
ATOM     69  O   UNL A   1      44.357  19.684  23.568  1.00  0.00    -0.744 OA
ENDBRANCH  65  66
ENDBRANCH  39  60
ENDBRANCH  13  14
ENDBRANCH   6   8
ENDBRANCH   5   6
ENDBRANCH   4   5
ENDBRANCH   3   4
ENDBRANCH   2   3
ENDBRANCH   1   2
BRANCH   1  70
ATOM     70  C   UNL A   1      48.502  20.113  34.301  1.00  0.00     0.261 C 
BRANCH  70  71
ATOM     71  O   UNL A   1      47.962  21.118  35.182  1.00  0.00    -0.460 OA
BRANCH  71  72
ATOM     72  C   UNL A   1      46.829  20.771  35.854  1.00  0.00     0.338 C 
ATOM     73  O   UNL A   1      46.686  19.849  36.622  1.00  0.00    -0.246 OA
BRANCH  72  74
ATOM     74  C   UNL A   1      45.847  21.876  35.709  1.00  0.00     0.060 A 
ATOM     75  C   UNL A   1      44.815  21.720  34.767  1.00  0.00     0.018 A 
ATOM     76  C   UNL A   1      45.900  23.014  36.517  1.00  0.00     0.018 A 
ATOM     77  C   UNL A   1      43.830  22.700  34.629  1.00  0.00     0.029 A 
ATOM     78  C   UNL A   1      44.906  23.988  36.396  1.00  0.00     0.029 A 
ATOM     79  C   UNL A   1      43.880  23.829  35.448  1.00  0.00     0.066 A 
BRANCH  79  80
ATOM     80  N   UNL A   1      42.942  24.867  35.271  1.00  0.00    -0.220 N 
ATOM     81  C   UNL A   1      43.230  26.220  35.206  1.00  0.00     0.141 A 
ATOM     82  N   UNL A   1      41.624  24.690  35.473  1.00  0.00    -0.062 NA
ATOM     83  C   UNL A   1      42.053  26.845  35.552  1.00  0.00     0.093 A 
ATOM     84  N   UNL A   1      41.064  25.882  35.569  1.00  0.00    -0.134 NA
BRANCH  83  85
ATOM     85  C   UNL A   1      41.670  28.144  36.163  1.00  0.00     0.138 C 
BRANCH  85  86
ATOM     86  S   UNL A   1      41.971  29.808  35.624  1.00  0.00    -0.081 SA
BRANCH  86  87
ATOM     87  C   UNL A   1      40.961  30.383  34.340  1.00  0.00     0.176 A 
ATOM     88  N   UNL A   1      40.987  29.563  33.331  1.00  0.00    -0.223 NA
ATOM     89  N   UNL A   1      40.186  31.532  34.327  1.00  0.00    -0.255 N 
ATOM     90  C   UNL A   1      40.339  29.923  32.149  1.00  0.00     0.079 A 
ATOM     91  C   UNL A   1      40.108  32.149  33.066  1.00  0.00     0.266 A 
ATOM     92  C   UNL A   1      40.096  28.986  31.145  1.00  0.00     0.029 A 
ATOM     93  C   UNL A   1      40.051  31.255  31.903  1.00  0.00     0.066 A 
ATOM     94  O   UNL A   1      40.124  33.361  32.854  1.00  0.00    -0.268 OA
ATOM     95  C   UNL A   1      39.650  29.406  29.886  1.00  0.00     0.002 A 
ATOM     96  C   UNL A   1      39.667  31.699  30.636  1.00  0.00     0.016 A 
ATOM     97  C   UNL A   1      39.478  30.766  29.619  1.00  0.00     0.001 A 
BRANCH  89  98
ATOM     98  C   UNL A   1      39.549  32.199  35.452  1.00  0.00     0.051 A 
ATOM     99  C   UNL A   1      38.142  32.239  35.536  1.00  0.00     0.027 A 
ATOM    100  C   UNL A   1      40.227  32.826  36.501  1.00  0.00     0.027 A 
ATOM    101  C   UNL A   1      37.468  33.047  36.456  1.00  0.00     0.002 A 
ATOM    102  C   UNL A   1      39.570  33.701  37.379  1.00  0.00     0.002 A 
ATOM    103  C   UNL A   1      38.191  33.837  37.333  1.00  0.00     0.000 A 
ENDBRANCH  89  98
ENDBRANCH  86  87
ENDBRANCH  85  86
ENDBRANCH  83  85
ENDBRANCH  79  80
ENDBRANCH  72  74
ENDBRANCH  71  72
ENDBRANCH  70  71
ENDBRANCH   1  70
TORSDOF 22
ENDMDL
MODEL 2
REMARK VINA RESULT:      -9.9      4.476     11.606
REMARK SMILES O=C(OCCOCCOC(=O)c1ccc(-n2cc(CSc3nc4ccccc4c(=O)n3-c3ccccc3)nn2)cc1)c1ccc(-c2c3nc(c(-c4ccc(S(=O)(=O)[O-])cc4)c4ccc([nH]4)c(-c4ccc(S(=O)(=O)[O-])cc4)c4nc(c(-c5ccc(S(=O)(=O)[O-])cc5)c5ccc2[nH]5)C=C4)C=C3)cc1
REMARK SMILES IDX 7 1 6 2 5 3 4 4 3 5 2 6 1 7 42 8 43 9 101 10 44 11 100 12
REMARK SMILES IDX 45 13 46 14 47 15 94 16 48 17 99 18 93 19 95 20 49 21 98 22
REMARK SMILES IDX 92 23 91 24 50 26 80 27 61 28 79 29 62 30 65 31 78 32 96 33
REMARK SMILES IDX 63 34 64 35 77 37 97 38 66 39 51 40 52 41 60 42 53 43 59 44
REMARK SMILES IDX 54 45 55 46 56 47 57 48 58 49 81 50 82 51 90 52 83 53 89 54
REMARK SMILES IDX 84 55 85 56 86 57 87 58 88 59 67 60 68 61 76 62 69 63 75 64
REMARK SMILES IDX 70 65 71 66 72 67 73 68 74 69 8 70 9 71 10 72 11 73 12 74
REMARK SMILES IDX 13 75 41 76 14 77 40 78 15 79 16 80 17 81 39 82 18 83 38 84
REMARK SMILES IDX 19 85 20 86 21 87 22 88 31 89 23 90 29 91 24 92 28 93 30 94
REMARK SMILES IDX 25 95 27 96 26 97 32 98 33 99 37 100 34 101 36 102 35 103
REMARK H PARENT 95 25 65 36
REMARK Flexibility Score: inf
ROOT
ATOM      1  C   UNL A   1      34.342  34.045  32.173  1.00  0.00     0.202 C 
ENDROOT
BRANCH   1   2
ATOM      2  O   UNL A   1      33.824  34.513  30.919  1.00  0.00    -0.374 OA
BRANCH   2   3
ATOM      3  C   UNL A   1      34.697  34.494  29.798  1.00  0.00     0.202 C 
BRANCH   3   4
ATOM      4  C   UNL A   1      34.224  33.869  28.488  1.00  0.00     0.261 C 
BRANCH   4   5
ATOM      5  O   UNL A   1      35.210  33.055  27.835  1.00  0.00    -0.460 OA
BRANCH   5   6
ATOM      6  C   UNL A   1      35.278  31.709  27.896  1.00  0.00     0.338 C 
ATOM      7  O   UNL A   1      34.609  31.029  27.121  1.00  0.00    -0.246 OA
BRANCH   6   8
ATOM      8  C   UNL A   1      36.312  31.048  28.737  1.00  0.00     0.060 A 
ATOM      9  C   UNL A   1      37.245  31.719  29.525  1.00  0.00     0.016 A 
ATOM     10  C   UNL A   1      36.448  29.664  28.546  1.00  0.00     0.016 A 
ATOM     11  C   UNL A   1      38.451  31.123  29.801  1.00  0.00     0.010 A 
ATOM     12  C   UNL A   1      37.626  29.034  28.892  1.00  0.00     0.010 A 
ATOM     13  C   UNL A   1      38.661  29.813  29.388  1.00  0.00    -0.014 A 
BRANCH  13  14
ATOM     14  C   UNL A   1      39.995  29.282  29.551  1.00  0.00     0.031 A 
ATOM     15  C   UNL A   1      40.379  29.111  30.972  1.00  0.00     0.074 A 
ATOM     16  C   UNL A   1      40.754  28.958  28.488  1.00  0.00     0.049 A 
ATOM     17  N   UNL A   1      41.256  29.781  31.642  1.00  0.00    -0.248 NA
ATOM     18  C   UNL A   1      39.527  28.239  31.798  1.00  0.00     0.031 C 
ATOM     19  C   UNL A   1      40.364  28.889  27.076  1.00  0.00     0.029 A 
ATOM     20  N   UNL A   1      42.028  28.498  28.466  1.00  0.00    -0.354 N 
ATOM     21  C   UNL A   1      41.233  29.242  32.924  1.00  0.00     0.074 A 
ATOM     22  C   UNL A   1      40.025  28.464  33.013  1.00  0.00     0.031 C 
ATOM     23  C   UNL A   1      41.276  28.150  26.402  1.00  0.00     0.029 A 
ATOM     24  C   UNL A   1      42.373  27.829  27.299  1.00  0.00     0.049 A 
ATOM     25  H   UNL A   1      42.654  28.627  29.214  1.00  0.00     0.167 HD
ATOM     26  C   UNL A   1      42.346  29.236  33.708  1.00  0.00     0.031 A 
ATOM     27  C   UNL A   1      43.436  26.999  27.135  1.00  0.00     0.031 A 
ATOM     28  C   UNL A   1      43.328  30.181  33.243  1.00  0.00     0.049 A 
ATOM     29  C   UNL A   1      44.397  27.312  28.226  1.00  0.00     0.074 A 
ATOM     30  C   UNL A   1      43.355  31.552  33.078  1.00  0.00     0.029 A 
ATOM     31  N   UNL A   1      44.361  29.684  32.481  1.00  0.00    -0.354 N 
ATOM     32  N   UNL A   1      45.011  28.460  28.323  1.00  0.00    -0.248 NA
ATOM     33  C   UNL A   1      44.286  26.564  29.471  1.00  0.00     0.031 C 
ATOM     34  C   UNL A   1      44.080  31.759  31.867  1.00  0.00     0.029 A 
ATOM     35  C   UNL A   1      44.521  30.518  31.404  1.00  0.00     0.049 A 
ATOM     36  H   UNL A   1      44.890  28.877  32.674  1.00  0.00     0.167 HD
ATOM     37  C   UNL A   1      44.973  28.777  29.674  1.00  0.00     0.074 A 
ATOM     38  C   UNL A   1      44.586  27.532  30.342  1.00  0.00     0.031 C 
ATOM     39  C   UNL A   1      44.968  30.076  30.099  1.00  0.00     0.031 A 
BRANCH  26  40
ATOM     40  C   UNL A   1      42.714  28.058  34.579  1.00  0.00    -0.014 A 
ATOM     41  C   UNL A   1      43.204  28.307  35.876  1.00  0.00     0.010 A 
ATOM     42  C   UNL A   1      42.889  26.753  34.070  1.00  0.00     0.010 A 
ATOM     43  C   UNL A   1      43.918  27.329  36.581  1.00  0.00     0.020 A 
ATOM     44  C   UNL A   1      43.561  25.760  34.780  1.00  0.00     0.020 A 
ATOM     45  C   UNL A   1      44.108  26.069  36.015  1.00  0.00     0.054 A 
BRANCH  45  46
ATOM     46  S   UNL A   1      45.143  24.859  36.871  1.00  0.00     0.124 S 
ATOM     47  O   UNL A   1      45.144  23.746  35.927  1.00  0.00    -0.237 OA
ATOM     48  O   UNL A   1      46.406  25.578  37.008  1.00  0.00    -0.237 OA
ATOM     49  O   UNL A   1      44.427  24.621  38.123  1.00  0.00    -0.744 OA
ENDBRANCH  45  46
ENDBRANCH  26  40
BRANCH  27  50
ATOM     50  C   UNL A   1      43.454  25.718  26.377  1.00  0.00    -0.014 A 
ATOM     51  C   UNL A   1      44.366  25.497  25.326  1.00  0.00     0.010 A 
ATOM     52  C   UNL A   1      42.747  24.600  26.868  1.00  0.00     0.010 A 
ATOM     53  C   UNL A   1      44.596  24.200  24.826  1.00  0.00     0.020 A 
ATOM     54  C   UNL A   1      42.966  23.309  26.373  1.00  0.00     0.020 A 
ATOM     55  C   UNL A   1      43.907  23.110  25.367  1.00  0.00     0.054 A 
BRANCH  55  56
ATOM     56  S   UNL A   1      44.327  21.421  24.838  1.00  0.00     0.124 S 
ATOM     57  O   UNL A   1      43.161  20.658  25.272  1.00  0.00    -0.237 OA
ATOM     58  O   UNL A   1      44.485  21.568  23.395  1.00  0.00    -0.237 OA
ATOM     59  O   UNL A   1      45.563  21.129  25.565  1.00  0.00    -0.744 OA
ENDBRANCH  55  56
ENDBRANCH  27  50
BRANCH  39  60
ATOM     60  C   UNL A   1      45.241  31.166  29.085  1.00  0.00    -0.014 A 
ATOM     61  C   UNL A   1      44.249  31.745  28.267  1.00  0.00     0.010 A 
ATOM     62  C   UNL A   1      46.525  31.734  29.080  1.00  0.00     0.010 A 
ATOM     63  C   UNL A   1      44.548  32.846  27.447  1.00  0.00     0.020 A 
ATOM     64  C   UNL A   1      46.824  32.839  28.280  1.00  0.00     0.020 A 
ATOM     65  C   UNL A   1      45.838  33.385  27.460  1.00  0.00     0.054 A 
BRANCH  65  66
ATOM     66  S   UNL A   1      46.220  34.829  26.426  1.00  0.00     0.124 S 
ATOM     67  O   UNL A   1      44.895  35.283  26.013  1.00  0.00    -0.237 OA
ATOM     68  O   UNL A   1      46.929  35.712  27.350  1.00  0.00    -0.237 OA
ATOM     69  O   UNL A   1      47.047  34.279  25.352  1.00  0.00    -0.744 OA
ENDBRANCH  65  66
ENDBRANCH  39  60
ENDBRANCH  13  14
ENDBRANCH   6   8
ENDBRANCH   5   6
ENDBRANCH   4   5
ENDBRANCH   3   4
ENDBRANCH   2   3
ENDBRANCH   1   2
BRANCH   1  70
ATOM     70  C   UNL A   1      35.149  34.991  33.082  1.00  0.00     0.261 C 
BRANCH  70  71
ATOM     71  O   UNL A   1      36.554  35.030  32.761  1.00  0.00    -0.460 OA
BRANCH  71  72
ATOM     72  C   UNL A   1      37.278  33.938  33.131  1.00  0.00     0.338 C 
ATOM     73  O   UNL A   1      36.889  32.798  33.224  1.00  0.00    -0.246 OA
BRANCH  72  74
ATOM     74  C   UNL A   1      38.715  34.316  33.142  1.00  0.00     0.060 A 
ATOM     75  C   UNL A   1      39.246  34.849  34.330  1.00  0.00     0.018 A 
ATOM     76  C   UNL A   1      39.537  34.100  32.035  1.00  0.00     0.018 A 
ATOM     77  C   UNL A   1      40.602  35.168  34.418  1.00  0.00     0.029 A 
ATOM     78  C   UNL A   1      40.900  34.399  32.124  1.00  0.00     0.029 A 
ATOM     79  C   UNL A   1      41.423  34.937  33.313  1.00  0.00     0.066 A 
BRANCH  79  80
ATOM     80  N   UNL A   1      42.778  35.325  33.351  1.00  0.00    -0.220 N 
ATOM     81  C   UNL A   1      43.306  36.361  34.102  1.00  0.00     0.141 A 
ATOM     82  N   UNL A   1      43.664  34.943  32.414  1.00  0.00    -0.062 NA
ATOM     83  C   UNL A   1      44.477  36.698  33.460  1.00  0.00     0.093 A 
ATOM     84  N   UNL A   1      44.728  35.719  32.520  1.00  0.00    -0.134 NA
BRANCH  83  85
ATOM     85  C   UNL A   1      45.312  37.919  33.327  1.00  0.00     0.138 C 
BRANCH  85  86
ATOM     86  S   UNL A   1      45.722  38.889  31.899  1.00  0.00    -0.081 SA
BRANCH  86  87
ATOM     87  C   UNL A   1      44.545  38.904  30.630  1.00  0.00     0.176 A 
ATOM     88  N   UNL A   1      44.172  37.694  30.332  1.00  0.00    -0.223 NA
ATOM     89  N   UNL A   1      44.009  40.011  29.989  1.00  0.00    -0.255 N 
ATOM     90  C   UNL A   1      43.326  37.495  29.242  1.00  0.00     0.079 A 
ATOM     91  C   UNL A   1      43.732  39.799  28.628  1.00  0.00     0.266 A 
ATOM     92  C   UNL A   1      42.677  36.276  29.044  1.00  0.00     0.029 A 
ATOM     93  C   UNL A   1      43.228  38.469  28.262  1.00  0.00     0.066 A 
ATOM     94  O   UNL A   1      43.911  40.610  27.720  1.00  0.00    -0.268 OA
ATOM     95  C   UNL A   1      42.014  36.021  27.838  1.00  0.00     0.002 A 
ATOM     96  C   UNL A   1      42.627  38.209  27.029  1.00  0.00     0.016 A 
ATOM     97  C   UNL A   1      42.027  36.970  26.815  1.00  0.00     0.001 A 
BRANCH  89  98
ATOM     98  C   UNL A   1      43.802  41.347  30.527  1.00  0.00     0.051 A 
ATOM     99  C   UNL A   1      42.690  41.602  31.355  1.00  0.00     0.027 A 
ATOM    100  C   UNL A   1      44.636  42.443  30.292  1.00  0.00     0.027 A 
ATOM    101  C   UNL A   1      42.306  42.897  31.717  1.00  0.00     0.002 A 
ATOM    102  C   UNL A   1      44.223  43.752  30.581  1.00  0.00     0.002 A 
ATOM    103  C   UNL A   1      43.038  43.980  31.265  1.00  0.00     0.000 A 
ENDBRANCH  89  98
ENDBRANCH  86  87
ENDBRANCH  85  86
ENDBRANCH  83  85
ENDBRANCH  79  80
ENDBRANCH  72  74
ENDBRANCH  71  72
ENDBRANCH  70  71
ENDBRANCH   1  70
TORSDOF 22
ENDMDL
MODEL 3
REMARK VINA RESULT:      -9.3      4.462     11.611
REMARK SMILES O=C(OCCOCCOC(=O)c1ccc(-n2cc(CSc3nc4ccccc4c(=O)n3-c3ccccc3)nn2)cc1)c1ccc(-c2c3nc(c(-c4ccc(S(=O)(=O)[O-])cc4)c4ccc([nH]4)c(-c4ccc(S(=O)(=O)[O-])cc4)c4nc(c(-c5ccc(S(=O)(=O)[O-])cc5)c5ccc2[nH]5)C=C4)C=C3)cc1
REMARK SMILES IDX 7 1 6 2 5 3 4 4 3 5 2 6 1 7 42 8 43 9 101 10 44 11 100 12
REMARK SMILES IDX 45 13 46 14 47 15 94 16 48 17 99 18 93 19 95 20 49 21 98 22
REMARK SMILES IDX 92 23 91 24 50 26 80 27 61 28 79 29 62 30 65 31 78 32 96 33
REMARK SMILES IDX 63 34 64 35 77 37 97 38 66 39 51 40 52 41 60 42 53 43 59 44
REMARK SMILES IDX 54 45 55 46 56 47 57 48 58 49 81 50 82 51 90 52 83 53 89 54
REMARK SMILES IDX 84 55 85 56 86 57 87 58 88 59 67 60 68 61 76 62 69 63 75 64
REMARK SMILES IDX 70 65 71 66 72 67 73 68 74 69 8 70 9 71 10 72 11 73 12 74
REMARK SMILES IDX 13 75 41 76 14 77 40 78 15 79 16 80 17 81 39 82 18 83 38 84
REMARK SMILES IDX 19 85 20 86 21 87 22 88 31 89 23 90 29 91 24 92 28 93 30 94
REMARK SMILES IDX 25 95 27 96 26 97 32 98 33 99 37 100 34 101 36 102 35 103
REMARK H PARENT 95 25 65 36
REMARK Flexibility Score: inf
ROOT
ATOM      1  C   UNL A   1      34.185  34.734  31.686  1.00  0.00     0.202 C 
ENDROOT
BRANCH   1   2
ATOM      2  O   UNL A   1      34.011  35.208  30.342  1.00  0.00    -0.374 OA
BRANCH   2   3
ATOM      3  C   UNL A   1      34.892  34.706  29.348  1.00  0.00     0.202 C 
BRANCH   3   4
ATOM      4  C   UNL A   1      34.317  34.021  28.111  1.00  0.00     0.261 C 
BRANCH   4   5
ATOM      5  O   UNL A   1      35.144  32.976  27.579  1.00  0.00    -0.460 OA
BRANCH   5   6
ATOM      6  C   UNL A   1      34.985  31.656  27.813  1.00  0.00     0.338 C 
ATOM      7  O   UNL A   1      34.098  31.036  27.230  1.00  0.00    -0.246 OA
BRANCH   6   8
ATOM      8  C   UNL A   1      36.002  30.906  28.597  1.00  0.00     0.060 A 
ATOM      9  C   UNL A   1      36.788  31.452  29.610  1.00  0.00     0.016 A 
ATOM     10  C   UNL A   1      36.295  29.617  28.124  1.00  0.00     0.016 A 
ATOM     11  C   UNL A   1      38.019  30.907  29.880  1.00  0.00     0.010 A 
ATOM     12  C   UNL A   1      37.495  29.020  28.452  1.00  0.00     0.010 A 
ATOM     13  C   UNL A   1      38.397  29.746  29.216  1.00  0.00    -0.014 A 
BRANCH  13  14
ATOM     14  C   UNL A   1      39.760  29.300  29.403  1.00  0.00     0.031 A 
ATOM     15  C   UNL A   1      40.111  29.106  30.829  1.00  0.00     0.074 A 
ATOM     16  C   UNL A   1      40.569  29.064  28.355  1.00  0.00     0.049 A 
ATOM     17  N   UNL A   1      40.921  29.810  31.548  1.00  0.00    -0.248 NA
ATOM     18  C   UNL A   1      39.297  28.151  31.600  1.00  0.00     0.031 C 
ATOM     19  C   UNL A   1      40.227  29.018  26.930  1.00  0.00     0.029 A 
ATOM     20  N   UNL A   1      41.871  28.691  28.359  1.00  0.00    -0.354 N 
ATOM     21  C   UNL A   1      40.897  29.227  32.811  1.00  0.00     0.074 A 
ATOM     22  C   UNL A   1      39.742  28.367  32.836  1.00  0.00     0.031 C 
ATOM     23  C   UNL A   1      41.206  28.365  26.261  1.00  0.00     0.029 A 
ATOM     24  C   UNL A   1      42.295  28.087  27.183  1.00  0.00     0.049 A 
ATOM     25  H   UNL A   1      42.465  28.836  29.130  1.00  0.00     0.167 HD
ATOM     26  C   UNL A   1      41.984  29.268  33.629  1.00  0.00     0.031 A 
ATOM     27  C   UNL A   1      43.417  27.336  27.025  1.00  0.00     0.031 A 
ATOM     28  C   UNL A   1      42.914  30.292  33.226  1.00  0.00     0.049 A 
ATOM     29  C   UNL A   1      44.322  27.675  28.156  1.00  0.00     0.074 A 
ATOM     30  C   UNL A   1      42.853  31.666  33.106  1.00  0.00     0.029 A 
ATOM     31  N   UNL A   1      43.999  29.892  32.482  1.00  0.00    -0.354 N 
ATOM     32  N   UNL A   1      44.853  28.858  28.309  1.00  0.00    -0.248 NA
ATOM     33  C   UNL A   1      44.225  26.878  29.371  1.00  0.00     0.031 C 
ATOM     34  C   UNL A   1      43.597  31.964  31.926  1.00  0.00     0.029 A 
ATOM     35  C   UNL A   1      44.134  30.771  31.438  1.00  0.00     0.049 A 
ATOM     36  H   UNL A   1      44.576  29.116  32.665  1.00  0.00     0.167 HD
ATOM     37  C   UNL A   1      44.754  29.125  29.668  1.00  0.00     0.074 A 
ATOM     38  C   UNL A   1      44.433  27.835  30.282  1.00  0.00     0.031 C 
ATOM     39  C   UNL A   1      44.648  30.405  30.135  1.00  0.00     0.031 A 
BRANCH  26  40
ATOM     40  C   UNL A   1      42.406  28.088  34.473  1.00  0.00    -0.014 A 
ATOM     41  C   UNL A   1      42.462  28.247  35.872  1.00  0.00     0.010 A 
ATOM     42  C   UNL A   1      43.037  26.947  33.933  1.00  0.00     0.010 A 
ATOM     43  C   UNL A   1      43.197  27.362  36.672  1.00  0.00     0.020 A 
ATOM     44  C   UNL A   1      43.735  26.037  34.725  1.00  0.00     0.020 A 
ATOM     45  C   UNL A   1      43.846  26.275  36.086  1.00  0.00     0.054 A 
BRANCH  45  46
ATOM     46  S   UNL A   1      44.900  25.217  37.104  1.00  0.00     0.124 S 
ATOM     47  O   UNL A   1      44.442  25.544  38.450  1.00  0.00    -0.237 OA
ATOM     48  O   UNL A   1      44.553  23.883  36.621  1.00  0.00    -0.237 OA
ATOM     49  O   UNL A   1      46.252  25.662  36.774  1.00  0.00    -0.744 OA
ENDBRANCH  45  46
ENDBRANCH  26  40
BRANCH  27  50
ATOM     50  C   UNL A   1      43.543  26.086  26.227  1.00  0.00    -0.014 A 
ATOM     51  C   UNL A   1      44.714  25.792  25.500  1.00  0.00     0.010 A 
ATOM     52  C   UNL A   1      42.607  25.044  26.398  1.00  0.00     0.010 A 
ATOM     53  C   UNL A   1      44.957  24.493  25.011  1.00  0.00     0.020 A 
ATOM     54  C   UNL A   1      42.840  23.752  25.911  1.00  0.00     0.020 A 
ATOM     55  C   UNL A   1      44.026  23.475  25.238  1.00  0.00     0.054 A 
BRANCH  55  56
ATOM     56  S   UNL A   1      44.418  21.766  24.755  1.00  0.00     0.124 S 
ATOM     57  O   UNL A   1      45.637  21.499  25.513  1.00  0.00    -0.237 OA
ATOM     58  O   UNL A   1      43.232  21.032  25.187  1.00  0.00    -0.237 OA
ATOM     59  O   UNL A   1      44.596  21.849  23.306  1.00  0.00    -0.744 OA
ENDBRANCH  55  56
ENDBRANCH  27  50
BRANCH  39  60
ATOM     60  C   UNL A   1      44.876  31.545  29.165  1.00  0.00    -0.014 A 
ATOM     61  C   UNL A   1      43.870  32.089  28.340  1.00  0.00     0.010 A 
ATOM     62  C   UNL A   1      46.122  32.193  29.214  1.00  0.00     0.010 A 
ATOM     63  C   UNL A   1      44.119  33.235  27.566  1.00  0.00     0.020 A 
ATOM     64  C   UNL A   1      46.370  33.341  28.460  1.00  0.00     0.020 A 
ATOM     65  C   UNL A   1      45.372  33.853  27.632  1.00  0.00     0.054 A 
BRANCH  65  66
ATOM     66  S   UNL A   1      45.686  35.354  26.658  1.00  0.00     0.124 S 
ATOM     67  O   UNL A   1      45.507  34.886  25.287  1.00  0.00    -0.237 OA
ATOM     68  O   UNL A   1      44.666  36.278  27.147  1.00  0.00    -0.237 OA
ATOM     69  O   UNL A   1      47.058  35.717  27.012  1.00  0.00    -0.744 OA
ENDBRANCH  65  66
ENDBRANCH  39  60
ENDBRANCH  13  14
ENDBRANCH   6   8
ENDBRANCH   5   6
ENDBRANCH   4   5
ENDBRANCH   3   4
ENDBRANCH   2   3
ENDBRANCH   1   2
BRANCH   1  70
ATOM     70  C   UNL A   1      35.061  35.521  32.680  1.00  0.00     0.261 C 
BRANCH  70  71
ATOM     71  O   UNL A   1      36.158  34.749  33.208  1.00  0.00    -0.460 OA
BRANCH  71  72
ATOM     72  C   UNL A   1      35.839  33.853  34.183  1.00  0.00     0.338 C 
ATOM     73  O   UNL A   1      34.954  33.030  34.162  1.00  0.00    -0.246 OA
BRANCH  72  74
ATOM     74  C   UNL A   1      36.933  33.852  35.188  1.00  0.00     0.060 A 
ATOM     75  C   UNL A   1      38.220  34.223  34.759  1.00  0.00     0.018 A 
ATOM     76  C   UNL A   1      36.695  33.554  36.530  1.00  0.00     0.018 A 
ATOM     77  C   UNL A   1      39.275  34.297  35.670  1.00  0.00     0.029 A 
ATOM     78  C   UNL A   1      37.743  33.646  37.451  1.00  0.00     0.029 A 
ATOM     79  C   UNL A   1      39.029  34.011  37.014  1.00  0.00     0.066 A 
BRANCH  79  80
ATOM     80  N   UNL A   1      40.094  34.003  37.937  1.00  0.00    -0.220 N 
ATOM     81  C   UNL A   1      41.034  32.997  38.085  1.00  0.00     0.141 A 
ATOM     82  N   UNL A   1      40.129  34.820  39.005  1.00  0.00    -0.062 NA
ATOM     83  C   UNL A   1      41.512  33.150  39.368  1.00  0.00     0.093 A 
ATOM     84  N   UNL A   1      41.037  34.356  39.843  1.00  0.00    -0.134 NA
BRANCH  83  85
ATOM     85  C   UNL A   1      42.113  32.265  40.398  1.00  0.00     0.138 C 
BRANCH  85  86
ATOM     86  S   UNL A   1      41.496  31.747  41.979  1.00  0.00    -0.081 SA
BRANCH  86  87
ATOM     87  C   UNL A   1      39.796  31.955  42.234  1.00  0.00     0.176 A 
ATOM     88  N   UNL A   1      39.128  31.641  41.163  1.00  0.00    -0.223 NA
ATOM     89  N   UNL A   1      39.162  32.370  43.395  1.00  0.00    -0.255 N 
ATOM     90  C   UNL A   1      37.752  31.871  41.132  1.00  0.00     0.079 A 
ATOM     91  C   UNL A   1      38.016  33.152  43.166  1.00  0.00     0.266 A 
ATOM     92  C   UNL A   1      36.949  31.309  40.140  1.00  0.00     0.029 A 
ATOM     93  C   UNL A   1      37.188  32.778  42.014  1.00  0.00     0.066 A 
ATOM     94  O   UNL A   1      37.674  34.137  43.818  1.00  0.00    -0.268 OA
ATOM     95  C   UNL A   1      35.620  31.724  39.993  1.00  0.00     0.002 A 
ATOM     96  C   UNL A   1      35.885  33.251  41.842  1.00  0.00     0.016 A 
ATOM     97  C   UNL A   1      35.103  32.726  40.816  1.00  0.00     0.001 A 
BRANCH  89  98
ATOM     98  C   UNL A   1      39.590  32.175  44.771  1.00  0.00     0.051 A 
ATOM     99  C   UNL A   1      39.667  30.870  45.301  1.00  0.00     0.027 A 
ATOM    100  C   UNL A   1      39.949  33.199  45.651  1.00  0.00     0.027 A 
ATOM    101  C   UNL A   1      39.849  30.624  46.665  1.00  0.00     0.002 A 
ATOM    102  C   UNL A   1      40.055  32.974  47.032  1.00  0.00     0.002 A 
ATOM    103  C   UNL A   1      39.970  31.687  47.543  1.00  0.00     0.000 A 
ENDBRANCH  89  98
ENDBRANCH  86  87
ENDBRANCH  85  86
ENDBRANCH  83  85
ENDBRANCH  79  80
ENDBRANCH  72  74
ENDBRANCH  71  72
ENDBRANCH  70  71
ENDBRANCH   1  70
TORSDOF 22
ENDMDL
