MODEL 1
REMARK VINA RESULT:      -9.9      0.000      0.000
REMARK SMILES CC(C)(C)OC(=O)N[C@H](Cc1ccc(O)c(Cl)c1)C(=O)OCCOCCOC(=O)c1ccc(-c2c3nc(c(-c4ccc(S(=O)(=O)[O-])cc4)c4ccc([nH]4)c(-c4ccc(S(=O)(=O)[O-])cc4)c4nc(c(-c5ccc(S(=O)(=O)[O-])cc5)c5ccc2[nH]5)C=C4)C=C3)cc1
REMARK SMILES IDX 24 1 23 2 22 3 21 4 19 5 20 6 9 7 8 8 6 9 7 10 5 12 2 13
REMARK SMILES IDX 1 14 3 15 4 16 10 17 11 18 12 19 18 20 13 21 16 22 14 23
REMARK SMILES IDX 17 24 15 25 25 27 26 28 27 29 28 30 29 31 30 32 31 33 89 34
REMARK SMILES IDX 32 35 88 36 33 37 34 38 35 39 82 40 36 41 87 42 81 43 83 44
REMARK SMILES IDX 37 45 86 46 80 47 79 48 38 50 68 51 49 52 67 53 50 54 53 55
REMARK SMILES IDX 66 56 84 57 51 58 52 59 65 61 85 62 54 63 39 64 40 65 48 66
REMARK SMILES IDX 41 67 47 68 42 69 43 70 44 71 45 72 46 73 69 74 70 75 78 76
REMARK SMILES IDX 71 77 77 78 72 79 73 80 74 81 75 82 76 83 55 84 56 85 64 86
REMARK SMILES IDX 57 87 63 88 58 89 59 90 60 91 61 92 62 93
REMARK H PARENT 8 11 15 26 83 49 53 60
REMARK Flexibility Score: inf
ROOT
ATOM      1  O   UNL A   1      39.024  22.260  26.483  1.00  0.00    -0.374 OA
ENDROOT
BRANCH   1   2
ATOM      2  C   UNL A   1      38.034  22.991  25.763  1.00  0.00     0.202 C 
BRANCH   2   3
ATOM      3  C   UNL A   1      36.602  22.459  25.816  1.00  0.00     0.261 C 
BRANCH   3   4
ATOM      4  O   UNL A   1      36.197  21.867  24.572  1.00  0.00    -0.462 OA
BRANCH   4   5
ATOM      5  C   UNL A   1      35.838  22.746  23.602  1.00  0.00     0.329 C 
ATOM      6  O   UNL A   1      36.586  23.159  22.717  1.00  0.00    -0.250 OA
BRANCH   5   7
ATOM      7  C   UNL A   1      34.400  23.262  23.741  1.00  0.00     0.199 C 
BRANCH   7   8
ATOM      8  N   UNL A   1      33.567  22.138  24.160  1.00  0.00    -0.308 N 
ATOM      9  C   UNL A   1      32.560  22.201  25.076  1.00  0.00     0.408 C 
ATOM     10  O   UNL A   1      31.841  21.227  25.275  1.00  0.00    -0.225 OA
ATOM     11  H   UNL A   1      33.748  21.263  23.748  1.00  0.00     0.168 HD
BRANCH   9  12
ATOM     12  O   UNL A   1      32.450  23.415  25.659  1.00  0.00    -0.444 OA
BRANCH  12  13
ATOM     13  C   UNL A   1      31.154  24.045  25.838  1.00  0.00     0.106 C 
ATOM     14  C   UNL A   1      31.438  25.371  26.564  1.00  0.00     0.056 C 
ATOM     15  C   UNL A   1      30.233  23.199  26.724  1.00  0.00     0.056 C 
ATOM     16  C   UNL A   1      30.519  24.363  24.479  1.00  0.00     0.056 C 
ENDBRANCH  12  13
ENDBRANCH   9  12
ENDBRANCH   7   8
BRANCH   7  17
ATOM     17  C   UNL A   1      33.793  24.120  22.609  1.00  0.00     0.072 C 
BRANCH  17  18
ATOM     18  C   UNL A   1      33.674  25.598  22.981  1.00  0.00    -0.044 A 
ATOM     19  C   UNL A   1      33.235  26.554  22.052  1.00  0.00     0.008 A 
ATOM     20  C   UNL A   1      34.026  26.036  24.267  1.00  0.00     0.028 A 
ATOM     21  C   UNL A   1      33.083  27.897  22.414  1.00  0.00     0.048 A 
ATOM     22  C   UNL A   1      33.876  27.379  24.634  1.00  0.00     0.083 A 
ATOM     23  C   UNL A   1      33.394  28.307  23.708  1.00  0.00     0.134 A 
ATOM     24  Cl  UNL A   1      34.288  27.848  26.243  1.00  0.00    -0.080 Cl
BRANCH  23  25
ATOM     25  O   UNL A   1      33.230  29.616  24.066  1.00  0.00    -0.506 OA
ATOM     26  H   UNL A   1      33.121  30.272  23.406  1.00  0.00     0.293 HD
ENDBRANCH  23  25
ENDBRANCH  17  18
ENDBRANCH   7  17
ENDBRANCH   5   7
ENDBRANCH   4   5
ENDBRANCH   3   4
ENDBRANCH   2   3
ENDBRANCH   1   2
BRANCH   1  27
ATOM     27  C   UNL A   1      39.989  22.989  27.241  1.00  0.00     0.202 C 
BRANCH  27  28
ATOM     28  C   UNL A   1      40.788  24.082  26.519  1.00  0.00     0.261 C 
BRANCH  28  29
ATOM     29  O   UNL A   1      40.001  25.244  26.194  1.00  0.00    -0.460 OA
BRANCH  29  30
ATOM     30  C   UNL A   1      40.689  26.412  26.268  1.00  0.00     0.338 C 
ATOM     31  O   UNL A   1      41.497  26.837  25.458  1.00  0.00    -0.246 OA
BRANCH  30  32
ATOM     32  C   UNL A   1      40.214  27.249  27.385  1.00  0.00     0.060 A 
ATOM     33  C   UNL A   1      40.714  28.555  27.459  1.00  0.00     0.016 A 
ATOM     34  C   UNL A   1      39.451  26.720  28.427  1.00  0.00     0.016 A 
ATOM     35  C   UNL A   1      40.520  29.313  28.610  1.00  0.00     0.010 A 
ATOM     36  C   UNL A   1      39.258  27.485  29.586  1.00  0.00     0.010 A 
ATOM     37  C   UNL A   1      39.838  28.763  29.703  1.00  0.00    -0.014 A 
BRANCH  37  38
ATOM     38  C   UNL A   1      39.899  29.464  31.012  1.00  0.00     0.031 A 
ATOM     39  C   UNL A   1      41.049  29.181  31.944  1.00  0.00     0.074 A 
ATOM     40  C   UNL A   1      38.986  30.400  31.334  1.00  0.00     0.049 A 
ATOM     41  N   UNL A   1      41.312  29.699  33.117  1.00  0.00    -0.248 NA
ATOM     42  C   UNL A   1      42.035  28.184  31.495  1.00  0.00     0.031 C 
ATOM     43  C   UNL A   1      37.860  30.806  30.495  1.00  0.00     0.029 A 
ATOM     44  N   UNL A   1      38.872  31.184  32.454  1.00  0.00    -0.354 N 
ATOM     45  C   UNL A   1      42.483  29.086  33.550  1.00  0.00     0.074 A 
ATOM     46  C   UNL A   1      42.863  28.134  32.529  1.00  0.00     0.031 C 
ATOM     47  C   UNL A   1      37.170  31.770  31.128  1.00  0.00     0.029 A 
ATOM     48  C   UNL A   1      37.785  32.025  32.431  1.00  0.00     0.049 A 
ATOM     49  H   UNL A   1      39.509  31.149  33.204  1.00  0.00     0.167 HD
ATOM     50  C   UNL A   1      43.187  29.302  34.687  1.00  0.00     0.031 A 
ATOM     51  C   UNL A   1      37.327  32.890  33.357  1.00  0.00     0.031 A 
ATOM     52  C   UNL A   1      42.806  30.246  35.705  1.00  0.00     0.049 A 
ATOM     53  C   UNL A   1      38.085  33.060  34.648  1.00  0.00     0.074 A 
ATOM     54  C   UNL A   1      43.459  30.545  36.889  1.00  0.00     0.029 A 
ATOM     55  N   UNL A   1      41.670  31.040  35.666  1.00  0.00    -0.354 N 
ATOM     56  N   UNL A   1      39.200  32.483  35.033  1.00  0.00    -0.248 NA
ATOM     57  C   UNL A   1      37.529  34.006  35.625  1.00  0.00     0.031 C 
ATOM     58  C   UNL A   1      42.685  31.473  37.593  1.00  0.00     0.029 A 
ATOM     59  C   UNL A   1      41.587  31.807  36.816  1.00  0.00     0.049 A 
ATOM     60  H   UNL A   1      41.018  31.056  34.928  1.00  0.00     0.167 HD
ATOM     61  C   UNL A   1      39.495  33.023  36.281  1.00  0.00     0.074 A 
ATOM     62  C   UNL A   1      38.448  33.979  36.580  1.00  0.00     0.031 C 
ATOM     63  C   UNL A   1      40.540  32.756  37.103  1.00  0.00     0.031 A 
BRANCH  50  64
ATOM     64  C   UNL A   1      44.426  28.471  34.911  1.00  0.00    -0.014 A 
ATOM     65  C   UNL A   1      45.704  28.957  34.582  1.00  0.00     0.010 A 
ATOM     66  C   UNL A   1      44.309  27.197  35.498  1.00  0.00     0.010 A 
ATOM     67  C   UNL A   1      46.838  28.167  34.796  1.00  0.00     0.020 A 
ATOM     68  C   UNL A   1      45.443  26.417  35.742  1.00  0.00     0.020 A 
ATOM     69  C   UNL A   1      46.699  26.900  35.373  1.00  0.00     0.054 A 
BRANCH  69  70
ATOM     70  S   UNL A   1      48.190  25.905  35.657  1.00  0.00     0.124 S 
ATOM     71  O   UNL A   1      48.091  25.616  37.086  1.00  0.00    -0.237 OA
ATOM     72  O   UNL A   1      47.985  24.763  34.771  1.00  0.00    -0.237 OA
ATOM     73  O   UNL A   1      49.281  26.798  35.276  1.00  0.00    -0.744 OA
ENDBRANCH  69  70
ENDBRANCH  50  64
BRANCH  51  74
ATOM     74  C   UNL A   1      36.074  33.654  33.104  1.00  0.00    -0.014 A 
ATOM     75  C   UNL A   1      36.112  34.925  32.504  1.00  0.00     0.010 A 
ATOM     76  C   UNL A   1      34.829  33.107  33.467  1.00  0.00     0.010 A 
ATOM     77  C   UNL A   1      34.931  35.641  32.288  1.00  0.00     0.020 A 
ATOM     78  C   UNL A   1      33.644  33.806  33.223  1.00  0.00     0.020 A 
ATOM     79  C   UNL A   1      33.704  35.075  32.645  1.00  0.00     0.054 A 
BRANCH  79  80
ATOM     80  S   UNL A   1      32.181  36.001  32.308  1.00  0.00     0.124 S 
ATOM     81  O   UNL A   1      32.258  37.081  33.286  1.00  0.00    -0.237 OA
ATOM     82  O   UNL A   1      32.357  36.396  30.912  1.00  0.00    -0.237 OA
ATOM     83  O   UNL A   1      31.125  35.019  32.541  1.00  0.00    -0.744 OA
ENDBRANCH  79  80
ENDBRANCH  51  74
BRANCH  63  84
ATOM     84  C   UNL A   1      40.636  33.538  38.389  1.00  0.00    -0.014 A 
ATOM     85  C   UNL A   1      40.017  33.092  39.569  1.00  0.00     0.010 A 
ATOM     86  C   UNL A   1      41.405  34.716  38.425  1.00  0.00     0.010 A 
ATOM     87  C   UNL A   1      40.134  33.828  40.753  1.00  0.00     0.020 A 
ATOM     88  C   UNL A   1      41.551  35.439  39.612  1.00  0.00     0.020 A 
ATOM     89  C   UNL A   1      40.900  34.998  40.765  1.00  0.00     0.054 A 
BRANCH  89  90
ATOM     90  S   UNL A   1      41.065  35.917  42.321  1.00  0.00     0.124 S 
ATOM     91  O   UNL A   1      40.796  37.288  41.895  1.00  0.00    -0.237 OA
ATOM     92  O   UNL A   1      40.038  35.307  43.163  1.00  0.00    -0.237 OA
ATOM     93  O   UNL A   1      42.442  35.652  42.736  1.00  0.00    -0.744 OA
ENDBRANCH  89  90
ENDBRANCH  63  84
ENDBRANCH  37  38
ENDBRANCH  30  32
ENDBRANCH  29  30
ENDBRANCH  28  29
ENDBRANCH  27  28
ENDBRANCH   1  27
TORSDOF 23
ENDMDL
MODEL 2
REMARK VINA RESULT:      -9.8      6.468      8.810
REMARK SMILES CC(C)(C)OC(=O)N[C@H](Cc1ccc(O)c(Cl)c1)C(=O)OCCOCCOC(=O)c1ccc(-c2c3nc(c(-c4ccc(S(=O)(=O)[O-])cc4)c4ccc([nH]4)c(-c4ccc(S(=O)(=O)[O-])cc4)c4nc(c(-c5ccc(S(=O)(=O)[O-])cc5)c5ccc2[nH]5)C=C4)C=C3)cc1
REMARK SMILES IDX 24 1 23 2 22 3 21 4 19 5 20 6 9 7 8 8 6 9 7 10 5 12 2 13
REMARK SMILES IDX 1 14 3 15 4 16 10 17 11 18 12 19 18 20 13 21 16 22 14 23
REMARK SMILES IDX 17 24 15 25 25 27 26 28 27 29 28 30 29 31 30 32 31 33 89 34
REMARK SMILES IDX 32 35 88 36 33 37 34 38 35 39 82 40 36 41 87 42 81 43 83 44
REMARK SMILES IDX 37 45 86 46 80 47 79 48 38 50 68 51 49 52 67 53 50 54 53 55
REMARK SMILES IDX 66 56 84 57 51 58 52 59 65 61 85 62 54 63 39 64 40 65 48 66
REMARK SMILES IDX 41 67 47 68 42 69 43 70 44 71 45 72 46 73 69 74 70 75 78 76
REMARK SMILES IDX 71 77 77 78 72 79 73 80 74 81 75 82 76 83 55 84 56 85 64 86
REMARK SMILES IDX 57 87 63 88 58 89 59 90 60 91 61 92 62 93
REMARK H PARENT 8 11 15 26 83 49 53 60
REMARK Flexibility Score: inf
ROOT
ATOM      1  O   UNL A   1      37.565  21.326  25.877  1.00  0.00    -0.374 OA
ENDROOT
BRANCH   1   2
ATOM      2  C   UNL A   1      38.022  22.671  25.755  1.00  0.00     0.202 C 
BRANCH   2   3
ATOM      3  C   UNL A   1      36.969  23.736  25.450  1.00  0.00     0.261 C 
BRANCH   3   4
ATOM      4  O   UNL A   1      35.696  23.425  26.038  1.00  0.00    -0.462 OA
BRANCH   4   5
ATOM      5  C   UNL A   1      34.614  23.748  25.283  1.00  0.00     0.329 C 
ATOM      6  O   UNL A   1      34.576  24.669  24.471  1.00  0.00    -0.250 OA
BRANCH   5   7
ATOM      7  C   UNL A   1      33.376  22.895  25.587  1.00  0.00     0.199 C 
BRANCH   7   8
ATOM      8  N   UNL A   1      32.512  23.672  26.473  1.00  0.00    -0.308 N 
ATOM      9  C   UNL A   1      31.400  24.359  26.086  1.00  0.00     0.408 C 
ATOM     10  O   UNL A   1      30.675  24.886  26.923  1.00  0.00    -0.225 OA
ATOM     11  H   UNL A   1      32.753  23.703  27.426  1.00  0.00     0.168 HD
BRANCH   9  12
ATOM     12  O   UNL A   1      31.206  24.341  24.749  1.00  0.00    -0.444 OA
BRANCH  12  13
ATOM     13  C   UNL A   1      31.037  25.575  24.001  1.00  0.00     0.106 C 
ATOM     14  C   UNL A   1      31.526  25.262  22.577  1.00  0.00     0.056 C 
ATOM     15  C   UNL A   1      31.902  26.703  24.570  1.00  0.00     0.056 C 
ATOM     16  C   UNL A   1      29.555  25.960  23.930  1.00  0.00     0.056 C 
ENDBRANCH  12  13
ENDBRANCH   9  12
ENDBRANCH   7   8
BRANCH   7  17
ATOM     17  C   UNL A   1      33.560  21.420  26.008  1.00  0.00     0.072 C 
BRANCH  17  18
ATOM     18  C   UNL A   1      33.090  20.434  24.939  1.00  0.00    -0.044 A 
ATOM     19  C   UNL A   1      32.548  20.876  23.723  1.00  0.00     0.008 A 
ATOM     20  C   UNL A   1      33.173  19.051  25.165  1.00  0.00     0.028 A 
ATOM     21  C   UNL A   1      32.164  19.967  22.729  1.00  0.00     0.048 A 
ATOM     22  C   UNL A   1      32.790  18.138  24.175  1.00  0.00     0.083 A 
ATOM     23  C   UNL A   1      32.296  18.599  22.952  1.00  0.00     0.134 A 
ATOM     24  Cl  UNL A   1      32.954  16.450  24.497  1.00  0.00    -0.080 Cl
BRANCH  23  25
ATOM     25  O   UNL A   1      31.937  17.712  21.976  1.00  0.00    -0.506 OA
ATOM     26  H   UNL A   1      31.086  17.320  21.988  1.00  0.00     0.293 HD
ENDBRANCH  23  25
ENDBRANCH  17  18
ENDBRANCH   7  17
ENDBRANCH   5   7
ENDBRANCH   4   5
ENDBRANCH   3   4
ENDBRANCH   2   3
ENDBRANCH   1   2
BRANCH   1  27
ATOM     27  C   UNL A   1      38.122  20.338  25.010  1.00  0.00     0.202 C 
BRANCH  27  28
ATOM     28  C   UNL A   1      39.231  19.438  25.571  1.00  0.00     0.261 C 
BRANCH  28  29
ATOM     29  O   UNL A   1      40.180  20.147  26.391  1.00  0.00    -0.460 OA
BRANCH  29  30
ATOM     30  C   UNL A   1      41.472  19.794  26.166  1.00  0.00     0.338 C 
ATOM     31  O   UNL A   1      41.869  18.760  25.654  1.00  0.00    -0.246 OA
BRANCH  30  32
ATOM     32  C   UNL A   1      42.392  20.911  26.447  1.00  0.00     0.060 A 
ATOM     33  C   UNL A   1      42.422  21.394  27.762  1.00  0.00     0.016 A 
ATOM     34  C   UNL A   1      43.067  21.584  25.428  1.00  0.00     0.016 A 
ATOM     35  C   UNL A   1      43.061  22.597  28.049  1.00  0.00     0.010 A 
ATOM     36  C   UNL A   1      43.708  22.796  25.720  1.00  0.00     0.010 A 
ATOM     37  C   UNL A   1      43.662  23.333  27.021  1.00  0.00    -0.014 A 
BRANCH  37  38
ATOM     38  C   UNL A   1      44.071  24.736  27.290  1.00  0.00     0.031 A 
ATOM     39  C   UNL A   1      45.509  25.136  27.072  1.00  0.00     0.074 A 
ATOM     40  C   UNL A   1      43.162  25.663  27.646  1.00  0.00     0.049 A 
ATOM     41  N   UNL A   1      46.074  26.308  27.218  1.00  0.00    -0.248 NA
ATOM     42  C   UNL A   1      46.431  24.078  26.629  1.00  0.00     0.031 C 
ATOM     43  C   UNL A   1      41.732  25.415  27.833  1.00  0.00     0.029 A 
ATOM     44  N   UNL A   1      43.309  27.002  27.905  1.00  0.00    -0.354 N 
ATOM     45  C   UNL A   1      47.415  26.126  26.896  1.00  0.00     0.074 A 
ATOM     46  C   UNL A   1      47.586  24.725  26.580  1.00  0.00     0.031 C 
ATOM     47  C   UNL A   1      41.132  26.568  28.172  1.00  0.00     0.029 A 
ATOM     48  C   UNL A   1      42.137  27.627  28.259  1.00  0.00     0.049 A 
ATOM     49  H   UNL A   1      44.172  27.471  27.841  1.00  0.00     0.167 HD
ATOM     50  C   UNL A   1      48.413  27.042  26.857  1.00  0.00     0.031 A 
ATOM     51  C   UNL A   1      41.902  28.902  28.628  1.00  0.00     0.031 A 
ATOM     52  C   UNL A   1      48.243  28.435  27.178  1.00  0.00     0.049 A 
ATOM     53  C   UNL A   1      43.042  29.887  28.649  1.00  0.00     0.074 A 
ATOM     54  C   UNL A   1      49.190  29.444  27.158  1.00  0.00     0.029 A 
ATOM     55  N   UNL A   1      47.051  29.016  27.582  1.00  0.00    -0.354 N 
ATOM     56  N   UNL A   1      44.301  29.701  28.325  1.00  0.00    -0.248 NA
ATOM     57  C   UNL A   1      42.726  31.259  29.073  1.00  0.00     0.031 C 
ATOM     58  C   UNL A   1      48.586  30.622  27.610  1.00  0.00     0.029 A 
ATOM     59  C   UNL A   1      47.244  30.362  27.842  1.00  0.00     0.049 A 
ATOM     60  H   UNL A   1      46.193  28.541  27.671  1.00  0.00     0.167 HD
ATOM     61  C   UNL A   1      44.918  30.939  28.476  1.00  0.00     0.074 A 
ATOM     62  C   UNL A   1      43.893  31.867  28.906  1.00  0.00     0.031 C 
ATOM     63  C   UNL A   1      46.215  31.277  28.270  1.00  0.00     0.031 A 
BRANCH  50  64
ATOM     64  C   UNL A   1      49.793  26.557  26.490  1.00  0.00    -0.014 A 
ATOM     65  C   UNL A   1      50.625  25.929  27.434  1.00  0.00     0.010 A 
ATOM     66  C   UNL A   1      50.248  26.699  25.165  1.00  0.00     0.010 A 
ATOM     67  C   UNL A   1      51.902  25.490  27.070  1.00  0.00     0.020 A 
ATOM     68  C   UNL A   1      51.512  26.233  24.791  1.00  0.00     0.020 A 
ATOM     69  C   UNL A   1      52.338  25.647  25.751  1.00  0.00     0.054 A 
BRANCH  69  70
ATOM     70  S   UNL A   1      53.993  25.051  25.303  1.00  0.00     0.124 S 
ATOM     71  O   UNL A   1      54.071  25.414  23.890  1.00  0.00    -0.237 OA
ATOM     72  O   UNL A   1      54.860  25.814  26.196  1.00  0.00    -0.237 OA
ATOM     73  O   UNL A   1      53.930  23.617  25.576  1.00  0.00    -0.744 OA
ENDBRANCH  69  70
ENDBRANCH  50  64
BRANCH  51  74
ATOM     74  C   UNL A   1      40.529  29.319  29.023  1.00  0.00    -0.014 A 
ATOM     75  C   UNL A   1      40.162  29.402  30.378  1.00  0.00     0.010 A 
ATOM     76  C   UNL A   1      39.576  29.636  28.037  1.00  0.00     0.010 A 
ATOM     77  C   UNL A   1      38.863  29.777  30.738  1.00  0.00     0.020 A 
ATOM     78  C   UNL A   1      38.287  30.042  28.394  1.00  0.00     0.020 A 
ATOM     79  C   UNL A   1      37.936  30.099  29.743  1.00  0.00     0.054 A 
BRANCH  79  80
ATOM     80  S   UNL A   1      36.274  30.632  30.235  1.00  0.00     0.124 S 
ATOM     81  O   UNL A   1      35.497  30.364  29.029  1.00  0.00    -0.237 OA
ATOM     82  O   UNL A   1      35.991  29.765  31.377  1.00  0.00    -0.237 OA
ATOM     83  O   UNL A   1      36.452  32.045  30.565  1.00  0.00    -0.744 OA
ENDBRANCH  79  80
ENDBRANCH  51  74
BRANCH  63  84
ATOM     84  C   UNL A   1      46.599  32.724  28.464  1.00  0.00    -0.014 A 
ATOM     85  C   UNL A   1      46.531  33.650  27.410  1.00  0.00     0.010 A 
ATOM     86  C   UNL A   1      46.984  33.170  29.742  1.00  0.00     0.010 A 
ATOM     87  C   UNL A   1      46.878  34.989  27.620  1.00  0.00     0.020 A 
ATOM     88  C   UNL A   1      47.301  34.512  29.965  1.00  0.00     0.020 A 
ATOM     89  C   UNL A   1      47.261  35.411  28.897  1.00  0.00     0.054 A 
BRANCH  89  90
ATOM     90  S   UNL A   1      47.673  37.159  29.152  1.00  0.00     0.124 S 
ATOM     91  O   UNL A   1      48.717  37.375  28.154  1.00  0.00    -0.237 OA
ATOM     92  O   UNL A   1      46.402  37.829  28.888  1.00  0.00    -0.237 OA
ATOM     93  O   UNL A   1      48.121  37.211  30.543  1.00  0.00    -0.744 OA
ENDBRANCH  89  90
ENDBRANCH  63  84
ENDBRANCH  37  38
ENDBRANCH  30  32
ENDBRANCH  29  30
ENDBRANCH  28  29
ENDBRANCH  27  28
ENDBRANCH   1  27
TORSDOF 23
ENDMDL
MODEL 3
REMARK VINA RESULT:      -9.4      6.798     11.580
REMARK SMILES CC(C)(C)OC(=O)N[C@H](Cc1ccc(O)c(Cl)c1)C(=O)OCCOCCOC(=O)c1ccc(-c2c3nc(c(-c4ccc(S(=O)(=O)[O-])cc4)c4ccc([nH]4)c(-c4ccc(S(=O)(=O)[O-])cc4)c4nc(c(-c5ccc(S(=O)(=O)[O-])cc5)c5ccc2[nH]5)C=C4)C=C3)cc1
REMARK SMILES IDX 24 1 23 2 22 3 21 4 19 5 20 6 9 7 8 8 6 9 7 10 5 12 2 13
REMARK SMILES IDX 1 14 3 15 4 16 10 17 11 18 12 19 18 20 13 21 16 22 14 23
REMARK SMILES IDX 17 24 15 25 25 27 26 28 27 29 28 30 29 31 30 32 31 33 89 34
REMARK SMILES IDX 32 35 88 36 33 37 34 38 35 39 82 40 36 41 87 42 81 43 83 44
REMARK SMILES IDX 37 45 86 46 80 47 79 48 38 50 68 51 49 52 67 53 50 54 53 55
REMARK SMILES IDX 66 56 84 57 51 58 52 59 65 61 85 62 54 63 39 64 40 65 48 66
REMARK SMILES IDX 41 67 47 68 42 69 43 70 44 71 45 72 46 73 69 74 70 75 78 76
REMARK SMILES IDX 71 77 77 78 72 79 73 80 74 81 75 82 76 83 55 84 56 85 64 86
REMARK SMILES IDX 57 87 63 88 58 89 59 90 60 91 61 92 62 93
REMARK H PARENT 8 11 15 26 83 49 53 60
REMARK Flexibility Score: inf
ROOT
ATOM      1  O   UNL A   1      34.624  30.769  27.192  1.00  0.00    -0.374 OA
ENDROOT
BRANCH   1   2
ATOM      2  C   UNL A   1      34.148  29.435  27.354  1.00  0.00     0.202 C 
BRANCH   2   3
ATOM      3  C   UNL A   1      34.129  28.549  26.108  1.00  0.00     0.261 C 
BRANCH   3   4
ATOM      4  O   UNL A   1      33.433  29.167  25.014  1.00  0.00    -0.462 OA
BRANCH   4   5
ATOM      5  C   UNL A   1      33.606  28.571  23.806  1.00  0.00     0.329 C 
ATOM      6  O   UNL A   1      34.323  29.005  22.907  1.00  0.00    -0.250 OA
BRANCH   5   7
ATOM      7  C   UNL A   1      32.752  27.312  23.614  1.00  0.00     0.199 C 
BRANCH   7   8
ATOM      8  N   UNL A   1      32.662  27.055  22.179  1.00  0.00    -0.308 N 
ATOM      9  C   UNL A   1      33.078  25.918  21.554  1.00  0.00     0.408 C 
ATOM     10  O   UNL A   1      32.854  25.749  20.360  1.00  0.00    -0.225 OA
ATOM     11  H   UNL A   1      32.270  27.761  21.617  1.00  0.00     0.168 HD
BRANCH   9  12
ATOM     12  O   UNL A   1      33.691  25.050  22.388  1.00  0.00    -0.444 OA
BRANCH  12  13
ATOM     13  C   UNL A   1      33.303  23.651  22.430  1.00  0.00     0.106 C 
ATOM     14  C   UNL A   1      33.469  23.135  20.990  1.00  0.00     0.056 C 
ATOM     15  C   UNL A   1      31.835  23.484  22.836  1.00  0.00     0.056 C 
ATOM     16  C   UNL A   1      34.249  22.859  23.340  1.00  0.00     0.056 C 
ENDBRANCH  12  13
ENDBRANCH   9  12
ENDBRANCH   7   8
BRANCH   7  17
ATOM     17  C   UNL A   1      31.410  27.188  24.370  1.00  0.00     0.072 C 
BRANCH  17  18
ATOM     18  C   UNL A   1      31.347  25.954  25.270  1.00  0.00    -0.044 A 
ATOM     19  C   UNL A   1      30.120  25.424  25.700  1.00  0.00     0.008 A 
ATOM     20  C   UNL A   1      32.528  25.334  25.707  1.00  0.00     0.028 A 
ATOM     21  C   UNL A   1      30.069  24.265  26.485  1.00  0.00     0.048 A 
ATOM     22  C   UNL A   1      32.482  24.176  26.493  1.00  0.00     0.083 A 
ATOM     23  C   UNL A   1      31.250  23.637  26.872  1.00  0.00     0.134 A 
ATOM     24  Cl  UNL A   1      33.968  23.436  26.965  1.00  0.00    -0.080 Cl
BRANCH  23  25
ATOM     25  O   UNL A   1      31.199  22.496  27.624  1.00  0.00    -0.506 OA
ATOM     26  H   UNL A   1      31.754  21.772  27.415  1.00  0.00     0.293 HD
ENDBRANCH  23  25
ENDBRANCH  17  18
ENDBRANCH   7  17
ENDBRANCH   5   7
ENDBRANCH   4   5
ENDBRANCH   3   4
ENDBRANCH   2   3
ENDBRANCH   1   2
BRANCH   1  27
ATOM     27  C   UNL A   1      34.630  31.630  28.330  1.00  0.00     0.202 C 
BRANCH  27  28
ATOM     28  C   UNL A   1      35.770  31.467  29.345  1.00  0.00     0.261 C 
BRANCH  28  29
ATOM     29  O   UNL A   1      36.934  30.820  28.795  1.00  0.00    -0.460 OA
BRANCH  29  30
ATOM     30  C   UNL A   1      37.290  29.683  29.448  1.00  0.00     0.338 C 
ATOM     31  O   UNL A   1      36.612  29.057  30.248  1.00  0.00    -0.246 OA
BRANCH  30  32
ATOM     32  C   UNL A   1      38.567  29.149  28.943  1.00  0.00     0.060 A 
ATOM     33  C   UNL A   1      39.461  28.636  29.892  1.00  0.00     0.016 A 
ATOM     34  C   UNL A   1      38.958  29.310  27.613  1.00  0.00     0.016 A 
ATOM     35  C   UNL A   1      40.776  28.356  29.531  1.00  0.00     0.010 A 
ATOM     36  C   UNL A   1      40.282  29.027  27.253  1.00  0.00     0.010 A 
ATOM     37  C   UNL A   1      41.211  28.600  28.222  1.00  0.00    -0.014 A 
BRANCH  37  38
ATOM     38  C   UNL A   1      42.669  28.578  27.935  1.00  0.00     0.031 A 
ATOM     39  C   UNL A   1      43.279  27.342  27.325  1.00  0.00     0.074 A 
ATOM     40  C   UNL A   1      43.427  29.672  28.140  1.00  0.00     0.049 A 
ATOM     41  N   UNL A   1      44.519  27.119  26.969  1.00  0.00    -0.248 NA
ATOM     42  C   UNL A   1      42.372  26.208  27.081  1.00  0.00     0.031 C 
ATOM     43  C   UNL A   1      42.945  30.947  28.671  1.00  0.00     0.029 A 
ATOM     44  N   UNL A   1      44.764  29.883  27.916  1.00  0.00    -0.354 N 
ATOM     45  C   UNL A   1      44.544  25.820  26.471  1.00  0.00     0.074 A 
ATOM     46  C   UNL A   1      43.202  25.293  26.601  1.00  0.00     0.031 C 
ATOM     47  C   UNL A   1      43.972  31.811  28.726  1.00  0.00     0.029 A 
ATOM     48  C   UNL A   1      45.189  31.142  28.268  1.00  0.00     0.049 A 
ATOM     49  H   UNL A   1      45.361  29.199  27.537  1.00  0.00     0.167 HD
ATOM     50  C   UNL A   1      45.584  25.131  25.944  1.00  0.00     0.031 A 
ATOM     51  C   UNL A   1      46.421  31.689  28.240  1.00  0.00     0.031 A 
ATOM     52  C   UNL A   1      46.919  25.654  25.821  1.00  0.00     0.049 A 
ATOM     53  C   UNL A   1      47.579  30.877  27.718  1.00  0.00     0.074 A 
ATOM     54  C   UNL A   1      48.039  25.037  25.290  1.00  0.00     0.029 A 
ATOM     55  N   UNL A   1      47.319  26.914  26.237  1.00  0.00    -0.354 N 
ATOM     56  N   UNL A   1      47.580  29.656  27.235  1.00  0.00    -0.248 NA
ATOM     57  C   UNL A   1      48.899  31.523  27.726  1.00  0.00     0.031 C 
ATOM     58  C   UNL A   1      49.129  25.900  25.443  1.00  0.00     0.029 A 
ATOM     59  C   UNL A   1      48.673  27.084  26.002  1.00  0.00     0.049 A 
ATOM     60  H   UNL A   1      46.727  27.589  26.640  1.00  0.00     0.167 HD
ATOM     61  C   UNL A   1      48.893  29.402  26.852  1.00  0.00     0.074 A 
ATOM     62  C   UNL A   1      49.654  30.599  27.148  1.00  0.00     0.031 C 
ATOM     63  C   UNL A   1      49.420  28.280  26.300  1.00  0.00     0.031 A 
BRANCH  50  64
ATOM     64  C   UNL A   1      45.327  23.714  25.494  1.00  0.00    -0.014 A 
ATOM     65  C   UNL A   1      44.941  23.423  24.174  1.00  0.00     0.010 A 
ATOM     66  C   UNL A   1      45.514  22.654  26.401  1.00  0.00     0.010 A 
ATOM     67  C   UNL A   1      44.705  22.101  23.780  1.00  0.00     0.020 A 
ATOM     68  C   UNL A   1      45.310  21.330  26.003  1.00  0.00     0.020 A 
ATOM     69  C   UNL A   1      44.889  21.063  24.699  1.00  0.00     0.054 A 
BRANCH  69  70
ATOM     70  S   UNL A   1      44.595  19.357  24.156  1.00  0.00     0.124 S 
ATOM     71  O   UNL A   1      44.554  19.506  22.704  1.00  0.00    -0.237 OA
ATOM     72  O   UNL A   1      45.759  18.649  24.681  1.00  0.00    -0.237 OA
ATOM     73  O   UNL A   1      43.323  19.007  24.783  1.00  0.00    -0.744 OA
ENDBRANCH  69  70
ENDBRANCH  50  64
BRANCH  51  74
ATOM     74  C   UNL A   1      46.628  33.077  28.737  1.00  0.00    -0.014 A 
ATOM     75  C   UNL A   1      47.053  33.316  30.055  1.00  0.00     0.010 A 
ATOM     76  C   UNL A   1      46.397  34.173  27.885  1.00  0.00     0.010 A 
ATOM     77  C   UNL A   1      47.227  34.625  30.517  1.00  0.00     0.020 A 
ATOM     78  C   UNL A   1      46.600  35.481  28.333  1.00  0.00     0.020 A 
ATOM     79  C   UNL A   1      47.003  35.699  29.651  1.00  0.00     0.054 A 
BRANCH  79  80
ATOM     80  S   UNL A   1      47.285  37.385  30.257  1.00  0.00     0.124 S 
ATOM     81  O   UNL A   1      45.960  37.983  30.121  1.00  0.00    -0.237 OA
ATOM     82  O   UNL A   1      47.739  37.155  31.627  1.00  0.00    -0.237 OA
ATOM     83  O   UNL A   1      48.304  37.908  29.350  1.00  0.00    -0.744 OA
ENDBRANCH  79  80
ENDBRANCH  51  74
BRANCH  63  84
ATOM     84  C   UNL A   1      50.884  28.303  25.935  1.00  0.00    -0.014 A 
ATOM     85  C   UNL A   1      51.877  27.910  26.848  1.00  0.00     0.010 A 
ATOM     86  C   UNL A   1      51.264  28.677  24.632  1.00  0.00     0.010 A 
ATOM     87  C   UNL A   1      53.225  27.927  26.479  1.00  0.00     0.020 A 
ATOM     88  C   UNL A   1      52.607  28.664  24.248  1.00  0.00     0.020 A 
ATOM     89  C   UNL A   1      53.581  28.304  25.180  1.00  0.00     0.054 A 
BRANCH  89  90
ATOM     90  S   UNL A   1      55.335  28.283  24.715  1.00  0.00     0.124 S 
ATOM     91  O   UNL A   1      55.995  28.276  26.017  1.00  0.00    -0.237 OA
ATOM     92  O   UNL A   1      55.447  27.046  23.946  1.00  0.00    -0.237 OA
ATOM     93  O   UNL A   1      55.502  29.511  23.939  1.00  0.00    -0.744 OA
ENDBRANCH  89  90
ENDBRANCH  63  84
ENDBRANCH  37  38
ENDBRANCH  30  32
ENDBRANCH  29  30
ENDBRANCH  28  29
ENDBRANCH  27  28
ENDBRANCH   1  27
TORSDOF 23
ENDMDL
