MODEL 1
REMARK VINA RESULT:     -10.6      0.000      0.000
REMARK SMILES O=C(OCCOCCOC(=O)[C@@H](c1ccccc1)N1C(=O)/C(=C\c2ccc(-c3ccc(F)cc3)o2)SC1=S)c1ccc(-c2c3nc(c(-c4ccc(S(=O)(=O)[O-])cc4)c4ccc([nH]4)c(-c4ccc(S(=O)(=O)[O-])cc4)c4nc(c(-c5ccc(S(=O)(=O)[O-])cc5)c5ccc2[nH]5)C=C4)C=C3)cc1
REMARK SMILES IDX 6 1 5 2 4 3 3 4 2 5 1 6 39 7 40 8 98 9 41 10 97 11 42 12
REMARK SMILES IDX 43 13 44 14 91 15 45 16 96 17 90 18 92 19 46 20 95 21 89 22
REMARK SMILES IDX 88 23 47 25 77 26 58 27 76 28 59 29 62 30 75 31 93 32 60 33
REMARK SMILES IDX 61 34 74 36 94 37 63 38 48 39 49 40 57 41 50 42 56 43 51 44
REMARK SMILES IDX 52 45 53 46 54 47 55 48 78 49 79 50 87 51 80 52 86 53 81 54
REMARK SMILES IDX 82 55 83 56 84 57 85 58 64 59 65 60 73 61 66 62 72 63 67 64
REMARK SMILES IDX 68 65 69 66 70 67 71 68 7 69 8 70 9 71 10 72 11 73 12 74
REMARK SMILES IDX 13 75 14 76 18 77 15 78 17 79 16 80 19 81 20 82 37 83 21 84
REMARK SMILES IDX 22 85 36 86 38 87 23 88 24 89 25 90 35 91 26 92 27 93 28 94
REMARK SMILES IDX 29 95 34 96 30 97 33 98 31 99 32 100
REMARK H PARENT 92 24 62 35
REMARK Flexibility Score: inf
ROOT
ATOM      1  O   UNL A   1      32.834  27.774  26.723  1.00  0.00    -0.374 OA
ENDROOT
BRANCH   1   2
ATOM      2  C   UNL A   1      32.815  29.151  26.361  1.00  0.00     0.202 C 
BRANCH   2   3
ATOM      3  C   UNL A   1      34.104  29.958  26.521  1.00  0.00     0.261 C 
BRANCH   3   4
ATOM      4  O   UNL A   1      34.042  30.843  27.651  1.00  0.00    -0.460 OA
BRANCH   4   5
ATOM      5  C   UNL A   1      35.006  31.725  28.014  1.00  0.00     0.338 C 
ATOM      6  O   UNL A   1      34.848  32.922  27.794  1.00  0.00    -0.246 OA
BRANCH   5   7
ATOM      7  C   UNL A   1      36.269  31.276  28.664  1.00  0.00     0.060 A 
ATOM      8  C   UNL A   1      37.175  32.157  29.247  1.00  0.00     0.016 A 
ATOM      9  C   UNL A   1      36.515  29.906  28.784  1.00  0.00     0.016 A 
ATOM     10  C   UNL A   1      38.312  31.744  29.886  1.00  0.00     0.010 A 
ATOM     11  C   UNL A   1      37.636  29.460  29.491  1.00  0.00     0.010 A 
ATOM     12  C   UNL A   1      38.518  30.391  30.054  1.00  0.00    -0.014 A 
BRANCH  12  13
ATOM     13  C   UNL A   1      39.719  30.032  30.803  1.00  0.00     0.031 A 
ATOM     14  C   UNL A   1      40.646  29.042  30.194  1.00  0.00     0.074 A 
ATOM     15  C   UNL A   1      40.016  30.735  31.912  1.00  0.00     0.049 A 
ATOM     16  N   UNL A   1      41.703  28.495  30.713  1.00  0.00    -0.248 NA
ATOM     17  C   UNL A   1      40.352  28.619  28.812  1.00  0.00     0.031 C 
ATOM     18  C   UNL A   1      39.233  31.864  32.439  1.00  0.00     0.029 A 
ATOM     19  N   UNL A   1      41.065  30.633  32.780  1.00  0.00    -0.354 N 
ATOM     20  C   UNL A   1      42.162  27.608  29.754  1.00  0.00     0.074 A 
ATOM     21  C   UNL A   1      41.297  27.715  28.603  1.00  0.00     0.031 C 
ATOM     22  C   UNL A   1      39.832  32.343  33.540  1.00  0.00     0.029 A 
ATOM     23  C   UNL A   1      40.972  31.495  33.849  1.00  0.00     0.049 A 
ATOM     24  H   UNL A   1      41.813  30.007  32.653  1.00  0.00     0.167 HD
ATOM     25  C   UNL A   1      43.199  26.754  29.870  1.00  0.00     0.031 A 
ATOM     26  C   UNL A   1      41.689  31.525  34.986  1.00  0.00     0.031 A 
ATOM     27  C   UNL A   1      44.020  26.698  31.046  1.00  0.00     0.049 A 
ATOM     28  C   UNL A   1      42.763  30.481  35.134  1.00  0.00     0.074 A 
ATOM     29  C   UNL A   1      45.078  25.856  31.319  1.00  0.00     0.029 A 
ATOM     30  N   UNL A   1      43.859  27.525  32.151  1.00  0.00    -0.354 N 
ATOM     31  N   UNL A   1      43.171  29.595  34.253  1.00  0.00    -0.248 NA
ATOM     32  C   UNL A   1      43.452  30.413  36.425  1.00  0.00     0.031 C 
ATOM     33  C   UNL A   1      45.511  26.128  32.620  1.00  0.00     0.029 A 
ATOM     34  C   UNL A   1      44.769  27.184  33.131  1.00  0.00     0.049 A 
ATOM     35  H   UNL A   1      43.194  28.247  32.224  1.00  0.00     0.167 HD
ATOM     36  C   UNL A   1      44.167  28.866  34.883  1.00  0.00     0.074 A 
ATOM     37  C   UNL A   1      44.325  29.440  36.206  1.00  0.00     0.031 C 
ATOM     38  C   UNL A   1      44.882  27.807  34.426  1.00  0.00     0.031 A 
BRANCH  25  39
ATOM     39  C   UNL A   1      43.408  25.757  28.771  1.00  0.00    -0.014 A 
ATOM     40  C   UNL A   1      42.708  24.540  28.721  1.00  0.00     0.010 A 
ATOM     41  C   UNL A   1      44.324  26.068  27.748  1.00  0.00     0.010 A 
ATOM     42  C   UNL A   1      42.924  23.649  27.666  1.00  0.00     0.020 A 
ATOM     43  C   UNL A   1      44.526  25.191  26.681  1.00  0.00     0.020 A 
ATOM     44  C   UNL A   1      43.825  23.985  26.649  1.00  0.00     0.054 A 
BRANCH  44  45
ATOM     45  S   UNL A   1      44.030  22.843  25.255  1.00  0.00     0.124 S 
ATOM     46  O   UNL A   1      44.592  23.717  24.228  1.00  0.00    -0.237 OA
ATOM     47  O   UNL A   1      44.945  21.841  25.798  1.00  0.00    -0.237 OA
ATOM     48  O   UNL A   1      42.674  22.368  24.993  1.00  0.00    -0.744 OA
ENDBRANCH  44  45
ENDBRANCH  25  39
BRANCH  26  49
ATOM     49  C   UNL A   1      41.326  32.446  36.099  1.00  0.00    -0.014 A 
ATOM     50  C   UNL A   1      40.143  32.270  36.835  1.00  0.00     0.010 A 
ATOM     51  C   UNL A   1      42.153  33.546  36.402  1.00  0.00     0.010 A 
ATOM     52  C   UNL A   1      39.771  33.198  37.815  1.00  0.00     0.020 A 
ATOM     53  C   UNL A   1      41.807  34.455  37.404  1.00  0.00     0.020 A 
ATOM     54  C   UNL A   1      40.601  34.291  38.085  1.00  0.00     0.054 A 
BRANCH  54  55
ATOM     55  S   UNL A   1      40.089  35.498  39.338  1.00  0.00     0.124 S 
ATOM     56  O   UNL A   1      39.193  34.704  40.172  1.00  0.00    -0.237 OA
ATOM     57  O   UNL A   1      41.359  35.874  39.952  1.00  0.00    -0.237 OA
ATOM     58  O   UNL A   1      39.445  36.551  38.554  1.00  0.00    -0.744 OA
ENDBRANCH  54  55
ENDBRANCH  26  49
BRANCH  38  59
ATOM     59  C   UNL A   1      45.902  27.229  35.359  1.00  0.00    -0.014 A 
ATOM     60  C   UNL A   1      45.572  26.164  36.215  1.00  0.00     0.010 A 
ATOM     61  C   UNL A   1      47.229  27.692  35.299  1.00  0.00     0.010 A 
ATOM     62  C   UNL A   1      46.557  25.576  37.007  1.00  0.00     0.020 A 
ATOM     63  C   UNL A   1      48.221  27.082  36.064  1.00  0.00     0.020 A 
ATOM     64  C   UNL A   1      47.877  26.031  36.918  1.00  0.00     0.054 A 
BRANCH  64  65
ATOM     65  S   UNL A   1      49.151  25.187  37.888  1.00  0.00     0.124 S 
ATOM     66  O   UNL A   1      49.525  24.087  37.005  1.00  0.00    -0.237 OA
ATOM     67  O   UNL A   1      50.161  26.227  38.061  1.00  0.00    -0.237 OA
ATOM     68  O   UNL A   1      48.453  24.795  39.110  1.00  0.00    -0.744 OA
ENDBRANCH  64  65
ENDBRANCH  38  59
ENDBRANCH  12  13
ENDBRANCH   5   7
ENDBRANCH   4   5
ENDBRANCH   3   4
ENDBRANCH   2   3
ENDBRANCH   1   2
BRANCH   1  69
ATOM     69  C   UNL A   1      32.401  26.794  25.781  1.00  0.00     0.202 C 
BRANCH  69  70
ATOM     70  C   UNL A   1      32.696  25.406  26.357  1.00  0.00     0.261 C 
BRANCH  70  71
ATOM     71  O   UNL A   1      34.123  25.216  26.362  1.00  0.00    -0.461 OA
BRANCH  71  72
ATOM     72  C   UNL A   1      34.521  23.908  26.393  1.00  0.00     0.334 C 
ATOM     73  O   UNL A   1      34.400  23.166  27.361  1.00  0.00    -0.249 OA
BRANCH  72  74
ATOM     74  C   UNL A   1      35.223  23.493  25.076  1.00  0.00     0.232 C 
BRANCH  74  75
ATOM     75  C   UNL A   1      36.505  22.698  25.313  1.00  0.00    -0.014 A 
ATOM     76  C   UNL A   1      36.664  21.459  24.663  1.00  0.00     0.006 A 
ATOM     77  C   UNL A   1      37.593  23.177  26.072  1.00  0.00     0.006 A 
ATOM     78  C   UNL A   1      37.861  20.740  24.759  1.00  0.00     0.000 A 
ATOM     79  C   UNL A   1      38.793  22.463  26.154  1.00  0.00     0.000 A 
ATOM     80  C   UNL A   1      38.926  21.244  25.501  1.00  0.00     0.000 A 
ENDBRANCH  74  75
BRANCH  74  81
ATOM     81  N   UNL A   1      34.138  22.931  24.257  1.00  0.00    -0.274 N 
ATOM     82  C   UNL A   1      33.683  23.797  23.271  1.00  0.00     0.267 C 
ATOM     83  C   UNL A   1      33.523  21.708  24.258  1.00  0.00     0.149 C 
ATOM     84  O   UNL A   1      34.363  24.629  22.710  1.00  0.00    -0.268 OA
ATOM     85  C   UNL A   1      32.269  23.487  22.965  1.00  0.00     0.084 C 
ATOM     86  S   UNL A   1      32.012  21.820  23.335  1.00  0.00    -0.054 SA
ATOM     87  S   UNL A   1      34.006  20.249  24.895  1.00  0.00    -0.052 S 
ATOM     88  C   UNL A   1      31.279  24.338  22.665  1.00  0.00     0.068 C 
BRANCH  88  89
ATOM     89  C   UNL A   1      31.401  25.753  22.565  1.00  0.00     0.128 A 
ATOM     90  C   UNL A   1      32.400  26.565  22.041  1.00  0.00     0.051 A 
ATOM     91  O   UNL A   1      30.381  26.592  22.981  1.00  0.00    -0.457 OA
ATOM     92  C   UNL A   1      31.998  27.912  22.172  1.00  0.00     0.051 A 
ATOM     93  C   UNL A   1      30.742  27.881  22.728  1.00  0.00     0.134 A 
BRANCH  93  94
ATOM     94  C   UNL A   1      29.746  28.905  22.985  1.00  0.00     0.017 A 
ATOM     95  C   UNL A   1      30.090  30.158  23.508  1.00  0.00     0.015 A 
ATOM     96  C   UNL A   1      28.399  28.631  22.695  1.00  0.00     0.015 A 
ATOM     97  C   UNL A   1      29.098  31.115  23.749  1.00  0.00     0.040 A 
ATOM     98  C   UNL A   1      27.410  29.580  22.949  1.00  0.00     0.040 A 
ATOM     99  C   UNL A   1      27.769  30.811  23.482  1.00  0.00     0.123 A 
ATOM    100  F   UNL A   1      26.814  31.704  23.762  1.00  0.00    -0.207 F 
ENDBRANCH  93  94
ENDBRANCH  88  89
ENDBRANCH  74  81
ENDBRANCH  72  74
ENDBRANCH  71  72
ENDBRANCH  70  71
ENDBRANCH  69  70
ENDBRANCH   1  69
TORSDOF 21
ENDMDL
MODEL 2
REMARK VINA RESULT:     -10.6      5.287      6.939
REMARK SMILES O=C(OCCOCCOC(=O)[C@@H](c1ccccc1)N1C(=O)/C(=C\c2ccc(-c3ccc(F)cc3)o2)SC1=S)c1ccc(-c2c3nc(c(-c4ccc(S(=O)(=O)[O-])cc4)c4ccc([nH]4)c(-c4ccc(S(=O)(=O)[O-])cc4)c4nc(c(-c5ccc(S(=O)(=O)[O-])cc5)c5ccc2[nH]5)C=C4)C=C3)cc1
REMARK SMILES IDX 6 1 5 2 4 3 3 4 2 5 1 6 39 7 40 8 98 9 41 10 97 11 42 12
REMARK SMILES IDX 43 13 44 14 91 15 45 16 96 17 90 18 92 19 46 20 95 21 89 22
REMARK SMILES IDX 88 23 47 25 77 26 58 27 76 28 59 29 62 30 75 31 93 32 60 33
REMARK SMILES IDX 61 34 74 36 94 37 63 38 48 39 49 40 57 41 50 42 56 43 51 44
REMARK SMILES IDX 52 45 53 46 54 47 55 48 78 49 79 50 87 51 80 52 86 53 81 54
REMARK SMILES IDX 82 55 83 56 84 57 85 58 64 59 65 60 73 61 66 62 72 63 67 64
REMARK SMILES IDX 68 65 69 66 70 67 71 68 7 69 8 70 9 71 10 72 11 73 12 74
REMARK SMILES IDX 13 75 14 76 18 77 15 78 17 79 16 80 19 81 20 82 37 83 21 84
REMARK SMILES IDX 22 85 36 86 38 87 23 88 24 89 25 90 35 91 26 92 27 93 28 94
REMARK SMILES IDX 29 95 34 96 30 97 33 98 31 99 32 100
REMARK H PARENT 92 24 62 35
REMARK Flexibility Score: inf
ROOT
ATOM      1  O   UNL A   1      33.358  28.093  26.803  1.00  0.00    -0.374 OA
ENDROOT
BRANCH   1   2
ATOM      2  C   UNL A   1      33.223  29.506  26.686  1.00  0.00     0.202 C 
BRANCH   2   3
ATOM      3  C   UNL A   1      34.354  30.386  27.223  1.00  0.00     0.261 C 
BRANCH   3   4
ATOM      4  O   UNL A   1      33.920  31.199  28.323  1.00  0.00    -0.460 OA
BRANCH   4   5
ATOM      5  C   UNL A   1      34.444  32.402  28.668  1.00  0.00     0.338 C 
ATOM      6  O   UNL A   1      33.762  33.416  28.556  1.00  0.00    -0.246 OA
BRANCH   5   7
ATOM      7  C   UNL A   1      35.841  32.529  29.168  1.00  0.00     0.060 A 
ATOM      8  C   UNL A   1      36.910  31.830  28.614  1.00  0.00     0.016 A 
ATOM      9  C   UNL A   1      36.116  33.462  30.172  1.00  0.00     0.016 A 
ATOM     10  C   UNL A   1      38.201  31.980  29.040  1.00  0.00     0.010 A 
ATOM     11  C   UNL A   1      37.437  33.680  30.575  1.00  0.00     0.010 A 
ATOM     12  C   UNL A   1      38.474  32.945  29.987  1.00  0.00    -0.014 A 
BRANCH  12  13
ATOM     13  C   UNL A   1      39.883  33.090  30.340  1.00  0.00     0.031 A 
ATOM     14  C   UNL A   1      40.487  32.056  31.221  1.00  0.00     0.074 A 
ATOM     15  C   UNL A   1      40.604  34.042  29.719  1.00  0.00     0.049 A 
ATOM     16  N   UNL A   1      41.673  32.033  31.750  1.00  0.00    -0.248 NA
ATOM     17  C   UNL A   1      39.649  30.883  31.541  1.00  0.00     0.031 C 
ATOM     18  C   UNL A   1      40.095  34.957  28.685  1.00  0.00     0.029 A 
ATOM     19  N   UNL A   1      41.921  34.383  29.835  1.00  0.00    -0.354 N 
ATOM     20  C   UNL A   1      41.703  30.885  32.525  1.00  0.00     0.074 A 
ATOM     21  C   UNL A   1      40.436  30.212  32.369  1.00  0.00     0.031 C 
ATOM     22  C   UNL A   1      41.091  35.753  28.269  1.00  0.00     0.029 A 
ATOM     23  C   UNL A   1      42.269  35.475  29.075  1.00  0.00     0.049 A 
ATOM     24  H   UNL A   1      42.558  33.896  30.405  1.00  0.00     0.167 HD
ATOM     25  C   UNL A   1      42.707  30.476  33.326  1.00  0.00     0.031 A 
ATOM     26  C   UNL A   1      43.394  36.211  29.102  1.00  0.00     0.031 A 
ATOM     27  C   UNL A   1      43.945  31.195  33.436  1.00  0.00     0.049 A 
ATOM     28  C   UNL A   1      44.448  35.795  30.093  1.00  0.00     0.074 A 
ATOM     29  C   UNL A   1      45.034  30.919  34.238  1.00  0.00     0.029 A 
ATOM     30  N   UNL A   1      44.246  32.344  32.716  1.00  0.00    -0.354 N 
ATOM     31  N   UNL A   1      44.465  34.740  30.876  1.00  0.00    -0.248 NA
ATOM     32  C   UNL A   1      45.614  36.673  30.231  1.00  0.00     0.031 C 
ATOM     33  C   UNL A   1      45.965  31.945  34.054  1.00  0.00     0.029 A 
ATOM     34  C   UNL A   1      45.487  32.820  33.088  1.00  0.00     0.049 A 
ATOM     35  H   UNL A   1      43.661  32.758  32.042  1.00  0.00     0.167 HD
ATOM     36  C   UNL A   1      45.645  34.824  31.599  1.00  0.00     0.074 A 
ATOM     37  C   UNL A   1      46.330  36.015  31.131  1.00  0.00     0.031 C 
ATOM     38  C   UNL A   1      46.120  34.009  32.573  1.00  0.00     0.031 A 
BRANCH  25  39
ATOM     39  C   UNL A   1      42.455  29.294  34.212  1.00  0.00    -0.014 A 
ATOM     40  C   UNL A   1      41.777  29.408  35.438  1.00  0.00     0.010 A 
ATOM     41  C   UNL A   1      42.897  28.027  33.785  1.00  0.00     0.010 A 
ATOM     42  C   UNL A   1      41.549  28.274  36.222  1.00  0.00     0.020 A 
ATOM     43  C   UNL A   1      42.651  26.890  34.555  1.00  0.00     0.020 A 
ATOM     44  C   UNL A   1      41.981  27.022  35.771  1.00  0.00     0.054 A 
BRANCH  44  45
ATOM     45  S   UNL A   1      41.606  25.558  36.774  1.00  0.00     0.124 S 
ATOM     46  O   UNL A   1      41.207  24.588  35.758  1.00  0.00    -0.237 OA
ATOM     47  O   UNL A   1      42.882  25.290  37.432  1.00  0.00    -0.237 OA
ATOM     48  O   UNL A   1      40.534  26.008  37.659  1.00  0.00    -0.744 OA
ENDBRANCH  44  45
ENDBRANCH  25  39
BRANCH  26  49
ATOM     49  C   UNL A   1      43.514  37.462  28.301  1.00  0.00    -0.014 A 
ATOM     50  C   UNL A   1      44.532  37.622  27.347  1.00  0.00     0.010 A 
ATOM     51  C   UNL A   1      42.624  38.531  28.526  1.00  0.00     0.010 A 
ATOM     52  C   UNL A   1      44.686  38.838  26.670  1.00  0.00     0.020 A 
ATOM     53  C   UNL A   1      42.749  39.734  27.827  1.00  0.00     0.020 A 
ATOM     54  C   UNL A   1      43.800  39.889  26.923  1.00  0.00     0.054 A 
BRANCH  54  55
ATOM     55  S   UNL A   1      44.033  41.466  26.058  1.00  0.00     0.124 S 
ATOM     56  O   UNL A   1      42.672  41.780  25.636  1.00  0.00    -0.237 OA
ATOM     57  O   UNL A   1      44.586  42.321  27.104  1.00  0.00    -0.237 OA
ATOM     58  O   UNL A   1      44.961  41.129  24.979  1.00  0.00    -0.744 OA
ENDBRANCH  54  55
ENDBRANCH  26  49
BRANCH  38  59
ATOM     59  C   UNL A   1      47.446  34.373  33.170  1.00  0.00    -0.014 A 
ATOM     60  C   UNL A   1      48.644  33.931  32.583  1.00  0.00     0.010 A 
ATOM     61  C   UNL A   1      47.487  35.249  34.269  1.00  0.00     0.010 A 
ATOM     62  C   UNL A   1      49.868  34.357  33.095  1.00  0.00     0.020 A 
ATOM     63  C   UNL A   1      48.710  35.703  34.760  1.00  0.00     0.020 A 
ATOM     64  C   UNL A   1      49.893  35.249  34.173  1.00  0.00     0.054 A 
BRANCH  64  65
ATOM     65  S   UNL A   1      51.495  35.857  34.756  1.00  0.00     0.124 S 
ATOM     66  O   UNL A   1      51.115  36.635  35.931  1.00  0.00    -0.237 OA
ATOM     67  O   UNL A   1      52.225  34.621  35.029  1.00  0.00    -0.237 OA
ATOM     68  O   UNL A   1      52.001  36.637  33.629  1.00  0.00    -0.744 OA
ENDBRANCH  64  65
ENDBRANCH  38  59
ENDBRANCH  12  13
ENDBRANCH   5   7
ENDBRANCH   4   5
ENDBRANCH   3   4
ENDBRANCH   2   3
ENDBRANCH   1   2
BRANCH   1  69
ATOM     69  C   UNL A   1      33.129  27.268  25.661  1.00  0.00     0.202 C 
BRANCH  69  70
ATOM     70  C   UNL A   1      33.247  25.803  26.091  1.00  0.00     0.261 C 
BRANCH  70  71
ATOM     71  O   UNL A   1      34.603  25.377  25.864  1.00  0.00    -0.461 OA
BRANCH  71  72
ATOM     72  C   UNL A   1      34.809  24.034  26.022  1.00  0.00     0.334 C 
ATOM     73  O   UNL A   1      34.653  23.425  27.073  1.00  0.00    -0.249 OA
BRANCH  72  74
ATOM     74  C   UNL A   1      35.346  23.382  24.724  1.00  0.00     0.232 C 
BRANCH  74  75
ATOM     75  C   UNL A   1      36.610  22.555  24.954  1.00  0.00    -0.014 A 
ATOM     76  C   UNL A   1      37.634  23.092  25.758  1.00  0.00     0.006 A 
ATOM     77  C   UNL A   1      36.775  21.235  24.487  1.00  0.00     0.006 A 
ATOM     78  C   UNL A   1      38.764  22.336  26.089  1.00  0.00     0.000 A 
ATOM     79  C   UNL A   1      37.899  20.477  24.832  1.00  0.00     0.000 A 
ATOM     80  C   UNL A   1      38.895  21.028  25.629  1.00  0.00     0.000 A 
ENDBRANCH  74  75
BRANCH  74  81
ATOM     81  N   UNL A   1      34.156  22.770  24.115  1.00  0.00    -0.274 N 
ATOM     82  C   UNL A   1      33.559  23.564  23.145  1.00  0.00     0.267 C 
ATOM     83  C   UNL A   1      33.552  21.554  24.294  1.00  0.00     0.149 C 
ATOM     84  O   UNL A   1      34.147  24.348  22.431  1.00  0.00    -0.268 OA
ATOM     85  C   UNL A   1      32.116  23.243  23.071  1.00  0.00     0.084 C 
ATOM     86  S   UNL A   1      31.922  21.609  23.595  1.00  0.00    -0.054 SA
ATOM     87  S   UNL A   1      34.128  20.142  24.960  1.00  0.00    -0.052 S 
ATOM     88  C   UNL A   1      31.090  24.077  22.857  1.00  0.00     0.068 C 
BRANCH  88  89
ATOM     89  C   UNL A   1      31.191  25.480  22.637  1.00  0.00     0.128 A 
ATOM     90  C   UNL A   1      32.123  26.248  21.949  1.00  0.00     0.051 A 
ATOM     91  O   UNL A   1      30.215  26.349  23.094  1.00  0.00    -0.457 OA
ATOM     92  C   UNL A   1      31.728  27.602  22.020  1.00  0.00     0.051 A 
ATOM     93  C   UNL A   1      30.539  27.614  22.707  1.00  0.00     0.134 A 
BRANCH  93  94
ATOM     94  C   UNL A   1      29.568  28.657  22.989  1.00  0.00     0.017 A 
ATOM     95  C   UNL A   1      28.189  28.436  22.868  1.00  0.00     0.015 A 
ATOM     96  C   UNL A   1      30.026  29.920  23.398  1.00  0.00     0.015 A 
ATOM     97  C   UNL A   1      27.286  29.470  23.140  1.00  0.00     0.040 A 
ATOM     98  C   UNL A   1      29.125  30.953  23.655  1.00  0.00     0.040 A 
ATOM     99  C   UNL A   1      27.764  30.720  23.516  1.00  0.00     0.123 A 
ATOM    100  F   UNL A   1      26.905  31.724  23.724  1.00  0.00    -0.207 F 
ENDBRANCH  93  94
ENDBRANCH  88  89
ENDBRANCH  74  81
ENDBRANCH  72  74
ENDBRANCH  71  72
ENDBRANCH  70  71
ENDBRANCH  69  70
ENDBRANCH   1  69
TORSDOF 21
ENDMDL
MODEL 3
REMARK VINA RESULT:     -10.5      5.927     13.972
REMARK SMILES O=C(OCCOCCOC(=O)[C@@H](c1ccccc1)N1C(=O)/C(=C\c2ccc(-c3ccc(F)cc3)o2)SC1=S)c1ccc(-c2c3nc(c(-c4ccc(S(=O)(=O)[O-])cc4)c4ccc([nH]4)c(-c4ccc(S(=O)(=O)[O-])cc4)c4nc(c(-c5ccc(S(=O)(=O)[O-])cc5)c5ccc2[nH]5)C=C4)C=C3)cc1
REMARK SMILES IDX 6 1 5 2 4 3 3 4 2 5 1 6 39 7 40 8 98 9 41 10 97 11 42 12
REMARK SMILES IDX 43 13 44 14 91 15 45 16 96 17 90 18 92 19 46 20 95 21 89 22
REMARK SMILES IDX 88 23 47 25 77 26 58 27 76 28 59 29 62 30 75 31 93 32 60 33
REMARK SMILES IDX 61 34 74 36 94 37 63 38 48 39 49 40 57 41 50 42 56 43 51 44
REMARK SMILES IDX 52 45 53 46 54 47 55 48 78 49 79 50 87 51 80 52 86 53 81 54
REMARK SMILES IDX 82 55 83 56 84 57 85 58 64 59 65 60 73 61 66 62 72 63 67 64
REMARK SMILES IDX 68 65 69 66 70 67 71 68 7 69 8 70 9 71 10 72 11 73 12 74
REMARK SMILES IDX 13 75 14 76 18 77 15 78 17 79 16 80 19 81 20 82 37 83 21 84
REMARK SMILES IDX 22 85 36 86 38 87 23 88 24 89 25 90 35 91 26 92 27 93 28 94
REMARK SMILES IDX 29 95 34 96 30 97 33 98 31 99 32 100
REMARK H PARENT 92 24 62 35
REMARK Flexibility Score: inf
ROOT
ATOM      1  O   UNL A   1      49.818  24.543  40.644  1.00  0.00    -0.374 OA
ENDROOT
BRANCH   1   2
ATOM      2  C   UNL A   1      49.504  25.808  40.069  1.00  0.00     0.202 C 
BRANCH   2   3
ATOM      3  C   UNL A   1      48.630  25.833  38.813  1.00  0.00     0.261 C 
BRANCH   3   4
ATOM      4  O   UNL A   1      48.198  27.164  38.492  1.00  0.00    -0.460 OA
BRANCH   4   5
ATOM      5  C   UNL A   1      48.034  27.658  37.239  1.00  0.00     0.338 C 
ATOM      6  O   UNL A   1      48.989  27.691  36.469  1.00  0.00    -0.246 OA
BRANCH   5   7
ATOM      7  C   UNL A   1      46.720  28.183  36.774  1.00  0.00     0.060 A 
ATOM      8  C   UNL A   1      45.507  27.783  37.328  1.00  0.00     0.016 A 
ATOM      9  C   UNL A   1      46.700  29.193  35.808  1.00  0.00     0.016 A 
ATOM     10  C   UNL A   1      44.301  28.298  36.935  1.00  0.00     0.010 A 
ATOM     11  C   UNL A   1      45.486  29.780  35.441  1.00  0.00     0.010 A 
ATOM     12  C   UNL A   1      44.294  29.336  36.027  1.00  0.00    -0.014 A 
BRANCH  12  13
ATOM     13  C   UNL A   1      42.974  29.875  35.709  1.00  0.00     0.031 A 
ATOM     14  C   UNL A   1      42.242  29.282  34.559  1.00  0.00     0.074 A 
ATOM     15  C   UNL A   1      42.417  30.750  36.566  1.00  0.00     0.049 A 
ATOM     16  N   UNL A   1      41.120  29.664  34.029  1.00  0.00    -0.248 NA
ATOM     17  C   UNL A   1      42.845  28.091  33.929  1.00  0.00     0.031 C 
ATOM     18  C   UNL A   1      43.022  31.210  37.826  1.00  0.00     0.029 A 
ATOM     19  N   UNL A   1      41.210  31.387  36.533  1.00  0.00    -0.354 N 
ATOM     20  C   UNL A   1      40.915  28.811  32.956  1.00  0.00     0.074 A 
ATOM     21  C   UNL A   1      42.003  27.863  32.932  1.00  0.00     0.031 C 
ATOM     22  C   UNL A   1      42.180  32.056  38.439  1.00  0.00     0.029 A 
ATOM     23  C   UNL A   1      41.035  32.275  37.570  1.00  0.00     0.049 A 
ATOM     24  H   UNL A   1      40.532  31.227  35.838  1.00  0.00     0.167 HD
ATOM     25  C   UNL A   1      39.913  28.867  32.056  1.00  0.00     0.031 A 
ATOM     26  C   UNL A   1      40.088  33.215  37.738  1.00  0.00     0.031 A 
ATOM     27  C   UNL A   1      38.860  29.839  32.139  1.00  0.00     0.049 A 
ATOM     28  C   UNL A   1      39.050  33.329  36.654  1.00  0.00     0.074 A 
ATOM     29  C   UNL A   1      37.802  30.039  31.276  1.00  0.00     0.029 A 
ATOM     30  N   UNL A   1      38.745  30.781  33.154  1.00  0.00    -0.354 N 
ATOM     31  N   UNL A   1      38.879  32.562  35.601  1.00  0.00    -0.248 NA
ATOM     32  C   UNL A   1      38.102  34.441  36.755  1.00  0.00     0.031 C 
ATOM     33  C   UNL A   1      37.087  31.151  31.732  1.00  0.00     0.029 A 
ATOM     34  C   UNL A   1      37.659  31.599  32.916  1.00  0.00     0.049 A 
ATOM     35  H   UNL A   1      39.349  30.855  33.927  1.00  0.00     0.167 HD
ATOM     36  C   UNL A   1      37.799  33.097  34.915  1.00  0.00     0.074 A 
ATOM     37  C   UNL A   1      37.337  34.230  35.694  1.00  0.00     0.031 C 
ATOM     38  C   UNL A   1      37.244  32.706  33.741  1.00  0.00     0.031 A 
BRANCH  25  39
ATOM     39  C   UNL A   1      39.986  27.951  30.873  1.00  0.00    -0.014 A 
ATOM     40  C   UNL A   1      38.964  27.037  30.570  1.00  0.00     0.010 A 
ATOM     41  C   UNL A   1      41.112  28.031  30.030  1.00  0.00     0.010 A 
ATOM     42  C   UNL A   1      39.069  26.214  29.444  1.00  0.00     0.020 A 
ATOM     43  C   UNL A   1      41.209  27.227  28.894  1.00  0.00     0.020 A 
ATOM     44  C   UNL A   1      40.187  26.321  28.610  1.00  0.00     0.054 A 
BRANCH  44  45
ATOM     45  S   UNL A   1      40.261  25.295  27.117  1.00  0.00     0.124 S 
ATOM     46  O   UNL A   1      41.128  24.200  27.545  1.00  0.00    -0.237 OA
ATOM     47  O   UNL A   1      38.860  24.941  26.906  1.00  0.00    -0.237 OA
ATOM     48  O   UNL A   1      40.836  26.184  26.111  1.00  0.00    -0.744 OA
ENDBRANCH  44  45
ENDBRANCH  25  39
BRANCH  26  49
ATOM     49  C   UNL A   1      40.165  34.190  38.862  1.00  0.00    -0.014 A 
ATOM     50  C   UNL A   1      40.940  35.357  38.764  1.00  0.00     0.010 A 
ATOM     51  C   UNL A   1      39.488  33.927  40.070  1.00  0.00     0.010 A 
ATOM     52  C   UNL A   1      41.076  36.214  39.863  1.00  0.00     0.020 A 
ATOM     53  C   UNL A   1      39.588  34.798  41.157  1.00  0.00     0.020 A 
ATOM     54  C   UNL A   1      40.407  35.923  41.056  1.00  0.00     0.054 A 
BRANCH  54  55
ATOM     55  S   UNL A   1      40.617  37.030  42.477  1.00  0.00     0.124 S 
ATOM     56  O   UNL A   1      40.397  36.123  43.598  1.00  0.00    -0.237 OA
ATOM     57  O   UNL A   1      41.986  37.507  42.307  1.00  0.00    -0.237 OA
ATOM     58  O   UNL A   1      39.580  38.041  42.277  1.00  0.00    -0.744 OA
ENDBRANCH  54  55
ENDBRANCH  26  49
BRANCH  38  59
ATOM     59  C   UNL A   1      36.069  33.500  33.253  1.00  0.00    -0.014 A 
ATOM     60  C   UNL A   1      34.760  33.017  33.414  1.00  0.00     0.010 A 
ATOM     61  C   UNL A   1      36.281  34.785  32.724  1.00  0.00     0.010 A 
ATOM     62  C   UNL A   1      33.675  33.809  33.041  1.00  0.00     0.020 A 
ATOM     63  C   UNL A   1      35.196  35.592  32.384  1.00  0.00     0.020 A 
ATOM     64  C   UNL A   1      33.900  35.096  32.539  1.00  0.00     0.054 A 
BRANCH  64  65
ATOM     65  S   UNL A   1      32.470  36.136  32.152  1.00  0.00     0.124 S 
ATOM     66  O   UNL A   1      32.614  36.326  30.712  1.00  0.00    -0.237 OA
ATOM     67  O   UNL A   1      31.346  35.300  32.568  1.00  0.00    -0.237 OA
ATOM     68  O   UNL A   1      32.682  37.332  32.964  1.00  0.00    -0.744 OA
ENDBRANCH  64  65
ENDBRANCH  38  59
ENDBRANCH  12  13
ENDBRANCH   5   7
ENDBRANCH   4   5
ENDBRANCH   3   4
ENDBRANCH   2   3
ENDBRANCH   1   2
BRANCH   1  69
ATOM     69  C   UNL A   1      50.981  23.842  40.207  1.00  0.00     0.202 C 
BRANCH  69  70
ATOM     70  C   UNL A   1      50.535  22.629  39.385  1.00  0.00     0.261 C 
BRANCH  70  71
ATOM     71  O   UNL A   1      50.387  23.045  38.016  1.00  0.00    -0.461 OA
BRANCH  71  72
ATOM     72  C   UNL A   1      51.294  22.492  37.154  1.00  0.00     0.334 C 
ATOM     73  O   UNL A   1      52.474  22.293  37.419  1.00  0.00    -0.249 OA
BRANCH  72  74
ATOM     74  C   UNL A   1      50.669  22.221  35.763  1.00  0.00     0.232 C 
BRANCH  74  75
ATOM     75  C   UNL A   1      51.703  21.802  34.720  1.00  0.00    -0.014 A 
ATOM     76  C   UNL A   1      51.893  20.430  34.466  1.00  0.00     0.006 A 
ATOM     77  C   UNL A   1      52.417  22.716  33.916  1.00  0.00     0.006 A 
ATOM     78  C   UNL A   1      52.748  19.995  33.448  1.00  0.00     0.000 A 
ATOM     79  C   UNL A   1      53.259  22.277  32.889  1.00  0.00     0.000 A 
ATOM     80  C   UNL A   1      53.428  20.918  32.658  1.00  0.00     0.000 A 
ENDBRANCH  74  75
BRANCH  74  81
ATOM     81  N   UNL A   1      49.513  21.359  36.055  1.00  0.00    -0.274 N 
ATOM     82  C   UNL A   1      48.388  21.670  35.304  1.00  0.00     0.267 C 
ATOM     83  C   UNL A   1      49.352  20.289  36.893  1.00  0.00     0.149 C 
ATOM     84  O   UNL A   1      48.406  22.131  34.183  1.00  0.00    -0.268 OA
ATOM     85  C   UNL A   1      47.176  21.277  36.057  1.00  0.00     0.084 C 
ATOM     86  S   UNL A   1      47.617  19.981  37.109  1.00  0.00    -0.054 SA
ATOM     87  S   UNL A   1      50.473  19.291  37.609  1.00  0.00    -0.052 S 
ATOM     88  C   UNL A   1      45.994  21.905  36.115  1.00  0.00     0.068 C 
BRANCH  88  89
ATOM     89  C   UNL A   1      45.656  23.106  35.429  1.00  0.00     0.128 A 
ATOM     90  C   UNL A   1      45.710  24.441  35.812  1.00  0.00     0.051 A 
ATOM     91  O   UNL A   1      45.234  23.084  34.111  1.00  0.00    -0.457 OA
ATOM     92  C   UNL A   1      45.282  25.236  34.726  1.00  0.00     0.051 A 
ATOM     93  C   UNL A   1      45.026  24.365  33.695  1.00  0.00     0.134 A 
BRANCH  93  94
ATOM     94  C   UNL A   1      44.695  24.556  32.295  1.00  0.00     0.017 A 
ATOM     95  C   UNL A   1      44.204  23.511  31.501  1.00  0.00     0.015 A 
ATOM     96  C   UNL A   1      44.869  25.827  31.722  1.00  0.00     0.015 A 
ATOM     97  C   UNL A   1      43.905  23.734  30.152  1.00  0.00     0.040 A 
ATOM     98  C   UNL A   1      44.585  26.044  30.374  1.00  0.00     0.040 A 
ATOM     99  C   UNL A   1      44.113  24.993  29.601  1.00  0.00     0.123 A 
ATOM    100  F   UNL A   1      43.879  25.194  28.299  1.00  0.00    -0.207 F 
ENDBRANCH  93  94
ENDBRANCH  88  89
ENDBRANCH  74  81
ENDBRANCH  72  74
ENDBRANCH  71  72
ENDBRANCH  70  71
ENDBRANCH  69  70
ENDBRANCH   1  69
TORSDOF 21
ENDMDL
