MODEL 1
REMARK VINA RESULT:      -9.9      0.000      0.000
REMARK SMILES O=C(NCCOCC(=O)OCCOCCOC(=O)c1ccc(-c2c3nc(c(-c4ccc(S(=O)(=O)[O-])cc4)c4ccc([nH]4)c(-c4ccc(S(=O)(=O)[O-])cc4)c4nc(c(-c5ccc(S(=O)(=O)[O-])cc5)c5ccc2[nH]5)C=C4)C=C3)cc1)Nc1cccc(F)c1
REMARK SMILES IDX 12 1 11 2 10 3 8 4 9 5 7 6 6 7 5 8 4 9 3 10 1 11 2 12 79 13
REMARK SMILES IDX 80 16 81 17 86 18 82 19 84 20 83 21 85 22 13 23 14 24 15 25
REMARK SMILES IDX 16 26 17 27 18 28 19 29 20 30 78 31 21 32 77 33 22 34 23 35
REMARK SMILES IDX 24 36 71 37 25 38 76 39 70 40 72 41 26 42 75 43 69 44 68 45
REMARK SMILES IDX 27 47 57 48 38 49 56 50 39 51 42 52 55 53 73 54 40 55 41 56
REMARK SMILES IDX 54 58 74 59 43 60 28 61 29 62 37 63 30 64 36 65 31 66 32 67
REMARK SMILES IDX 33 68 34 69 35 70 58 71 59 72 67 73 60 74 66 75 61 76 62 77
REMARK SMILES IDX 63 78 64 79 65 80 44 81 45 82 53 83 46 84 52 85 47 86 48 87
REMARK SMILES IDX 49 88 50 89 51 90
REMARK H PARENT 3 14 79 15 72 46 42 57
REMARK Flexibility Score: inf
ROOT
ATOM      1  C   UNL A   1      45.609  21.987  25.548  1.00  0.00     0.202 C 
ENDROOT
BRANCH   1   2
ATOM      2  C   UNL A   1      45.670  20.763  24.628  1.00  0.00     0.261 C 
BRANCH   2   3
ATOM      3  O   UNL A   1      44.355  20.205  24.391  1.00  0.00    -0.462 OA
BRANCH   3   4
ATOM      4  C   UNL A   1      43.982  19.198  25.225  1.00  0.00     0.332 C 
ATOM      5  O   UNL A   1      44.489  18.083  25.258  1.00  0.00    -0.250 OA
BRANCH   4   6
ATOM      6  C   UNL A   1      42.773  19.567  26.105  1.00  0.00     0.282 C 
BRANCH   6   7
ATOM      7  O   UNL A   1      41.774  20.525  25.830  1.00  0.00    -0.368 OA
BRANCH   7   8
ATOM      8  C   UNL A   1      40.418  20.155  26.042  1.00  0.00     0.182 C 
BRANCH   8   9
ATOM      9  C   UNL A   1      39.360  21.238  25.755  1.00  0.00     0.146 C 
BRANCH   9  10
ATOM     10  N   UNL A   1      38.024  20.719  25.500  1.00  0.00    -0.336 N 
ATOM     11  O   UNL A   1      35.878  20.583  25.007  1.00  0.00    -0.249 OA
ATOM     12  C   UNL A   1      36.879  21.290  25.051  1.00  0.00     0.319 C 
ATOM     13  N   UNL A   1      36.935  22.598  24.659  1.00  0.00    -0.308 N 
ATOM     14  H   UNL A   1      37.933  19.757  25.693  1.00  0.00     0.165 HD
ATOM     15  H   UNL A   1      37.825  23.007  24.562  1.00  0.00     0.171 HD
BRANCH  13  16
ATOM     16  C   UNL A   1      35.806  23.407  24.383  1.00  0.00     0.045 A 
ATOM     17  C   UNL A   1      35.423  24.363  25.332  1.00  0.00     0.026 A 
ATOM     18  C   UNL A   1      35.049  23.274  23.214  1.00  0.00     0.065 A 
ATOM     19  C   UNL A   1      34.325  25.201  25.097  1.00  0.00     0.005 A 
ATOM     20  C   UNL A   1      33.949  24.099  22.998  1.00  0.00     0.125 A 
ATOM     21  C   UNL A   1      33.586  25.067  23.925  1.00  0.00     0.039 A 
ATOM     22  F   UNL A   1      33.226  23.957  21.880  1.00  0.00    -0.207 F 
ENDBRANCH  13  16
ENDBRANCH   9  10
ENDBRANCH   8   9
ENDBRANCH   7   8
ENDBRANCH   6   7
ENDBRANCH   4   6
ENDBRANCH   3   4
ENDBRANCH   2   3
ENDBRANCH   1   2
BRANCH   1  23
ATOM     23  O   UNL A   1      45.294  23.230  24.915  1.00  0.00    -0.374 OA
BRANCH  23  24
ATOM     24  C   UNL A   1      43.931  23.633  24.953  1.00  0.00     0.202 C 
BRANCH  24  25
ATOM     25  C   UNL A   1      43.324  23.779  26.356  1.00  0.00     0.261 C 
BRANCH  25  26
ATOM     26  O   UNL A   1      41.936  24.149  26.314  1.00  0.00    -0.460 OA
BRANCH  26  27
ATOM     27  C   UNL A   1      41.729  25.478  26.124  1.00  0.00     0.338 C 
ATOM     28  O   UNL A   1      41.426  26.030  25.079  1.00  0.00    -0.246 OA
BRANCH  27  29
ATOM     29  C   UNL A   1      41.742  26.199  27.411  1.00  0.00     0.060 A 
ATOM     30  C   UNL A   1      40.758  25.840  28.339  1.00  0.00     0.016 A 
ATOM     31  C   UNL A   1      42.620  27.251  27.679  1.00  0.00     0.016 A 
ATOM     32  C   UNL A   1      40.603  26.576  29.508  1.00  0.00     0.010 A 
ATOM     33  C   UNL A   1      42.462  27.993  28.859  1.00  0.00     0.010 A 
ATOM     34  C   UNL A   1      41.424  27.686  29.757  1.00  0.00    -0.014 A 
BRANCH  34  35
ATOM     35  C   UNL A   1      41.074  28.575  30.895  1.00  0.00     0.031 A 
ATOM     36  C   UNL A   1      41.927  28.561  32.135  1.00  0.00     0.074 A 
ATOM     37  C   UNL A   1      40.072  29.467  30.779  1.00  0.00     0.049 A 
ATOM     38  N   UNL A   1      41.895  29.362  33.170  1.00  0.00    -0.248 NA
ATOM     39  C   UNL A   1      42.953  27.510  32.222  1.00  0.00     0.031 C 
ATOM     40  C   UNL A   1      39.187  29.595  29.621  1.00  0.00     0.029 A 
ATOM     41  N   UNL A   1      39.649  30.451  31.638  1.00  0.00    -0.354 N 
ATOM     42  C   UNL A   1      42.898  28.918  34.025  1.00  0.00     0.074 A 
ATOM     43  C   UNL A   1      43.493  27.754  33.407  1.00  0.00     0.031 C 
ATOM     44  C   UNL A   1      38.335  30.613  29.835  1.00  0.00     0.029 A 
ATOM     45  C   UNL A   1      38.607  31.199  31.147  1.00  0.00     0.049 A 
ATOM     46  H   UNL A   1      40.054  30.605  32.522  1.00  0.00     0.167 HD
ATOM     47  C   UNL A   1      43.296  29.437  35.212  1.00  0.00     0.031 A 
ATOM     48  C   UNL A   1      37.949  32.245  31.686  1.00  0.00     0.031 A 
ATOM     49  C   UNL A   1      42.695  30.587  35.836  1.00  0.00     0.049 A 
ATOM     50  C   UNL A   1      38.391  32.788  33.018  1.00  0.00     0.074 A 
ATOM     51  C   UNL A   1      43.042  31.201  37.028  1.00  0.00     0.029 A 
ATOM     52  N   UNL A   1      41.614  31.290  35.326  1.00  0.00    -0.354 N 
ATOM     53  N   UNL A   1      39.371  32.384  33.791  1.00  0.00    -0.248 NA
ATOM     54  C   UNL A   1      37.649  33.944  33.540  1.00  0.00     0.031 C 
ATOM     55  C   UNL A   1      42.136  32.242  37.264  1.00  0.00     0.029 A 
ATOM     56  C   UNL A   1      41.264  32.315  36.190  1.00  0.00     0.049 A 
ATOM     57  H   UNL A   1      41.162  31.091  34.474  1.00  0.00     0.167 HD
ATOM     58  C   UNL A   1      39.378  33.250  34.880  1.00  0.00     0.074 A 
ATOM     59  C   UNL A   1      38.317  34.210  34.655  1.00  0.00     0.031 C 
ATOM     60  C   UNL A   1      40.193  33.253  35.965  1.00  0.00     0.031 A 
BRANCH  47  61
ATOM     61  C   UNL A   1      44.420  28.738  35.931  1.00  0.00    -0.014 A 
ATOM     62  C   UNL A   1      44.171  27.684  36.830  1.00  0.00     0.010 A 
ATOM     63  C   UNL A   1      45.750  29.126  35.686  1.00  0.00     0.010 A 
ATOM     64  C   UNL A   1      45.227  27.061  37.500  1.00  0.00     0.020 A 
ATOM     65  C   UNL A   1      46.811  28.489  36.335  1.00  0.00     0.020 A 
ATOM     66  C   UNL A   1      46.540  27.472  37.254  1.00  0.00     0.054 A 
BRANCH  66  67
ATOM     67  S   UNL A   1      47.895  26.644  38.132  1.00  0.00     0.124 S 
ATOM     68  O   UNL A   1      47.244  26.241  39.375  1.00  0.00    -0.237 OA
ATOM     69  O   UNL A   1      48.247  25.554  37.225  1.00  0.00    -0.237 OA
ATOM     70  O   UNL A   1      48.908  27.687  38.270  1.00  0.00    -0.744 OA
ENDBRANCH  66  67
ENDBRANCH  47  61
BRANCH  48  71
ATOM     71  C   UNL A   1      36.804  32.850  30.953  1.00  0.00    -0.014 A 
ATOM     72  C   UNL A   1      35.480  32.644  31.379  1.00  0.00     0.010 A 
ATOM     73  C   UNL A   1      37.043  33.660  29.827  1.00  0.00     0.010 A 
ATOM     74  C   UNL A   1      34.415  33.234  30.688  1.00  0.00     0.020 A 
ATOM     75  C   UNL A   1      35.984  34.271  29.151  1.00  0.00     0.020 A 
ATOM     76  C   UNL A   1      34.675  34.047  29.582  1.00  0.00     0.054 A 
BRANCH  76  77
ATOM     77  S   UNL A   1      33.287  34.862  28.744  1.00  0.00     0.124 S 
ATOM     78  O   UNL A   1      33.945  35.989  28.090  1.00  0.00    -0.237 OA
ATOM     79  O   UNL A   1      32.794  33.813  27.856  1.00  0.00    -0.237 OA
ATOM     80  O   UNL A   1      32.386  35.211  29.841  1.00  0.00    -0.744 OA
ENDBRANCH  76  77
ENDBRANCH  48  71
BRANCH  60  81
ATOM     81  C   UNL A   1      39.977  34.343  36.983  1.00  0.00    -0.014 A 
ATOM     82  C   UNL A   1      40.602  35.596  36.855  1.00  0.00     0.010 A 
ATOM     83  C   UNL A   1      39.123  34.112  38.077  1.00  0.00     0.010 A 
ATOM     84  C   UNL A   1      40.421  36.580  37.832  1.00  0.00     0.020 A 
ATOM     85  C   UNL A   1      38.916  35.103  39.040  1.00  0.00     0.020 A 
ATOM     86  C   UNL A   1      39.586  36.323  38.924  1.00  0.00     0.054 A 
BRANCH  86  87
ATOM     87  S   UNL A   1      39.363  37.612  40.180  1.00  0.00     0.124 S 
ATOM     88  O   UNL A   1      40.670  38.266  40.176  1.00  0.00    -0.237 OA
ATOM     89  O   UNL A   1      38.263  38.406  39.638  1.00  0.00    -0.237 OA
ATOM     90  O   UNL A   1      39.044  36.863  41.392  1.00  0.00    -0.744 OA
ENDBRANCH  86  87
ENDBRANCH  60  81
ENDBRANCH  34  35
ENDBRANCH  27  29
ENDBRANCH  26  27
ENDBRANCH  25  26
ENDBRANCH  24  25
ENDBRANCH  23  24
ENDBRANCH   1  23
TORSDOF 22
ENDMDL
MODEL 2
REMARK VINA RESULT:      -9.8      4.704     12.778
REMARK SMILES O=C(NCCOCC(=O)OCCOCCOC(=O)c1ccc(-c2c3nc(c(-c4ccc(S(=O)(=O)[O-])cc4)c4ccc([nH]4)c(-c4ccc(S(=O)(=O)[O-])cc4)c4nc(c(-c5ccc(S(=O)(=O)[O-])cc5)c5ccc2[nH]5)C=C4)C=C3)cc1)Nc1cccc(F)c1
REMARK SMILES IDX 12 1 11 2 10 3 8 4 9 5 7 6 6 7 5 8 4 9 3 10 1 11 2 12 79 13
REMARK SMILES IDX 80 16 81 17 86 18 82 19 84 20 83 21 85 22 13 23 14 24 15 25
REMARK SMILES IDX 16 26 17 27 18 28 19 29 20 30 78 31 21 32 77 33 22 34 23 35
REMARK SMILES IDX 24 36 71 37 25 38 76 39 70 40 72 41 26 42 75 43 69 44 68 45
REMARK SMILES IDX 27 47 57 48 38 49 56 50 39 51 42 52 55 53 73 54 40 55 41 56
REMARK SMILES IDX 54 58 74 59 43 60 28 61 29 62 37 63 30 64 36 65 31 66 32 67
REMARK SMILES IDX 33 68 34 69 35 70 58 71 59 72 67 73 60 74 66 75 61 76 62 77
REMARK SMILES IDX 63 78 64 79 65 80 44 81 45 82 53 83 46 84 52 85 47 86 48 87
REMARK SMILES IDX 49 88 50 89 51 90
REMARK H PARENT 3 14 79 15 72 46 42 57
REMARK Flexibility Score: inf
ROOT
ATOM      1  C   UNL A   1      33.019  35.126  28.699  1.00  0.00     0.202 C 
ENDROOT
BRANCH   1   2
ATOM      2  C   UNL A   1      33.355  36.322  29.595  1.00  0.00     0.261 C 
BRANCH   2   3
ATOM      3  O   UNL A   1      32.392  36.476  30.666  1.00  0.00    -0.462 OA
BRANCH   3   4
ATOM      4  C   UNL A   1      32.880  36.989  31.828  1.00  0.00     0.332 C 
ATOM      5  O   UNL A   1      33.207  38.157  32.003  1.00  0.00    -0.250 OA
BRANCH   4   6
ATOM      6  C   UNL A   1      33.063  35.921  32.922  1.00  0.00     0.282 C 
BRANCH   6   7
ATOM      7  O   UNL A   1      33.028  34.519  32.765  1.00  0.00    -0.368 OA
BRANCH   7   8
ATOM      8  C   UNL A   1      34.242  33.798  32.930  1.00  0.00     0.182 C 
BRANCH   8   9
ATOM      9  C   UNL A   1      34.526  32.690  31.897  1.00  0.00     0.146 C 
BRANCH   9  10
ATOM     10  N   UNL A   1      35.778  32.852  31.172  1.00  0.00    -0.336 N 
ATOM     11  O   UNL A   1      37.917  32.819  30.632  1.00  0.00    -0.249 OA
ATOM     12  C   UNL A   1      37.051  32.462  31.426  1.00  0.00     0.319 C 
ATOM     13  N   UNL A   1      37.268  31.683  32.527  1.00  0.00    -0.308 N 
ATOM     14  H   UNL A   1      35.679  33.344  30.324  1.00  0.00     0.165 HD
ATOM     15  H   UNL A   1      36.480  31.306  32.981  1.00  0.00     0.171 HD
BRANCH  13  16
ATOM     16  C   UNL A   1      38.543  31.379  33.062  1.00  0.00     0.045 A 
ATOM     17  C   UNL A   1      39.281  32.411  33.655  1.00  0.00     0.026 A 
ATOM     18  C   UNL A   1      39.103  30.098  33.001  1.00  0.00     0.065 A 
ATOM     19  C   UNL A   1      40.539  32.157  34.217  1.00  0.00     0.005 A 
ATOM     20  C   UNL A   1      40.361  29.860  33.545  1.00  0.00     0.125 A 
ATOM     21  C   UNL A   1      41.081  30.876  34.160  1.00  0.00     0.039 A 
ATOM     22  F   UNL A   1      40.892  28.632  33.473  1.00  0.00    -0.207 F 
ENDBRANCH  13  16
ENDBRANCH   9  10
ENDBRANCH   8   9
ENDBRANCH   7   8
ENDBRANCH   6   7
ENDBRANCH   4   6
ENDBRANCH   3   4
ENDBRANCH   2   3
ENDBRANCH   1   2
BRANCH   1  23
ATOM     23  O   UNL A   1      33.676  33.897  29.024  1.00  0.00    -0.374 OA
BRANCH  23  24
ATOM     24  C   UNL A   1      34.385  33.259  27.969  1.00  0.00     0.202 C 
BRANCH  24  25
ATOM     25  C   UNL A   1      33.796  31.925  27.490  1.00  0.00     0.261 C 
BRANCH  25  26
ATOM     26  O   UNL A   1      34.017  30.862  28.434  1.00  0.00    -0.460 OA
BRANCH  26  27
ATOM     27  C   UNL A   1      34.646  29.781  27.904  1.00  0.00     0.338 C 
ATOM     28  O   UNL A   1      34.196  29.004  27.079  1.00  0.00    -0.246 OA
BRANCH  27  29
ATOM     29  C   UNL A   1      36.060  29.741  28.325  1.00  0.00     0.060 A 
ATOM     30  C   UNL A   1      37.013  30.017  27.339  1.00  0.00     0.016 A 
ATOM     31  C   UNL A   1      36.456  29.361  29.608  1.00  0.00     0.016 A 
ATOM     32  C   UNL A   1      38.367  29.846  27.612  1.00  0.00     0.010 A 
ATOM     33  C   UNL A   1      37.822  29.188  29.882  1.00  0.00     0.010 A 
ATOM     34  C   UNL A   1      38.779  29.388  28.872  1.00  0.00    -0.014 A 
BRANCH  34  35
ATOM     35  C   UNL A   1      40.202  28.999  29.044  1.00  0.00     0.031 A 
ATOM     36  C   UNL A   1      41.152  29.949  29.724  1.00  0.00     0.074 A 
ATOM     37  C   UNL A   1      40.619  27.766  28.697  1.00  0.00     0.049 A 
ATOM     38  N   UNL A   1      42.384  29.747  30.117  1.00  0.00    -0.248 NA
ATOM     39  C   UNL A   1      40.647  31.302  30.004  1.00  0.00     0.031 C 
ATOM     40  C   UNL A   1      39.793  26.748  28.050  1.00  0.00     0.029 A 
ATOM     41  N   UNL A   1      41.837  27.156  28.866  1.00  0.00    -0.354 N 
ATOM     42  C   UNL A   1      42.799  30.941  30.695  1.00  0.00     0.074 A 
ATOM     43  C   UNL A   1      41.702  31.875  30.566  1.00  0.00     0.031 C 
ATOM     44  C   UNL A   1      40.523  25.630  27.892  1.00  0.00     0.029 A 
ATOM     45  C   UNL A   1      41.869  25.858  28.414  1.00  0.00     0.049 A 
ATOM     46  H   UNL A   1      42.613  27.605  29.271  1.00  0.00     0.167 HD
ATOM     47  C   UNL A   1      43.982  31.234  31.289  1.00  0.00     0.031 A 
ATOM     48  C   UNL A   1      42.866  24.951  28.427  1.00  0.00     0.031 A 
ATOM     49  C   UNL A   1      45.081  30.311  31.404  1.00  0.00     0.049 A 
ATOM     50  C   UNL A   1      44.181  25.307  29.068  1.00  0.00     0.074 A 
ATOM     51  C   UNL A   1      46.312  30.507  32.007  1.00  0.00     0.029 A 
ATOM     52  N   UNL A   1      45.088  29.020  30.896  1.00  0.00    -0.354 N 
ATOM     53  N   UNL A   1      44.539  26.426  29.651  1.00  0.00    -0.248 NA
ATOM     54  C   UNL A   1      45.218  24.266  29.071  1.00  0.00     0.031 C 
ATOM     55  C   UNL A   1      47.082  29.353  31.816  1.00  0.00     0.029 A 
ATOM     56  C   UNL A   1      46.310  28.417  31.148  1.00  0.00     0.049 A 
ATOM     57  H   UNL A   1      44.335  28.595  30.426  1.00  0.00     0.167 HD
ATOM     58  C   UNL A   1      45.836  26.217  30.110  1.00  0.00     0.074 A 
ATOM     59  C   UNL A   1      46.189  24.857  29.753  1.00  0.00     0.031 C 
ATOM     60  C   UNL A   1      46.657  27.070  30.771  1.00  0.00     0.031 A 
BRANCH  47  61
ATOM     61  C   UNL A   1      44.158  32.628  31.831  1.00  0.00    -0.014 A 
ATOM     62  C   UNL A   1      43.907  32.925  33.183  1.00  0.00     0.010 A 
ATOM     63  C   UNL A   1      44.605  33.654  30.978  1.00  0.00     0.010 A 
ATOM     64  C   UNL A   1      44.059  34.229  33.662  1.00  0.00     0.020 A 
ATOM     65  C   UNL A   1      44.784  34.955  31.458  1.00  0.00     0.020 A 
ATOM     66  C   UNL A   1      44.490  35.238  32.794  1.00  0.00     0.054 A 
BRANCH  66  67
ATOM     67  S   UNL A   1      44.686  36.922  33.440  1.00  0.00     0.124 S 
ATOM     68  O   UNL A   1      44.102  36.802  34.773  1.00  0.00    -0.237 OA
ATOM     69  O   UNL A   1      46.134  37.114  33.404  1.00  0.00    -0.237 OA
ATOM     70  O   UNL A   1      43.928  37.745  32.500  1.00  0.00    -0.744 OA
ENDBRANCH  66  67
ENDBRANCH  47  61
BRANCH  48  71
ATOM     71  C   UNL A   1      42.648  23.612  27.816  1.00  0.00    -0.014 A 
ATOM     72  C   UNL A   1      42.990  23.362  26.476  1.00  0.00     0.010 A 
ATOM     73  C   UNL A   1      42.113  22.567  28.592  1.00  0.00     0.010 A 
ATOM     74  C   UNL A   1      42.794  22.093  25.920  1.00  0.00     0.020 A 
ATOM     75  C   UNL A   1      41.939  21.291  28.048  1.00  0.00     0.020 A 
ATOM     76  C   UNL A   1      42.275  21.064  26.713  1.00  0.00     0.054 A 
BRANCH  76  77
ATOM     77  S   UNL A   1      42.098  19.407  25.996  1.00  0.00     0.124 S 
ATOM     78  O   UNL A   1      40.664  19.341  25.732  1.00  0.00    -0.237 OA
ATOM     79  O   UNL A   1      42.958  19.479  24.817  1.00  0.00    -0.237 OA
ATOM     80  O   UNL A   1      42.582  18.525  27.056  1.00  0.00    -0.744 OA
ENDBRANCH  76  77
ENDBRANCH  48  71
BRANCH  60  81
ATOM     81  C   UNL A   1      48.015  26.549  31.168  1.00  0.00    -0.014 A 
ATOM     82  C   UNL A   1      48.197  25.817  32.354  1.00  0.00     0.010 A 
ATOM     83  C   UNL A   1      49.120  26.785  30.331  1.00  0.00     0.010 A 
ATOM     84  C   UNL A   1      49.472  25.377  32.724  1.00  0.00     0.020 A 
ATOM     85  C   UNL A   1      50.391  26.322  30.683  1.00  0.00     0.020 A 
ATOM     86  C   UNL A   1      50.563  25.641  31.890  1.00  0.00     0.054 A 
BRANCH  86  87
ATOM     87  S   UNL A   1      52.208  25.061  32.388  1.00  0.00     0.124 S 
ATOM     88  O   UNL A   1      52.383  25.724  33.678  1.00  0.00    -0.237 OA
ATOM     89  O   UNL A   1      52.037  23.611  32.446  1.00  0.00    -0.237 OA
ATOM     90  O   UNL A   1      53.081  25.538  31.319  1.00  0.00    -0.744 OA
ENDBRANCH  86  87
ENDBRANCH  60  81
ENDBRANCH  34  35
ENDBRANCH  27  29
ENDBRANCH  26  27
ENDBRANCH  25  26
ENDBRANCH  24  25
ENDBRANCH  23  24
ENDBRANCH   1  23
TORSDOF 22
ENDMDL
MODEL 3
REMARK VINA RESULT:      -9.8      4.896     12.655
REMARK SMILES O=C(NCCOCC(=O)OCCOCCOC(=O)c1ccc(-c2c3nc(c(-c4ccc(S(=O)(=O)[O-])cc4)c4ccc([nH]4)c(-c4ccc(S(=O)(=O)[O-])cc4)c4nc(c(-c5ccc(S(=O)(=O)[O-])cc5)c5ccc2[nH]5)C=C4)C=C3)cc1)Nc1cccc(F)c1
REMARK SMILES IDX 12 1 11 2 10 3 8 4 9 5 7 6 6 7 5 8 4 9 3 10 1 11 2 12 79 13
REMARK SMILES IDX 80 16 81 17 86 18 82 19 84 20 83 21 85 22 13 23 14 24 15 25
REMARK SMILES IDX 16 26 17 27 18 28 19 29 20 30 78 31 21 32 77 33 22 34 23 35
REMARK SMILES IDX 24 36 71 37 25 38 76 39 70 40 72 41 26 42 75 43 69 44 68 45
REMARK SMILES IDX 27 47 57 48 38 49 56 50 39 51 42 52 55 53 73 54 40 55 41 56
REMARK SMILES IDX 54 58 74 59 43 60 28 61 29 62 37 63 30 64 36 65 31 66 32 67
REMARK SMILES IDX 33 68 34 69 35 70 58 71 59 72 67 73 60 74 66 75 61 76 62 77
REMARK SMILES IDX 63 78 64 79 65 80 44 81 45 82 53 83 46 84 52 85 47 86 48 87
REMARK SMILES IDX 49 88 50 89 51 90
REMARK H PARENT 3 14 79 15 72 46 42 57
REMARK Flexibility Score: inf
ROOT
ATOM      1  C   UNL A   1      32.678  36.120  28.969  1.00  0.00     0.202 C 
ENDROOT
BRANCH   1   2
ATOM      2  C   UNL A   1      33.348  37.106  29.931  1.00  0.00     0.261 C 
BRANCH   2   3
ATOM      3  O   UNL A   1      32.615  37.226  31.173  1.00  0.00    -0.462 OA
BRANCH   3   4
ATOM      4  C   UNL A   1      33.353  37.103  32.309  1.00  0.00     0.332 C 
ATOM      5  O   UNL A   1      33.973  38.010  32.851  1.00  0.00    -0.250 OA
BRANCH   4   6
ATOM      6  C   UNL A   1      33.408  35.656  32.833  1.00  0.00     0.282 C 
BRANCH   6   7
ATOM      7  O   UNL A   1      34.556  34.867  33.052  1.00  0.00    -0.368 OA
BRANCH   7   8
ATOM      8  C   UNL A   1      35.214  34.980  34.308  1.00  0.00     0.182 C 
BRANCH   8   9
ATOM      9  C   UNL A   1      35.632  33.659  34.984  1.00  0.00     0.146 C 
BRANCH   9  10
ATOM     10  N   UNL A   1      36.993  33.237  34.686  1.00  0.00    -0.336 N 
ATOM     11  O   UNL A   1      38.882  32.818  33.626  1.00  0.00    -0.249 OA
ATOM     12  C   UNL A   1      37.776  33.349  33.585  1.00  0.00     0.319 C 
ATOM     13  N   UNL A   1      37.286  34.063  32.529  1.00  0.00    -0.308 N 
ATOM     14  H   UNL A   1      37.434  32.777  35.437  1.00  0.00     0.165 HD
ATOM     15  H   UNL A   1      36.473  34.598  32.677  1.00  0.00     0.171 HD
BRANCH  13  16
ATOM     16  C   UNL A   1      37.863  34.091  31.236  1.00  0.00     0.045 A 
ATOM     17  C   UNL A   1      37.258  33.342  30.219  1.00  0.00     0.026 A 
ATOM     18  C   UNL A   1      39.022  34.817  30.941  1.00  0.00     0.065 A 
ATOM     19  C   UNL A   1      37.778  33.352  28.918  1.00  0.00     0.005 A 
ATOM     20  C   UNL A   1      39.543  34.805  29.651  1.00  0.00     0.125 A 
ATOM     21  C   UNL A   1      38.927  34.086  28.635  1.00  0.00     0.039 A 
ATOM     22  F   UNL A   1      40.659  35.496  29.381  1.00  0.00    -0.207 F 
ENDBRANCH  13  16
ENDBRANCH   9  10
ENDBRANCH   8   9
ENDBRANCH   7   8
ENDBRANCH   6   7
ENDBRANCH   4   6
ENDBRANCH   3   4
ENDBRANCH   2   3
ENDBRANCH   1   2
BRANCH   1  23
ATOM     23  O   UNL A   1      32.688  34.748  29.373  1.00  0.00    -0.374 OA
BRANCH  23  24
ATOM     24  C   UNL A   1      33.954  34.100  29.387  1.00  0.00     0.202 C 
BRANCH  24  25
ATOM     25  C   UNL A   1      34.124  32.959  28.373  1.00  0.00     0.261 C 
BRANCH  25  26
ATOM     26  O   UNL A   1      34.482  31.719  29.004  1.00  0.00    -0.460 OA
BRANCH  26  27
ATOM     27  C   UNL A   1      34.652  30.690  28.134  1.00  0.00     0.338 C 
ATOM     28  O   UNL A   1      33.915  30.381  27.213  1.00  0.00    -0.246 OA
BRANCH  27  29
ATOM     29  C   UNL A   1      35.972  30.058  28.323  1.00  0.00     0.060 A 
ATOM     30  C   UNL A   1      36.262  29.587  29.608  1.00  0.00     0.016 A 
ATOM     31  C   UNL A   1      36.936  30.004  27.314  1.00  0.00     0.016 A 
ATOM     32  C   UNL A   1      37.539  29.124  29.908  1.00  0.00     0.010 A 
ATOM     33  C   UNL A   1      38.223  29.537  27.618  1.00  0.00     0.010 A 
ATOM     34  C   UNL A   1      38.542  29.136  28.928  1.00  0.00    -0.014 A 
BRANCH  34  35
ATOM     35  C   UNL A   1      39.938  28.855  29.352  1.00  0.00     0.031 A 
ATOM     36  C   UNL A   1      40.577  27.547  28.971  1.00  0.00     0.074 A 
ATOM     37  C   UNL A   1      40.665  29.802  29.973  1.00  0.00     0.049 A 
ATOM     38  N   UNL A   1      41.824  27.167  29.097  1.00  0.00    -0.248 NA
ATOM     39  C   UNL A   1      39.701  26.533  28.363  1.00  0.00     0.031 C 
ATOM     40  C   UNL A   1      40.169  31.117  30.378  1.00  0.00     0.029 A 
ATOM     41  N   UNL A   1      41.986  29.810  30.348  1.00  0.00    -0.354 N 
ATOM     42  C   UNL A   1      41.883  25.878  28.580  1.00  0.00     0.074 A 
ATOM     43  C   UNL A   1      40.540  25.525  28.174  1.00  0.00     0.031 C 
ATOM     44  C   UNL A   1      41.178  31.812  30.931  1.00  0.00     0.029 A 
ATOM     45  C   UNL A   1      42.385  30.989  30.930  1.00  0.00     0.049 A 
ATOM     46  H   UNL A   1      42.589  29.043  30.215  1.00  0.00     0.167 HD
ATOM     47  C   UNL A   1      42.958  25.063  28.444  1.00  0.00     0.031 A 
ATOM     48  C   UNL A   1      43.590  31.369  31.401  1.00  0.00     0.031 A 
ATOM     49  C   UNL A   1      44.292  25.407  28.861  1.00  0.00     0.049 A 
ATOM     50  C   UNL A   1      44.764  30.438  31.264  1.00  0.00     0.074 A 
ATOM     51  C   UNL A   1      45.451  24.657  28.747  1.00  0.00     0.029 A 
ATOM     52  N   UNL A   1      44.647  26.594  29.484  1.00  0.00    -0.354 N 
ATOM     53  N   UNL A   1      44.811  29.240  30.730  1.00  0.00    -0.248 NA
ATOM     54  C   UNL A   1      46.055  30.921  31.775  1.00  0.00     0.031 C 
ATOM     55  C   UNL A   1      46.495  25.370  29.349  1.00  0.00     0.029 A 
ATOM     56  C   UNL A   1      45.999  26.588  29.783  1.00  0.00     0.049 A 
ATOM     57  H   UNL A   1      44.027  27.333  29.683  1.00  0.00     0.167 HD
ATOM     58  C   UNL A   1      46.139  28.836  30.821  1.00  0.00     0.074 A 
ATOM     59  C   UNL A   1      46.864  29.925  31.443  1.00  0.00     0.031 C 
ATOM     60  C   UNL A   1      46.707  27.670  30.421  1.00  0.00     0.031 A 
BRANCH  47  61
ATOM     61  C   UNL A   1      42.723  23.701  27.846  1.00  0.00    -0.014 A 
ATOM     62  C   UNL A   1      42.870  23.471  26.466  1.00  0.00     0.010 A 
ATOM     63  C   UNL A   1      42.372  22.626  28.683  1.00  0.00     0.010 A 
ATOM     64  C   UNL A   1      42.629  22.204  25.929  1.00  0.00     0.020 A 
ATOM     65  C   UNL A   1      42.155  21.351  28.154  1.00  0.00     0.020 A 
ATOM     66  C   UNL A   1      42.266  21.153  26.776  1.00  0.00     0.054 A 
BRANCH  66  67
ATOM     67  S   UNL A   1      41.965  19.514  26.056  1.00  0.00     0.124 S 
ATOM     68  O   UNL A   1      42.795  19.557  24.856  1.00  0.00    -0.237 OA
ATOM     69  O   UNL A   1      42.427  18.611  27.108  1.00  0.00    -0.237 OA
ATOM     70  O   UNL A   1      40.524  19.500  25.816  1.00  0.00    -0.744 OA
ENDBRANCH  66  67
ENDBRANCH  47  61
BRANCH  48  71
ATOM     71  C   UNL A   1      43.741  32.705  32.040  1.00  0.00    -0.014 A 
ATOM     72  C   UNL A   1      43.686  32.850  33.437  1.00  0.00     0.010 A 
ATOM     73  C   UNL A   1      43.964  33.842  31.241  1.00  0.00     0.010 A 
ATOM     74  C   UNL A   1      43.846  34.111  34.023  1.00  0.00     0.020 A 
ATOM     75  C   UNL A   1      44.150  35.098  31.825  1.00  0.00     0.020 A 
ATOM     76  C   UNL A   1      44.082  35.225  33.213  1.00  0.00     0.054 A 
BRANCH  76  77
ATOM     77  S   UNL A   1      44.361  36.838  33.996  1.00  0.00     0.124 S 
ATOM     78  O   UNL A   1      45.815  36.954  33.945  1.00  0.00    -0.237 OA
ATOM     79  O   UNL A   1      43.622  37.746  33.121  1.00  0.00    -0.237 OA
ATOM     80  O   UNL A   1      43.790  36.671  35.330  1.00  0.00    -0.744 OA
ENDBRANCH  76  77
ENDBRANCH  48  71
BRANCH  60  81
ATOM     81  C   UNL A   1      48.192  27.523  30.628  1.00  0.00    -0.014 A 
ATOM     82  C   UNL A   1      48.714  26.968  31.810  1.00  0.00     0.010 A 
ATOM     83  C   UNL A   1      49.078  27.934  29.615  1.00  0.00     0.010 A 
ATOM     84  C   UNL A   1      50.096  26.876  31.998  1.00  0.00     0.020 A 
ATOM     85  C   UNL A   1      50.460  27.818  29.788  1.00  0.00     0.020 A 
ATOM     86  C   UNL A   1      50.961  27.312  30.989  1.00  0.00     0.054 A 
BRANCH  86  87
ATOM     87  S   UNL A   1      52.751  27.185  31.253  1.00  0.00     0.124 S 
ATOM     88  O   UNL A   1      52.906  27.803  32.568  1.00  0.00    -0.237 OA
ATOM     89  O   UNL A   1      52.984  25.744  31.205  1.00  0.00    -0.237 OA
ATOM     90  O   UNL A   1      53.319  27.939  30.139  1.00  0.00    -0.744 OA
ENDBRANCH  86  87
ENDBRANCH  60  81
ENDBRANCH  34  35
ENDBRANCH  27  29
ENDBRANCH  26  27
ENDBRANCH  25  26
ENDBRANCH  24  25
ENDBRANCH  23  24
ENDBRANCH   1  23
TORSDOF 22
ENDMDL
