MODEL 1
REMARK VINA RESULT:     -10.9      0.000      0.000
REMARK SMILES O=C(OCCOCCOC(=O)c1[nH]ncc1C[NH+]1CCC([N@H+]2CCC[C@@H](C(=O)N3CCCC3)C2)CC1)c1ccc(-c2c3nc(c(-c4ccc(S(=O)(=O)[O-])cc4)c4ccc([nH]4)c(-c4ccc(S(=O)(=O)[O-])cc4)c4nc(c(-c5ccc(S(=O)(=O)[O-])cc5)c5ccc2[nH]5)C=C4)C=C3)cc1
REMARK SMILES IDX 7 1 6 2 5 3 4 4 3 5 2 6 1 7 37 8 38 9 96 10 39 11 95 12
REMARK SMILES IDX 40 13 41 14 42 15 89 16 43 17 94 18 88 19 90 20 44 21 93 22
REMARK SMILES IDX 87 23 86 24 45 26 75 27 56 28 74 29 57 30 60 31 73 32 91 33
REMARK SMILES IDX 58 34 59 35 72 37 92 38 61 39 46 40 47 41 55 42 48 43 54 44
REMARK SMILES IDX 49 45 50 46 51 47 52 48 53 49 76 50 77 51 85 52 78 53 84 54
REMARK SMILES IDX 79 55 80 56 81 57 82 58 83 59 62 60 63 61 71 62 64 63 70 64
REMARK SMILES IDX 65 65 66 66 67 67 68 68 69 69 8 70 9 71 10 72 11 73 12 74
REMARK SMILES IDX 13 75 16 76 14 77 15 79 17 80 18 81 19 82 36 83 20 85 35 86
REMARK SMILES IDX 21 87 22 88 23 89 34 90 24 92 26 93 25 94 27 95 28 96 29 97
REMARK SMILES IDX 30 98 33 99 31 100 32 101
REMARK H PARENT 90 25 60 36 13 78 18 84 22 91
REMARK Flexibility Score: inf
ROOT
ATOM      1  C   UNL A   1      32.986  30.271  27.297  1.00  0.00     0.202 C 
ENDROOT
BRANCH   1   2
ATOM      2  O   UNL A   1      33.058  31.675  27.044  1.00  0.00    -0.374 OA
BRANCH   2   3
ATOM      3  C   UNL A   1      33.931  32.460  27.853  1.00  0.00     0.202 C 
BRANCH   3   4
ATOM      4  C   UNL A   1      33.567  33.938  27.944  1.00  0.00     0.261 C 
BRANCH   4   5
ATOM      5  O   UNL A   1      32.816  34.176  29.141  1.00  0.00    -0.460 OA
BRANCH   5   6
ATOM      6  C   UNL A   1      33.299  34.588  30.335  1.00  0.00     0.338 C 
ATOM      7  O   UNL A   1      32.708  35.485  30.933  1.00  0.00    -0.246 OA
BRANCH   6   8
ATOM      8  C   UNL A   1      34.506  33.991  30.980  1.00  0.00     0.060 A 
ATOM      9  C   UNL A   1      34.506  32.832  31.757  1.00  0.00     0.016 A 
ATOM     10  C   UNL A   1      35.739  34.591  30.691  1.00  0.00     0.016 A 
ATOM     11  C   UNL A   1      35.667  32.276  32.245  1.00  0.00     0.010 A 
ATOM     12  C   UNL A   1      36.926  34.037  31.173  1.00  0.00     0.010 A 
ATOM     13  C   UNL A   1      36.879  32.876  31.950  1.00  0.00    -0.014 A 
BRANCH  13  14
ATOM     14  C   UNL A   1      38.051  32.320  32.629  1.00  0.00     0.031 A 
ATOM     15  C   UNL A   1      38.855  31.306  31.885  1.00  0.00     0.074 A 
ATOM     16  C   UNL A   1      38.458  32.871  33.785  1.00  0.00     0.049 A 
ATOM     17  N   UNL A   1      39.903  30.644  32.277  1.00  0.00    -0.248 NA
ATOM     18  C   UNL A   1      38.429  31.013  30.503  1.00  0.00     0.031 C 
ATOM     19  C   UNL A   1      37.809  34.003  34.458  1.00  0.00     0.029 A 
ATOM     20  N   UNL A   1      39.534  32.586  34.575  1.00  0.00    -0.354 N 
ATOM     21  C   UNL A   1      40.237  29.822  31.209  1.00  0.00     0.074 A 
ATOM     22  C   UNL A   1      39.287  30.069  30.152  1.00  0.00     0.031 C 
ATOM     23  C   UNL A   1      38.511  34.320  35.556  1.00  0.00     0.029 A 
ATOM     24  C   UNL A   1      39.602  33.366  35.704  1.00  0.00     0.049 A 
ATOM     25  H   UNL A   1      40.195  31.890  34.359  1.00  0.00     0.167 HD
ATOM     26  C   UNL A   1      41.247  28.926  31.145  1.00  0.00     0.031 A 
ATOM     27  C   UNL A   1      40.432  33.271  36.759  1.00  0.00     0.031 A 
ATOM     28  C   UNL A   1      42.153  28.710  32.238  1.00  0.00     0.049 A 
ATOM     29  C   UNL A   1      41.463  32.177  36.719  1.00  0.00     0.074 A 
ATOM     30  C   UNL A   1      43.172  27.787  32.348  1.00  0.00     0.029 A 
ATOM     31  N   UNL A   1      42.137  29.443  33.420  1.00  0.00    -0.354 N 
ATOM     32  N   UNL A   1      41.723  31.327  35.749  1.00  0.00    -0.248 NA
ATOM     33  C   UNL A   1      42.304  32.014  37.908  1.00  0.00     0.031 C 
ATOM     34  C   UNL A   1      43.730  27.920  33.625  1.00  0.00     0.029 A 
ATOM     35  C   UNL A   1      43.113  28.978  34.279  1.00  0.00     0.049 A 
ATOM     36  H   UNL A   1      41.521  30.186  33.615  1.00  0.00     0.167 HD
ATOM     37  C   UNL A   1      42.773  30.542  36.202  1.00  0.00     0.074 A 
ATOM     38  C   UNL A   1      43.110  31.033  37.526  1.00  0.00     0.031 C 
ATOM     39  C   UNL A   1      43.405  29.510  35.588  1.00  0.00     0.031 A 
BRANCH  26  40
ATOM     40  C   UNL A   1      41.325  28.069  29.914  1.00  0.00    -0.014 A 
ATOM     41  C   UNL A   1      40.397  27.043  29.661  1.00  0.00     0.010 A 
ATOM     42  C   UNL A   1      42.384  28.269  29.011  1.00  0.00     0.010 A 
ATOM     43  C   UNL A   1      40.552  26.206  28.551  1.00  0.00     0.020 A 
ATOM     44  C   UNL A   1      42.527  27.456  27.883  1.00  0.00     0.020 A 
ATOM     45  C   UNL A   1      41.618  26.418  27.670  1.00  0.00     0.054 A 
BRANCH  45  46
ATOM     46  S   UNL A   1      41.791  25.326  26.233  1.00  0.00     0.124 S 
ATOM     47  O   UNL A   1      41.322  26.181  25.145  1.00  0.00    -0.237 OA
ATOM     48  O   UNL A   1      43.221  25.032  26.227  1.00  0.00    -0.237 OA
ATOM     49  O   UNL A   1      40.926  24.192  26.550  1.00  0.00    -0.744 OA
ENDBRANCH  45  46
ENDBRANCH  26  40
BRANCH  27  50
ATOM     50  C   UNL A   1      40.264  34.166  37.938  1.00  0.00    -0.014 A 
ATOM     51  C   UNL A   1      39.416  33.817  39.002  1.00  0.00     0.010 A 
ATOM     52  C   UNL A   1      40.965  35.387  38.002  1.00  0.00     0.010 A 
ATOM     53  C   UNL A   1      39.258  34.678  40.095  1.00  0.00     0.020 A 
ATOM     54  C   UNL A   1      40.836  36.234  39.105  1.00  0.00     0.020 A 
ATOM     55  C   UNL A   1      39.970  35.881  40.139  1.00  0.00     0.054 A 
BRANCH  55  56
ATOM     56  S   UNL A   1      39.769  36.968  41.579  1.00  0.00     0.124 S 
ATOM     57  O   UNL A   1      38.969  38.058  41.027  1.00  0.00    -0.237 OA
ATOM     58  O   UNL A   1      39.085  36.101  42.535  1.00  0.00    -0.237 OA
ATOM     59  O   UNL A   1      41.141  37.320  41.938  1.00  0.00    -0.744 OA
ENDBRANCH  55  56
ENDBRANCH  27  50
BRANCH  39  60
ATOM     60  C   UNL A   1      44.552  28.883  36.329  1.00  0.00    -0.014 A 
ATOM     61  C   UNL A   1      44.354  27.798  37.198  1.00  0.00     0.010 A 
ATOM     62  C   UNL A   1      45.857  29.349  36.084  1.00  0.00     0.010 A 
ATOM     63  C   UNL A   1      45.446  27.204  37.833  1.00  0.00     0.020 A 
ATOM     64  C   UNL A   1      46.951  28.734  36.688  1.00  0.00     0.020 A 
ATOM     65  C   UNL A   1      46.737  27.674  37.569  1.00  0.00     0.054 A 
BRANCH  65  66
ATOM     66  S   UNL A   1      48.140  26.845  38.360  1.00  0.00     0.124 S 
ATOM     67  O   UNL A   1      49.000  27.972  38.710  1.00  0.00    -0.237 OA
ATOM     68  O   UNL A   1      47.511  26.158  39.486  1.00  0.00    -0.237 OA
ATOM     69  O   UNL A   1      48.658  25.966  37.313  1.00  0.00    -0.744 OA
ENDBRANCH  65  66
ENDBRANCH  39  60
ENDBRANCH  13  14
ENDBRANCH   6   8
ENDBRANCH   5   6
ENDBRANCH   4   5
ENDBRANCH   3   4
ENDBRANCH   2   3
ENDBRANCH   1   2
BRANCH   1  70
ATOM     70  C   UNL A   1      33.509  29.538  26.058  1.00  0.00     0.261 C 
BRANCH  70  71
ATOM     71  O   UNL A   1      32.665  29.895  24.958  1.00  0.00    -0.459 OA
BRANCH  71  72
ATOM     72  C   UNL A   1      32.811  29.135  23.840  1.00  0.00     0.356 C 
ATOM     73  O   UNL A   1      33.840  28.578  23.471  1.00  0.00    -0.244 OA
BRANCH  72  74
ATOM     74  C   UNL A   1      31.522  28.971  23.230  1.00  0.00     0.152 A 
ATOM     75  N   UNL A   1      31.078  29.754  22.204  1.00  0.00    -0.271 N 
ATOM     76  C   UNL A   1      30.474  28.105  23.514  1.00  0.00     0.059 A 
ATOM     77  N   UNL A   1      29.929  29.319  21.655  1.00  0.00    -0.183 NA
ATOM     78  H   UNL A   1      31.553  30.560  21.895  1.00  0.00     0.190 HD
ATOM     79  C   UNL A   1      29.550  28.334  22.471  1.00  0.00     0.145 A 
BRANCH  76  80
ATOM     80  C   UNL A   1      30.326  27.215  24.706  1.00  0.00     0.303 C 
BRANCH  80  81
ATOM     81  N   UNL A   1      31.156  25.999  24.577  1.00  0.00    -0.331 N 
ATOM     82  C   UNL A   1      31.482  25.671  23.183  1.00  0.00     0.268 C 
ATOM     83  C   UNL A   1      32.358  26.066  25.411  1.00  0.00     0.268 C 
ATOM     84  H   UNL A   1      30.584  25.231  24.925  1.00  0.00     0.348 HD
ATOM     85  C   UNL A   1      32.277  24.397  23.020  1.00  0.00     0.126 C 
ATOM     86  C   UNL A   1      33.139  24.754  25.349  1.00  0.00     0.126 C 
ATOM     87  C   UNL A   1      33.534  24.436  23.900  1.00  0.00     0.195 C 
BRANCH  87  88
ATOM     88  N   UNL A   1      34.384  23.227  23.802  1.00  0.00    -0.331 N 
ATOM     89  C   UNL A   1      35.771  23.461  24.232  1.00  0.00     0.262 C 
ATOM     90  C   UNL A   1      33.775  22.138  24.590  1.00  0.00     0.275 C 
ATOM     91  H   UNL A   1      34.434  22.965  22.818  1.00  0.00     0.348 HD
ATOM     92  C   UNL A   1      36.617  22.194  24.113  1.00  0.00     0.062 C 
ATOM     93  C   UNL A   1      34.570  20.832  24.503  1.00  0.00     0.134 C 
ATOM     94  C   UNL A   1      36.014  21.054  24.932  1.00  0.00     0.025 C 
BRANCH  93  95
ATOM     95  C   UNL A   1      33.829  19.822  25.365  1.00  0.00     0.231 C 
ATOM     96  O   UNL A   1      33.146  20.165  26.330  1.00  0.00    -0.274 OA
ATOM     97  N   UNL A   1      33.825  18.527  24.916  1.00  0.00    -0.342 N 
ATOM     98  C   UNL A   1      34.869  17.822  24.206  1.00  0.00     0.119 C 
ATOM     99  C   UNL A   1      32.652  17.699  25.101  1.00  0.00     0.119 C 
ATOM    100  C   UNL A   1      34.099  16.820  23.371  1.00  0.00     0.023 C 
ATOM    101  C   UNL A   1      32.910  16.454  24.259  1.00  0.00     0.023 C 
ENDBRANCH  93  95
ENDBRANCH  87  88
ENDBRANCH  80  81
ENDBRANCH  76  80
ENDBRANCH  72  74
ENDBRANCH  71  72
ENDBRANCH  70  71
ENDBRANCH   1  70
TORSDOF 21
ENDMDL
MODEL 2
REMARK VINA RESULT:     -10.7      5.872      8.292
REMARK SMILES O=C(OCCOCCOC(=O)c1[nH]ncc1C[NH+]1CCC([N@H+]2CCC[C@@H](C(=O)N3CCCC3)C2)CC1)c1ccc(-c2c3nc(c(-c4ccc(S(=O)(=O)[O-])cc4)c4ccc([nH]4)c(-c4ccc(S(=O)(=O)[O-])cc4)c4nc(c(-c5ccc(S(=O)(=O)[O-])cc5)c5ccc2[nH]5)C=C4)C=C3)cc1
REMARK SMILES IDX 7 1 6 2 5 3 4 4 3 5 2 6 1 7 37 8 38 9 96 10 39 11 95 12
REMARK SMILES IDX 40 13 41 14 42 15 89 16 43 17 94 18 88 19 90 20 44 21 93 22
REMARK SMILES IDX 87 23 86 24 45 26 75 27 56 28 74 29 57 30 60 31 73 32 91 33
REMARK SMILES IDX 58 34 59 35 72 37 92 38 61 39 46 40 47 41 55 42 48 43 54 44
REMARK SMILES IDX 49 45 50 46 51 47 52 48 53 49 76 50 77 51 85 52 78 53 84 54
REMARK SMILES IDX 79 55 80 56 81 57 82 58 83 59 62 60 63 61 71 62 64 63 70 64
REMARK SMILES IDX 65 65 66 66 67 67 68 68 69 69 8 70 9 71 10 72 11 73 12 74
REMARK SMILES IDX 13 75 16 76 14 77 15 79 17 80 18 81 19 82 36 83 20 85 35 86
REMARK SMILES IDX 21 87 22 88 23 89 34 90 24 92 26 93 25 94 27 95 28 96 29 97
REMARK SMILES IDX 30 98 33 99 31 100 32 101
REMARK H PARENT 90 25 60 36 13 78 18 84 22 91
REMARK Flexibility Score: inf
ROOT
ATOM      1  C   UNL A   1      33.938  30.142  26.941  1.00  0.00     0.202 C 
ENDROOT
BRANCH   1   2
ATOM      2  O   UNL A   1      34.344  31.449  27.354  1.00  0.00    -0.374 OA
BRANCH   2   3
ATOM      3  C   UNL A   1      34.957  31.590  28.633  1.00  0.00     0.202 C 
BRANCH   3   4
ATOM      4  C   UNL A   1      35.643  30.335  29.159  1.00  0.00     0.261 C 
BRANCH   4   5
ATOM      5  O   UNL A   1      36.192  30.594  30.457  1.00  0.00    -0.460 OA
BRANCH   5   6
ATOM      6  C   UNL A   1      37.354  31.228  30.736  1.00  0.00     0.338 C 
ATOM      7  O   UNL A   1      37.322  32.232  31.445  1.00  0.00    -0.246 OA
BRANCH   6   8
ATOM      8  C   UNL A   1      38.682  30.757  30.245  1.00  0.00     0.060 A 
ATOM      9  C   UNL A   1      39.769  30.439  31.060  1.00  0.00     0.016 A 
ATOM     10  C   UNL A   1      38.800  30.522  28.869  1.00  0.00     0.016 A 
ATOM     11  C   UNL A   1      40.938  29.917  30.554  1.00  0.00     0.010 A 
ATOM     12  C   UNL A   1      39.976  29.987  28.340  1.00  0.00     0.010 A 
ATOM     13  C   UNL A   1      41.042  29.686  29.194  1.00  0.00    -0.014 A 
BRANCH  13  14
ATOM     14  C   UNL A   1      42.362  29.277  28.712  1.00  0.00     0.031 A 
ATOM     15  C   UNL A   1      42.511  27.870  28.238  1.00  0.00     0.074 A 
ATOM     16  C   UNL A   1      43.311  30.212  28.536  1.00  0.00     0.049 A 
ATOM     17  N   UNL A   1      43.575  27.260  27.804  1.00  0.00    -0.248 NA
ATOM     18  C   UNL A   1      41.289  27.043  28.235  1.00  0.00     0.031 C 
ATOM     19  C   UNL A   1      43.146  31.646  28.805  1.00  0.00     0.029 A 
ATOM     20  N   UNL A   1      44.583  30.108  28.053  1.00  0.00    -0.354 N 
ATOM     21  C   UNL A   1      43.164  25.965  27.520  1.00  0.00     0.074 A 
ATOM     22  C   UNL A   1      41.756  25.875  27.823  1.00  0.00     0.031 C 
ATOM     23  C   UNL A   1      44.277  32.287  28.470  1.00  0.00     0.029 A 
ATOM     24  C   UNL A   1      45.263  31.302  28.047  1.00  0.00     0.049 A 
ATOM     25  H   UNL A   1      44.975  29.262  27.741  1.00  0.00     0.167 HD
ATOM     26  C   UNL A   1      43.921  24.944  27.061  1.00  0.00     0.031 A 
ATOM     27  C   UNL A   1      46.557  31.547  27.773  1.00  0.00     0.031 A 
ATOM     28  C   UNL A   1      45.323  25.088  26.794  1.00  0.00     0.049 A 
ATOM     29  C   UNL A   1      47.409  30.366  27.394  1.00  0.00     0.074 A 
ATOM     30  C   UNL A   1      46.233  24.127  26.401  1.00  0.00     0.029 A 
ATOM     31  N   UNL A   1      46.018  26.289  26.895  1.00  0.00    -0.354 N 
ATOM     32  N   UNL A   1      47.046  29.114  27.217  1.00  0.00    -0.248 NA
ATOM     33  C   UNL A   1      48.838  30.618  27.190  1.00  0.00     0.031 C 
ATOM     34  C   UNL A   1      47.491  24.736  26.329  1.00  0.00     0.029 A 
ATOM     35  C   UNL A   1      47.352  26.091  26.599  1.00  0.00     0.049 A 
ATOM     36  H   UNL A   1      45.616  27.153  27.142  1.00  0.00     0.167 HD
ATOM     37  C   UNL A   1      48.199  28.431  26.859  1.00  0.00     0.074 A 
ATOM     38  C   UNL A   1      49.266  29.416  26.827  1.00  0.00     0.031 C 
ATOM     39  C   UNL A   1      48.370  27.114  26.580  1.00  0.00     0.031 A 
BRANCH  26  40
ATOM     40  C   UNL A   1      43.259  23.599  26.946  1.00  0.00    -0.014 A 
ATOM     41  C   UNL A   1      43.077  22.761  28.061  1.00  0.00     0.010 A 
ATOM     42  C   UNL A   1      42.852  23.148  25.678  1.00  0.00     0.010 A 
ATOM     43  C   UNL A   1      42.539  21.480  27.902  1.00  0.00     0.020 A 
ATOM     44  C   UNL A   1      42.286  21.880  25.518  1.00  0.00     0.020 A 
ATOM     45  C   UNL A   1      42.150  21.047  26.630  1.00  0.00     0.054 A 
BRANCH  45  46
ATOM     46  S   UNL A   1      41.446  19.386  26.452  1.00  0.00     0.124 S 
ATOM     47  O   UNL A   1      42.474  18.704  25.670  1.00  0.00    -0.237 OA
ATOM     48  O   UNL A   1      41.316  18.945  27.839  1.00  0.00    -0.237 OA
ATOM     49  O   UNL A   1      40.183  19.616  25.754  1.00  0.00    -0.744 OA
ENDBRANCH  45  46
ENDBRANCH  26  40
BRANCH  27  50
ATOM     50  C   UNL A   1      47.119  32.917  27.928  1.00  0.00    -0.014 A 
ATOM     51  C   UNL A   1      47.331  33.748  26.816  1.00  0.00     0.010 A 
ATOM     52  C   UNL A   1      47.445  33.405  29.210  1.00  0.00     0.010 A 
ATOM     53  C   UNL A   1      47.876  35.028  26.979  1.00  0.00     0.020 A 
ATOM     54  C   UNL A   1      47.957  34.693  29.382  1.00  0.00     0.020 A 
ATOM     55  C   UNL A   1      48.184  35.492  28.262  1.00  0.00     0.054 A 
BRANCH  55  56
ATOM     56  S   UNL A   1      48.864  37.165  28.451  1.00  0.00     0.124 S 
ATOM     57  O   UNL A   1      50.132  37.059  27.736  1.00  0.00    -0.237 OA
ATOM     58  O   UNL A   1      47.843  37.992  27.813  1.00  0.00    -0.237 OA
ATOM     59  O   UNL A   1      48.975  37.329  29.898  1.00  0.00    -0.744 OA
ENDBRANCH  55  56
ENDBRANCH  27  50
BRANCH  39  60
ATOM     60  C   UNL A   1      49.750  26.683  26.172  1.00  0.00    -0.014 A 
ATOM     61  C   UNL A   1      50.219  26.879  24.863  1.00  0.00     0.010 A 
ATOM     62  C   UNL A   1      50.610  26.143  27.145  1.00  0.00     0.010 A 
ATOM     63  C   UNL A   1      51.524  26.514  24.526  1.00  0.00     0.020 A 
ATOM     64  C   UNL A   1      51.924  25.813  26.821  1.00  0.00     0.020 A 
ATOM     65  C   UNL A   1      52.368  25.988  25.510  1.00  0.00     0.054 A 
BRANCH  65  66
ATOM     66  S   UNL A   1      54.075  25.582  25.061  1.00  0.00     0.124 S 
ATOM     67  O   UNL A   1      54.198  26.201  23.745  1.00  0.00    -0.237 OA
ATOM     68  O   UNL A   1      54.845  26.213  26.130  1.00  0.00    -0.237 OA
ATOM     69  O   UNL A   1      54.096  24.120  25.067  1.00  0.00    -0.744 OA
ENDBRANCH  65  66
ENDBRANCH  39  60
ENDBRANCH  13  14
ENDBRANCH   6   8
ENDBRANCH   5   6
ENDBRANCH   4   5
ENDBRANCH   3   4
ENDBRANCH   2   3
ENDBRANCH   1   2
BRANCH   1  70
ATOM     70  C   UNL A   1      32.414  30.142  26.798  1.00  0.00     0.261 C 
BRANCH  70  71
ATOM     71  O   UNL A   1      32.112  29.968  25.409  1.00  0.00    -0.459 OA
BRANCH  71  72
ATOM     72  C   UNL A   1      31.377  28.866  25.105  1.00  0.00     0.356 C 
ATOM     73  O   UNL A   1      31.374  27.804  25.720  1.00  0.00    -0.244 OA
BRANCH  72  74
ATOM     74  C   UNL A   1      30.491  29.193  24.024  1.00  0.00     0.152 A 
ATOM     75  N   UNL A   1      30.323  30.465  23.557  1.00  0.00    -0.271 N 
ATOM     76  C   UNL A   1      29.624  28.408  23.276  1.00  0.00     0.059 A 
ATOM     77  N   UNL A   1      29.598  30.529  22.426  1.00  0.00    -0.183 NA
ATOM     78  H   UNL A   1      30.699  31.258  24.003  1.00  0.00     0.190 HD
ATOM     79  C   UNL A   1      29.150  29.282  22.273  1.00  0.00     0.145 A 
BRANCH  76  80
ATOM     80  C   UNL A   1      29.219  26.993  23.541  1.00  0.00     0.303 C 
BRANCH  80  81
ATOM     81  N   UNL A   1      30.396  26.106  23.648  1.00  0.00    -0.331 N 
ATOM     82  C   UNL A   1      30.104  24.845  24.344  1.00  0.00     0.268 C 
ATOM     83  C   UNL A   1      31.025  25.871  22.346  1.00  0.00     0.268 C 
ATOM     84  H   UNL A   1      31.070  26.603  24.229  1.00  0.00     0.348 HD
ATOM     85  C   UNL A   1      31.306  23.948  24.522  1.00  0.00     0.126 C 
ATOM     86  C   UNL A   1      32.303  25.047  22.499  1.00  0.00     0.126 C 
ATOM     87  C   UNL A   1      31.993  23.702  23.172  1.00  0.00     0.195 C 
BRANCH  87  88
ATOM     88  N   UNL A   1      33.184  22.823  23.245  1.00  0.00    -0.331 N 
ATOM     89  C   UNL A   1      34.415  23.547  23.594  1.00  0.00     0.262 C 
ATOM     90  C   UNL A   1      32.929  21.738  24.212  1.00  0.00     0.275 C 
ATOM     91  H   UNL A   1      33.337  22.436  22.314  1.00  0.00     0.348 HD
ATOM     92  C   UNL A   1      35.619  22.608  23.655  1.00  0.00     0.062 C 
ATOM     93  C   UNL A   1      34.097  20.752  24.313  1.00  0.00     0.134 C 
ATOM     94  C   UNL A   1      35.386  21.482  24.662  1.00  0.00     0.025 C 
BRANCH  93  95
ATOM     95  C   UNL A   1      33.690  19.712  25.345  1.00  0.00     0.231 C 
ATOM     96  O   UNL A   1      33.161  20.024  26.412  1.00  0.00    -0.274 OA
ATOM     97  N   UNL A   1      33.791  18.401  24.957  1.00  0.00    -0.342 N 
ATOM     98  C   UNL A   1      34.772  17.798  24.084  1.00  0.00     0.119 C 
ATOM     99  C   UNL A   1      32.808  17.436  25.405  1.00  0.00     0.119 C 
ATOM    100  C   UNL A   1      34.011  16.646  23.459  1.00  0.00     0.023 C 
ATOM    101  C   UNL A   1      33.081  16.183  24.580  1.00  0.00     0.023 C 
ENDBRANCH  93  95
ENDBRANCH  87  88
ENDBRANCH  80  81
ENDBRANCH  76  80
ENDBRANCH  72  74
ENDBRANCH  71  72
ENDBRANCH  70  71
ENDBRANCH   1  70
TORSDOF 21
ENDMDL
MODEL 3
REMARK VINA RESULT:     -10.6      3.274      9.180
REMARK SMILES O=C(OCCOCCOC(=O)c1[nH]ncc1C[NH+]1CCC([N@H+]2CCC[C@@H](C(=O)N3CCCC3)C2)CC1)c1ccc(-c2c3nc(c(-c4ccc(S(=O)(=O)[O-])cc4)c4ccc([nH]4)c(-c4ccc(S(=O)(=O)[O-])cc4)c4nc(c(-c5ccc(S(=O)(=O)[O-])cc5)c5ccc2[nH]5)C=C4)C=C3)cc1
REMARK SMILES IDX 7 1 6 2 5 3 4 4 3 5 2 6 1 7 37 8 38 9 96 10 39 11 95 12
REMARK SMILES IDX 40 13 41 14 42 15 89 16 43 17 94 18 88 19 90 20 44 21 93 22
REMARK SMILES IDX 87 23 86 24 45 26 75 27 56 28 74 29 57 30 60 31 73 32 91 33
REMARK SMILES IDX 58 34 59 35 72 37 92 38 61 39 46 40 47 41 55 42 48 43 54 44
REMARK SMILES IDX 49 45 50 46 51 47 52 48 53 49 76 50 77 51 85 52 78 53 84 54
REMARK SMILES IDX 79 55 80 56 81 57 82 58 83 59 62 60 63 61 71 62 64 63 70 64
REMARK SMILES IDX 65 65 66 66 67 67 68 68 69 69 8 70 9 71 10 72 11 73 12 74
REMARK SMILES IDX 13 75 16 76 14 77 15 79 17 80 18 81 19 82 36 83 20 85 35 86
REMARK SMILES IDX 21 87 22 88 23 89 34 90 24 92 26 93 25 94 27 95 28 96 29 97
REMARK SMILES IDX 30 98 33 99 31 100 32 101
REMARK H PARENT 90 25 60 36 13 78 18 84 22 91
REMARK Flexibility Score: inf
ROOT
ATOM      1  C   UNL A   1      32.084  27.135  26.399  1.00  0.00     0.202 C 
ENDROOT
BRANCH   1   2
ATOM      2  O   UNL A   1      31.481  28.430  26.365  1.00  0.00    -0.374 OA
BRANCH   2   3
ATOM      3  C   UNL A   1      32.290  29.538  25.978  1.00  0.00     0.202 C 
BRANCH   3   4
ATOM      4  C   UNL A   1      33.779  29.377  26.261  1.00  0.00     0.261 C 
BRANCH   4   5
ATOM      5  O   UNL A   1      34.051  29.725  27.624  1.00  0.00    -0.460 OA
BRANCH   5   6
ATOM      6  C   UNL A   1      34.825  30.744  28.064  1.00  0.00     0.338 C 
ATOM      7  O   UNL A   1      34.386  31.890  27.996  1.00  0.00    -0.246 OA
BRANCH   6   8
ATOM      8  C   UNL A   1      36.182  30.545  28.652  1.00  0.00     0.060 A 
ATOM      9  C   UNL A   1      36.604  29.394  29.320  1.00  0.00     0.016 A 
ATOM     10  C   UNL A   1      37.125  31.555  28.422  1.00  0.00     0.016 A 
ATOM     11  C   UNL A   1      37.899  29.232  29.756  1.00  0.00     0.010 A 
ATOM     12  C   UNL A   1      38.444  31.404  28.852  1.00  0.00     0.010 A 
ATOM     13  C   UNL A   1      38.823  30.235  29.519  1.00  0.00    -0.014 A 
BRANCH  13  14
ATOM     14  C   UNL A   1      40.133  30.059  30.145  1.00  0.00     0.031 A 
ATOM     15  C   UNL A   1      40.349  30.705  31.473  1.00  0.00     0.074 A 
ATOM     16  C   UNL A   1      41.002  29.185  29.608  1.00  0.00     0.049 A 
ATOM     17  N   UNL A   1      41.422  30.730  32.208  1.00  0.00    -0.248 NA
ATOM     18  C   UNL A   1      39.191  31.404  32.062  1.00  0.00     0.031 C 
ATOM     19  C   UNL A   1      40.755  28.377  28.407  1.00  0.00     0.029 A 
ATOM     20  N   UNL A   1      42.243  28.797  30.021  1.00  0.00    -0.354 N 
ATOM     21  C   UNL A   1      41.085  31.483  33.324  1.00  0.00     0.074 A 
ATOM     22  C   UNL A   1      39.709  31.894  33.176  1.00  0.00     0.031 C 
ATOM     23  C   UNL A   1      41.814  27.582  28.189  1.00  0.00     0.029 A 
ATOM     24  C   UNL A   1      42.837  27.885  29.182  1.00  0.00     0.049 A 
ATOM     25  H   UNL A   1      42.673  29.138  30.838  1.00  0.00     0.167 HD
ATOM     26  C   UNL A   1      41.879  31.810  34.367  1.00  0.00     0.031 A 
ATOM     27  C   UNL A   1      44.090  27.397  29.200  1.00  0.00     0.031 A 
ATOM     28  C   UNL A   1      43.248  31.386  34.451  1.00  0.00     0.049 A 
ATOM     29  C   UNL A   1      44.996  27.883  30.298  1.00  0.00     0.074 A 
ATOM     30  C   UNL A   1      44.195  31.702  35.405  1.00  0.00     0.029 A 
ATOM     31  N   UNL A   1      43.862  30.543  33.531  1.00  0.00    -0.354 N 
ATOM     32  N   UNL A   1      44.710  28.677  31.308  1.00  0.00    -0.248 NA
ATOM     33  C   UNL A   1      46.387  27.426  30.262  1.00  0.00     0.031 C 
ATOM     34  C   UNL A   1      45.400  31.101  35.022  1.00  0.00     0.029 A 
ATOM     35  C   UNL A   1      45.185  30.347  33.876  1.00  0.00     0.049 A 
ATOM     36  H   UNL A   1      43.419  30.145  32.747  1.00  0.00     0.167 HD
ATOM     37  C   UNL A   1      45.882  28.797  32.040  1.00  0.00     0.074 A 
ATOM     38  C   UNL A   1      46.873  27.978  31.365  1.00  0.00     0.031 C 
ATOM     39  C   UNL A   1      46.126  29.515  33.166  1.00  0.00     0.031 A 
BRANCH  26  40
ATOM     40  C   UNL A   1      41.308  32.741  35.398  1.00  0.00    -0.014 A 
ATOM     41  C   UNL A   1      41.110  34.109  35.138  1.00  0.00     0.010 A 
ATOM     42  C   UNL A   1      41.004  32.238  36.676  1.00  0.00     0.010 A 
ATOM     43  C   UNL A   1      40.659  34.964  36.150  1.00  0.00     0.020 A 
ATOM     44  C   UNL A   1      40.525  33.081  37.682  1.00  0.00     0.020 A 
ATOM     45  C   UNL A   1      40.372  34.443  37.416  1.00  0.00     0.054 A 
BRANCH  45  46
ATOM     46  S   UNL A   1      39.780  35.570  38.708  1.00  0.00     0.124 S 
ATOM     47  O   UNL A   1      40.860  35.500  39.689  1.00  0.00    -0.237 OA
ATOM     48  O   UNL A   1      39.662  36.838  37.994  1.00  0.00    -0.237 OA
ATOM     49  O   UNL A   1      38.514  34.977  39.133  1.00  0.00    -0.744 OA
ENDBRANCH  45  46
ENDBRANCH  26  40
BRANCH  27  50
ATOM     50  C   UNL A   1      44.564  26.485  28.122  1.00  0.00    -0.014 A 
ATOM     51  C   UNL A   1      44.618  25.095  28.315  1.00  0.00     0.010 A 
ATOM     52  C   UNL A   1      44.965  27.012  26.877  1.00  0.00     0.010 A 
ATOM     53  C   UNL A   1      45.082  24.254  27.296  1.00  0.00     0.020 A 
ATOM     54  C   UNL A   1      45.397  26.175  25.846  1.00  0.00     0.020 A 
ATOM     55  C   UNL A   1      45.467  24.800  26.067  1.00  0.00     0.054 A 
BRANCH  55  56
ATOM     56  S   UNL A   1      46.039  23.687  24.752  1.00  0.00     0.124 S 
ATOM     57  O   UNL A   1      47.103  24.472  24.133  1.00  0.00    -0.237 OA
ATOM     58  O   UNL A   1      46.473  22.511  25.502  1.00  0.00    -0.237 OA
ATOM     59  O   UNL A   1      44.849  23.488  23.929  1.00  0.00    -0.744 OA
ENDBRANCH  55  56
ENDBRANCH  27  50
BRANCH  39  60
ATOM     60  C   UNL A   1      47.503  29.401  33.756  1.00  0.00    -0.014 A 
ATOM     61  C   UNL A   1      48.508  30.333  33.450  1.00  0.00     0.010 A 
ATOM     62  C   UNL A   1      47.760  28.383  34.691  1.00  0.00     0.010 A 
ATOM     63  C   UNL A   1      49.763  30.230  34.052  1.00  0.00     0.020 A 
ATOM     64  C   UNL A   1      49.000  28.300  35.321  1.00  0.00     0.020 A 
ATOM     65  C   UNL A   1      49.997  29.217  34.988  1.00  0.00     0.054 A 
BRANCH  65  66
ATOM     66  S   UNL A   1      51.615  29.144  35.800  1.00  0.00     0.124 S 
ATOM     67  O   UNL A   1      51.757  30.503  36.314  1.00  0.00    -0.237 OA
ATOM     68  O   UNL A   1      51.418  28.105  36.809  1.00  0.00    -0.237 OA
ATOM     69  O   UNL A   1      52.530  28.787  34.718  1.00  0.00    -0.744 OA
ENDBRANCH  65  66
ENDBRANCH  39  60
ENDBRANCH  13  14
ENDBRANCH   6   8
ENDBRANCH   5   6
ENDBRANCH   4   5
ENDBRANCH   3   4
ENDBRANCH   2   3
ENDBRANCH   1   2
BRANCH   1  70
ATOM     70  C   UNL A   1      30.965  26.091  26.442  1.00  0.00     0.261 C 
BRANCH  70  71
ATOM     71  O   UNL A   1      31.544  24.855  26.876  1.00  0.00    -0.459 OA
BRANCH  71  72
ATOM     72  C   UNL A   1      30.830  23.739  26.575  1.00  0.00     0.356 C 
ATOM     73  O   UNL A   1      29.894  23.280  27.222  1.00  0.00    -0.244 OA
BRANCH  72  74
ATOM     74  C   UNL A   1      31.258  23.257  25.292  1.00  0.00     0.152 A 
ATOM     75  N   UNL A   1      30.742  23.714  24.114  1.00  0.00    -0.271 N 
ATOM     76  C   UNL A   1      32.171  22.272  24.938  1.00  0.00     0.059 A 
ATOM     77  N   UNL A   1      31.406  23.273  23.031  1.00  0.00    -0.183 NA
ATOM     78  H   UNL A   1      29.960  24.311  24.063  1.00  0.00     0.190 HD
ATOM     79  C   UNL A   1      32.256  22.375  23.532  1.00  0.00     0.145 A 
BRANCH  76  80
ATOM     80  C   UNL A   1      32.829  21.275  25.837  1.00  0.00     0.303 C 
BRANCH  80  81
ATOM     81  N   UNL A   1      34.259  21.590  26.036  1.00  0.00    -0.331 N 
ATOM     82  C   UNL A   1      35.143  20.847  25.127  1.00  0.00     0.268 C 
ATOM     83  C   UNL A   1      34.516  23.031  25.980  1.00  0.00     0.268 C 
ATOM     84  H   UNL A   1      34.488  21.274  26.978  1.00  0.00     0.348 HD
ATOM     85  C   UNL A   1      36.614  21.104  25.353  1.00  0.00     0.126 C 
ATOM     86  C   UNL A   1      35.978  23.338  26.302  1.00  0.00     0.126 C 
ATOM     87  C   UNL A   1      36.905  22.610  25.317  1.00  0.00     0.195 C 
BRANCH  87  88
ATOM     88  N   UNL A   1      38.329  22.962  25.523  1.00  0.00    -0.331 N 
ATOM     89  C   UNL A   1      38.513  24.174  26.336  1.00  0.00     0.262 C 
ATOM     90  C   UNL A   1      39.029  21.817  26.134  1.00  0.00     0.275 C 
ATOM     91  H   UNL A   1      38.729  23.172  24.608  1.00  0.00     0.348 HD
ATOM     92  C   UNL A   1      39.993  24.505  26.521  1.00  0.00     0.062 C 
ATOM     93  C   UNL A   1      40.524  22.080  26.337  1.00  0.00     0.134 C 
ATOM     94  C   UNL A   1      40.739  23.339  27.167  1.00  0.00     0.025 C 
BRANCH  93  95
ATOM     95  C   UNL A   1      41.097  20.826  26.978  1.00  0.00     0.231 C 
ATOM     96  O   UNL A   1      40.474  20.183  27.824  1.00  0.00    -0.274 OA
ATOM     97  N   UNL A   1      42.269  20.354  26.449  1.00  0.00    -0.342 N 
ATOM     98  C   UNL A   1      43.371  21.111  25.895  1.00  0.00     0.119 C 
ATOM     99  C   UNL A   1      42.503  18.928  26.359  1.00  0.00     0.119 C 
ATOM    100  C   UNL A   1      43.954  20.163  24.867  1.00  0.00     0.023 C 
ATOM    101  C   UNL A   1      43.751  18.784  25.496  1.00  0.00     0.023 C 
ENDBRANCH  93  95
ENDBRANCH  87  88
ENDBRANCH  80  81
ENDBRANCH  76  80
ENDBRANCH  72  74
ENDBRANCH  71  72
ENDBRANCH  70  71
ENDBRANCH   1  70
TORSDOF 21
ENDMDL
