MODEL 1
REMARK VINA RESULT:     -11.2      0.000      0.000
REMARK SMILES COc1cc(CC(=O)N[C@@H](CC(=O)OCCOCCOC(=O)c2ccc(-c3c4nc(c(-c5ccc(S(=O)(=O)[O-])cc5)c5ccc([nH]5)c(-c5ccc(S(=O)(=O)[O-])cc5)c5nc(c(-c6ccc(S(=O)(=O)[O-])cc6)c6ccc3[nH]6)C=C5)C=C4)cc2)c2cccs2)ccc1C
REMARK SMILES IDX 16 1 15 2 14 3 12 4 13 5 11 6 10 7 9 8 7 9 8 10 6 12 5 13
REMARK SMILES IDX 3 14 4 15 90 16 89 17 91 18 88 19 2 20 1 21 83 22 84 23
REMARK SMILES IDX 87 24 85 25 86 26 17 27 18 28 19 29 20 30 21 31 22 32 23 33
REMARK SMILES IDX 24 34 82 35 25 36 81 37 26 38 27 39 28 40 75 41 29 42 80 43
REMARK SMILES IDX 74 44 76 45 30 46 79 47 73 48 72 49 31 51 61 52 42 53 60 54
REMARK SMILES IDX 43 55 46 56 59 57 77 58 44 59 45 60 58 62 78 63 47 64 32 65
REMARK SMILES IDX 33 66 41 67 34 68 40 69 35 70 36 71 37 72 38 73 39 74 62 75
REMARK SMILES IDX 63 76 71 77 64 78 70 79 65 80 66 81 67 82 68 83 69 84 48 85
REMARK SMILES IDX 49 86 57 87 50 88 56 89 51 90 52 91 53 92 54 93 55 94
REMARK H PARENT 9 11 76 50 46 61
REMARK Flexibility Score: inf
ROOT
ATOM      1  C   UNL A   1      37.908  20.792  24.876  1.00  0.00     0.202 C 
ENDROOT
BRANCH   1   2
ATOM      2  C   UNL A   1      36.493  21.298  24.787  1.00  0.00     0.261 C 
BRANCH   2   3
ATOM      3  O   UNL A   1      35.765  21.170  26.018  1.00  0.00    -0.463 OA
BRANCH   3   4
ATOM      4  C   UNL A   1      34.996  22.207  26.423  1.00  0.00     0.308 C 
ATOM      5  O   UNL A   1      35.359  23.369  26.543  1.00  0.00    -0.252 OA
BRANCH   4   6
ATOM      6  C   UNL A   1      33.632  21.725  26.832  1.00  0.00     0.153 C 
BRANCH   6   7
ATOM      7  C   UNL A   1      32.527  21.724  25.746  1.00  0.00     0.133 C 
BRANCH   7   8
ATOM      8  N   UNL A   1      31.184  22.005  26.253  1.00  0.00    -0.348 N 
ATOM      9  C   UNL A   1      30.685  23.103  26.882  1.00  0.00     0.224 C 
ATOM     10  O   UNL A   1      29.601  23.037  27.462  1.00  0.00    -0.275 OA
ATOM     11  H   UNL A   1      30.533  21.279  26.114  1.00  0.00     0.164 HD
BRANCH   9  12
ATOM     12  C   UNL A   1      31.445  24.407  26.813  1.00  0.00     0.135 C 
BRANCH  12  13
ATOM     13  C   UNL A   1      31.096  25.233  25.601  1.00  0.00    -0.035 A 
ATOM     14  C   UNL A   1      31.845  26.425  23.611  1.00  0.00     0.122 A 
ATOM     15  C   UNL A   1      32.081  25.507  24.637  1.00  0.00     0.051 A 
ATOM     16  C   UNL A   1      30.580  27.024  23.501  1.00  0.00    -0.009 A 
ATOM     17  C   UNL A   1      29.573  26.692  24.425  1.00  0.00     0.007 A 
ATOM     18  C   UNL A   1      30.248  28.009  22.415  1.00  0.00     0.048 C 
ATOM     19  C   UNL A   1      29.831  25.812  25.474  1.00  0.00     0.005 A 
BRANCH  14  20
ATOM     20  O   UNL A   1      32.802  26.851  22.727  1.00  0.00    -0.496 OA
ATOM     21  C   UNL A   1      32.995  26.086  21.548  1.00  0.00     0.278 C 
ENDBRANCH  14  20
ENDBRANCH  12  13
ENDBRANCH   9  12
ENDBRANCH   7   8
BRANCH   7  22
ATOM     22  C   UNL A   1      32.538  20.504  24.832  1.00  0.00     0.027 A 
ATOM     23  C   UNL A   1      32.177  20.447  23.491  1.00  0.00     0.017 A 
ATOM     24  S   UNL A   1      32.842  18.911  25.423  1.00  0.00    -0.147 S 
ATOM     25  C   UNL A   1      32.292  19.137  22.934  1.00  0.00     0.012 A 
ATOM     26  C   UNL A   1      32.713  18.220  23.868  1.00  0.00     0.065 A 
ENDBRANCH   7  22
ENDBRANCH   6   7
ENDBRANCH   4   6
ENDBRANCH   3   4
ENDBRANCH   2   3
ENDBRANCH   1   2
BRANCH   1  27
ATOM     27  O   UNL A   1      38.576  21.658  25.786  1.00  0.00    -0.374 OA
BRANCH  27  28
ATOM     28  C   UNL A   1      39.857  21.299  26.246  1.00  0.00     0.202 C 
BRANCH  28  29
ATOM     29  C   UNL A   1      40.438  22.157  27.369  1.00  0.00     0.261 C 
BRANCH  29  30
ATOM     30  O   UNL A   1      39.748  23.419  27.514  1.00  0.00    -0.460 OA
BRANCH  30  31
ATOM     31  C   UNL A   1      40.430  24.544  27.142  1.00  0.00     0.338 C 
ATOM     32  O   UNL A   1      40.998  24.655  26.066  1.00  0.00    -0.246 OA
BRANCH  31  33
ATOM     33  C   UNL A   1      40.317  25.607  28.182  1.00  0.00     0.060 A 
ATOM     34  C   UNL A   1      39.093  26.209  28.521  1.00  0.00     0.016 A 
ATOM     35  C   UNL A   1      41.498  26.164  28.642  1.00  0.00     0.016 A 
ATOM     36  C   UNL A   1      39.076  27.451  29.192  1.00  0.00     0.010 A 
ATOM     37  C   UNL A   1      41.473  27.465  29.077  1.00  0.00     0.010 A 
ATOM     38  C   UNL A   1      40.278  28.118  29.405  1.00  0.00    -0.014 A 
BRANCH  38  39
ATOM     39  C   UNL A   1      40.499  29.473  29.927  1.00  0.00     0.031 A 
ATOM     40  C   UNL A   1      39.364  30.434  29.779  1.00  0.00     0.074 A 
ATOM     41  C   UNL A   1      41.547  29.808  30.727  1.00  0.00     0.049 A 
ATOM     42  N   UNL A   1      39.496  31.712  29.854  1.00  0.00    -0.248 NA
ATOM     43  C   UNL A   1      37.978  30.051  29.474  1.00  0.00     0.031 C 
ATOM     44  C   UNL A   1      41.608  30.911  31.688  1.00  0.00     0.029 A 
ATOM     45  N   UNL A   1      42.821  29.236  30.846  1.00  0.00    -0.354 N 
ATOM     46  C   UNL A   1      38.234  32.246  29.996  1.00  0.00     0.074 A 
ATOM     47  C   UNL A   1      37.327  31.206  29.606  1.00  0.00     0.031 C 
ATOM     48  C   UNL A   1      42.881  31.106  32.076  1.00  0.00     0.029 A 
ATOM     49  C   UNL A   1      43.718  30.216  31.292  1.00  0.00     0.049 A 
ATOM     50  H   UNL A   1      43.047  28.298  30.648  1.00  0.00     0.167 HD
ATOM     51  C   UNL A   1      38.098  33.457  30.600  1.00  0.00     0.031 A 
ATOM     52  C   UNL A   1      44.842  30.522  30.586  1.00  0.00     0.031 A 
ATOM     53  C   UNL A   1      39.408  34.000  30.962  1.00  0.00     0.049 A 
ATOM     54  C   UNL A   1      44.739  31.943  30.110  1.00  0.00     0.074 A 
ATOM     55  C   UNL A   1      40.070  34.117  32.171  1.00  0.00     0.029 A 
ATOM     56  N   UNL A   1      40.359  34.202  29.968  1.00  0.00    -0.354 N 
ATOM     57  N   UNL A   1      43.597  32.571  30.066  1.00  0.00    -0.248 NA
ATOM     58  C   UNL A   1      45.853  32.796  29.716  1.00  0.00     0.031 C 
ATOM     59  C   UNL A   1      41.442  34.365  31.891  1.00  0.00     0.029 A 
ATOM     60  C   UNL A   1      41.604  34.426  30.515  1.00  0.00     0.049 A 
ATOM     61  H   UNL A   1      40.167  34.186  29.001  1.00  0.00     0.167 HD
ATOM     62  C   UNL A   1      43.789  33.867  29.710  1.00  0.00     0.074 A 
ATOM     63  C   UNL A   1      45.217  33.958  29.466  1.00  0.00     0.031 C 
ATOM     64  C   UNL A   1      42.744  34.740  29.659  1.00  0.00     0.031 A 
BRANCH  51  65
ATOM     65  C   UNL A   1      36.799  34.053  31.096  1.00  0.00    -0.014 A 
ATOM     66  C   UNL A   1      35.707  34.118  30.206  1.00  0.00     0.010 A 
ATOM     67  C   UNL A   1      36.574  34.583  32.382  1.00  0.00     0.010 A 
ATOM     68  C   UNL A   1      34.483  34.700  30.562  1.00  0.00     0.020 A 
ATOM     69  C   UNL A   1      35.358  35.178  32.752  1.00  0.00     0.020 A 
ATOM     70  C   UNL A   1      34.315  35.230  31.837  1.00  0.00     0.054 A 
BRANCH  70  71
ATOM     71  S   UNL A   1      32.719  35.953  32.285  1.00  0.00     0.124 S 
ATOM     72  O   UNL A   1      31.967  34.790  32.750  1.00  0.00    -0.237 OA
ATOM     73  O   UNL A   1      33.092  36.918  33.316  1.00  0.00    -0.237 OA
ATOM     74  O   UNL A   1      32.238  36.538  31.035  1.00  0.00    -0.744 OA
ENDBRANCH  70  71
ENDBRANCH  51  65
BRANCH  52  75
ATOM     75  C   UNL A   1      45.420  29.328  29.882  1.00  0.00    -0.014 A 
ATOM     76  C   UNL A   1      44.885  29.028  28.604  1.00  0.00     0.010 A 
ATOM     77  C   UNL A   1      46.735  28.913  30.163  1.00  0.00     0.010 A 
ATOM     78  C   UNL A   1      45.701  28.525  27.578  1.00  0.00     0.020 A 
ATOM     79  C   UNL A   1      47.554  28.411  29.133  1.00  0.00     0.020 A 
ATOM     80  C   UNL A   1      47.050  28.280  27.834  1.00  0.00     0.054 A 
BRANCH  80  81
ATOM     81  S   UNL A   1      48.191  28.044  26.422  1.00  0.00     0.124 S 
ATOM     82  O   UNL A   1      48.876  29.329  26.351  1.00  0.00    -0.237 OA
ATOM     83  O   UNL A   1      49.018  26.912  26.840  1.00  0.00    -0.237 OA
ATOM     84  O   UNL A   1      47.291  27.745  25.312  1.00  0.00    -0.744 OA
ENDBRANCH  80  81
ENDBRANCH  52  75
BRANCH  64  85
ATOM     85  C   UNL A   1      42.719  36.012  28.860  1.00  0.00    -0.014 A 
ATOM     86  C   UNL A   1      42.056  36.144  27.633  1.00  0.00     0.010 A 
ATOM     87  C   UNL A   1      43.264  37.191  29.426  1.00  0.00     0.010 A 
ATOM     88  C   UNL A   1      42.018  37.368  26.961  1.00  0.00     0.020 A 
ATOM     89  C   UNL A   1      43.173  38.430  28.798  1.00  0.00     0.020 A 
ATOM     90  C   UNL A   1      42.584  38.500  27.545  1.00  0.00     0.054 A 
BRANCH  90  91
ATOM     91  S   UNL A   1      42.523  40.066  26.653  1.00  0.00     0.124 S 
ATOM     92  O   UNL A   1      42.609  41.032  27.746  1.00  0.00    -0.237 OA
ATOM     93  O   UNL A   1      43.700  39.990  25.790  1.00  0.00    -0.237 OA
ATOM     94  O   UNL A   1      41.242  40.021  25.954  1.00  0.00    -0.744 OA
ENDBRANCH  90  91
ENDBRANCH  64  85
ENDBRANCH  38  39
ENDBRANCH  31  33
ENDBRANCH  30  31
ENDBRANCH  29  30
ENDBRANCH  28  29
ENDBRANCH  27  28
ENDBRANCH   1  27
TORSDOF 23
ENDMDL
MODEL 2
REMARK VINA RESULT:     -10.9      4.283     10.753
REMARK SMILES COc1cc(CC(=O)N[C@@H](CC(=O)OCCOCCOC(=O)c2ccc(-c3c4nc(c(-c5ccc(S(=O)(=O)[O-])cc5)c5ccc([nH]5)c(-c5ccc(S(=O)(=O)[O-])cc5)c5nc(c(-c6ccc(S(=O)(=O)[O-])cc6)c6ccc3[nH]6)C=C5)C=C4)cc2)c2cccs2)ccc1C
REMARK SMILES IDX 16 1 15 2 14 3 12 4 13 5 11 6 10 7 9 8 7 9 8 10 6 12 5 13
REMARK SMILES IDX 3 14 4 15 90 16 89 17 91 18 88 19 2 20 1 21 83 22 84 23
REMARK SMILES IDX 87 24 85 25 86 26 17 27 18 28 19 29 20 30 21 31 22 32 23 33
REMARK SMILES IDX 24 34 82 35 25 36 81 37 26 38 27 39 28 40 75 41 29 42 80 43
REMARK SMILES IDX 74 44 76 45 30 46 79 47 73 48 72 49 31 51 61 52 42 53 60 54
REMARK SMILES IDX 43 55 46 56 59 57 77 58 44 59 45 60 58 62 78 63 47 64 32 65
REMARK SMILES IDX 33 66 41 67 34 68 40 69 35 70 36 71 37 72 38 73 39 74 62 75
REMARK SMILES IDX 63 76 71 77 64 78 70 79 65 80 66 81 67 82 68 83 69 84 48 85
REMARK SMILES IDX 49 86 57 87 50 88 56 89 51 90 52 91 53 92 54 93 55 94
REMARK H PARENT 9 11 76 50 46 61
REMARK Flexibility Score: inf
ROOT
ATOM      1  C   UNL A   1      34.014  28.558  26.927  1.00  0.00     0.202 C 
ENDROOT
BRANCH   1   2
ATOM      2  C   UNL A   1      33.996  28.938  25.471  1.00  0.00     0.261 C 
BRANCH   2   3
ATOM      3  O   UNL A   1      33.352  27.962  24.637  1.00  0.00    -0.463 OA
BRANCH   3   4
ATOM      4  C   UNL A   1      33.361  28.152  23.297  1.00  0.00     0.308 C 
ATOM      5  O   UNL A   1      34.053  28.957  22.688  1.00  0.00    -0.252 OA
BRANCH   4   6
ATOM      6  C   UNL A   1      32.303  27.313  22.638  1.00  0.00     0.153 C 
BRANCH   6   7
ATOM      7  C   UNL A   1      31.022  27.017  23.458  1.00  0.00     0.133 C 
BRANCH   7   8
ATOM      8  N   UNL A   1      30.485  25.669  23.273  1.00  0.00    -0.348 N 
ATOM      9  C   UNL A   1      30.902  24.472  23.768  1.00  0.00     0.224 C 
ATOM     10  O   UNL A   1      30.474  23.425  23.282  1.00  0.00    -0.275 OA
ATOM     11  H   UNL A   1      29.690  25.620  22.694  1.00  0.00     0.164 HD
BRANCH   9  12
ATOM     12  C   UNL A   1      31.844  24.446  24.949  1.00  0.00     0.135 C 
BRANCH  12  13
ATOM     13  C   UNL A   1      33.155  23.765  24.647  1.00  0.00    -0.035 A 
ATOM     14  C   UNL A   1      34.506  21.737  24.703  1.00  0.00     0.122 A 
ATOM     15  C   UNL A   1      33.263  22.370  24.783  1.00  0.00     0.051 A 
ATOM     16  C   UNL A   1      35.648  22.497  24.407  1.00  0.00    -0.009 A 
ATOM     17  C   UNL A   1      35.524  23.882  24.199  1.00  0.00     0.007 A 
ATOM     18  C   UNL A   1      37.015  21.882  24.290  1.00  0.00     0.048 C 
ATOM     19  C   UNL A   1      34.290  24.514  24.329  1.00  0.00     0.005 A 
BRANCH  14  20
ATOM     20  O   UNL A   1      34.708  20.408  24.970  1.00  0.00    -0.496 OA
ATOM     21  C   UNL A   1      33.605  19.529  24.810  1.00  0.00     0.278 C 
ENDBRANCH  14  20
ENDBRANCH  12  13
ENDBRANCH   9  12
ENDBRANCH   7   8
BRANCH   7  22
ATOM     22  C   UNL A   1      29.931  28.076  23.336  1.00  0.00     0.027 A 
ATOM     23  C   UNL A   1      28.573  27.874  23.126  1.00  0.00     0.017 A 
ATOM     24  S   UNL A   1      30.290  29.763  23.257  1.00  0.00    -0.147 S 
ATOM     25  C   UNL A   1      27.830  29.090  23.048  1.00  0.00     0.012 A 
ATOM     26  C   UNL A   1      28.640  30.194  23.174  1.00  0.00     0.065 A 
ENDBRANCH   7  22
ENDBRANCH   6   7
ENDBRANCH   4   6
ENDBRANCH   3   4
ENDBRANCH   2   3
ENDBRANCH   1   2
BRANCH   1  27
ATOM     27  O   UNL A   1      33.064  29.405  27.564  1.00  0.00    -0.374 OA
BRANCH  27  28
ATOM     28  C   UNL A   1      32.698  30.608  26.931  1.00  0.00     0.202 C 
BRANCH  28  29
ATOM     29  C   UNL A   1      33.225  31.894  27.565  1.00  0.00     0.261 C 
BRANCH  29  30
ATOM     30  O   UNL A   1      34.647  31.843  27.819  1.00  0.00    -0.460 OA
BRANCH  30  31
ATOM     31  C   UNL A   1      35.039  31.736  29.124  1.00  0.00     0.338 C 
ATOM     32  O   UNL A   1      34.489  32.332  30.037  1.00  0.00    -0.246 OA
BRANCH  31  33
ATOM     33  C   UNL A   1      36.153  30.756  29.270  1.00  0.00     0.060 A 
ATOM     34  C   UNL A   1      36.231  29.848  30.340  1.00  0.00     0.016 A 
ATOM     35  C   UNL A   1      37.252  30.925  28.444  1.00  0.00     0.016 A 
ATOM     36  C   UNL A   1      37.460  29.233  30.661  1.00  0.00     0.010 A 
ATOM     37  C   UNL A   1      38.477  30.511  28.902  1.00  0.00     0.010 A 
ATOM     38  C   UNL A   1      38.608  29.626  29.980  1.00  0.00    -0.014 A 
BRANCH  38  39
ATOM     39  C   UNL A   1      40.005  29.256  30.240  1.00  0.00     0.031 A 
ATOM     40  C   UNL A   1      40.468  27.961  29.655  1.00  0.00     0.074 A 
ATOM     41  C   UNL A   1      40.928  30.115  30.752  1.00  0.00     0.049 A 
ATOM     42  N   UNL A   1      41.513  27.328  30.058  1.00  0.00    -0.248 NA
ATOM     43  C   UNL A   1      39.765  27.222  28.596  1.00  0.00     0.031 C 
ATOM     44  C   UNL A   1      42.381  30.055  30.584  1.00  0.00     0.029 A 
ATOM     45  N   UNL A   1      40.766  31.244  31.566  1.00  0.00    -0.354 N 
ATOM     46  C   UNL A   1      41.810  26.378  29.105  1.00  0.00     0.074 A 
ATOM     47  C   UNL A   1      40.627  26.249  28.306  1.00  0.00     0.031 C 
ATOM     48  C   UNL A   1      42.974  30.887  31.458  1.00  0.00     0.029 A 
ATOM     49  C   UNL A   1      41.936  31.435  32.314  1.00  0.00     0.049 A 
ATOM     50  H   UNL A   1      39.961  31.810  31.606  1.00  0.00     0.167 HD
ATOM     51  C   UNL A   1      43.092  25.937  28.996  1.00  0.00     0.031 A 
ATOM     52  C   UNL A   1      41.908  31.488  33.674  1.00  0.00     0.031 A 
ATOM     53  C   UNL A   1      43.941  26.571  30.005  1.00  0.00     0.049 A 
ATOM     54  C   UNL A   1      42.682  30.319  34.216  1.00  0.00     0.074 A 
ATOM     55  C   UNL A   1      44.891  27.574  29.932  1.00  0.00     0.029 A 
ATOM     56  N   UNL A   1      43.626  26.420  31.351  1.00  0.00    -0.354 N 
ATOM     57  N   UNL A   1      42.953  29.276  33.484  1.00  0.00    -0.248 NA
ATOM     58  C   UNL A   1      43.265  30.225  35.549  1.00  0.00     0.031 C 
ATOM     59  C   UNL A   1      45.123  28.047  31.253  1.00  0.00     0.029 A 
ATOM     60  C   UNL A   1      44.337  27.311  32.126  1.00  0.00     0.049 A 
ATOM     61  H   UNL A   1      42.980  25.764  31.703  1.00  0.00     0.167 HD
ATOM     62  C   UNL A   1      43.753  28.419  34.168  1.00  0.00     0.074 A 
ATOM     63  C   UNL A   1      43.897  29.037  35.474  1.00  0.00     0.031 C 
ATOM     64  C   UNL A   1      44.223  27.282  33.581  1.00  0.00     0.031 A 
BRANCH  51  65
ATOM     65  C   UNL A   1      43.651  25.133  27.842  1.00  0.00    -0.014 A 
ATOM     66  C   UNL A   1      43.426  23.741  27.822  1.00  0.00     0.010 A 
ATOM     67  C   UNL A   1      44.412  25.647  26.773  1.00  0.00     0.010 A 
ATOM     68  C   UNL A   1      43.950  22.912  26.821  1.00  0.00     0.020 A 
ATOM     69  C   UNL A   1      44.952  24.829  25.768  1.00  0.00     0.020 A 
ATOM     70  C   UNL A   1      44.714  23.461  25.798  1.00  0.00     0.054 A 
BRANCH  70  71
ATOM     71  S   UNL A   1      45.358  22.377  24.502  1.00  0.00     0.124 S 
ATOM     72  O   UNL A   1      45.829  23.330  23.500  1.00  0.00    -0.237 OA
ATOM     73  O   UNL A   1      46.400  21.634  25.205  1.00  0.00    -0.237 OA
ATOM     74  O   UNL A   1      44.196  21.586  24.101  1.00  0.00    -0.744 OA
ENDBRANCH  70  71
ENDBRANCH  51  65
BRANCH  52  75
ATOM     75  C   UNL A   1      40.647  32.113  34.197  1.00  0.00    -0.014 A 
ATOM     76  C   UNL A   1      40.252  33.334  33.597  1.00  0.00     0.010 A 
ATOM     77  C   UNL A   1      39.650  31.307  34.777  1.00  0.00     0.010 A 
ATOM     78  C   UNL A   1      38.895  33.636  33.396  1.00  0.00     0.020 A 
ATOM     79  C   UNL A   1      38.290  31.609  34.574  1.00  0.00     0.020 A 
ATOM     80  C   UNL A   1      37.922  32.736  33.830  1.00  0.00     0.054 A 
BRANCH  80  81
ATOM     81  S   UNL A   1      36.212  32.909  33.201  1.00  0.00     0.124 S 
ATOM     82  O   UNL A   1      35.902  31.557  32.754  1.00  0.00    -0.237 OA
ATOM     83  O   UNL A   1      35.465  33.372  34.370  1.00  0.00    -0.237 OA
ATOM     84  O   UNL A   1      36.344  33.909  32.145  1.00  0.00    -0.744 OA
ENDBRANCH  80  81
ENDBRANCH  52  75
BRANCH  64  85
ATOM     85  C   UNL A   1      44.694  26.060  34.318  1.00  0.00    -0.014 A 
ATOM     86  C   UNL A   1      45.968  25.502  34.158  1.00  0.00     0.010 A 
ATOM     87  C   UNL A   1      43.876  25.515  35.339  1.00  0.00     0.010 A 
ATOM     88  C   UNL A   1      46.372  24.398  34.913  1.00  0.00     0.020 A 
ATOM     89  C   UNL A   1      44.294  24.458  36.144  1.00  0.00     0.020 A 
ATOM     90  C   UNL A   1      45.529  23.880  35.895  1.00  0.00     0.054 A 
BRANCH  90  91
ATOM     91  S   UNL A   1      46.076  22.452  36.851  1.00  0.00     0.124 S 
ATOM     92  O   UNL A   1      45.647  22.819  38.199  1.00  0.00    -0.237 OA
ATOM     93  O   UNL A   1      45.336  21.352  36.236  1.00  0.00    -0.237 OA
ATOM     94  O   UNL A   1      47.520  22.421  36.637  1.00  0.00    -0.744 OA
ENDBRANCH  90  91
ENDBRANCH  64  85
ENDBRANCH  38  39
ENDBRANCH  31  33
ENDBRANCH  30  31
ENDBRANCH  29  30
ENDBRANCH  28  29
ENDBRANCH  27  28
ENDBRANCH   1  27
TORSDOF 23
ENDMDL
MODEL 3
REMARK VINA RESULT:     -10.7      2.458      3.875
REMARK SMILES COc1cc(CC(=O)N[C@@H](CC(=O)OCCOCCOC(=O)c2ccc(-c3c4nc(c(-c5ccc(S(=O)(=O)[O-])cc5)c5ccc([nH]5)c(-c5ccc(S(=O)(=O)[O-])cc5)c5nc(c(-c6ccc(S(=O)(=O)[O-])cc6)c6ccc3[nH]6)C=C5)C=C4)cc2)c2cccs2)ccc1C
REMARK SMILES IDX 16 1 15 2 14 3 12 4 13 5 11 6 10 7 9 8 7 9 8 10 6 12 5 13
REMARK SMILES IDX 3 14 4 15 90 16 89 17 91 18 88 19 2 20 1 21 83 22 84 23
REMARK SMILES IDX 87 24 85 25 86 26 17 27 18 28 19 29 20 30 21 31 22 32 23 33
REMARK SMILES IDX 24 34 82 35 25 36 81 37 26 38 27 39 28 40 75 41 29 42 80 43
REMARK SMILES IDX 74 44 76 45 30 46 79 47 73 48 72 49 31 51 61 52 42 53 60 54
REMARK SMILES IDX 43 55 46 56 59 57 77 58 44 59 45 60 58 62 78 63 47 64 32 65
REMARK SMILES IDX 33 66 41 67 34 68 40 69 35 70 36 71 37 72 38 73 39 74 62 75
REMARK SMILES IDX 63 76 71 77 64 78 70 79 65 80 66 81 67 82 68 83 69 84 48 85
REMARK SMILES IDX 49 86 57 87 50 88 56 89 51 90 52 91 53 92 54 93 55 94
REMARK H PARENT 9 11 76 50 46 61
REMARK Flexibility Score: inf
ROOT
ATOM      1  C   UNL A   1      34.977  20.550  25.361  1.00  0.00     0.202 C 
ENDROOT
BRANCH   1   2
ATOM      2  C   UNL A   1      33.732  20.950  24.617  1.00  0.00     0.261 C 
BRANCH   2   3
ATOM      3  O   UNL A   1      33.211  22.225  25.021  1.00  0.00    -0.463 OA
BRANCH   3   4
ATOM      4  C   UNL A   1      33.261  22.557  26.333  1.00  0.00     0.308 C 
ATOM      5  O   UNL A   1      33.089  21.795  27.274  1.00  0.00    -0.252 OA
BRANCH   4   6
ATOM      6  C   UNL A   1      33.442  24.039  26.497  1.00  0.00     0.153 C 
BRANCH   6   7
ATOM      7  C   UNL A   1      32.439  24.961  25.758  1.00  0.00     0.133 C 
BRANCH   7   8
ATOM      8  N   UNL A   1      32.468  24.837  24.300  1.00  0.00    -0.348 N 
ATOM      9  C   UNL A   1      31.464  24.899  23.385  1.00  0.00     0.224 C 
ATOM     10  O   UNL A   1      31.659  24.508  22.234  1.00  0.00    -0.275 OA
ATOM     11  H   UNL A   1      33.363  24.683  23.919  1.00  0.00     0.164 HD
BRANCH   9  12
ATOM     12  C   UNL A   1      30.136  25.502  23.780  1.00  0.00     0.135 C 
BRANCH  12  13
ATOM     13  C   UNL A   1      30.006  26.953  23.394  1.00  0.00    -0.035 A 
ATOM     14  C   UNL A   1      28.560  28.864  22.945  1.00  0.00     0.122 A 
ATOM     15  C   UNL A   1      28.754  27.588  23.478  1.00  0.00     0.051 A 
ATOM     16  C   UNL A   1      29.651  29.550  22.386  1.00  0.00    -0.009 A 
ATOM     17  C   UNL A   1      30.918  28.941  22.370  1.00  0.00     0.007 A 
ATOM     18  C   UNL A   1      29.521  30.932  21.807  1.00  0.00     0.048 C 
ATOM     19  C   UNL A   1      31.093  27.648  22.859  1.00  0.00     0.005 A 
BRANCH  14  20
ATOM     20  O   UNL A   1      27.340  29.482  22.859  1.00  0.00    -0.496 OA
ATOM     21  C   UNL A   1      27.171  30.705  23.558  1.00  0.00     0.278 C 
ENDBRANCH  14  20
ENDBRANCH  12  13
ENDBRANCH   9  12
ENDBRANCH   7   8
BRANCH   7  22
ATOM     22  C   UNL A   1      32.476  26.420  26.198  1.00  0.00     0.027 A 
ATOM     23  C   UNL A   1      31.470  27.139  26.832  1.00  0.00     0.017 A 
ATOM     24  S   UNL A   1      33.774  27.477  25.778  1.00  0.00    -0.147 S 
ATOM     25  C   UNL A   1      31.829  28.496  27.093  1.00  0.00     0.012 A 
ATOM     26  C   UNL A   1      33.090  28.789  26.629  1.00  0.00     0.065 A 
ENDBRANCH   7  22
ENDBRANCH   6   7
ENDBRANCH   4   6
ENDBRANCH   3   4
ENDBRANCH   2   3
ENDBRANCH   1   2
BRANCH   1  27
ATOM     27  O   UNL A   1      35.946  21.551  25.068  1.00  0.00    -0.374 OA
BRANCH  27  28
ATOM     28  C   UNL A   1      37.183  21.158  24.524  1.00  0.00     0.202 C 
BRANCH  28  29
ATOM     29  C   UNL A   1      38.389  21.236  25.458  1.00  0.00     0.261 C 
BRANCH  29  30
ATOM     30  O   UNL A   1      38.596  22.566  25.983  1.00  0.00    -0.460 OA
BRANCH  30  31
ATOM     31  C   UNL A   1      39.837  22.849  26.482  1.00  0.00     0.338 C 
ATOM     32  O   UNL A   1      40.706  22.002  26.629  1.00  0.00    -0.246 OA
BRANCH  31  33
ATOM     33  C   UNL A   1      39.991  24.309  26.739  1.00  0.00     0.060 A 
ATOM     34  C   UNL A   1      40.832  25.131  25.970  1.00  0.00     0.016 A 
ATOM     35  C   UNL A   1      39.463  24.798  27.922  1.00  0.00     0.016 A 
ATOM     36  C   UNL A   1      41.256  26.380  26.472  1.00  0.00     0.010 A 
ATOM     37  C   UNL A   1      40.061  25.893  28.495  1.00  0.00     0.010 A 
ATOM     38  C   UNL A   1      40.925  26.729  27.777  1.00  0.00    -0.014 A 
BRANCH  38  39
ATOM     39  C   UNL A   1      41.378  27.882  28.566  1.00  0.00     0.031 A 
ATOM     40  C   UNL A   1      40.347  28.920  28.874  1.00  0.00     0.074 A 
ATOM     41  C   UNL A   1      42.573  27.928  29.212  1.00  0.00     0.049 A 
ATOM     42  N   UNL A   1      40.630  30.123  29.235  1.00  0.00    -0.248 NA
ATOM     43  C   UNL A   1      38.896  28.722  28.750  1.00  0.00     0.031 C 
ATOM     44  C   UNL A   1      42.914  28.734  30.386  1.00  0.00     0.029 A 
ATOM     45  N   UNL A   1      43.777  27.263  28.946  1.00  0.00    -0.354 N 
ATOM     46  C   UNL A   1      39.476  30.682  29.739  1.00  0.00     0.074 A 
ATOM     47  C   UNL A   1      38.408  29.841  29.281  1.00  0.00     0.031 C 
ATOM     48  C   UNL A   1      44.247  28.738  30.565  1.00  0.00     0.029 A 
ATOM     49  C   UNL A   1      44.840  28.032  29.442  1.00  0.00     0.049 A 
ATOM     50  H   UNL A   1      43.863  26.397  28.485  1.00  0.00     0.167 HD
ATOM     51  C   UNL A   1      39.576  31.698  30.636  1.00  0.00     0.031 A 
ATOM     52  C   UNL A   1      45.859  28.438  28.636  1.00  0.00     0.031 A 
ATOM     53  C   UNL A   1      40.980  32.041  30.868  1.00  0.00     0.049 A 
ATOM     54  C   UNL A   1      45.836  29.938  28.553  1.00  0.00     0.074 A 
ATOM     55  C   UNL A   1      41.841  31.794  31.923  1.00  0.00     0.029 A 
ATOM     56  N   UNL A   1      41.771  32.435  29.795  1.00  0.00    -0.354 N 
ATOM     57  N   UNL A   1      44.780  30.628  28.879  1.00  0.00    -0.248 NA
ATOM     58  C   UNL A   1      46.958  30.790  28.179  1.00  0.00     0.031 C 
ATOM     59  C   UNL A   1      43.167  32.017  31.461  1.00  0.00     0.029 A 
ATOM     60  C   UNL A   1      43.106  32.426  30.137  1.00  0.00     0.049 A 
ATOM     61  H   UNL A   1      41.422  32.685  28.908  1.00  0.00     0.167 HD
ATOM     62  C   UNL A   1      45.053  31.957  28.824  1.00  0.00     0.074 A 
ATOM     63  C   UNL A   1      46.423  32.016  28.347  1.00  0.00     0.031 C 
ATOM     64  C   UNL A   1      44.117  32.879  29.186  1.00  0.00     0.031 A 
BRANCH  51  65
ATOM     65  C   UNL A   1      38.450  32.227  31.498  1.00  0.00    -0.014 A 
ATOM     66  C   UNL A   1      38.040  33.564  31.321  1.00  0.00     0.010 A 
ATOM     67  C   UNL A   1      37.771  31.505  32.499  1.00  0.00     0.010 A 
ATOM     68  C   UNL A   1      37.042  34.153  32.109  1.00  0.00     0.020 A 
ATOM     69  C   UNL A   1      36.775  32.081  33.303  1.00  0.00     0.020 A 
ATOM     70  C   UNL A   1      36.414  33.406  33.100  1.00  0.00     0.054 A 
BRANCH  70  71
ATOM     71  S   UNL A   1      35.110  34.176  34.088  1.00  0.00     0.124 S 
ATOM     72  O   UNL A   1      35.505  33.834  35.452  1.00  0.00    -0.237 OA
ATOM     73  O   UNL A   1      35.237  35.586  33.728  1.00  0.00    -0.237 OA
ATOM     74  O   UNL A   1      33.888  33.526  33.619  1.00  0.00    -0.744 OA
ENDBRANCH  70  71
ENDBRANCH  51  65
BRANCH  52  75
ATOM     75  C   UNL A   1      46.177  27.436  27.565  1.00  0.00    -0.014 A 
ATOM     76  C   UNL A   1      46.842  26.255  27.982  1.00  0.00     0.010 A 
ATOM     77  C   UNL A   1      45.388  27.375  26.401  1.00  0.00     0.010 A 
ATOM     78  C   UNL A   1      46.561  25.017  27.383  1.00  0.00     0.020 A 
ATOM     79  C   UNL A   1      45.105  26.132  25.802  1.00  0.00     0.020 A 
ATOM     80  C   UNL A   1      45.642  24.954  26.336  1.00  0.00     0.054 A 
BRANCH  80  81
ATOM     81  S   UNL A   1      44.960  23.326  25.852  1.00  0.00     0.124 S 
ATOM     82  O   UNL A   1      46.028  22.410  26.233  1.00  0.00    -0.237 OA
ATOM     83  O   UNL A   1      43.732  23.224  26.640  1.00  0.00    -0.237 OA
ATOM     84  O   UNL A   1      44.735  23.472  24.417  1.00  0.00    -0.744 OA
ENDBRANCH  80  81
ENDBRANCH  52  75
BRANCH  64  85
ATOM     85  C   UNL A   1      44.102  34.314  28.744  1.00  0.00    -0.014 A 
ATOM     86  C   UNL A   1      43.844  34.718  27.428  1.00  0.00     0.010 A 
ATOM     87  C   UNL A   1      44.209  35.336  29.720  1.00  0.00     0.010 A 
ATOM     88  C   UNL A   1      43.786  36.071  27.086  1.00  0.00     0.020 A 
ATOM     89  C   UNL A   1      44.086  36.686  29.402  1.00  0.00     0.020 A 
ATOM     90  C   UNL A   1      43.915  37.045  28.074  1.00  0.00     0.054 A 
BRANCH  90  91
ATOM     91  S   UNL A   1      43.840  38.784  27.602  1.00  0.00     0.124 S 
ATOM     92  O   UNL A   1      44.784  38.828  26.488  1.00  0.00    -0.237 OA
ATOM     93  O   UNL A   1      42.434  38.957  27.240  1.00  0.00    -0.237 OA
ATOM     94  O   UNL A   1      44.258  39.492  28.809  1.00  0.00    -0.744 OA
ENDBRANCH  90  91
ENDBRANCH  64  85
ENDBRANCH  38  39
ENDBRANCH  31  33
ENDBRANCH  30  31
ENDBRANCH  29  30
ENDBRANCH  28  29
ENDBRANCH  27  28
ENDBRANCH   1  27
TORSDOF 23
ENDMDL
