MODEL 1
REMARK VINA RESULT:     -11.2      0.000      0.000
REMARK SMILES O=C(OCCOCCOC(=O)[C@H]1CCCCN1c1cc(-c2ccccc2)nc(-c2cccc(Cl)c2)n1)c1ccc(-c2c3nc(c(-c4ccc(S(=O)(=O)[O-])cc4)c4ccc([nH]4)c(-c4ccc(S(=O)(=O)[O-])cc4)c4nc(c(-c5ccc(S(=O)(=O)[O-])cc5)c5ccc2[nH]5)C=C4)C=C3)cc1
REMARK SMILES IDX 5 1 4 2 3 3 2 4 1 5 37 6 38 7 96 8 39 9 95 10 40 11 41 12
REMARK SMILES IDX 42 13 89 14 43 15 94 16 88 17 90 18 44 19 93 20 87 21 86 22
REMARK SMILES IDX 45 24 75 25 56 26 74 27 57 28 60 29 73 30 91 31 58 32 59 33
REMARK SMILES IDX 72 35 92 36 61 37 46 38 47 39 55 40 48 41 54 42 49 43 50 44
REMARK SMILES IDX 51 45 52 46 53 47 76 48 77 49 85 50 78 51 84 52 79 53 80 54
REMARK SMILES IDX 81 55 82 56 83 57 62 58 63 59 71 60 64 61 70 62 65 63 66 64
REMARK SMILES IDX 67 65 68 66 69 67 6 68 7 69 8 70 9 71 10 72 11 73 12 74
REMARK SMILES IDX 13 75 17 76 14 77 16 78 15 79 18 80 19 81 36 82 20 83 28 84
REMARK SMILES IDX 27 85 21 86 22 87 26 88 23 89 25 90 24 91 29 92 30 93 35 94
REMARK SMILES IDX 31 95 33 96 32 97 34 98
REMARK H PARENT 90 23 60 34
REMARK Flexibility Score: inf
ROOT
ATOM      1  C   UNL A   1      32.178  29.708  25.295  1.00  0.00     0.202 C 
ENDROOT
BRANCH   1   2
ATOM      2  C   UNL A   1      33.594  29.519  25.884  1.00  0.00     0.261 C 
BRANCH   2   3
ATOM      3  O   UNL A   1      33.697  29.898  27.273  1.00  0.00    -0.460 OA
BRANCH   3   4
ATOM      4  C   UNL A   1      34.475  30.886  27.798  1.00  0.00     0.338 C 
ATOM      5  O   UNL A   1      34.123  32.058  27.694  1.00  0.00    -0.246 OA
BRANCH   4   6
ATOM      6  C   UNL A   1      35.777  30.583  28.459  1.00  0.00     0.060 A 
ATOM      7  C   UNL A   1      35.900  29.557  29.378  1.00  0.00     0.016 A 
ATOM      8  C   UNL A   1      36.943  31.283  28.129  1.00  0.00     0.016 A 
ATOM      9  C   UNL A   1      37.049  29.257  30.038  1.00  0.00     0.010 A 
ATOM     10  C   UNL A   1      38.168  30.936  28.733  1.00  0.00     0.010 A 
ATOM     11  C   UNL A   1      38.207  29.913  29.689  1.00  0.00    -0.014 A 
BRANCH  11  12
ATOM     12  C   UNL A   1      39.352  29.506  30.507  1.00  0.00     0.031 A 
ATOM     13  C   UNL A   1      40.333  28.569  29.887  1.00  0.00     0.074 A 
ATOM     14  C   UNL A   1      39.647  30.251  31.593  1.00  0.00     0.049 A 
ATOM     15  N   UNL A   1      41.453  28.122  30.374  1.00  0.00    -0.248 NA
ATOM     16  C   UNL A   1      40.032  28.098  28.520  1.00  0.00     0.031 C 
ATOM     17  C   UNL A   1      38.836  31.375  32.097  1.00  0.00     0.029 A 
ATOM     18  N   UNL A   1      40.743  30.254  32.409  1.00  0.00    -0.354 N 
ATOM     19  C   UNL A   1      41.969  27.282  29.397  1.00  0.00     0.074 A 
ATOM     20  C   UNL A   1      41.052  27.288  28.282  1.00  0.00     0.031 C 
ATOM     21  C   UNL A   1      39.485  31.972  33.108  1.00  0.00     0.029 A 
ATOM     22  C   UNL A   1      40.695  31.218  33.390  1.00  0.00     0.049 A 
ATOM     23  H   UNL A   1      41.495  29.627  32.304  1.00  0.00     0.167 HD
ATOM     24  C   UNL A   1      43.109  26.561  29.455  1.00  0.00     0.031 A 
ATOM     25  C   UNL A   1      41.518  31.419  34.435  1.00  0.00     0.031 A 
ATOM     26  C   UNL A   1      43.979  26.589  30.595  1.00  0.00     0.049 A 
ATOM     27  C   UNL A   1      42.693  30.489  34.554  1.00  0.00     0.074 A 
ATOM     28  C   UNL A   1      45.091  25.814  30.857  1.00  0.00     0.029 A 
ATOM     29  N   UNL A   1      43.828  27.461  31.667  1.00  0.00    -0.354 N 
ATOM     30  N   UNL A   1      43.100  29.571  33.704  1.00  0.00    -0.248 NA
ATOM     31  C   UNL A   1      43.503  30.596  35.767  1.00  0.00     0.031 C 
ATOM     32  C   UNL A   1      45.581  26.184  32.114  1.00  0.00     0.029 A 
ATOM     33  C   UNL A   1      44.816  27.235  32.604  1.00  0.00     0.049 A 
ATOM     34  H   UNL A   1      43.121  28.141  31.746  1.00  0.00     0.167 HD
ATOM     35  C   UNL A   1      44.220  28.993  34.280  1.00  0.00     0.074 A 
ATOM     36  C   UNL A   1      44.447  29.696  35.530  1.00  0.00     0.031 C 
ATOM     37  C   UNL A   1      44.989  27.968  33.834  1.00  0.00     0.031 A 
BRANCH  24  38
ATOM     38  C   UNL A   1      43.385  25.629  28.312  1.00  0.00    -0.014 A 
ATOM     39  C   UNL A   1      42.990  24.280  28.345  1.00  0.00     0.010 A 
ATOM     40  C   UNL A   1      44.086  26.112  27.192  1.00  0.00     0.010 A 
ATOM     41  C   UNL A   1      43.312  23.425  27.287  1.00  0.00     0.020 A 
ATOM     42  C   UNL A   1      44.388  25.267  26.122  1.00  0.00     0.020 A 
ATOM     43  C   UNL A   1      44.007  23.925  26.182  1.00  0.00     0.054 A 
BRANCH  43  44
ATOM     44  S   UNL A   1      44.381  22.802  24.807  1.00  0.00     0.124 S 
ATOM     45  O   UNL A   1      43.079  22.673  24.159  1.00  0.00    -0.237 OA
ATOM     46  O   UNL A   1      45.388  23.545  24.055  1.00  0.00    -0.237 OA
ATOM     47  O   UNL A   1      44.867  21.593  25.469  1.00  0.00    -0.744 OA
ENDBRANCH  43  44
ENDBRANCH  24  38
BRANCH  25  48
ATOM     48  C   UNL A   1      41.186  32.418  35.493  1.00  0.00    -0.014 A 
ATOM     49  C   UNL A   1      40.423  32.076  36.622  1.00  0.00     0.010 A 
ATOM     50  C   UNL A   1      41.606  33.756  35.345  1.00  0.00     0.010 A 
ATOM     51  C   UNL A   1      40.053  33.055  37.555  1.00  0.00     0.020 A 
ATOM     52  C   UNL A   1      41.273  34.728  36.291  1.00  0.00     0.020 A 
ATOM     53  C   UNL A   1      40.476  34.376  37.378  1.00  0.00     0.054 A 
BRANCH  53  54
ATOM     54  S   UNL A   1      39.979  35.634  38.588  1.00  0.00     0.124 S 
ATOM     55  O   UNL A   1      41.116  35.641  39.502  1.00  0.00    -0.237 OA
ATOM     56  O   UNL A   1      39.823  36.826  37.759  1.00  0.00    -0.237 OA
ATOM     57  O   UNL A   1      38.734  35.104  39.142  1.00  0.00    -0.744 OA
ENDBRANCH  53  54
ENDBRANCH  25  48
BRANCH  37  58
ATOM     58  C   UNL A   1      46.153  27.585  34.698  1.00  0.00    -0.014 A 
ATOM     59  C   UNL A   1      47.405  28.206  34.546  1.00  0.00     0.010 A 
ATOM     60  C   UNL A   1      45.974  26.615  35.700  1.00  0.00     0.010 A 
ATOM     61  C   UNL A   1      48.475  27.827  35.355  1.00  0.00     0.020 A 
ATOM     62  C   UNL A   1      47.032  26.260  36.534  1.00  0.00     0.020 A 
ATOM     63  C   UNL A   1      48.281  26.855  36.343  1.00  0.00     0.054 A 
BRANCH  63  64
ATOM     64  S   UNL A   1      49.679  26.400  37.400  1.00  0.00     0.124 S 
ATOM     65  O   UNL A   1      49.627  27.436  38.429  1.00  0.00    -0.237 OA
ATOM     66  O   UNL A   1      49.322  25.055  37.842  1.00  0.00    -0.237 OA
ATOM     67  O   UNL A   1      50.828  26.471  36.501  1.00  0.00    -0.744 OA
ENDBRANCH  63  64
ENDBRANCH  37  58
ENDBRANCH  11  12
ENDBRANCH   4   6
ENDBRANCH   3   4
ENDBRANCH   2   3
ENDBRANCH   1   2
BRANCH   1  68
ATOM     68  O   UNL A   1      31.798  28.993  24.117  1.00  0.00    -0.374 OA
BRANCH  68  69
ATOM     69  C   UNL A   1      32.768  28.826  23.086  1.00  0.00     0.202 C 
BRANCH  69  70
ATOM     70  C   UNL A   1      32.745  27.384  22.594  1.00  0.00     0.261 C 
BRANCH  70  71
ATOM     71  O   UNL A   1      33.691  26.663  23.395  1.00  0.00    -0.462 OA
BRANCH  71  72
ATOM     72  C   UNL A   1      33.416  25.353  23.632  1.00  0.00     0.328 C 
ATOM     73  O   UNL A   1      33.132  24.531  22.764  1.00  0.00    -0.250 OA
BRANCH  72  74
ATOM     74  C   UNL A   1      33.449  25.033  25.143  1.00  0.00     0.193 C 
ATOM     75  C   UNL A   1      32.848  26.021  26.148  1.00  0.00     0.037 C 
ATOM     76  N   UNL A   1      32.771  23.760  25.383  1.00  0.00    -0.343 N 
ATOM     77  C   UNL A   1      31.344  26.172  25.977  1.00  0.00     0.005 C 
ATOM     78  C   UNL A   1      31.334  23.681  25.220  1.00  0.00     0.119 C 
ATOM     79  C   UNL A   1      30.650  24.806  26.024  1.00  0.00     0.022 C 
BRANCH  76  80
ATOM     80  C   UNL A   1      33.635  22.705  25.374  1.00  0.00     0.134 A 
ATOM     81  C   UNL A   1      33.305  21.464  24.899  1.00  0.00     0.076 A 
ATOM     82  N   UNL A   1      34.885  23.017  25.717  1.00  0.00    -0.211 NA
ATOM     83  C   UNL A   1      34.343  20.554  24.796  1.00  0.00     0.076 A 
ATOM     84  C   UNL A   1      35.834  22.087  25.579  1.00  0.00     0.162 A 
ATOM     85  N   UNL A   1      35.623  20.844  25.130  1.00  0.00    -0.228 NA
BRANCH  83  86
ATOM     86  C   UNL A   1      34.077  19.175  24.385  1.00  0.00     0.000 A 
ATOM     87  C   UNL A   1      32.893  18.880  23.694  1.00  0.00     0.010 A 
ATOM     88  C   UNL A   1      35.004  18.144  24.603  1.00  0.00     0.010 A 
ATOM     89  C   UNL A   1      32.646  17.595  23.212  1.00  0.00     0.001 A 
ATOM     90  C   UNL A   1      34.752  16.853  24.129  1.00  0.00     0.001 A 
ATOM     91  C   UNL A   1      33.578  16.582  23.429  1.00  0.00     0.000 A 
ENDBRANCH  83  86
BRANCH  84  92
ATOM     92  C   UNL A   1      37.180  22.522  25.966  1.00  0.00     0.021 A 
ATOM     93  C   UNL A   1      37.413  23.881  26.273  1.00  0.00     0.012 A 
ATOM     94  C   UNL A   1      38.276  21.649  25.972  1.00  0.00     0.032 A 
ATOM     95  C   UNL A   1      38.687  24.356  26.580  1.00  0.00     0.002 A 
ATOM     96  C   UNL A   1      39.554  22.129  26.267  1.00  0.00     0.041 A 
ATOM     97  C   UNL A   1      39.763  23.475  26.573  1.00  0.00     0.020 A 
ATOM     98  Cl  UNL A   1      40.900  21.057  26.232  1.00  0.00    -0.084 Cl
ENDBRANCH  84  92
ENDBRANCH  76  80
ENDBRANCH  72  74
ENDBRANCH  71  72
ENDBRANCH  70  71
ENDBRANCH  69  70
ENDBRANCH  68  69
ENDBRANCH   1  68
TORSDOF 20
ENDMDL
MODEL 2
REMARK VINA RESULT:     -11.2      1.162      8.353
REMARK SMILES O=C(OCCOCCOC(=O)[C@H]1CCCCN1c1cc(-c2ccccc2)nc(-c2cccc(Cl)c2)n1)c1ccc(-c2c3nc(c(-c4ccc(S(=O)(=O)[O-])cc4)c4ccc([nH]4)c(-c4ccc(S(=O)(=O)[O-])cc4)c4nc(c(-c5ccc(S(=O)(=O)[O-])cc5)c5ccc2[nH]5)C=C4)C=C3)cc1
REMARK SMILES IDX 5 1 4 2 3 3 2 4 1 5 37 6 38 7 96 8 39 9 95 10 40 11 41 12
REMARK SMILES IDX 42 13 89 14 43 15 94 16 88 17 90 18 44 19 93 20 87 21 86 22
REMARK SMILES IDX 45 24 75 25 56 26 74 27 57 28 60 29 73 30 91 31 58 32 59 33
REMARK SMILES IDX 72 35 92 36 61 37 46 38 47 39 55 40 48 41 54 42 49 43 50 44
REMARK SMILES IDX 51 45 52 46 53 47 76 48 77 49 85 50 78 51 84 52 79 53 80 54
REMARK SMILES IDX 81 55 82 56 83 57 62 58 63 59 71 60 64 61 70 62 65 63 66 64
REMARK SMILES IDX 67 65 68 66 69 67 6 68 7 69 8 70 9 71 10 72 11 73 12 74
REMARK SMILES IDX 13 75 17 76 14 77 16 78 15 79 18 80 19 81 36 82 20 83 28 84
REMARK SMILES IDX 27 85 21 86 22 87 26 88 23 89 25 90 24 91 29 92 30 93 35 94
REMARK SMILES IDX 31 95 33 96 32 97 34 98
REMARK H PARENT 90 23 60 34
REMARK Flexibility Score: inf
ROOT
ATOM      1  C   UNL A   1      31.951  29.119  25.685  1.00  0.00     0.202 C 
ENDROOT
BRANCH   1   2
ATOM      2  C   UNL A   1      32.269  30.141  26.799  1.00  0.00     0.261 C 
BRANCH   2   3
ATOM      3  O   UNL A   1      33.657  30.150  27.195  1.00  0.00    -0.460 OA
BRANCH   3   4
ATOM      4  C   UNL A   1      34.290  31.093  27.950  1.00  0.00     0.338 C 
ATOM      5  O   UNL A   1      33.724  32.156  28.194  1.00  0.00    -0.246 OA
BRANCH   4   6
ATOM      6  C   UNL A   1      35.679  30.886  28.452  1.00  0.00     0.060 A 
ATOM      7  C   UNL A   1      36.063  29.698  29.045  1.00  0.00     0.016 A 
ATOM      8  C   UNL A   1      36.667  31.862  28.284  1.00  0.00     0.016 A 
ATOM      9  C   UNL A   1      37.302  29.465  29.553  1.00  0.00     0.010 A 
ATOM     10  C   UNL A   1      37.983  31.614  28.722  1.00  0.00     0.010 A 
ATOM     11  C   UNL A   1      38.289  30.402  29.355  1.00  0.00    -0.014 A 
BRANCH  11  12
ATOM     12  C   UNL A   1      39.557  30.025  29.985  1.00  0.00     0.031 A 
ATOM     13  C   UNL A   1      39.863  30.628  31.314  1.00  0.00     0.074 A 
ATOM     14  C   UNL A   1      40.183  28.920  29.528  1.00  0.00     0.049 A 
ATOM     15  N   UNL A   1      40.875  30.401  32.099  1.00  0.00    -0.248 NA
ATOM     16  C   UNL A   1      38.880  31.591  31.851  1.00  0.00     0.031 C 
ATOM     17  C   UNL A   1      39.758  28.125  28.361  1.00  0.00     0.029 A 
ATOM     18  N   UNL A   1      41.236  28.212  30.032  1.00  0.00    -0.354 N 
ATOM     19  C   UNL A   1      40.678  31.223  33.199  1.00  0.00     0.074 A 
ATOM     20  C   UNL A   1      39.446  31.947  32.993  1.00  0.00     0.031 C 
ATOM     21  C   UNL A   1      40.523  27.027  28.269  1.00  0.00     0.029 A 
ATOM     22  C   UNL A   1      41.550  27.092  29.297  1.00  0.00     0.049 A 
ATOM     23  H   UNL A   1      41.725  28.478  30.845  1.00  0.00     0.167 HD
ATOM     24  C   UNL A   1      41.483  31.360  34.274  1.00  0.00     0.031 A 
ATOM     25  C   UNL A   1      42.593  26.252  29.415  1.00  0.00     0.031 A 
ATOM     26  C   UNL A   1      42.702  30.618  34.421  1.00  0.00     0.049 A 
ATOM     27  C   UNL A   1      43.559  26.535  30.533  1.00  0.00     0.074 A 
ATOM     28  C   UNL A   1      43.686  30.748  35.380  1.00  0.00     0.029 A 
ATOM     29  N   UNL A   1      43.093  29.590  33.572  1.00  0.00    -0.354 N 
ATOM     30  N   UNL A   1      43.461  27.427  31.494  1.00  0.00    -0.248 NA
ATOM     31  C   UNL A   1      44.778  25.726  30.576  1.00  0.00     0.031 C 
ATOM     32  C   UNL A   1      44.698  29.830  35.079  1.00  0.00     0.029 A 
ATOM     33  C   UNL A   1      44.313  29.084  33.973  1.00  0.00     0.049 A 
ATOM     34  H   UNL A   1      42.576  29.269  32.798  1.00  0.00     0.167 HD
ATOM     35  C   UNL A   1      44.606  27.284  32.261  1.00  0.00     0.074 A 
ATOM     36  C   UNL A   1      45.359  26.190  31.673  1.00  0.00     0.031 C 
ATOM     37  C   UNL A   1      45.015  27.992  33.343  1.00  0.00     0.031 A 
BRANCH  24  38
ATOM     38  C   UNL A   1      41.109  32.412  35.276  1.00  0.00    -0.014 A 
ATOM     39  C   UNL A   1      41.536  33.745  35.145  1.00  0.00     0.010 A 
ATOM     40  C   UNL A   1      40.337  32.046  36.394  1.00  0.00     0.010 A 
ATOM     41  C   UNL A   1      41.216  34.688  36.126  1.00  0.00     0.020 A 
ATOM     42  C   UNL A   1      39.995  32.990  37.364  1.00  0.00     0.020 A 
ATOM     43  C   UNL A   1      40.446  34.304  37.228  1.00  0.00     0.054 A 
BRANCH  43  44
ATOM     44  S   UNL A   1      40.016  35.556  38.469  1.00  0.00     0.124 S 
ATOM     45  O   UNL A   1      38.855  34.953  39.117  1.00  0.00    -0.237 OA
ATOM     46  O   UNL A   1      41.226  35.624  39.283  1.00  0.00    -0.237 OA
ATOM     47  O   UNL A   1      39.735  36.750  37.674  1.00  0.00    -0.744 OA
ENDBRANCH  43  44
ENDBRANCH  24  38
BRANCH  25  48
ATOM     48  C   UNL A   1      42.848  25.193  28.396  1.00  0.00    -0.014 A 
ATOM     49  C   UNL A   1      42.770  23.826  28.711  1.00  0.00     0.010 A 
ATOM     50  C   UNL A   1      43.223  25.561  27.087  1.00  0.00     0.010 A 
ATOM     51  C   UNL A   1      43.101  22.855  27.755  1.00  0.00     0.020 A 
ATOM     52  C   UNL A   1      43.516  24.598  26.119  1.00  0.00     0.020 A 
ATOM     53  C   UNL A   1      43.478  23.248  26.468  1.00  0.00     0.054 A 
BRANCH  53  54
ATOM     54  S   UNL A   1      43.914  21.980  25.246  1.00  0.00     0.124 S 
ATOM     55  O   UNL A   1      43.775  22.709  23.990  1.00  0.00    -0.237 OA
ATOM     56  O   UNL A   1      45.279  21.628  25.628  1.00  0.00    -0.237 OA
ATOM     57  O   UNL A   1      42.923  20.930  25.473  1.00  0.00    -0.744 OA
ENDBRANCH  53  54
ENDBRANCH  25  48
BRANCH  37  58
ATOM     58  C   UNL A   1      46.316  27.571  33.960  1.00  0.00    -0.014 A 
ATOM     59  C   UNL A   1      46.365  26.546  34.920  1.00  0.00     0.010 A 
ATOM     60  C   UNL A   1      47.506  28.192  33.541  1.00  0.00     0.010 A 
ATOM     61  C   UNL A   1      47.584  26.179  35.487  1.00  0.00     0.020 A 
ATOM     62  C   UNL A   1      48.730  27.801  34.080  1.00  0.00     0.020 A 
ATOM     63  C   UNL A   1      48.759  26.810  35.064  1.00  0.00     0.054 A 
BRANCH  63  64
ATOM     64  S   UNL A   1      50.334  26.295  35.794  1.00  0.00     0.124 S 
ATOM     65  O   UNL A   1      51.057  27.561  35.873  1.00  0.00    -0.237 OA
ATOM     66  O   UNL A   1      49.921  25.725  37.074  1.00  0.00    -0.237 OA
ATOM     67  O   UNL A   1      50.862  25.333  34.830  1.00  0.00    -0.744 OA
ENDBRANCH  63  64
ENDBRANCH  37  58
ENDBRANCH  11  12
ENDBRANCH   4   6
ENDBRANCH   3   4
ENDBRANCH   2   3
ENDBRANCH   1   2
BRANCH   1  68
ATOM     68  O   UNL A   1      32.071  29.503  24.314  1.00  0.00    -0.374 OA
BRANCH  68  69
ATOM     69  C   UNL A   1      32.212  28.477  23.334  1.00  0.00     0.202 C 
BRANCH  69  70
ATOM     70  C   UNL A   1      33.690  28.178  23.119  1.00  0.00     0.261 C 
BRANCH  70  71
ATOM     71  O   UNL A   1      34.005  27.051  23.948  1.00  0.00    -0.462 OA
BRANCH  71  72
ATOM     72  C   UNL A   1      33.678  25.825  23.459  1.00  0.00     0.328 C 
ATOM     73  O   UNL A   1      33.829  25.476  22.290  1.00  0.00    -0.250 OA
BRANCH  72  74
ATOM     74  C   UNL A   1      33.035  24.936  24.547  1.00  0.00     0.193 C 
ATOM     75  C   UNL A   1      31.691  25.335  25.165  1.00  0.00     0.037 C 
ATOM     76  N   UNL A   1      32.844  23.586  24.018  1.00  0.00    -0.343 N 
ATOM     77  C   UNL A   1      30.560  25.310  24.148  1.00  0.00     0.005 C 
ATOM     78  C   UNL A   1      31.843  23.361  22.995  1.00  0.00     0.119 C 
ATOM     79  C   UNL A   1      30.490  23.951  23.443  1.00  0.00     0.022 C 
BRANCH  76  80
ATOM     80  C   UNL A   1      33.898  22.768  24.298  1.00  0.00     0.134 A 
ATOM     81  C   UNL A   1      35.081  23.216  24.820  1.00  0.00     0.076 A 
ATOM     82  N   UNL A   1      33.632  21.467  24.174  1.00  0.00    -0.211 NA
ATOM     83  C   UNL A   1      35.983  22.242  25.212  1.00  0.00     0.076 A 
ATOM     84  C   UNL A   1      34.550  20.587  24.585  1.00  0.00     0.162 A 
ATOM     85  N   UNL A   1      35.739  20.915  25.105  1.00  0.00    -0.228 NA
BRANCH  83  86
ATOM     86  C   UNL A   1      37.312  22.619  25.698  1.00  0.00     0.000 A 
ATOM     87  C   UNL A   1      37.527  23.922  26.169  1.00  0.00     0.010 A 
ATOM     88  C   UNL A   1      38.366  21.695  25.771  1.00  0.00     0.010 A 
ATOM     89  C   UNL A   1      38.754  24.292  26.718  1.00  0.00     0.001 A 
ATOM     90  C   UNL A   1      39.599  22.068  26.312  1.00  0.00     0.001 A 
ATOM     91  C   UNL A   1      39.790  23.363  26.791  1.00  0.00     0.000 A 
ENDBRANCH  83  86
BRANCH  84  92
ATOM     92  C   UNL A   1      34.167  19.182  24.425  1.00  0.00     0.021 A 
ATOM     93  C   UNL A   1      32.879  18.860  23.940  1.00  0.00     0.012 A 
ATOM     94  C   UNL A   1      35.008  18.128  24.807  1.00  0.00     0.032 A 
ATOM     95  C   UNL A   1      32.444  17.539  23.835  1.00  0.00     0.002 A 
ATOM     96  C   UNL A   1      34.565  16.807  24.713  1.00  0.00     0.041 A 
ATOM     97  C   UNL A   1      33.291  16.509  24.227  1.00  0.00     0.020 A 
ATOM     98  Cl  UNL A   1      35.591  15.522  25.224  1.00  0.00    -0.084 Cl
ENDBRANCH  84  92
ENDBRANCH  76  80
ENDBRANCH  72  74
ENDBRANCH  71  72
ENDBRANCH  70  71
ENDBRANCH  69  70
ENDBRANCH  68  69
ENDBRANCH   1  68
TORSDOF 20
ENDMDL
MODEL 3
REMARK VINA RESULT:     -11.1      0.992      2.964
REMARK SMILES O=C(OCCOCCOC(=O)[C@H]1CCCCN1c1cc(-c2ccccc2)nc(-c2cccc(Cl)c2)n1)c1ccc(-c2c3nc(c(-c4ccc(S(=O)(=O)[O-])cc4)c4ccc([nH]4)c(-c4ccc(S(=O)(=O)[O-])cc4)c4nc(c(-c5ccc(S(=O)(=O)[O-])cc5)c5ccc2[nH]5)C=C4)C=C3)cc1
REMARK SMILES IDX 5 1 4 2 3 3 2 4 1 5 37 6 38 7 96 8 39 9 95 10 40 11 41 12
REMARK SMILES IDX 42 13 89 14 43 15 94 16 88 17 90 18 44 19 93 20 87 21 86 22
REMARK SMILES IDX 45 24 75 25 56 26 74 27 57 28 60 29 73 30 91 31 58 32 59 33
REMARK SMILES IDX 72 35 92 36 61 37 46 38 47 39 55 40 48 41 54 42 49 43 50 44
REMARK SMILES IDX 51 45 52 46 53 47 76 48 77 49 85 50 78 51 84 52 79 53 80 54
REMARK SMILES IDX 81 55 82 56 83 57 62 58 63 59 71 60 64 61 70 62 65 63 66 64
REMARK SMILES IDX 67 65 68 66 69 67 6 68 7 69 8 70 9 71 10 72 11 73 12 74
REMARK SMILES IDX 13 75 17 76 14 77 16 78 15 79 18 80 19 81 36 82 20 83 28 84
REMARK SMILES IDX 27 85 21 86 22 87 26 88 23 89 25 90 24 91 29 92 30 93 35 94
REMARK SMILES IDX 31 95 33 96 32 97 34 98
REMARK H PARENT 90 23 60 34
REMARK Flexibility Score: inf
ROOT
ATOM      1  C   UNL A   1      31.768  29.761  25.502  1.00  0.00     0.202 C 
ENDROOT
BRANCH   1   2
ATOM      2  C   UNL A   1      33.266  29.627  25.857  1.00  0.00     0.261 C 
BRANCH   2   3
ATOM      3  O   UNL A   1      33.575  30.019  27.211  1.00  0.00    -0.460 OA
BRANCH   3   4
ATOM      4  C   UNL A   1      34.396  31.035  27.605  1.00  0.00     0.338 C 
ATOM      5  O   UNL A   1      34.112  32.193  27.312  1.00  0.00    -0.246 OA
BRANCH   4   6
ATOM      6  C   UNL A   1      35.663  30.770  28.345  1.00  0.00     0.060 A 
ATOM      7  C   UNL A   1      35.826  29.632  29.113  1.00  0.00     0.016 A 
ATOM      8  C   UNL A   1      36.761  31.630  28.243  1.00  0.00     0.016 A 
ATOM      9  C   UNL A   1      36.942  29.354  29.838  1.00  0.00     0.010 A 
ATOM     10  C   UNL A   1      37.961  31.324  28.913  1.00  0.00     0.010 A 
ATOM     11  C   UNL A   1      38.040  30.174  29.709  1.00  0.00    -0.014 A 
BRANCH  11  12
ATOM     12  C   UNL A   1      39.150  29.766  30.573  1.00  0.00     0.031 A 
ATOM     13  C   UNL A   1      40.143  28.812  30.001  1.00  0.00     0.074 A 
ATOM     14  C   UNL A   1      39.413  30.522  31.660  1.00  0.00     0.049 A 
ATOM     15  N   UNL A   1      41.240  28.360  30.534  1.00  0.00    -0.248 NA
ATOM     16  C   UNL A   1      39.887  28.326  28.630  1.00  0.00     0.031 C 
ATOM     17  C   UNL A   1      38.595  31.660  32.120  1.00  0.00     0.029 A 
ATOM     18  N   UNL A   1      40.478  30.525  32.515  1.00  0.00    -0.354 N 
ATOM     19  C   UNL A   1      41.782  27.503  29.587  1.00  0.00     0.074 A 
ATOM     20  C   UNL A   1      40.906  27.503  28.440  1.00  0.00     0.031 C 
ATOM     21  C   UNL A   1      39.213  32.264  33.146  1.00  0.00     0.029 A 
ATOM     22  C   UNL A   1      40.405  31.501  33.482  1.00  0.00     0.049 A 
ATOM     23  H   UNL A   1      41.227  29.889  32.446  1.00  0.00     0.167 HD
ATOM     24  C   UNL A   1      42.911  26.771  29.695  1.00  0.00     0.031 A 
ATOM     25  C   UNL A   1      41.191  31.708  34.553  1.00  0.00     0.031 A 
ATOM     26  C   UNL A   1      43.740  26.806  30.866  1.00  0.00     0.049 A 
ATOM     27  C   UNL A   1      42.351  30.767  34.726  1.00  0.00     0.074 A 
ATOM     28  C   UNL A   1      44.833  26.023  31.178  1.00  0.00     0.029 A 
ATOM     29  N   UNL A   1      43.560  27.693  31.920  1.00  0.00    -0.354 N 
ATOM     30  N   UNL A   1      42.779  29.835  33.903  1.00  0.00    -0.248 NA
ATOM     31  C   UNL A   1      43.118  30.882  35.967  1.00  0.00     0.031 C 
ATOM     32  C   UNL A   1      45.282  26.404  32.447  1.00  0.00     0.029 A 
ATOM     33  C   UNL A   1      44.511  27.468  32.895  1.00  0.00     0.049 A 
ATOM     34  H   UNL A   1      42.857  28.380  31.966  1.00  0.00     0.167 HD
ATOM     35  C   UNL A   1      43.872  29.254  34.527  1.00  0.00     0.074 A 
ATOM     36  C   UNL A   1      44.061  29.970  35.775  1.00  0.00     0.031 C 
ATOM     37  C   UNL A   1      44.646  28.216  34.122  1.00  0.00     0.031 A 
BRANCH  24  38
ATOM     38  C   UNL A   1      43.219  25.822  28.575  1.00  0.00    -0.014 A 
ATOM     39  C   UNL A   1      43.034  24.435  28.708  1.00  0.00     0.010 A 
ATOM     40  C   UNL A   1      43.737  26.333  27.371  1.00  0.00     0.010 A 
ATOM     41  C   UNL A   1      43.383  23.573  27.664  1.00  0.00     0.020 A 
ATOM     42  C   UNL A   1      44.064  25.478  26.316  1.00  0.00     0.020 A 
ATOM     43  C   UNL A   1      43.894  24.101  26.474  1.00  0.00     0.054 A 
BRANCH  43  44
ATOM     44  S   UNL A   1      44.306  22.963  25.123  1.00  0.00     0.124 S 
ATOM     45  O   UNL A   1      44.944  21.862  25.839  1.00  0.00    -0.237 OA
ATOM     46  O   UNL A   1      42.997  22.665  24.549  1.00  0.00    -0.237 OA
ATOM     47  O   UNL A   1      45.195  23.747  24.268  1.00  0.00    -0.744 OA
ENDBRANCH  43  44
ENDBRANCH  24  38
BRANCH  25  48
ATOM     48  C   UNL A   1      40.832  32.723  35.587  1.00  0.00    -0.014 A 
ATOM     49  C   UNL A   1      41.367  34.022  35.568  1.00  0.00     0.010 A 
ATOM     50  C   UNL A   1      39.968  32.366  36.643  1.00  0.00     0.010 A 
ATOM     51  C   UNL A   1      41.080  34.925  36.601  1.00  0.00     0.020 A 
ATOM     52  C   UNL A   1      39.648  33.274  37.655  1.00  0.00     0.020 A 
ATOM     53  C   UNL A   1      40.228  34.542  37.641  1.00  0.00     0.054 A 
BRANCH  53  54
ATOM     54  S   UNL A   1      39.875  35.719  38.976  1.00  0.00     0.124 S 
ATOM     55  O   UNL A   1      41.170  35.816  39.644  1.00  0.00    -0.237 OA
ATOM     56  O   UNL A   1      39.448  36.909  38.245  1.00  0.00    -0.237 OA
ATOM     57  O   UNL A   1      38.823  35.059  39.746  1.00  0.00    -0.744 OA
ENDBRANCH  53  54
ENDBRANCH  25  48
BRANCH  37  58
ATOM     58  C   UNL A   1      45.774  27.832  35.033  1.00  0.00    -0.014 A 
ATOM     59  C   UNL A   1      47.036  28.441  34.920  1.00  0.00     0.010 A 
ATOM     60  C   UNL A   1      45.549  26.875  36.037  1.00  0.00     0.010 A 
ATOM     61  C   UNL A   1      48.072  28.061  35.772  1.00  0.00     0.020 A 
ATOM     62  C   UNL A   1      46.573  26.520  36.914  1.00  0.00     0.020 A 
ATOM     63  C   UNL A   1      47.833  27.102  36.763  1.00  0.00     0.054 A 
BRANCH  63  64
ATOM     64  S   UNL A   1      49.187  26.647  37.876  1.00  0.00     0.124 S 
ATOM     65  O   UNL A   1      49.724  27.954  38.246  1.00  0.00    -0.237 OA
ATOM     66  O   UNL A   1      48.497  25.926  38.941  1.00  0.00    -0.237 OA
ATOM     67  O   UNL A   1      50.061  25.828  37.039  1.00  0.00    -0.744 OA
ENDBRANCH  63  64
ENDBRANCH  37  58
ENDBRANCH  11  12
ENDBRANCH   4   6
ENDBRANCH   3   4
ENDBRANCH   2   3
ENDBRANCH   1   2
BRANCH   1  68
ATOM     68  O   UNL A   1      31.167  28.832  24.597  1.00  0.00    -0.374 OA
BRANCH  68  69
ATOM     69  C   UNL A   1      31.501  28.923  23.214  1.00  0.00     0.202 C 
BRANCH  69  70
ATOM     70  C   UNL A   1      31.773  27.530  22.662  1.00  0.00     0.261 C 
BRANCH  70  71
ATOM     71  O   UNL A   1      32.834  26.976  23.453  1.00  0.00    -0.462 OA
BRANCH  71  72
ATOM     72  C   UNL A   1      32.806  25.632  23.655  1.00  0.00     0.328 C 
ATOM     73  O   UNL A   1      32.583  24.799  22.778  1.00  0.00    -0.250 OA
BRANCH  72  74
ATOM     74  C   UNL A   1      33.034  25.278  25.141  1.00  0.00     0.193 C 
ATOM     75  C   UNL A   1      32.289  26.051  26.234  1.00  0.00     0.037 C 
ATOM     76  N   UNL A   1      32.708  23.869  25.359  1.00  0.00    -0.343 N 
ATOM     77  C   UNL A   1      30.785  25.830  26.172  1.00  0.00     0.005 C 
ATOM     78  C   UNL A   1      31.325  23.443  25.288  1.00  0.00     0.119 C 
ATOM     79  C   UNL A   1      30.452  24.335  26.194  1.00  0.00     0.022 C 
BRANCH  76  80
ATOM     80  C   UNL A   1      33.800  23.062  25.237  1.00  0.00     0.134 A 
ATOM     81  C   UNL A   1      35.059  23.433  25.625  1.00  0.00     0.076 A 
ATOM     82  N   UNL A   1      33.520  21.814  24.857  1.00  0.00    -0.211 NA
ATOM     83  C   UNL A   1      36.023  22.441  25.601  1.00  0.00     0.076 A 
ATOM     84  C   UNL A   1      34.504  20.910  24.870  1.00  0.00     0.162 A 
ATOM     85  N   UNL A   1      35.769  21.165  25.226  1.00  0.00    -0.228 NA
BRANCH  83  86
ATOM     86  C   UNL A   1      37.418  22.760  25.910  1.00  0.00     0.000 A 
ATOM     87  C   UNL A   1      37.748  24.053  26.338  1.00  0.00     0.010 A 
ATOM     88  C   UNL A   1      38.431  21.790  25.856  1.00  0.00     0.010 A 
ATOM     89  C   UNL A   1      39.051  24.370  26.724  1.00  0.00     0.001 A 
ATOM     90  C   UNL A   1      39.738  22.108  26.232  1.00  0.00     0.001 A 
ATOM     91  C   UNL A   1      40.045  23.395  26.672  1.00  0.00     0.000 A 
ENDBRANCH  83  86
BRANCH  84  92
ATOM     92  C   UNL A   1      34.104  19.563  24.452  1.00  0.00     0.021 A 
ATOM     93  C   UNL A   1      32.923  19.389  23.696  1.00  0.00     0.012 A 
ATOM     94  C   UNL A   1      34.813  18.418  24.839  1.00  0.00     0.032 A 
ATOM     95  C   UNL A   1      32.465  18.122  23.333  1.00  0.00     0.002 A 
ATOM     96  C   UNL A   1      34.344  17.150  24.486  1.00  0.00     0.041 A 
ATOM     97  C   UNL A   1      33.179  16.999  23.733  1.00  0.00     0.020 A 
ATOM     98  Cl  UNL A   1      35.200  15.748  25.001  1.00  0.00    -0.084 Cl
ENDBRANCH  84  92
ENDBRANCH  76  80
ENDBRANCH  72  74
ENDBRANCH  71  72
ENDBRANCH  70  71
ENDBRANCH  69  70
ENDBRANCH  68  69
ENDBRANCH   1  68
TORSDOF 20
ENDMDL
