MODEL 1
REMARK VINA RESULT:     -10.8      0.000      0.000
REMARK SMILES Cc1cc(F)cc(N[C@H](C(=O)OCCOCCOC(=O)c2ccc(-c3c4nc(c(-c5ccc(S(=O)(=O)[O-])cc5)c5ccc([nH]5)c(-c5ccc(S(=O)(=O)[O-])cc5)c5nc(c(-c6ccc(S(=O)(=O)[O-])cc6)c6ccc3[nH]6)C=C5)C=C4)cc2)c2cc(C)cc(C)c2)c1
REMARK SMILES IDX 16 1 15 2 14 3 13 4 12 5 10 6 11 7 9 8 8 9 7 11 1 12 2 13
REMARK SMILES IDX 3 14 89 15 4 16 5 17 6 18 81 19 82 20 88 21 83 22 86 23
REMARK SMILES IDX 84 24 85 25 87 26 17 27 18 28 19 29 20 30 21 31 22 32 80 33
REMARK SMILES IDX 23 34 79 35 24 36 25 37 26 38 73 39 27 40 78 41 72 42 74 43
REMARK SMILES IDX 28 44 77 45 71 46 70 47 29 49 59 50 40 51 58 52 41 53 44 54
REMARK SMILES IDX 57 55 75 56 42 57 43 58 56 60 76 61 45 62 30 63 31 64 39 65
REMARK SMILES IDX 32 66 38 67 33 68 34 69 35 70 36 71 37 72 60 73 61 74 69 75
REMARK SMILES IDX 62 76 68 77 63 78 64 79 65 80 66 81 67 82 46 83 47 84 55 85
REMARK SMILES IDX 48 86 54 87 49 88 50 89 51 90 52 91 53 92
REMARK H PARENT 8 10 74 48 44 59
REMARK Flexibility Score: inf
ROOT
ATOM      1  C   UNL A   1      37.850  21.003  25.162  1.00  0.00     0.202 C 
ENDROOT
BRANCH   1   2
ATOM      2  O   UNL A   1      36.675  21.808  25.034  1.00  0.00    -0.374 OA
BRANCH   2   3
ATOM      3  C   UNL A   1      36.731  22.923  24.149  1.00  0.00     0.202 C 
BRANCH   3   4
ATOM      4  C   UNL A   1      35.419  23.632  23.803  1.00  0.00     0.261 C 
BRANCH   4   5
ATOM      5  O   UNL A   1      34.556  22.865  22.959  1.00  0.00    -0.461 OA
BRANCH   5   6
ATOM      6  C   UNL A   1      33.508  23.581  22.458  1.00  0.00     0.333 C 
ATOM      7  O   UNL A   1      33.592  24.302  21.466  1.00  0.00    -0.249 OA
BRANCH   6   8
ATOM      8  C   UNL A   1      32.185  23.301  23.201  1.00  0.00     0.221 C 
BRANCH   8   9
ATOM      9  N   UNL A   1      32.214  22.140  24.126  1.00  0.00    -0.369 N 
ATOM     10  H   UNL A   1      32.201  22.373  25.083  1.00  0.00     0.161 HD
BRANCH   9  11
ATOM     11  C   UNL A   1      32.259  20.784  23.858  1.00  0.00     0.038 A 
ATOM     12  C   UNL A   1      32.810  17.530  25.835  1.00  0.00     0.044 C 
ATOM     13  C   UNL A   1      32.609  18.488  24.699  1.00  0.00    -0.046 A 
ATOM     14  C   UNL A   1      32.559  17.991  23.397  1.00  0.00     0.042 A 
ATOM     15  C   UNL A   1      32.494  19.879  24.911  1.00  0.00     0.029 A 
ATOM     16  C   UNL A   1      32.323  18.867  22.357  1.00  0.00     0.125 A 
ATOM     17  F   UNL A   1      32.262  18.408  21.099  1.00  0.00    -0.207 F 
ATOM     18  C   UNL A   1      32.141  20.227  22.589  1.00  0.00     0.065 A 
ENDBRANCH   9  11
ENDBRANCH   8   9
BRANCH   8  19
ATOM     19  C   UNL A   1      31.584  24.556  23.827  1.00  0.00    -0.014 A 
ATOM     20  C   UNL A   1      32.361  25.373  24.663  1.00  0.00     0.010 A 
ATOM     21  C   UNL A   1      30.257  24.940  23.592  1.00  0.00     0.010 A 
ATOM     22  C   UNL A   1      31.819  26.427  25.390  1.00  0.00    -0.051 A 
ATOM     23  C   UNL A   1      29.729  26.089  24.205  1.00  0.00    -0.051 A 
ATOM     24  C   UNL A   1      32.642  27.038  26.483  1.00  0.00     0.044 C 
ATOM     25  C   UNL A   1      30.497  26.788  25.150  1.00  0.00     0.006 A 
ATOM     26  C   UNL A   1      28.343  26.567  23.893  1.00  0.00     0.044 C 
ENDBRANCH   8  19
ENDBRANCH   6   8
ENDBRANCH   5   6
ENDBRANCH   4   5
ENDBRANCH   3   4
ENDBRANCH   2   3
ENDBRANCH   1   2
BRANCH   1  27
ATOM     27  C   UNL A   1      39.015  21.604  25.957  1.00  0.00     0.261 C 
BRANCH  27  28
ATOM     28  O   UNL A   1      39.657  20.609  26.778  1.00  0.00    -0.460 OA
BRANCH  28  29
ATOM     29  C   UNL A   1      40.893  20.238  26.372  1.00  0.00     0.338 C 
ATOM     30  O   UNL A   1      41.195  19.216  25.762  1.00  0.00    -0.246 OA
BRANCH  29  31
ATOM     31  C   UNL A   1      41.834  21.354  26.568  1.00  0.00     0.060 A 
ATOM     32  C   UNL A   1      42.199  21.677  27.883  1.00  0.00     0.016 A 
ATOM     33  C   UNL A   1      42.306  22.106  25.492  1.00  0.00     0.016 A 
ATOM     34  C   UNL A   1      43.004  22.784  28.131  1.00  0.00     0.010 A 
ATOM     35  C   UNL A   1      43.098  23.230  25.744  1.00  0.00     0.010 A 
ATOM     36  C   UNL A   1      43.420  23.592  27.066  1.00  0.00    -0.014 A 
BRANCH  36  37
ATOM     37  C   UNL A   1      44.044  24.905  27.344  1.00  0.00     0.031 A 
ATOM     38  C   UNL A   1      43.168  26.032  27.820  1.00  0.00     0.074 A 
ATOM     39  C   UNL A   1      45.368  25.085  27.195  1.00  0.00     0.049 A 
ATOM     40  N   UNL A   1      43.482  27.276  28.068  1.00  0.00    -0.248 NA
ATOM     41  C   UNL A   1      41.748  25.711  28.044  1.00  0.00     0.031 C 
ATOM     42  C   UNL A   1      46.323  24.053  26.793  1.00  0.00     0.029 A 
ATOM     43  N   UNL A   1      46.134  26.210  27.358  1.00  0.00    -0.354 N 
ATOM     44  C   UNL A   1      42.300  27.890  28.466  1.00  0.00     0.074 A 
ATOM     45  C   UNL A   1      41.259  26.888  28.405  1.00  0.00     0.031 C 
ATOM     46  C   UNL A   1      47.550  24.599  26.728  1.00  0.00     0.029 A 
ATOM     47  C   UNL A   1      47.460  26.022  27.047  1.00  0.00     0.049 A 
ATOM     48  H   UNL A   1      45.770  27.071  27.668  1.00  0.00     0.167 HD
ATOM     49  C   UNL A   1      42.102  29.173  28.850  1.00  0.00     0.031 A 
ATOM     50  C   UNL A   1      48.476  26.905  26.998  1.00  0.00     0.031 A 
ATOM     51  C   UNL A   1      43.139  30.168  28.894  1.00  0.00     0.049 A 
ATOM     52  C   UNL A   1      48.214  28.348  27.348  1.00  0.00     0.074 A 
ATOM     53  C   UNL A   1      43.045  31.494  29.278  1.00  0.00     0.029 A 
ATOM     54  N   UNL A   1      44.459  29.949  28.531  1.00  0.00    -0.354 N 
ATOM     55  N   UNL A   1      47.095  28.911  27.737  1.00  0.00    -0.248 NA
ATOM     56  C   UNL A   1      49.353  29.271  27.252  1.00  0.00     0.031 C 
ATOM     57  C   UNL A   1      44.297  32.091  29.093  1.00  0.00     0.029 A 
ATOM     58  C   UNL A   1      45.184  31.122  28.652  1.00  0.00     0.049 A 
ATOM     59  H   UNL A   1      44.827  29.085  28.232  1.00  0.00     0.167 HD
ATOM     60  C   UNL A   1      47.400  30.251  27.954  1.00  0.00     0.074 A 
ATOM     61  C   UNL A   1      48.812  30.409  27.667  1.00  0.00     0.031 C 
ATOM     62  C   UNL A   1      46.588  31.260  28.354  1.00  0.00     0.031 A 
BRANCH  49  63
ATOM     63  C   UNL A   1      40.698  29.580  29.213  1.00  0.00    -0.014 A 
ATOM     64  C   UNL A   1      39.684  29.648  28.242  1.00  0.00     0.010 A 
ATOM     65  C   UNL A   1      40.384  29.869  30.554  1.00  0.00     0.010 A 
ATOM     66  C   UNL A   1      38.388  30.036  28.599  1.00  0.00     0.020 A 
ATOM     67  C   UNL A   1      39.086  30.231  30.920  1.00  0.00     0.020 A 
ATOM     68  C   UNL A   1      38.099  30.328  29.936  1.00  0.00     0.054 A 
BRANCH  68  69
ATOM     69  S   UNL A   1      36.407  30.809  30.376  1.00  0.00     0.124 S 
ATOM     70  O   UNL A   1      35.721  30.707  29.089  1.00  0.00    -0.237 OA
ATOM     71  O   UNL A   1      36.035  29.802  31.366  1.00  0.00    -0.237 OA
ATOM     72  O   UNL A   1      36.554  32.165  30.896  1.00  0.00    -0.744 OA
ENDBRANCH  68  69
ENDBRANCH  49  63
BRANCH  50  73
ATOM     73  C   UNL A   1      49.828  26.457  26.571  1.00  0.00    -0.014 A 
ATOM     74  C   UNL A   1      50.735  25.918  27.500  1.00  0.00     0.010 A 
ATOM     75  C   UNL A   1      50.216  26.567  25.222  1.00  0.00     0.010 A 
ATOM     76  C   UNL A   1      52.008  25.509  27.091  1.00  0.00     0.020 A 
ATOM     77  C   UNL A   1      51.478  26.135  24.805  1.00  0.00     0.020 A 
ATOM     78  C   UNL A   1      52.370  25.618  25.746  1.00  0.00     0.054 A 
BRANCH  78  79
ATOM     79  S   UNL A   1      54.007  25.032  25.226  1.00  0.00     0.124 S 
ATOM     80  O   UNL A   1      54.306  25.919  24.107  1.00  0.00    -0.237 OA
ATOM     81  O   UNL A   1      54.812  25.236  26.429  1.00  0.00    -0.237 OA
ATOM     82  O   UNL A   1      53.772  23.633  24.873  1.00  0.00    -0.744 OA
ENDBRANCH  78  79
ENDBRANCH  50  73
BRANCH  62  83
ATOM     83  C   UNL A   1      47.207  32.622  28.531  1.00  0.00    -0.014 A 
ATOM     84  C   UNL A   1      47.788  33.003  29.753  1.00  0.00     0.010 A 
ATOM     85  C   UNL A   1      47.258  33.509  27.440  1.00  0.00     0.010 A 
ATOM     86  C   UNL A   1      48.385  34.260  29.889  1.00  0.00     0.020 A 
ATOM     87  C   UNL A   1      47.878  34.755  27.563  1.00  0.00     0.020 A 
ATOM     88  C   UNL A   1      48.426  35.127  28.793  1.00  0.00     0.054 A 
BRANCH  88  89
ATOM     89  S   UNL A   1      49.247  36.733  28.981  1.00  0.00     0.124 S 
ATOM     90  O   UNL A   1      48.157  37.666  28.711  1.00  0.00    -0.237 OA
ATOM     91  O   UNL A   1      49.713  36.695  30.366  1.00  0.00    -0.237 OA
ATOM     92  O   UNL A   1      50.305  36.703  27.974  1.00  0.00    -0.744 OA
ENDBRANCH  88  89
ENDBRANCH  62  83
ENDBRANCH  36  37
ENDBRANCH  29  31
ENDBRANCH  28  29
ENDBRANCH  27  28
ENDBRANCH   1  27
TORSDOF 20
ENDMDL
MODEL 2
REMARK VINA RESULT:     -10.6      2.747      8.379
REMARK SMILES Cc1cc(F)cc(N[C@H](C(=O)OCCOCCOC(=O)c2ccc(-c3c4nc(c(-c5ccc(S(=O)(=O)[O-])cc5)c5ccc([nH]5)c(-c5ccc(S(=O)(=O)[O-])cc5)c5nc(c(-c6ccc(S(=O)(=O)[O-])cc6)c6ccc3[nH]6)C=C5)C=C4)cc2)c2cc(C)cc(C)c2)c1
REMARK SMILES IDX 16 1 15 2 14 3 13 4 12 5 10 6 11 7 9 8 8 9 7 11 1 12 2 13
REMARK SMILES IDX 3 14 89 15 4 16 5 17 6 18 81 19 82 20 88 21 83 22 86 23
REMARK SMILES IDX 84 24 85 25 87 26 17 27 18 28 19 29 20 30 21 31 22 32 80 33
REMARK SMILES IDX 23 34 79 35 24 36 25 37 26 38 73 39 27 40 78 41 72 42 74 43
REMARK SMILES IDX 28 44 77 45 71 46 70 47 29 49 59 50 40 51 58 52 41 53 44 54
REMARK SMILES IDX 57 55 75 56 42 57 43 58 56 60 76 61 45 62 30 63 31 64 39 65
REMARK SMILES IDX 32 66 38 67 33 68 34 69 35 70 36 71 37 72 60 73 61 74 69 75
REMARK SMILES IDX 62 76 68 77 63 78 64 79 65 80 66 81 67 82 46 83 47 84 55 85
REMARK SMILES IDX 48 86 54 87 49 88 50 89 51 90 52 91 53 92
REMARK H PARENT 8 10 74 48 44 59
REMARK Flexibility Score: inf
ROOT
ATOM      1  C   UNL A   1      34.760  31.234  27.546  1.00  0.00     0.202 C 
ENDROOT
BRANCH   1   2
ATOM      2  O   UNL A   1      33.564  30.568  27.133  1.00  0.00    -0.374 OA
BRANCH   2   3
ATOM      3  C   UNL A   1      33.701  29.369  26.375  1.00  0.00     0.202 C 
BRANCH   3   4
ATOM      4  C   UNL A   1      32.436  28.748  25.778  1.00  0.00     0.261 C 
BRANCH   4   5
ATOM      5  O   UNL A   1      31.987  29.392  24.584  1.00  0.00    -0.461 OA
BRANCH   5   6
ATOM      6  C   UNL A   1      32.568  28.901  23.450  1.00  0.00     0.333 C 
ATOM      7  O   UNL A   1      33.780  28.927  23.244  1.00  0.00    -0.249 OA
BRANCH   6   8
ATOM      8  C   UNL A   1      31.557  28.211  22.512  1.00  0.00     0.221 C 
BRANCH   8   9
ATOM      9  N   UNL A   1      31.479  26.734  22.645  1.00  0.00    -0.369 N 
ATOM     10  H   UNL A   1      30.828  26.299  22.048  1.00  0.00     0.161 HD
BRANCH   9  11
ATOM     11  C   UNL A   1      32.175  25.874  23.474  1.00  0.00     0.038 A 
ATOM     12  C   UNL A   1      31.585  24.090  26.831  1.00  0.00     0.044 C 
ATOM     13  C   UNL A   1      32.251  24.596  25.587  1.00  0.00    -0.046 A 
ATOM     14  C   UNL A   1      33.581  24.253  25.345  1.00  0.00     0.042 A 
ATOM     15  C   UNL A   1      31.576  25.429  24.669  1.00  0.00     0.029 A 
ATOM     16  C   UNL A   1      34.178  24.677  24.175  1.00  0.00     0.125 A 
ATOM     17  F   UNL A   1      35.453  24.351  23.920  1.00  0.00    -0.207 F 
ATOM     18  C   UNL A   1      33.477  25.440  23.245  1.00  0.00     0.065 A 
ENDBRANCH   9  11
ENDBRANCH   8   9
BRANCH   8  19
ATOM     19  C   UNL A   1      30.190  28.890  22.519  1.00  0.00    -0.014 A 
ATOM     20  C   UNL A   1      29.121  28.325  23.232  1.00  0.00     0.010 A 
ATOM     21  C   UNL A   1      29.952  30.086  21.830  1.00  0.00     0.010 A 
ATOM     22  C   UNL A   1      27.821  28.807  23.134  1.00  0.00    -0.051 A 
ATOM     23  C   UNL A   1      28.674  30.670  21.837  1.00  0.00    -0.051 A 
ATOM     24  C   UNL A   1      26.705  27.964  23.673  1.00  0.00     0.044 C 
ATOM     25  C   UNL A   1      27.603  29.992  22.438  1.00  0.00     0.006 A 
ATOM     26  C   UNL A   1      28.425  31.997  21.184  1.00  0.00     0.044 C 
ENDBRANCH   8  19
ENDBRANCH   6   8
ENDBRANCH   5   6
ENDBRANCH   4   5
ENDBRANCH   3   4
ENDBRANCH   2   3
ENDBRANCH   1   2
BRANCH   1  27
ATOM     27  C   UNL A   1      35.198  31.028  29.000  1.00  0.00     0.261 C 
BRANCH  27  28
ATOM     28  O   UNL A   1      35.939  29.802  29.156  1.00  0.00    -0.460 OA
BRANCH  28  29
ATOM     29  C   UNL A   1      36.721  29.740  30.257  1.00  0.00     0.338 C 
ATOM     30  O   UNL A   1      36.360  29.517  31.409  1.00  0.00    -0.246 OA
BRANCH  29  31
ATOM     31  C   UNL A   1      38.139  29.756  29.859  1.00  0.00     0.060 A 
ATOM     32  C   UNL A   1      38.432  29.867  28.492  1.00  0.00     0.016 A 
ATOM     33  C   UNL A   1      39.161  29.609  30.797  1.00  0.00     0.016 A 
ATOM     34  C   UNL A   1      39.749  29.786  28.052  1.00  0.00     0.010 A 
ATOM     35  C   UNL A   1      40.482  29.508  30.352  1.00  0.00     0.010 A 
ATOM     36  C   UNL A   1      40.777  29.560  28.977  1.00  0.00    -0.014 A 
BRANCH  36  37
ATOM     37  C   UNL A   1      42.131  29.210  28.494  1.00  0.00     0.031 A 
ATOM     38  C   UNL A   1      42.402  27.789  28.080  1.00  0.00     0.074 A 
ATOM     39  C   UNL A   1      43.096  30.143  28.407  1.00  0.00     0.049 A 
ATOM     40  N   UNL A   1      43.521  27.241  27.684  1.00  0.00    -0.248 NA
ATOM     41  C   UNL A   1      41.257  26.863  28.121  1.00  0.00     0.031 C 
ATOM     42  C   UNL A   1      42.934  31.559  28.728  1.00  0.00     0.029 A 
ATOM     43  N   UNL A   1      44.409  30.028  28.029  1.00  0.00    -0.354 N 
ATOM     44  C   UNL A   1      43.220  25.907  27.438  1.00  0.00     0.074 A 
ATOM     45  C   UNL A   1      41.820  25.722  27.752  1.00  0.00     0.031 C 
ATOM     46  C   UNL A   1      44.111  32.183  28.544  1.00  0.00     0.029 A 
ATOM     47  C   UNL A   1      45.113  31.204  28.130  1.00  0.00     0.049 A 
ATOM     48  H   UNL A   1      44.809  29.185  27.715  1.00  0.00     0.167 HD
ATOM     49  C   UNL A   1      44.037  24.925  26.990  1.00  0.00     0.031 A 
ATOM     50  C   UNL A   1      46.424  31.451  27.939  1.00  0.00     0.031 A 
ATOM     51  C   UNL A   1      45.432  25.112  26.696  1.00  0.00     0.049 A 
ATOM     52  C   UNL A   1      47.333  30.324  27.523  1.00  0.00     0.074 A 
ATOM     53  C   UNL A   1      46.345  24.184  26.227  1.00  0.00     0.029 A 
ATOM     54  N   UNL A   1      46.118  26.307  26.851  1.00  0.00    -0.354 N 
ATOM     55  N   UNL A   1      47.032  29.070  27.280  1.00  0.00    -0.248 NA
ATOM     56  C   UNL A   1      48.756  30.646  27.354  1.00  0.00     0.031 C 
ATOM     57  C   UNL A   1      47.597  24.805  26.153  1.00  0.00     0.029 A 
ATOM     58  C   UNL A   1      47.450  26.134  26.518  1.00  0.00     0.049 A 
ATOM     59  H   UNL A   1      45.716  27.154  27.154  1.00  0.00     0.167 HD
ATOM     60  C   UNL A   1      48.225  28.459  26.908  1.00  0.00     0.074 A 
ATOM     61  C   UNL A   1      49.248  29.484  26.944  1.00  0.00     0.031 C 
ATOM     62  C   UNL A   1      48.455  27.167  26.567  1.00  0.00     0.031 A 
BRANCH  49  63
ATOM     63  C   UNL A   1      43.446  23.548  26.833  1.00  0.00    -0.014 A 
ATOM     64  C   UNL A   1      43.073  23.055  25.570  1.00  0.00     0.010 A 
ATOM     65  C   UNL A   1      43.291  22.726  27.964  1.00  0.00     0.010 A 
ATOM     66  C   UNL A   1      42.520  21.776  25.446  1.00  0.00     0.020 A 
ATOM     67  C   UNL A   1      42.763  21.438  27.841  1.00  0.00     0.020 A 
ATOM     68  C   UNL A   1      42.365  20.978  26.584  1.00  0.00     0.054 A 
BRANCH  68  69
ATOM     69  S   UNL A   1      41.663  19.317  26.393  1.00  0.00     0.124 S 
ATOM     70  O   UNL A   1      42.627  18.683  25.496  1.00  0.00    -0.237 OA
ATOM     71  O   UNL A   1      41.657  18.813  27.764  1.00  0.00    -0.237 OA
ATOM     72  O   UNL A   1      40.343  19.561  25.817  1.00  0.00    -0.744 OA
ENDBRANCH  68  69
ENDBRANCH  49  63
BRANCH  50  73
ATOM     73  C   UNL A   1      46.962  32.819  28.172  1.00  0.00    -0.014 A 
ATOM     74  C   UNL A   1      47.379  33.220  29.453  1.00  0.00     0.010 A 
ATOM     75  C   UNL A   1      47.063  33.729  27.103  1.00  0.00     0.010 A 
ATOM     76  C   UNL A   1      47.873  34.511  29.664  1.00  0.00     0.020 A 
ATOM     77  C   UNL A   1      47.581  35.011  27.305  1.00  0.00     0.020 A 
ATOM     78  C   UNL A   1      47.974  35.398  28.588  1.00  0.00     0.054 A 
BRANCH  78  79
ATOM     79  S   UNL A   1      48.669  37.049  28.872  1.00  0.00     0.124 S 
ATOM     80  O   UNL A   1      47.748  37.600  29.861  1.00  0.00    -0.237 OA
ATOM     81  O   UNL A   1      50.014  36.747  29.358  1.00  0.00    -0.237 OA
ATOM     82  O   UNL A   1      48.618  37.672  27.551  1.00  0.00    -0.744 OA
ENDBRANCH  78  79
ENDBRANCH  50  73
BRANCH  62  83
ATOM     83  C   UNL A   1      49.861  26.790  26.181  1.00  0.00    -0.014 A 
ATOM     84  C   UNL A   1      50.694  26.084  27.067  1.00  0.00     0.010 A 
ATOM     85  C   UNL A   1      50.333  27.095  24.891  1.00  0.00     0.010 A 
ATOM     86  C   UNL A   1      51.985  25.716  26.680  1.00  0.00     0.020 A 
ATOM     87  C   UNL A   1      51.613  26.703  24.490  1.00  0.00     0.020 A 
ATOM     88  C   UNL A   1      52.436  26.028  25.393  1.00  0.00     0.054 A 
BRANCH  88  89
ATOM     89  S   UNL A   1      54.099  25.498  24.898  1.00  0.00     0.124 S 
ATOM     90  O   UNL A   1      54.224  26.090  23.570  1.00  0.00    -0.237 OA
ATOM     91  O   UNL A   1      54.945  26.088  25.933  1.00  0.00    -0.237 OA
ATOM     92  O   UNL A   1      54.020  24.039  24.925  1.00  0.00    -0.744 OA
ENDBRANCH  88  89
ENDBRANCH  62  83
ENDBRANCH  36  37
ENDBRANCH  29  31
ENDBRANCH  28  29
ENDBRANCH  27  28
ENDBRANCH   1  27
TORSDOF 20
ENDMDL
MODEL 3
REMARK VINA RESULT:     -10.5      5.602     10.348
REMARK SMILES Cc1cc(F)cc(N[C@H](C(=O)OCCOCCOC(=O)c2ccc(-c3c4nc(c(-c5ccc(S(=O)(=O)[O-])cc5)c5ccc([nH]5)c(-c5ccc(S(=O)(=O)[O-])cc5)c5nc(c(-c6ccc(S(=O)(=O)[O-])cc6)c6ccc3[nH]6)C=C5)C=C4)cc2)c2cc(C)cc(C)c2)c1
REMARK SMILES IDX 16 1 15 2 14 3 13 4 12 5 10 6 11 7 9 8 8 9 7 11 1 12 2 13
REMARK SMILES IDX 3 14 89 15 4 16 5 17 6 18 81 19 82 20 88 21 83 22 86 23
REMARK SMILES IDX 84 24 85 25 87 26 17 27 18 28 19 29 20 30 21 31 22 32 80 33
REMARK SMILES IDX 23 34 79 35 24 36 25 37 26 38 73 39 27 40 78 41 72 42 74 43
REMARK SMILES IDX 28 44 77 45 71 46 70 47 29 49 59 50 40 51 58 52 41 53 44 54
REMARK SMILES IDX 57 55 75 56 42 57 43 58 56 60 76 61 45 62 30 63 31 64 39 65
REMARK SMILES IDX 32 66 38 67 33 68 34 69 35 70 36 71 37 72 60 73 61 74 69 75
REMARK SMILES IDX 62 76 68 77 63 78 64 79 65 80 66 81 67 82 46 83 47 84 55 85
REMARK SMILES IDX 48 86 54 87 49 88 50 89 51 90 52 91 53 92
REMARK H PARENT 8 10 74 48 44 59
REMARK Flexibility Score: inf
ROOT
ATOM      1  C   UNL A   1      40.838  21.483  26.623  1.00  0.00     0.202 C 
ENDROOT
BRANCH   1   2
ATOM      2  O   UNL A   1      39.564  22.090  26.391  1.00  0.00    -0.374 OA
BRANCH   2   3
ATOM      3  C   UNL A   1      38.594  21.338  25.668  1.00  0.00     0.202 C 
BRANCH   3   4
ATOM      4  C   UNL A   1      37.385  22.084  25.098  1.00  0.00     0.261 C 
BRANCH   4   5
ATOM      5  O   UNL A   1      36.129  21.596  25.577  1.00  0.00    -0.461 OA
BRANCH   5   6
ATOM      6  C   UNL A   1      35.152  22.548  25.609  1.00  0.00     0.333 C 
ATOM      7  O   UNL A   1      35.250  23.599  26.239  1.00  0.00    -0.249 OA
BRANCH   6   8
ATOM      8  C   UNL A   1      33.964  22.215  24.682  1.00  0.00     0.221 C 
BRANCH   8   9
ATOM      9  N   UNL A   1      33.102  21.096  25.138  1.00  0.00    -0.369 N 
ATOM     10  H   UNL A   1      32.616  21.264  25.978  1.00  0.00     0.161 HD
BRANCH   9  11
ATOM     11  C   UNL A   1      32.874  19.856  24.572  1.00  0.00     0.038 A 
ATOM     12  C   UNL A   1      32.966  16.177  25.696  1.00  0.00     0.044 C 
ATOM     13  C   UNL A   1      32.858  17.399  24.834  1.00  0.00    -0.046 A 
ATOM     14  C   UNL A   1      32.615  17.244  23.469  1.00  0.00     0.042 A 
ATOM     15  C   UNL A   1      33.019  18.698  25.362  1.00  0.00     0.029 A 
ATOM     16  C   UNL A   1      32.464  18.370  22.685  1.00  0.00     0.125 A 
ATOM     17  F   UNL A   1      32.221  18.242  21.374  1.00  0.00    -0.207 F 
ATOM     18  C   UNL A   1      32.556  19.646  23.234  1.00  0.00     0.065 A 
ENDBRANCH   9  11
ENDBRANCH   8   9
BRANCH   8  19
ATOM     19  C   UNL A   1      33.176  23.455  24.269  1.00  0.00    -0.014 A 
ATOM     20  C   UNL A   1      32.247  24.030  25.149  1.00  0.00     0.010 A 
ATOM     21  C   UNL A   1      33.349  24.061  23.017  1.00  0.00     0.010 A 
ATOM     22  C   UNL A   1      31.385  25.051  24.762  1.00  0.00    -0.051 A 
ATOM     23  C   UNL A   1      32.587  25.187  22.660  1.00  0.00    -0.051 A 
ATOM     24  C   UNL A   1      30.228  25.385  25.655  1.00  0.00     0.044 C 
ATOM     25  C   UNL A   1      31.565  25.634  23.512  1.00  0.00     0.006 A 
ATOM     26  C   UNL A   1      32.824  25.903  21.365  1.00  0.00     0.044 C 
ENDBRANCH   8  19
ENDBRANCH   6   8
ENDBRANCH   5   6
ENDBRANCH   4   5
ENDBRANCH   3   4
ENDBRANCH   2   3
ENDBRANCH   1   2
BRANCH   1  27
ATOM     27  C   UNL A   1      42.045  22.128  25.935  1.00  0.00     0.261 C 
BRANCH  27  28
ATOM     28  O   UNL A   1      42.639  23.146  26.763  1.00  0.00    -0.460 OA
BRANCH  28  29
ATOM     29  C   UNL A   1      42.760  24.361  26.183  1.00  0.00     0.338 C 
ATOM     30  O   UNL A   1      43.058  24.597  25.015  1.00  0.00    -0.246 OA
BRANCH  29  31
ATOM     31  C   UNL A   1      42.261  25.400  27.101  1.00  0.00     0.060 A 
ATOM     32  C   UNL A   1      42.931  26.631  27.119  1.00  0.00     0.016 A 
ATOM     33  C   UNL A   1      41.195  25.155  27.967  1.00  0.00     0.016 A 
ATOM     34  C   UNL A   1      42.566  27.610  28.038  1.00  0.00     0.010 A 
ATOM     35  C   UNL A   1      40.841  26.132  28.902  1.00  0.00     0.010 A 
ATOM     36  C   UNL A   1      41.548  27.347  28.964  1.00  0.00    -0.014 A 
BRANCH  36  37
ATOM     37  C   UNL A   1      41.339  28.269  30.102  1.00  0.00     0.031 A 
ATOM     38  C   UNL A   1      42.224  28.133  31.312  1.00  0.00     0.074 A 
ATOM     39  C   UNL A   1      40.393  29.224  30.053  1.00  0.00     0.049 A 
ATOM     40  N   UNL A   1      42.186  28.786  32.443  1.00  0.00    -0.248 NA
ATOM     41  C   UNL A   1      43.293  27.122  31.233  1.00  0.00     0.031 C 
ATOM     42  C   UNL A   1      39.515  29.486  28.914  1.00  0.00     0.029 A 
ATOM     43  N   UNL A   1      40.011  30.144  30.994  1.00  0.00    -0.354 N 
ATOM     44  C   UNL A   1      43.216  28.260  33.215  1.00  0.00     0.074 A 
ATOM     45  C   UNL A   1      43.845  27.219  32.433  1.00  0.00     0.031 C 
ATOM     46  C   UNL A   1      38.684  30.495  29.229  1.00  0.00     0.029 A 
ATOM     47  C   UNL A   1      38.949  30.923  30.602  1.00  0.00     0.049 A 
ATOM     48  H   UNL A   1      40.455  30.239  31.868  1.00  0.00     0.167 HD
ATOM     49  C   UNL A   1      43.602  28.616  34.463  1.00  0.00     0.031 A 
ATOM     50  C   UNL A   1      38.252  31.852  31.285  1.00  0.00     0.031 A 
ATOM     51  C   UNL A   1      42.961  29.641  35.241  1.00  0.00     0.049 A 
ATOM     52  C   UNL A   1      38.646  32.171  32.704  1.00  0.00     0.074 A 
ATOM     53  C   UNL A   1      43.282  30.085  36.512  1.00  0.00     0.029 A 
ATOM     54  N   UNL A   1      41.863  30.378  34.825  1.00  0.00    -0.354 N 
ATOM     55  N   UNL A   1      39.631  31.678  33.416  1.00  0.00    -0.248 NA
ATOM     56  C   UNL A   1      37.836  33.174  33.408  1.00  0.00     0.031 C 
ATOM     57  C   UNL A   1      42.341  31.050  36.887  1.00  0.00     0.029 A 
ATOM     58  C   UNL A   1      41.471  31.250  35.826  1.00  0.00     0.049 A 
ATOM     59  H   UNL A   1      41.425  30.292  33.947  1.00  0.00     0.167 HD
ATOM     60  C   UNL A   1      39.571  32.325  34.646  1.00  0.00     0.074 A 
ATOM     61  C   UNL A   1      38.464  33.256  34.574  1.00  0.00     0.031 C 
ATOM     62  C   UNL A   1      40.361  32.166  35.737  1.00  0.00     0.031 A 
BRANCH  49  63
ATOM     63  C   UNL A   1      44.748  27.856  35.078  1.00  0.00    -0.014 A 
ATOM     64  C   UNL A   1      46.072  28.317  34.967  1.00  0.00     0.010 A 
ATOM     65  C   UNL A   1      44.490  26.678  35.802  1.00  0.00     0.010 A 
ATOM     66  C   UNL A   1      47.122  27.593  35.539  1.00  0.00     0.020 A 
ATOM     67  C   UNL A   1      45.534  25.965  36.398  1.00  0.00     0.020 A 
ATOM     68  C   UNL A   1      46.847  26.419  36.248  1.00  0.00     0.054 A 
BRANCH  68  69
ATOM     69  S   UNL A   1      48.225  25.509  36.996  1.00  0.00     0.124 S 
ATOM     70  O   UNL A   1      47.815  24.121  36.793  1.00  0.00    -0.237 OA
ATOM     71  O   UNL A   1      49.368  25.948  36.199  1.00  0.00    -0.237 OA
ATOM     72  O   UNL A   1      48.227  25.960  38.385  1.00  0.00    -0.744 OA
ENDBRANCH  68  69
ENDBRANCH  49  63
BRANCH  50  73
ATOM     73  C   UNL A   1      37.089  32.525  30.646  1.00  0.00    -0.014 A 
ATOM     74  C   UNL A   1      37.262  33.694  29.885  1.00  0.00     0.010 A 
ATOM     75  C   UNL A   1      35.795  31.992  30.796  1.00  0.00     0.010 A 
ATOM     76  C   UNL A   1      36.162  34.325  29.297  1.00  0.00     0.020 A 
ATOM     77  C   UNL A   1      34.696  32.606  30.188  1.00  0.00     0.020 A 
ATOM     78  C   UNL A   1      34.886  33.775  29.450  1.00  0.00     0.054 A 
BRANCH  78  79
ATOM     79  S   UNL A   1      33.479  34.579  28.635  1.00  0.00     0.124 S 
ATOM     80  O   UNL A   1      33.039  33.548  27.701  1.00  0.00    -0.237 OA
ATOM     81  O   UNL A   1      32.577  34.847  29.753  1.00  0.00    -0.237 OA
ATOM     82  O   UNL A   1      34.071  35.768  28.025  1.00  0.00    -0.744 OA
ENDBRANCH  78  79
ENDBRANCH  50  73
BRANCH  62  83
ATOM     83  C   UNL A   1      40.074  33.032  36.935  1.00  0.00    -0.014 A 
ATOM     84  C   UNL A   1      39.100  32.666  37.881  1.00  0.00     0.010 A 
ATOM     85  C   UNL A   1      40.832  34.198  37.146  1.00  0.00     0.010 A 
ATOM     86  C   UNL A   1      38.870  33.467  39.002  1.00  0.00     0.020 A 
ATOM     87  C   UNL A   1      40.625  34.987  38.281  1.00  0.00     0.020 A 
ATOM     88  C   UNL A   1      39.635  34.623  39.195  1.00  0.00     0.054 A 
BRANCH  88  89
ATOM     89  S   UNL A   1      39.349  35.620  40.683  1.00  0.00     0.124 S 
ATOM     90  O   UNL A   1      38.805  36.854  40.122  1.00  0.00    -0.237 OA
ATOM     91  O   UNL A   1      38.403  34.803  41.440  1.00  0.00    -0.237 OA
ATOM     92  O   UNL A   1      40.676  35.740  41.281  1.00  0.00    -0.744 OA
ENDBRANCH  88  89
ENDBRANCH  62  83
ENDBRANCH  36  37
ENDBRANCH  29  31
ENDBRANCH  28  29
ENDBRANCH  27  28
ENDBRANCH   1  27
TORSDOF 20
ENDMDL
