MODEL 1
REMARK VINA RESULT:     -10.8      0.000      0.000
REMARK SMILES O=C(OCCOCCOC(=O)c1cc(Br)n(Cc2ccn(C3CCCC3)n2)c1)c1ccc(-c2c3nc(c(-c4ccc(S(=O)(=O)[O-])cc4)c4ccc([nH]4)c(-c4ccc(S(=O)(=O)[O-])cc4)c4nc(c(-c5ccc(S(=O)(=O)[O-])cc5)c5ccc2[nH]5)C=C4)C=C3)cc1
REMARK SMILES IDX 6 1 5 2 4 3 3 4 2 5 1 6 29 7 30 8 88 9 31 10 87 11 32 12
REMARK SMILES IDX 33 13 34 14 81 15 35 16 86 17 80 18 82 19 36 20 85 21 79 22
REMARK SMILES IDX 78 23 37 25 67 26 48 27 66 28 49 29 52 30 65 31 83 32 50 33
REMARK SMILES IDX 51 34 64 36 84 37 53 38 38 39 39 40 47 41 40 42 46 43 41 44
REMARK SMILES IDX 42 45 43 46 44 47 45 48 68 49 69 50 77 51 70 52 76 53 71 54
REMARK SMILES IDX 72 55 73 56 74 57 75 58 54 59 55 60 63 61 56 62 62 63 57 64
REMARK SMILES IDX 58 65 59 66 60 67 61 68 7 69 8 70 9 71 10 72 11 73 12 74
REMARK SMILES IDX 13 75 28 76 14 77 16 78 15 79 17 80 18 81 19 82 27 83 20 84
REMARK SMILES IDX 21 85 22 86 23 87 26 88 24 89 25 90
REMARK H PARENT 82 24 52 35
REMARK Flexibility Score: inf
ROOT
ATOM      1  O   UNL A   1      40.495  21.585  26.940  1.00  0.00    -0.374 OA
ENDROOT
BRANCH   1   2
ATOM      2  C   UNL A   1      41.369  20.845  26.091  1.00  0.00     0.202 C 
BRANCH   2   3
ATOM      3  C   UNL A   1      42.758  21.402  25.768  1.00  0.00     0.261 C 
BRANCH   3   4
ATOM      4  O   UNL A   1      42.712  22.496  24.834  1.00  0.00    -0.460 OA
BRANCH   4   5
ATOM      5  C   UNL A   1      43.178  23.735  25.097  1.00  0.00     0.338 C 
ATOM      6  O   UNL A   1      44.151  24.179  24.493  1.00  0.00    -0.246 OA
BRANCH   5   7
ATOM      7  C   UNL A   1      42.359  24.639  25.945  1.00  0.00     0.060 A 
ATOM      8  C   UNL A   1      41.809  25.850  25.521  1.00  0.00     0.016 A 
ATOM      9  C   UNL A   1      42.312  24.296  27.301  1.00  0.00     0.016 A 
ATOM     10  C   UNL A   1      41.617  26.860  26.426  1.00  0.00     0.010 A 
ATOM     11  C   UNL A   1      42.016  25.270  28.222  1.00  0.00     0.010 A 
ATOM     12  C   UNL A   1      41.838  26.572  27.761  1.00  0.00    -0.014 A 
BRANCH  12  13
ATOM     13  C   UNL A   1      41.858  27.679  28.685  1.00  0.00     0.031 A 
ATOM     14  C   UNL A   1      43.052  28.552  28.531  1.00  0.00     0.074 A 
ATOM     15  C   UNL A   1      40.778  27.860  29.471  1.00  0.00     0.049 A 
ATOM     16  N   UNL A   1      43.899  28.936  29.427  1.00  0.00    -0.248 NA
ATOM     17  C   UNL A   1      43.448  28.903  27.150  1.00  0.00     0.031 C 
ATOM     18  C   UNL A   1      39.510  27.111  29.452  1.00  0.00     0.029 A 
ATOM     19  N   UNL A   1      40.500  28.866  30.330  1.00  0.00    -0.354 N 
ATOM     20  C   UNL A   1      44.801  29.760  28.758  1.00  0.00     0.074 A 
ATOM     21  C   UNL A   1      44.594  29.548  27.351  1.00  0.00     0.031 C 
ATOM     22  C   UNL A   1      38.535  27.881  29.982  1.00  0.00     0.029 A 
ATOM     23  C   UNL A   1      39.139  29.096  30.496  1.00  0.00     0.049 A 
ATOM     24  H   UNL A   1      41.195  29.386  30.794  1.00  0.00     0.167 HD
ATOM     25  C   UNL A   1      45.457  30.771  29.391  1.00  0.00     0.031 A 
ATOM     26  C   UNL A   1      38.565  30.263  30.892  1.00  0.00     0.031 A 
ATOM     27  C   UNL A   1      45.494  30.577  30.813  1.00  0.00     0.049 A 
ATOM     28  C   UNL A   1      39.650  31.080  31.505  1.00  0.00     0.074 A 
ATOM     29  C   UNL A   1      46.043  29.615  31.636  1.00  0.00     0.029 A 
ATOM     30  N   UNL A   1      44.539  31.223  31.565  1.00  0.00    -0.354 N 
ATOM     31  N   UNL A   1      40.293  30.714  32.583  1.00  0.00    -0.248 NA
ATOM     32  C   UNL A   1      40.368  32.008  30.642  1.00  0.00     0.031 C 
ATOM     33  C   UNL A   1      45.066  29.405  32.652  1.00  0.00     0.029 A 
ATOM     34  C   UNL A   1      44.017  30.304  32.442  1.00  0.00     0.049 A 
ATOM     35  H   UNL A   1      44.279  32.169  31.489  1.00  0.00     0.167 HD
ATOM     36  C   UNL A   1      41.626  31.019  32.332  1.00  0.00     0.074 A 
ATOM     37  C   UNL A   1      41.600  31.883  31.149  1.00  0.00     0.031 C 
ATOM     38  C   UNL A   1      42.644  30.308  32.906  1.00  0.00     0.031 A 
BRANCH  25  39
ATOM     39  C   UNL A   1      45.668  32.115  28.743  1.00  0.00    -0.014 A 
ATOM     40  C   UNL A   1      46.958  32.677  28.730  1.00  0.00     0.010 A 
ATOM     41  C   UNL A   1      44.592  32.968  28.406  1.00  0.00     0.010 A 
ATOM     42  C   UNL A   1      47.147  34.040  28.464  1.00  0.00     0.020 A 
ATOM     43  C   UNL A   1      44.774  34.314  28.099  1.00  0.00     0.020 A 
ATOM     44  C   UNL A   1      46.050  34.852  28.168  1.00  0.00     0.054 A 
BRANCH  44  45
ATOM     45  S   UNL A   1      46.289  36.632  27.957  1.00  0.00     0.124 S 
ATOM     46  O   UNL A   1      44.913  37.107  27.842  1.00  0.00    -0.237 OA
ATOM     47  O   UNL A   1      46.986  36.996  29.188  1.00  0.00    -0.237 OA
ATOM     48  O   UNL A   1      47.090  36.729  26.740  1.00  0.00    -0.744 OA
ENDBRANCH  44  45
ENDBRANCH  25  39
BRANCH  26  49
ATOM     49  C   UNL A   1      37.304  30.842  30.347  1.00  0.00    -0.014 A 
ATOM     50  C   UNL A   1      36.530  31.763  31.076  1.00  0.00     0.010 A 
ATOM     51  C   UNL A   1      36.977  30.663  28.983  1.00  0.00     0.010 A 
ATOM     52  C   UNL A   1      35.499  32.499  30.457  1.00  0.00     0.020 A 
ATOM     53  C   UNL A   1      35.951  31.386  28.362  1.00  0.00     0.020 A 
ATOM     54  C   UNL A   1      35.225  32.316  29.098  1.00  0.00     0.054 A 
BRANCH  54  55
ATOM     55  S   UNL A   1      34.000  33.374  28.270  1.00  0.00     0.124 S 
ATOM     56  O   UNL A   1      34.840  34.249  27.457  1.00  0.00    -0.237 OA
ATOM     57  O   UNL A   1      33.192  32.409  27.530  1.00  0.00    -0.237 OA
ATOM     58  O   UNL A   1      33.309  34.034  29.377  1.00  0.00    -0.744 OA
ENDBRANCH  54  55
ENDBRANCH  26  49
BRANCH  38  59
ATOM     59  C   UNL A   1      42.298  29.267  33.954  1.00  0.00    -0.014 A 
ATOM     60  C   UNL A   1      41.849  27.966  33.643  1.00  0.00     0.010 A 
ATOM     61  C   UNL A   1      42.628  29.553  35.287  1.00  0.00     0.010 A 
ATOM     62  C   UNL A   1      41.717  26.987  34.643  1.00  0.00     0.020 A 
ATOM     63  C   UNL A   1      42.516  28.579  36.285  1.00  0.00     0.020 A 
ATOM     64  C   UNL A   1      42.054  27.303  35.961  1.00  0.00     0.054 A 
BRANCH  64  65
ATOM     65  S   UNL A   1      41.940  26.024  37.246  1.00  0.00     0.124 S 
ATOM     66  O   UNL A   1      42.933  26.464  38.222  1.00  0.00    -0.237 OA
ATOM     67  O   UNL A   1      40.547  26.119  37.679  1.00  0.00    -0.237 OA
ATOM     68  O   UNL A   1      42.274  24.788  36.539  1.00  0.00    -0.744 OA
ENDBRANCH  64  65
ENDBRANCH  38  59
ENDBRANCH  12  13
ENDBRANCH   5   7
ENDBRANCH   4   5
ENDBRANCH   3   4
ENDBRANCH   2   3
ENDBRANCH   1   2
BRANCH   1  69
ATOM     69  C   UNL A   1      39.208  21.950  26.419  1.00  0.00     0.202 C 
BRANCH  69  70
ATOM     70  C   UNL A   1      38.838  23.435  26.284  1.00  0.00     0.261 C 
BRANCH  70  71
ATOM     71  O   UNL A   1      37.424  23.675  26.368  1.00  0.00    -0.460 OA
BRANCH  71  72
ATOM     72  C   UNL A   1      36.777  23.698  25.165  1.00  0.00     0.339 C 
ATOM     73  O   UNL A   1      37.305  23.523  24.083  1.00  0.00    -0.246 OA
BRANCH  72  74
ATOM     74  C   UNL A   1      35.331  23.792  25.331  1.00  0.00     0.078 A 
ATOM     75  C   UNL A   1      34.548  24.950  25.543  1.00  0.00     0.051 A 
ATOM     76  C   UNL A   1      34.442  22.728  25.252  1.00  0.00     0.102 A 
ATOM     77  C   UNL A   1      33.233  24.578  25.363  1.00  0.00     0.086 A 
ATOM     78  N   UNL A   1      33.154  23.207  25.412  1.00  0.00    -0.335 N 
ATOM     79  Br  UNL A   1      31.915  25.836  24.958  1.00  0.00    -0.031 Br
BRANCH  78  80
ATOM     80  C   UNL A   1      31.967  22.343  25.369  1.00  0.00     0.180 C 
BRANCH  80  81
ATOM     81  C   UNL A   1      32.208  20.959  24.832  1.00  0.00     0.082 A 
ATOM     82  C   UNL A   1      32.297  20.558  23.477  1.00  0.00     0.047 A 
ATOM     83  N   UNL A   1      32.520  19.928  25.645  1.00  0.00    -0.176 NA
ATOM     84  C   UNL A   1      32.595  19.223  23.494  1.00  0.00     0.109 A 
ATOM     85  N   UNL A   1      32.742  18.888  24.807  1.00  0.00    -0.269 N 
BRANCH  85  86
ATOM     86  C   UNL A   1      33.192  17.592  25.263  1.00  0.00     0.107 C 
ATOM     87  C   UNL A   1      32.111  16.516  25.315  1.00  0.00     0.027 C 
ATOM     88  C   UNL A   1      34.298  16.932  24.446  1.00  0.00     0.027 C 
ATOM     89  C   UNL A   1      32.912  15.244  25.567  1.00  0.00     0.002 C 
ATOM     90  C   UNL A   1      34.273  15.471  24.901  1.00  0.00     0.002 C 
ENDBRANCH  85  86
ENDBRANCH  80  81
ENDBRANCH  78  80
ENDBRANCH  72  74
ENDBRANCH  71  72
ENDBRANCH  70  71
ENDBRANCH  69  70
ENDBRANCH   1  69
TORSDOF 20
ENDMDL
MODEL 2
REMARK VINA RESULT:     -10.4      2.585      8.752
REMARK SMILES O=C(OCCOCCOC(=O)c1cc(Br)n(Cc2ccn(C3CCCC3)n2)c1)c1ccc(-c2c3nc(c(-c4ccc(S(=O)(=O)[O-])cc4)c4ccc([nH]4)c(-c4ccc(S(=O)(=O)[O-])cc4)c4nc(c(-c5ccc(S(=O)(=O)[O-])cc5)c5ccc2[nH]5)C=C4)C=C3)cc1
REMARK SMILES IDX 6 1 5 2 4 3 3 4 2 5 1 6 29 7 30 8 88 9 31 10 87 11 32 12
REMARK SMILES IDX 33 13 34 14 81 15 35 16 86 17 80 18 82 19 36 20 85 21 79 22
REMARK SMILES IDX 78 23 37 25 67 26 48 27 66 28 49 29 52 30 65 31 83 32 50 33
REMARK SMILES IDX 51 34 64 36 84 37 53 38 38 39 39 40 47 41 40 42 46 43 41 44
REMARK SMILES IDX 42 45 43 46 44 47 45 48 68 49 69 50 77 51 70 52 76 53 71 54
REMARK SMILES IDX 72 55 73 56 74 57 75 58 54 59 55 60 63 61 56 62 62 63 57 64
REMARK SMILES IDX 58 65 59 66 60 67 61 68 7 69 8 70 9 71 10 72 11 73 12 74
REMARK SMILES IDX 13 75 28 76 14 77 16 78 15 79 17 80 18 81 19 82 27 83 20 84
REMARK SMILES IDX 21 85 22 86 23 87 26 88 24 89 25 90
REMARK H PARENT 82 24 52 35
REMARK Flexibility Score: inf
ROOT
ATOM      1  O   UNL A   1      34.296  32.263  27.218  1.00  0.00    -0.374 OA
ENDROOT
BRANCH   1   2
ATOM      2  C   UNL A   1      35.257  33.091  27.868  1.00  0.00     0.202 C 
BRANCH   2   3
ATOM      3  C   UNL A   1      35.950  32.590  29.139  1.00  0.00     0.261 C 
BRANCH   3   4
ATOM      4  O   UNL A   1      35.414  33.187  30.333  1.00  0.00    -0.460 OA
BRANCH   4   5
ATOM      5  C   UNL A   1      35.383  32.575  31.537  1.00  0.00     0.338 C 
ATOM      6  O   UNL A   1      34.314  32.347  32.096  1.00  0.00    -0.246 OA
BRANCH   5   7
ATOM      7  C   UNL A   1      36.635  31.968  32.059  1.00  0.00     0.060 A 
ATOM      8  C   UNL A   1      37.757  32.687  32.473  1.00  0.00     0.016 A 
ATOM      9  C   UNL A   1      36.710  30.575  31.943  1.00  0.00     0.016 A 
ATOM     10  C   UNL A   1      39.001  32.125  32.359  1.00  0.00     0.010 A 
ATOM     11  C   UNL A   1      37.944  29.976  31.933  1.00  0.00     0.010 A 
ATOM     12  C   UNL A   1      39.069  30.797  31.976  1.00  0.00    -0.014 A 
BRANCH  12  13
ATOM     13  C   UNL A   1      40.368  30.269  31.636  1.00  0.00     0.031 A 
ATOM     14  C   UNL A   1      41.248  30.069  32.817  1.00  0.00     0.074 A 
ATOM     15  C   UNL A   1      40.585  29.916  30.353  1.00  0.00     0.049 A 
ATOM     16  N   UNL A   1      42.451  30.494  33.015  1.00  0.00    -0.248 NA
ATOM     17  C   UNL A   1      40.632  29.452  34.012  1.00  0.00     0.031 C 
ATOM     18  C   UNL A   1      39.623  29.918  29.239  1.00  0.00     0.029 A 
ATOM     19  N   UNL A   1      41.657  29.306  29.801  1.00  0.00    -0.354 N 
ATOM     20  C   UNL A   1      42.820  30.003  34.266  1.00  0.00     0.074 A 
ATOM     21  C   UNL A   1      41.615  29.546  34.904  1.00  0.00     0.031 C 
ATOM     22  C   UNL A   1      40.040  29.047  28.295  1.00  0.00     0.029 A 
ATOM     23  C   UNL A   1      41.348  28.550  28.675  1.00  0.00     0.049 A 
ATOM     24  H   UNL A   1      42.570  29.389  30.161  1.00  0.00     0.167 HD
ATOM     25  C   UNL A   1      44.117  29.740  34.581  1.00  0.00     0.031 A 
ATOM     26  C   UNL A   1      42.063  27.498  28.196  1.00  0.00     0.031 A 
ATOM     27  C   UNL A   1      45.029  30.448  33.728  1.00  0.00     0.049 A 
ATOM     28  C   UNL A   1      43.411  27.581  28.824  1.00  0.00     0.074 A 
ATOM     29  C   UNL A   1      45.287  31.784  33.499  1.00  0.00     0.029 A 
ATOM     30  N   UNL A   1      45.542  29.769  32.646  1.00  0.00    -0.354 N 
ATOM     31  N   UNL A   1      44.230  28.580  28.622  1.00  0.00    -0.248 NA
ATOM     32  C   UNL A   1      43.626  26.848  30.065  1.00  0.00     0.031 C 
ATOM     33  C   UNL A   1      45.487  31.880  32.091  1.00  0.00     0.029 A 
ATOM     34  C   UNL A   1      45.423  30.592  31.553  1.00  0.00     0.049 A 
ATOM     35  H   UNL A   1      45.923  28.862  32.654  1.00  0.00     0.167 HD
ATOM     36  C   UNL A   1      44.773  28.863  29.870  1.00  0.00     0.074 A 
ATOM     37  C   UNL A   1      44.419  27.714  30.706  1.00  0.00     0.031 C 
ATOM     38  C   UNL A   1      45.190  30.123  30.201  1.00  0.00     0.031 A 
BRANCH  25  39
ATOM     39  C   UNL A   1      44.514  28.517  35.369  1.00  0.00    -0.014 A 
ATOM     40  C   UNL A   1      45.002  28.673  36.679  1.00  0.00     0.010 A 
ATOM     41  C   UNL A   1      44.696  27.254  34.762  1.00  0.00     0.010 A 
ATOM     42  C   UNL A   1      45.698  27.638  37.317  1.00  0.00     0.020 A 
ATOM     43  C   UNL A   1      45.351  26.205  35.403  1.00  0.00     0.020 A 
ATOM     44  C   UNL A   1      45.883  26.416  36.665  1.00  0.00     0.054 A 
BRANCH  44  45
ATOM     45  S   UNL A   1      46.895  25.135  37.442  1.00  0.00     0.124 S 
ATOM     46  O   UNL A   1      45.976  24.589  38.436  1.00  0.00    -0.237 OA
ATOM     47  O   UNL A   1      47.203  24.261  36.313  1.00  0.00    -0.237 OA
ATOM     48  O   UNL A   1      48.034  25.876  37.979  1.00  0.00    -0.744 OA
ENDBRANCH  44  45
ENDBRANCH  25  39
BRANCH  26  49
ATOM     49  C   UNL A   1      41.490  26.241  27.633  1.00  0.00    -0.014 A 
ATOM     50  C   UNL A   1      42.081  25.576  26.544  1.00  0.00     0.010 A 
ATOM     51  C   UNL A   1      40.474  25.553  28.335  1.00  0.00     0.010 A 
ATOM     52  C   UNL A   1      41.695  24.265  26.195  1.00  0.00     0.020 A 
ATOM     53  C   UNL A   1      40.080  24.254  27.991  1.00  0.00     0.020 A 
ATOM     54  C   UNL A   1      40.706  23.606  26.932  1.00  0.00     0.054 A 
BRANCH  54  55
ATOM     55  S   UNL A   1      40.319  21.865  26.575  1.00  0.00     0.124 S 
ATOM     56  O   UNL A   1      38.950  21.945  26.074  1.00  0.00    -0.237 OA
ATOM     57  O   UNL A   1      41.333  21.508  25.588  1.00  0.00    -0.237 OA
ATOM     58  O   UNL A   1      40.465  21.206  27.873  1.00  0.00    -0.744 OA
ENDBRANCH  54  55
ENDBRANCH  26  49
BRANCH  38  59
ATOM     59  C   UNL A   1      45.195  31.190  29.122  1.00  0.00    -0.014 A 
ATOM     60  C   UNL A   1      46.273  31.398  28.235  1.00  0.00     0.010 A 
ATOM     61  C   UNL A   1      43.991  31.866  28.871  1.00  0.00     0.010 A 
ATOM     62  C   UNL A   1      46.153  32.273  27.143  1.00  0.00     0.020 A 
ATOM     63  C   UNL A   1      43.859  32.726  27.777  1.00  0.00     0.020 A 
ATOM     64  C   UNL A   1      44.942  32.932  26.920  1.00  0.00     0.054 A 
BRANCH  64  65
ATOM     65  S   UNL A   1      44.765  34.020  25.476  1.00  0.00     0.124 S 
ATOM     66  O   UNL A   1      44.308  33.099  24.439  1.00  0.00    -0.237 OA
ATOM     67  O   UNL A   1      43.778  35.000  25.925  1.00  0.00    -0.237 OA
ATOM     68  O   UNL A   1      46.110  34.557  25.277  1.00  0.00    -0.744 OA
ENDBRANCH  64  65
ENDBRANCH  38  59
ENDBRANCH  12  13
ENDBRANCH   5   7
ENDBRANCH   4   5
ENDBRANCH   3   4
ENDBRANCH   2   3
ENDBRANCH   1   2
BRANCH   1  69
ATOM     69  C   UNL A   1      34.154  30.912  27.684  1.00  0.00     0.202 C 
BRANCH  69  70
ATOM     70  C   UNL A   1      32.935  30.084  27.246  1.00  0.00     0.261 C 
BRANCH  70  71
ATOM     71  O   UNL A   1      33.222  28.682  27.117  1.00  0.00    -0.460 OA
BRANCH  71  72
ATOM     72  C   UNL A   1      32.137  27.863  27.254  1.00  0.00     0.339 C 
ATOM     73  O   UNL A   1      31.244  28.014  28.066  1.00  0.00    -0.246 OA
BRANCH  72  74
ATOM     74  C   UNL A   1      32.080  26.861  26.195  1.00  0.00     0.078 A 
ATOM     75  C   UNL A   1      32.694  26.897  24.922  1.00  0.00     0.051 A 
ATOM     76  C   UNL A   1      31.434  25.635  26.284  1.00  0.00     0.102 A 
ATOM     77  C   UNL A   1      32.585  25.629  24.393  1.00  0.00     0.086 A 
ATOM     78  N   UNL A   1      31.636  24.936  25.108  1.00  0.00    -0.335 N 
ATOM     79  Br  UNL A   1      33.726  25.040  23.040  1.00  0.00    -0.031 Br
BRANCH  78  80
ATOM     80  C   UNL A   1      31.097  23.589  24.873  1.00  0.00     0.180 C 
BRANCH  80  81
ATOM     81  C   UNL A   1      32.061  22.465  25.135  1.00  0.00     0.082 A 
ATOM     82  C   UNL A   1      33.069  22.401  26.127  1.00  0.00     0.047 A 
ATOM     83  N   UNL A   1      31.957  21.280  24.498  1.00  0.00    -0.176 NA
ATOM     84  C   UNL A   1      33.633  21.160  26.017  1.00  0.00     0.109 A 
ATOM     85  N   UNL A   1      32.927  20.512  25.047  1.00  0.00    -0.269 N 
BRANCH  85  86
ATOM     86  C   UNL A   1      33.114  19.118  24.709  1.00  0.00     0.107 C 
ATOM     87  C   UNL A   1      32.528  18.698  23.364  1.00  0.00     0.027 C 
ATOM     88  C   UNL A   1      34.555  18.627  24.627  1.00  0.00     0.027 C 
ATOM     89  C   UNL A   1      33.094  17.296  23.172  1.00  0.00     0.002 C 
ATOM     90  C   UNL A   1      34.451  17.294  23.883  1.00  0.00     0.002 C 
ENDBRANCH  85  86
ENDBRANCH  80  81
ENDBRANCH  78  80
ENDBRANCH  72  74
ENDBRANCH  71  72
ENDBRANCH  70  71
ENDBRANCH  69  70
ENDBRANCH   1  69
TORSDOF 20
ENDMDL
MODEL 3
REMARK VINA RESULT:     -10.1      4.291      7.754
REMARK SMILES O=C(OCCOCCOC(=O)c1cc(Br)n(Cc2ccn(C3CCCC3)n2)c1)c1ccc(-c2c3nc(c(-c4ccc(S(=O)(=O)[O-])cc4)c4ccc([nH]4)c(-c4ccc(S(=O)(=O)[O-])cc4)c4nc(c(-c5ccc(S(=O)(=O)[O-])cc5)c5ccc2[nH]5)C=C4)C=C3)cc1
REMARK SMILES IDX 6 1 5 2 4 3 3 4 2 5 1 6 29 7 30 8 88 9 31 10 87 11 32 12
REMARK SMILES IDX 33 13 34 14 81 15 35 16 86 17 80 18 82 19 36 20 85 21 79 22
REMARK SMILES IDX 78 23 37 25 67 26 48 27 66 28 49 29 52 30 65 31 83 32 50 33
REMARK SMILES IDX 51 34 64 36 84 37 53 38 38 39 39 40 47 41 40 42 46 43 41 44
REMARK SMILES IDX 42 45 43 46 44 47 45 48 68 49 69 50 77 51 70 52 76 53 71 54
REMARK SMILES IDX 72 55 73 56 74 57 75 58 54 59 55 60 63 61 56 62 62 63 57 64
REMARK SMILES IDX 58 65 59 66 60 67 61 68 7 69 8 70 9 71 10 72 11 73 12 74
REMARK SMILES IDX 13 75 28 76 14 77 16 78 15 79 17 80 18 81 19 82 27 83 20 84
REMARK SMILES IDX 21 85 22 86 23 87 26 88 24 89 25 90
REMARK H PARENT 82 24 52 35
REMARK Flexibility Score: inf
ROOT
ATOM      1  O   UNL A   1      32.636  31.443  27.123  1.00  0.00    -0.374 OA
ENDROOT
BRANCH   1   2
ATOM      2  C   UNL A   1      32.116  32.767  27.218  1.00  0.00     0.202 C 
BRANCH   2   3
ATOM      3  C   UNL A   1      32.975  33.874  27.835  1.00  0.00     0.261 C 
BRANCH   3   4
ATOM      4  O   UNL A   1      33.632  33.455  29.045  1.00  0.00    -0.460 OA
BRANCH   4   5
ATOM      5  C   UNL A   1      33.749  34.224  30.148  1.00  0.00     0.338 C 
ATOM      6  O   UNL A   1      32.908  35.081  30.406  1.00  0.00    -0.246 OA
BRANCH   5   7
ATOM      7  C   UNL A   1      34.770  33.862  31.165  1.00  0.00     0.060 A 
ATOM      8  C   UNL A   1      35.209  34.702  32.190  1.00  0.00     0.016 A 
ATOM      9  C   UNL A   1      35.434  32.652  30.931  1.00  0.00     0.016 A 
ATOM     10  C   UNL A   1      36.485  34.574  32.670  1.00  0.00     0.010 A 
ATOM     11  C   UNL A   1      36.672  32.456  31.490  1.00  0.00     0.010 A 
ATOM     12  C   UNL A   1      37.234  33.503  32.215  1.00  0.00    -0.014 A 
BRANCH  12  13
ATOM     13  C   UNL A   1      38.640  33.491  32.538  1.00  0.00     0.031 A 
ATOM     14  C   UNL A   1      39.513  33.813  31.379  1.00  0.00     0.074 A 
ATOM     15  C   UNL A   1      38.985  33.315  33.830  1.00  0.00     0.049 A 
ATOM     16  N   UNL A   1      40.519  33.152  30.911  1.00  0.00    -0.248 NA
ATOM     17  C   UNL A   1      39.093  34.943  30.522  1.00  0.00     0.031 C 
ATOM     18  C   UNL A   1      38.095  33.217  34.999  1.00  0.00     0.029 A 
ATOM     19  N   UNL A   1      40.206  33.370  34.407  1.00  0.00    -0.354 N 
ATOM     20  C   UNL A   1      40.994  33.906  29.839  1.00  0.00     0.074 A 
ATOM     21  C   UNL A   1      39.978  34.876  29.531  1.00  0.00     0.031 C 
ATOM     22  C   UNL A   1      38.784  33.562  36.108  1.00  0.00     0.029 A 
ATOM     23  C   UNL A   1      40.174  33.761  35.742  1.00  0.00     0.049 A 
ATOM     24  H   UNL A   1      41.039  33.154  33.929  1.00  0.00     0.167 HD
ATOM     25  C   UNL A   1      42.301  33.876  29.464  1.00  0.00     0.031 A 
ATOM     26  C   UNL A   1      41.191  34.339  36.433  1.00  0.00     0.031 A 
ATOM     27  C   UNL A   1      42.966  32.693  29.933  1.00  0.00     0.049 A 
ATOM     28  C   UNL A   1      42.432  34.088  35.647  1.00  0.00     0.074 A 
ATOM     29  C   UNL A   1      42.799  31.343  29.700  1.00  0.00     0.029 A 
ATOM     30  N   UNL A   1      43.688  32.793  31.100  1.00  0.00    -0.354 N 
ATOM     31  N   UNL A   1      42.902  32.889  35.424  1.00  0.00    -0.248 NA
ATOM     32  C   UNL A   1      42.837  35.100  34.680  1.00  0.00     0.031 C 
ATOM     33  C   UNL A   1      42.990  30.729  30.971  1.00  0.00     0.029 A 
ATOM     34  C   UNL A   1      43.343  31.722  31.888  1.00  0.00     0.049 A 
ATOM     35  H   UNL A   1      44.334  33.500  31.328  1.00  0.00     0.167 HD
ATOM     36  C   UNL A   1      43.302  32.896  34.092  1.00  0.00     0.074 A 
ATOM     37  C   UNL A   1      43.306  34.310  33.707  1.00  0.00     0.031 C 
ATOM     38  C   UNL A   1      43.298  31.757  33.336  1.00  0.00     0.031 A 
BRANCH  25  39
ATOM     39  C   UNL A   1      43.043  35.123  29.053  1.00  0.00    -0.014 A 
ATOM     40  C   UNL A   1      43.330  36.102  30.022  1.00  0.00     0.010 A 
ATOM     41  C   UNL A   1      43.208  35.491  27.699  1.00  0.00     0.010 A 
ATOM     42  C   UNL A   1      43.693  37.403  29.646  1.00  0.00     0.020 A 
ATOM     43  C   UNL A   1      43.609  36.769  27.316  1.00  0.00     0.020 A 
ATOM     44  C   UNL A   1      43.812  37.730  28.294  1.00  0.00     0.054 A 
BRANCH  44  45
ATOM     45  S   UNL A   1      44.151  39.441  27.817  1.00  0.00     0.124 S 
ATOM     46  O   UNL A   1      45.601  39.423  27.649  1.00  0.00    -0.237 OA
ATOM     47  O   UNL A   1      43.371  39.579  26.591  1.00  0.00    -0.237 OA
ATOM     48  O   UNL A   1      43.660  40.218  28.953  1.00  0.00    -0.744 OA
ENDBRANCH  44  45
ENDBRANCH  25  39
BRANCH  26  49
ATOM     49  C   UNL A   1      41.052  35.443  37.425  1.00  0.00    -0.014 A 
ATOM     50  C   UNL A   1      39.828  36.104  37.637  1.00  0.00     0.010 A 
ATOM     51  C   UNL A   1      42.088  35.692  38.354  1.00  0.00     0.010 A 
ATOM     52  C   UNL A   1      39.640  36.949  38.749  1.00  0.00     0.020 A 
ATOM     53  C   UNL A   1      41.912  36.536  39.458  1.00  0.00     0.020 A 
ATOM     54  C   UNL A   1      40.680  37.149  39.663  1.00  0.00     0.054 A 
BRANCH  54  55
ATOM     55  S   UNL A   1      40.387  38.116  41.174  1.00  0.00     0.124 S 
ATOM     56  O   UNL A   1      39.324  37.359  41.828  1.00  0.00    -0.237 OA
ATOM     57  O   UNL A   1      41.688  38.079  41.835  1.00  0.00    -0.237 OA
ATOM     58  O   UNL A   1      39.989  39.431  40.671  1.00  0.00    -0.744 OA
ENDBRANCH  54  55
ENDBRANCH  26  49
BRANCH  38  59
ATOM     59  C   UNL A   1      42.994  30.437  34.019  1.00  0.00    -0.014 A 
ATOM     60  C   UNL A   1      43.988  29.582  34.542  1.00  0.00     0.010 A 
ATOM     61  C   UNL A   1      41.652  30.154  34.317  1.00  0.00     0.010 A 
ATOM     62  C   UNL A   1      43.643  28.465  35.323  1.00  0.00     0.020 A 
ATOM     63  C   UNL A   1      41.303  29.054  35.107  1.00  0.00     0.020 A 
ATOM     64  C   UNL A   1      42.299  28.209  35.601  1.00  0.00     0.054 A 
BRANCH  64  65
ATOM     65  S   UNL A   1      41.854  26.800  36.657  1.00  0.00     0.124 S 
ATOM     66  O   UNL A   1      42.997  26.707  37.562  1.00  0.00    -0.237 OA
ATOM     67  O   UNL A   1      40.601  27.233  37.271  1.00  0.00    -0.237 OA
ATOM     68  O   UNL A   1      41.720  25.688  35.717  1.00  0.00    -0.744 OA
ENDBRANCH  64  65
ENDBRANCH  38  59
ENDBRANCH  12  13
ENDBRANCH   5   7
ENDBRANCH   4   5
ENDBRANCH   3   4
ENDBRANCH   2   3
ENDBRANCH   1   2
BRANCH   1  69
ATOM     69  C   UNL A   1      31.928  30.505  26.299  1.00  0.00     0.202 C 
BRANCH  69  70
ATOM     70  C   UNL A   1      32.374  29.034  26.270  1.00  0.00     0.261 C 
BRANCH  70  71
ATOM     71  O   UNL A   1      32.810  28.602  24.971  1.00  0.00    -0.460 OA
BRANCH  71  72
ATOM     72  C   UNL A   1      31.992  27.687  24.370  1.00  0.00     0.339 C 
ATOM     73  O   UNL A   1      31.096  27.954  23.591  1.00  0.00    -0.246 OA
BRANCH  72  74
ATOM     74  C   UNL A   1      32.421  26.320  24.640  1.00  0.00     0.078 A 
ATOM     75  C   UNL A   1      33.724  25.778  24.554  1.00  0.00     0.051 A 
ATOM     76  C   UNL A   1      31.601  25.296  25.098  1.00  0.00     0.102 A 
ATOM     77  C   UNL A   1      33.680  24.541  25.163  1.00  0.00     0.086 A 
ATOM     78  N   UNL A   1      32.365  24.159  25.285  1.00  0.00    -0.335 N 
ATOM     79  Br  UNL A   1      35.227  23.724  25.811  1.00  0.00    -0.031 Br
BRANCH  78  80
ATOM     80  C   UNL A   1      31.809  22.891  25.778  1.00  0.00     0.180 C 
BRANCH  80  81
ATOM     81  C   UNL A   1      31.988  21.718  24.854  1.00  0.00     0.082 A 
ATOM     82  C   UNL A   1      32.314  21.741  23.477  1.00  0.00     0.047 A 
ATOM     83  N   UNL A   1      31.990  20.450  25.314  1.00  0.00    -0.176 NA
ATOM     84  C   UNL A   1      32.435  20.434  23.093  1.00  0.00     0.109 A 
ATOM     85  N   UNL A   1      32.256  19.692  24.223  1.00  0.00    -0.269 N 
BRANCH  85  86
ATOM     86  C   UNL A   1      32.436  18.259  24.284  1.00  0.00     0.107 C 
ATOM     87  C   UNL A   1      33.461  17.697  23.304  1.00  0.00     0.027 C 
ATOM     88  C   UNL A   1      32.889  17.689  25.624  1.00  0.00     0.027 C 
ATOM     89  C   UNL A   1      33.619  16.254  23.770  1.00  0.00     0.002 C 
ATOM     90  C   UNL A   1      33.369  16.276  25.282  1.00  0.00     0.002 C 
ENDBRANCH  85  86
ENDBRANCH  80  81
ENDBRANCH  78  80
ENDBRANCH  72  74
ENDBRANCH  71  72
ENDBRANCH  70  71
ENDBRANCH  69  70
ENDBRANCH   1  69
TORSDOF 20
ENDMDL
