MODEL 1
REMARK VINA RESULT:     -12.1      0.000      0.000
REMARK SMILES COc1ccc(NC(=O)N[C@@H]2C=C[C@H](C(=O)OCCOCCOC(=O)c3ccc(-c4c5nc(c(-c6ccc(S(=O)(=O)[O-])cc6)c6ccc([nH]6)c(-c6ccc(S(=O)(=O)[O-])cc6)c6nc(c(-c7ccc(S(=O)(=O)[O-])cc7)c7ccc4[nH]7)C=C6)C=C5)cc3)C2)c(C)c1
REMARK SMILES IDX 20 1 19 2 18 3 17 4 15 5 16 6 14 7 11 8 12 9 86 10 13 11
REMARK SMILES IDX 10 12 7 13 8 14 9 16 6 18 3 19 4 20 89 21 5 22 87 23 88 24
REMARK SMILES IDX 2 25 1 26 21 27 22 28 23 29 24 30 25 31 26 32 27 33 85 34
REMARK SMILES IDX 28 35 84 36 29 37 30 38 31 39 78 40 32 41 83 42 77 43 79 44
REMARK SMILES IDX 33 45 82 46 76 47 75 48 34 50 64 51 45 52 63 53 46 54 49 55
REMARK SMILES IDX 62 56 80 57 47 58 48 59 61 61 81 62 50 63 35 64 36 65 44 66
REMARK SMILES IDX 37 67 43 68 38 69 39 70 40 71 41 72 42 73 65 74 66 75 74 76
REMARK SMILES IDX 67 77 73 78 68 79 69 80 70 81 71 82 72 83 51 84 52 85 60 86
REMARK SMILES IDX 53 87 59 88 54 89 55 90 56 91 57 92 58 93
REMARK H PARENT 7 15 10 17 79 49 49 60
REMARK Flexibility Score: inf
ROOT
ATOM      1  O   UNL A   1      40.815  22.870  26.561  1.00  0.00    -0.374 OA
ENDROOT
BRANCH   1   2
ATOM      2  C   UNL A   1      39.842  21.882  26.310  1.00  0.00     0.202 C 
BRANCH   2   3
ATOM      3  C   UNL A   1      38.658  22.731  26.141  1.00  0.00     0.261 C 
BRANCH   3   4
ATOM      4  O   UNL A   1      37.826  21.964  25.341  1.00  0.00    -0.463 OA
BRANCH   4   5
ATOM      5  C   UNL A   1      36.503  21.868  25.383  1.00  0.00     0.312 C 
ATOM      6  O   UNL A   1      35.821  21.218  26.159  1.00  0.00    -0.252 OA
BRANCH   5   7
ATOM      7  C   UNL A   1      35.920  22.844  24.182  1.00  0.00     0.124 C 
ATOM      8  C   UNL A   1      33.735  24.971  25.208  1.00  0.00     0.107 C 
ATOM      9  C   UNL A   1      33.050  24.163  23.607  1.00  0.00    -0.006 C 
ATOM     10  C   UNL A   1      35.702  24.523  25.410  1.00  0.00     0.048 C 
ATOM     11  C   UNL A   1      34.028  23.027  23.052  1.00  0.00    -0.014 C 
BRANCH   8  12
ATOM     12  N   UNL A   1      32.836  24.076  26.348  1.00  0.00    -0.332 N 
ATOM     13  N   UNL A   1      30.486  25.076  26.527  1.00  0.00    -0.308 N 
ATOM     14  C   UNL A   1      31.422  23.931  26.534  1.00  0.00     0.319 C 
ATOM     15  H   UNL A   1      29.612  24.981  26.972  1.00  0.00     0.171 HD
ATOM     16  O   UNL A   1      31.062  22.763  26.383  1.00  0.00    -0.248 OA
ATOM     17  H   UNL A   1      33.384  23.569  26.991  1.00  0.00     0.165 HD
BRANCH  13  18
ATOM     18  C   UNL A   1      30.807  26.305  25.904  1.00  0.00     0.046 A 
ATOM     19  C   UNL A   1      30.282  29.095  23.528  1.00  0.00     0.119 A 
ATOM     20  C   UNL A   1      29.526  27.534  23.219  1.00  0.00     0.048 A 
ATOM     21  C   UNL A   1      31.170  29.213  25.018  1.00  0.00     0.052 A 
ATOM     22  C   UNL A   1      29.802  26.238  24.744  1.00  0.00     0.030 A 
ATOM     23  C   UNL A   1      31.492  27.859  26.108  1.00  0.00    -0.024 A 
ATOM     24  C   UNL A   1      32.372  28.188  27.293  1.00  0.00     0.047 C 
BRANCH  19  25
ATOM     25  O   UNL A   1      29.903  30.240  22.889  1.00  0.00    -0.497 OA
ATOM     26  C   UNL A   1      28.832  29.990  21.969  1.00  0.00     0.278 C 
ENDBRANCH  19  25
ENDBRANCH  13  18
ENDBRANCH   8  12
ENDBRANCH   5   7
ENDBRANCH   4   5
ENDBRANCH   3   4
ENDBRANCH   2   3
ENDBRANCH   1   2
BRANCH   1  27
ATOM     27  C   UNL A   1      40.332  24.170  26.617  1.00  0.00     0.202 C 
BRANCH  27  28
ATOM     28  C   UNL A   1      41.457  25.068  26.139  1.00  0.00     0.261 C 
BRANCH  28  29
ATOM     29  O   UNL A   1      40.950  26.444  25.854  1.00  0.00    -0.460 OA
BRANCH  29  30
ATOM     30  C   UNL A   1      41.708  27.592  25.666  1.00  0.00     0.338 C 
ATOM     31  O   UNL A   1      42.370  27.774  24.651  1.00  0.00    -0.246 OA
BRANCH  30  32
ATOM     32  C   UNL A   1      41.501  28.727  26.679  1.00  0.00     0.060 A 
ATOM     33  C   UNL A   1      42.585  29.429  27.275  1.00  0.00     0.016 A 
ATOM     34  C   UNL A   1      40.267  28.871  27.274  1.00  0.00     0.016 A 
ATOM     35  C   UNL A   1      42.507  29.995  28.586  1.00  0.00     0.010 A 
ATOM     36  C   UNL A   1      40.242  29.274  28.610  1.00  0.00     0.010 A 
ATOM     37  C   UNL A   1      41.365  29.791  29.332  1.00  0.00    -0.014 A 
BRANCH  37  38
ATOM     38  C   UNL A   1      41.083  30.061  30.793  1.00  0.00     0.031 A 
ATOM     39  C   UNL A   1      40.238  31.313  30.908  1.00  0.00     0.074 A 
ATOM     40  C   UNL A   1      41.252  29.195  31.863  1.00  0.00     0.049 A 
ATOM     41  N   UNL A   1      39.584  31.685  31.938  1.00  0.00    -0.248 NA
ATOM     42  C   UNL A   1      39.951  32.211  29.766  1.00  0.00     0.031 C 
ATOM     43  C   UNL A   1      40.564  29.222  33.166  1.00  0.00     0.029 A 
ATOM     44  N   UNL A   1      42.069  28.079  32.074  1.00  0.00    -0.354 N 
ATOM     45  C   UNL A   1      38.643  32.633  31.565  1.00  0.00     0.074 A 
ATOM     46  C   UNL A   1      38.895  32.911  30.188  1.00  0.00     0.031 C 
ATOM     47  C   UNL A   1      41.121  28.381  34.066  1.00  0.00     0.029 A 
ATOM     48  C   UNL A   1      42.288  27.838  33.445  1.00  0.00     0.049 A 
ATOM     49  H   UNL A   1      42.445  27.527  31.350  1.00  0.00     0.167 HD
ATOM     50  C   UNL A   1      37.708  32.992  32.483  1.00  0.00     0.031 A 
ATOM     51  C   UNL A   1      43.535  27.929  33.981  1.00  0.00     0.031 A 
ATOM     52  C   UNL A   1      38.074  32.373  33.768  1.00  0.00     0.049 A 
ATOM     53  C   UNL A   1      43.444  29.248  34.798  1.00  0.00     0.074 A 
ATOM     54  C   UNL A   1      37.594  31.280  34.459  1.00  0.00     0.029 A 
ATOM     55  N   UNL A   1      39.367  32.596  34.252  1.00  0.00    -0.354 N 
ATOM     56  N   UNL A   1      42.751  30.322  34.436  1.00  0.00    -0.248 NA
ATOM     57  C   UNL A   1      43.684  29.201  36.242  1.00  0.00     0.031 C 
ATOM     58  C   UNL A   1      38.643  30.836  35.338  1.00  0.00     0.029 A 
ATOM     59  C   UNL A   1      39.789  31.610  35.134  1.00  0.00     0.049 A 
ATOM     60  H   UNL A   1      39.919  33.371  33.995  1.00  0.00     0.167 HD
ATOM     61  C   UNL A   1      42.217  30.913  35.578  1.00  0.00     0.074 A 
ATOM     62  C   UNL A   1      42.873  30.180  36.670  1.00  0.00     0.031 C 
ATOM     63  C   UNL A   1      41.112  31.727  35.777  1.00  0.00     0.031 A 
BRANCH  50  64
ATOM     64  C   UNL A   1      36.420  33.774  32.248  1.00  0.00    -0.014 A 
ATOM     65  C   UNL A   1      35.991  34.638  33.277  1.00  0.00     0.010 A 
ATOM     66  C   UNL A   1      35.569  33.712  31.119  1.00  0.00     0.010 A 
ATOM     67  C   UNL A   1      34.811  35.397  33.199  1.00  0.00     0.020 A 
ATOM     68  C   UNL A   1      34.376  34.477  31.022  1.00  0.00     0.020 A 
ATOM     69  C   UNL A   1      34.010  35.322  32.067  1.00  0.00     0.054 A 
BRANCH  69  70
ATOM     70  S   UNL A   1      32.524  36.366  31.996  1.00  0.00     0.124 S 
ATOM     71  O   UNL A   1      32.874  37.478  32.879  1.00  0.00    -0.237 OA
ATOM     72  O   UNL A   1      32.441  36.699  30.577  1.00  0.00    -0.237 OA
ATOM     73  O   UNL A   1      31.458  35.499  32.492  1.00  0.00    -0.744 OA
ENDBRANCH  69  70
ENDBRANCH  50  64
BRANCH  51  74
ATOM     74  C   UNL A   1      44.486  27.355  32.953  1.00  0.00    -0.014 A 
ATOM     75  C   UNL A   1      44.531  25.925  32.819  1.00  0.00     0.010 A 
ATOM     76  C   UNL A   1      44.748  28.111  31.799  1.00  0.00     0.010 A 
ATOM     77  C   UNL A   1      44.670  25.298  31.559  1.00  0.00     0.020 A 
ATOM     78  C   UNL A   1      44.837  27.481  30.542  1.00  0.00     0.020 A 
ATOM     79  C   UNL A   1      44.784  26.090  30.419  1.00  0.00     0.054 A 
BRANCH  79  80
ATOM     80  S   UNL A   1      44.709  25.338  28.756  1.00  0.00     0.124 S 
ATOM     81  O   UNL A   1      44.501  26.503  27.906  1.00  0.00    -0.237 OA
ATOM     82  O   UNL A   1      46.006  24.681  28.620  1.00  0.00    -0.237 OA
ATOM     83  O   UNL A   1      43.584  24.417  28.859  1.00  0.00    -0.744 OA
ENDBRANCH  79  80
ENDBRANCH  51  74
BRANCH  63  84
ATOM     84  C   UNL A   1      41.327  32.953  36.650  1.00  0.00    -0.014 A 
ATOM     85  C   UNL A   1      42.589  33.522  36.852  1.00  0.00     0.010 A 
ATOM     86  C   UNL A   1      40.221  33.651  37.202  1.00  0.00     0.010 A 
ATOM     87  C   UNL A   1      42.751  34.678  37.597  1.00  0.00     0.020 A 
ATOM     88  C   UNL A   1      40.362  34.859  37.876  1.00  0.00     0.020 A 
ATOM     89  C   UNL A   1      41.638  35.347  38.091  1.00  0.00     0.054 A 
BRANCH  89  90
ATOM     90  S   UNL A   1      41.920  36.865  39.002  1.00  0.00     0.124 S 
ATOM     91  O   UNL A   1      42.779  37.605  38.080  1.00  0.00    -0.237 OA
ATOM     92  O   UNL A   1      40.564  37.387  39.153  1.00  0.00    -0.237 OA
ATOM     93  O   UNL A   1      42.558  36.420  40.237  1.00  0.00    -0.744 OA
ENDBRANCH  89  90
ENDBRANCH  63  84
ENDBRANCH  37  38
ENDBRANCH  30  32
ENDBRANCH  29  30
ENDBRANCH  28  29
ENDBRANCH  27  28
ENDBRANCH   1  27
TORSDOF 20
ENDMDL
MODEL 2
REMARK VINA RESULT:     -12.0      3.633      9.912
REMARK SMILES COc1ccc(NC(=O)N[C@@H]2C=C[C@H](C(=O)OCCOCCOC(=O)c3ccc(-c4c5nc(c(-c6ccc(S(=O)(=O)[O-])cc6)c6ccc([nH]6)c(-c6ccc(S(=O)(=O)[O-])cc6)c6nc(c(-c7ccc(S(=O)(=O)[O-])cc7)c7ccc4[nH]7)C=C6)C=C5)cc3)C2)c(C)c1
REMARK SMILES IDX 20 1 19 2 18 3 17 4 15 5 16 6 14 7 11 8 12 9 86 10 13 11
REMARK SMILES IDX 10 12 7 13 8 14 9 16 6 18 3 19 4 20 89 21 5 22 87 23 88 24
REMARK SMILES IDX 2 25 1 26 21 27 22 28 23 29 24 30 25 31 26 32 27 33 85 34
REMARK SMILES IDX 28 35 84 36 29 37 30 38 31 39 78 40 32 41 83 42 77 43 79 44
REMARK SMILES IDX 33 45 82 46 76 47 75 48 34 50 64 51 45 52 63 53 46 54 49 55
REMARK SMILES IDX 62 56 80 57 47 58 48 59 61 61 81 62 50 63 35 64 36 65 44 66
REMARK SMILES IDX 37 67 43 68 38 69 39 70 40 71 41 72 42 73 65 74 66 75 74 76
REMARK SMILES IDX 67 77 73 78 68 79 69 80 70 81 71 82 72 83 51 84 52 85 60 86
REMARK SMILES IDX 53 87 59 88 54 89 55 90 56 91 57 92 58 93
REMARK H PARENT 7 15 10 17 79 49 49 60
REMARK Flexibility Score: inf
ROOT
ATOM      1  O   UNL A   1      32.072  30.289  25.136  1.00  0.00    -0.374 OA
ENDROOT
BRANCH   1   2
ATOM      2  C   UNL A   1      31.016  29.464  24.699  1.00  0.00     0.202 C 
BRANCH   2   3
ATOM      3  C   UNL A   1      31.750  28.575  23.790  1.00  0.00     0.261 C 
BRANCH   3   4
ATOM      4  O   UNL A   1      31.490  27.313  24.299  1.00  0.00    -0.463 OA
BRANCH   4   5
ATOM      5  C   UNL A   1      30.477  26.503  24.013  1.00  0.00     0.312 C 
ATOM      6  O   UNL A   1      29.407  26.405  24.593  1.00  0.00    -0.252 OA
BRANCH   5   7
ATOM      7  C   UNL A   1      30.920  25.648  22.669  1.00  0.00     0.124 C 
ATOM      8  C   UNL A   1      32.973  23.252  23.293  1.00  0.00     0.107 C 
ATOM      9  C   UNL A   1      33.642  24.205  21.767  1.00  0.00    -0.006 C 
ATOM     10  C   UNL A   1      31.061  23.814  23.663  1.00  0.00     0.048 C 
ATOM     11  C   UNL A   1      32.733  25.473  21.415  1.00  0.00    -0.014 C 
BRANCH   8  12
ATOM     12  N   UNL A   1      33.996  23.924  24.480  1.00  0.00    -0.332 N 
ATOM     13  N   UNL A   1      35.219  22.031  25.696  1.00  0.00    -0.308 N 
ATOM     14  C   UNL A   1      35.158  23.398  25.135  1.00  0.00     0.319 C 
ATOM     15  H   UNL A   1      35.879  21.833  26.399  1.00  0.00     0.171 HD
ATOM     16  O   UNL A   1      36.158  24.077  24.896  1.00  0.00    -0.248 OA
ATOM     17  H   UNL A   1      33.745  24.832  24.765  1.00  0.00     0.165 HD
BRANCH  13  18
ATOM     18  C   UNL A   1      34.357  20.999  25.255  1.00  0.00     0.046 A 
ATOM     19  C   UNL A   1      33.501  17.524  24.310  1.00  0.00     0.119 A 
ATOM     20  C   UNL A   1      35.181  18.053  24.254  1.00  0.00     0.048 A 
ATOM     21  C   UNL A   1      32.368  18.700  24.905  1.00  0.00     0.052 A 
ATOM     22  C   UNL A   1      35.417  19.919  24.992  1.00  0.00     0.030 A 
ATOM     23  C   UNL A   1      32.763  20.383  25.274  1.00  0.00    -0.024 A 
ATOM     24  C   UNL A   1      31.586  21.241  25.684  1.00  0.00     0.047 C 
BRANCH  19  25
ATOM     25  O   UNL A   1      33.138  16.208  24.279  1.00  0.00    -0.497 OA
ATOM     26  C   UNL A   1      33.186  15.627  25.588  1.00  0.00     0.278 C 
ENDBRANCH  19  25
ENDBRANCH  13  18
ENDBRANCH   8  12
ENDBRANCH   5   7
ENDBRANCH   4   5
ENDBRANCH   3   4
ENDBRANCH   2   3
ENDBRANCH   1   2
BRANCH   1  27
ATOM     27  C   UNL A   1      32.020  30.649  26.475  1.00  0.00     0.202 C 
BRANCH  27  28
ATOM     28  C   UNL A   1      31.712  29.382  27.249  1.00  0.00     0.261 C 
BRANCH  28  29
ATOM     29  O   UNL A   1      32.958  28.802  27.834  1.00  0.00    -0.460 OA
BRANCH  29  30
ATOM     30  C   UNL A   1      34.197  28.687  27.217  1.00  0.00     0.338 C 
ATOM     31  O   UNL A   1      34.333  28.133  26.133  1.00  0.00    -0.246 OA
BRANCH  30  32
ATOM     32  C   UNL A   1      35.353  29.483  27.839  1.00  0.00     0.060 A 
ATOM     33  C   UNL A   1      36.430  30.000  27.067  1.00  0.00     0.016 A 
ATOM     34  C   UNL A   1      35.534  29.437  29.204  1.00  0.00     0.016 A 
ATOM     35  C   UNL A   1      37.746  30.169  27.600  1.00  0.00     0.010 A 
ATOM     36  C   UNL A   1      36.846  29.443  29.677  1.00  0.00     0.010 A 
ATOM     37  C   UNL A   1      38.002  29.747  28.889  1.00  0.00    -0.014 A 
BRANCH  37  38
ATOM     38  C   UNL A   1      39.310  29.587  29.630  1.00  0.00     0.031 A 
ATOM     39  C   UNL A   1      39.967  28.293  29.193  1.00  0.00     0.074 A 
ATOM     40  C   UNL A   1      40.005  30.553  30.342  1.00  0.00     0.049 A 
ATOM     41  N   UNL A   1      41.186  27.968  29.386  1.00  0.00    -0.248 NA
ATOM     42  C   UNL A   1      39.295  27.281  28.348  1.00  0.00     0.031 C 
ATOM     43  C   UNL A   1      41.446  30.592  30.644  1.00  0.00     0.029 A 
ATOM     44  N   UNL A   1      39.619  31.738  30.978  1.00  0.00    -0.354 N 
ATOM     45  C   UNL A   1      41.523  26.928  28.534  1.00  0.00     0.074 A 
ATOM     46  C   UNL A   1      40.310  26.548  27.884  1.00  0.00     0.031 C 
ATOM     47  C   UNL A   1      41.763  31.546  31.548  1.00  0.00     0.029 A 
ATOM     48  C   UNL A   1      40.527  32.113  31.988  1.00  0.00     0.049 A 
ATOM     49  H   UNL A   1      38.810  32.249  30.746  1.00  0.00     0.167 HD
ATOM     50  C   UNL A   1      42.835  26.585  28.439  1.00  0.00     0.031 A 
ATOM     51  C   UNL A   1      40.143  32.157  33.292  1.00  0.00     0.031 A 
ATOM     52  C   UNL A   1      43.573  27.339  29.466  1.00  0.00     0.049 A 
ATOM     53  C   UNL A   1      40.859  30.912  33.886  1.00  0.00     0.074 A 
ATOM     54  C   UNL A   1      44.386  28.452  29.416  1.00  0.00     0.029 A 
ATOM     55  N   UNL A   1      43.123  27.251  30.788  1.00  0.00    -0.354 N 
ATOM     56  N   UNL A   1      41.049  29.764  33.244  1.00  0.00    -0.248 NA
ATOM     57  C   UNL A   1      41.814  31.101  34.980  1.00  0.00     0.031 C 
ATOM     58  C   UNL A   1      44.381  29.044  30.728  1.00  0.00     0.029 A 
ATOM     59  C   UNL A   1      43.509  28.337  31.561  1.00  0.00     0.049 A 
ATOM     60  H   UNL A   1      42.591  26.497  31.132  1.00  0.00     0.167 HD
ATOM     61  C   UNL A   1      42.281  29.239  33.624  1.00  0.00     0.074 A 
ATOM     62  C   UNL A   1      42.685  30.110  34.738  1.00  0.00     0.031 C 
ATOM     63  C   UNL A   1      43.159  28.370  32.994  1.00  0.00     0.031 A 
BRANCH  50  64
ATOM     64  C   UNL A   1      43.495  25.697  27.391  1.00  0.00    -0.014 A 
ATOM     65  C   UNL A   1      43.966  24.437  27.814  1.00  0.00     0.010 A 
ATOM     66  C   UNL A   1      43.731  26.002  26.028  1.00  0.00     0.010 A 
ATOM     67  C   UNL A   1      44.614  23.532  26.957  1.00  0.00     0.020 A 
ATOM     68  C   UNL A   1      44.379  25.097  25.148  1.00  0.00     0.020 A 
ATOM     69  C   UNL A   1      44.812  23.860  25.622  1.00  0.00     0.054 A 
BRANCH  69  70
ATOM     70  S   UNL A   1      45.607  22.632  24.544  1.00  0.00     0.124 S 
ATOM     71  O   UNL A   1      46.083  21.633  25.499  1.00  0.00    -0.237 OA
ATOM     72  O   UNL A   1      44.504  22.202  23.689  1.00  0.00    -0.237 OA
ATOM     73  O   UNL A   1      46.659  23.384  23.865  1.00  0.00    -0.744 OA
ENDBRANCH  69  70
ENDBRANCH  50  64
BRANCH  51  74
ATOM     74  C   UNL A   1      38.732  32.704  33.305  1.00  0.00    -0.014 A 
ATOM     75  C   UNL A   1      38.534  34.036  32.806  1.00  0.00     0.010 A 
ATOM     76  C   UNL A   1      37.671  31.799  33.144  1.00  0.00     0.010 A 
ATOM     77  C   UNL A   1      37.396  34.385  32.042  1.00  0.00     0.020 A 
ATOM     78  C   UNL A   1      36.563  32.139  32.343  1.00  0.00     0.020 A 
ATOM     79  C   UNL A   1      36.432  33.414  31.784  1.00  0.00     0.054 A 
BRANCH  79  80
ATOM     80  S   UNL A   1      35.080  33.740  30.599  1.00  0.00     0.124 S 
ATOM     81  O   UNL A   1      34.424  32.442  30.525  1.00  0.00    -0.237 OA
ATOM     82  O   UNL A   1      34.312  34.801  31.243  1.00  0.00    -0.237 OA
ATOM     83  O   UNL A   1      35.789  34.164  29.398  1.00  0.00    -0.744 OA
ENDBRANCH  79  80
ENDBRANCH  51  74
BRANCH  63  84
ATOM     84  C   UNL A   1      43.720  27.244  33.847  1.00  0.00    -0.014 A 
ATOM     85  C   UNL A   1      42.937  26.525  34.755  1.00  0.00     0.010 A 
ATOM     86  C   UNL A   1      45.053  26.791  33.661  1.00  0.00     0.010 A 
ATOM     87  C   UNL A   1      43.454  25.459  35.473  1.00  0.00     0.020 A 
ATOM     88  C   UNL A   1      45.557  25.668  34.309  1.00  0.00     0.020 A 
ATOM     89  C   UNL A   1      44.754  25.028  35.235  1.00  0.00     0.054 A 
BRANCH  89  90
ATOM     90  S   UNL A   1      45.339  23.610  36.162  1.00  0.00     0.124 S 
ATOM     91  O   UNL A   1      46.770  23.637  35.867  1.00  0.00    -0.237 OA
ATOM     92  O   UNL A   1      44.974  23.967  37.531  1.00  0.00    -0.237 OA
ATOM     93  O   UNL A   1      44.600  22.488  35.592  1.00  0.00    -0.744 OA
ENDBRANCH  89  90
ENDBRANCH  63  84
ENDBRANCH  37  38
ENDBRANCH  30  32
ENDBRANCH  29  30
ENDBRANCH  28  29
ENDBRANCH  27  28
ENDBRANCH   1  27
TORSDOF 20
ENDMDL
MODEL 3
REMARK VINA RESULT:     -11.8      4.885     12.260
REMARK SMILES COc1ccc(NC(=O)N[C@@H]2C=C[C@H](C(=O)OCCOCCOC(=O)c3ccc(-c4c5nc(c(-c6ccc(S(=O)(=O)[O-])cc6)c6ccc([nH]6)c(-c6ccc(S(=O)(=O)[O-])cc6)c6nc(c(-c7ccc(S(=O)(=O)[O-])cc7)c7ccc4[nH]7)C=C6)C=C5)cc3)C2)c(C)c1
REMARK SMILES IDX 20 1 19 2 18 3 17 4 15 5 16 6 14 7 11 8 12 9 86 10 13 11
REMARK SMILES IDX 10 12 7 13 8 14 9 16 6 18 3 19 4 20 89 21 5 22 87 23 88 24
REMARK SMILES IDX 2 25 1 26 21 27 22 28 23 29 24 30 25 31 26 32 27 33 85 34
REMARK SMILES IDX 28 35 84 36 29 37 30 38 31 39 78 40 32 41 83 42 77 43 79 44
REMARK SMILES IDX 33 45 82 46 76 47 75 48 34 50 64 51 45 52 63 53 46 54 49 55
REMARK SMILES IDX 62 56 80 57 47 58 48 59 61 61 81 62 50 63 35 64 36 65 44 66
REMARK SMILES IDX 37 67 43 68 38 69 39 70 40 71 41 72 42 73 65 74 66 75 74 76
REMARK SMILES IDX 67 77 73 78 68 79 69 80 70 81 71 82 72 83 51 84 52 85 60 86
REMARK SMILES IDX 53 87 59 88 54 89 55 90 56 91 57 92 58 93
REMARK H PARENT 7 15 10 17 79 49 49 60
REMARK Flexibility Score: inf
ROOT
ATOM      1  O   UNL A   1      34.119  34.147  28.407  1.00  0.00    -0.374 OA
ENDROOT
BRANCH   1   2
ATOM      2  C   UNL A   1      33.129  34.740  29.218  1.00  0.00     0.202 C 
BRANCH   2   3
ATOM      3  C   UNL A   1      33.981  35.375  30.230  1.00  0.00     0.261 C 
BRANCH   3   4
ATOM      4  O   UNL A   1      33.504  34.854  31.422  1.00  0.00    -0.463 OA
BRANCH   4   5
ATOM      5  C   UNL A   1      34.057  33.927  32.195  1.00  0.00     0.312 C 
ATOM      6  O   UNL A   1      33.992  32.713  32.077  1.00  0.00    -0.252 OA
BRANCH   5   7
ATOM      7  C   UNL A   1      34.907  34.731  33.363  1.00  0.00     0.124 C 
ATOM      8  C   UNL A   1      37.818  33.479  33.920  1.00  0.00     0.107 C 
ATOM      9  C   UNL A   1      36.987  33.793  35.622  1.00  0.00    -0.006 C 
ATOM     10  C   UNL A   1      36.772  34.428  32.465  1.00  0.00     0.048 C 
ATOM     11  C   UNL A   1      35.495  34.346  35.459  1.00  0.00    -0.014 C 
BRANCH   8  12
ATOM     12  N   UNL A   1      37.539  31.801  33.808  1.00  0.00    -0.332 N 
ATOM     13  N   UNL A   1      39.630  30.671  32.855  1.00  0.00    -0.308 N 
ATOM     14  C   UNL A   1      38.449  30.694  33.743  1.00  0.00     0.319 C 
ATOM     15  H   UNL A   1      40.020  29.803  32.601  1.00  0.00     0.171 HD
ATOM     16  O   UNL A   1      38.313  29.939  34.707  1.00  0.00    -0.248 OA
ATOM     17  H   UNL A   1      36.589  31.547  33.784  1.00  0.00     0.165 HD
BRANCH  13  18
ATOM     18  C   UNL A   1      40.217  31.857  32.354  1.00  0.00     0.046 A 
ATOM     19  C   UNL A   1      42.944  34.323  31.926  1.00  0.00     0.119 A 
ATOM     20  C   UNL A   1      42.957  33.246  33.319  1.00  0.00     0.048 A 
ATOM     21  C   UNL A   1      41.651  34.065  30.793  1.00  0.00     0.052 A 
ATOM     22  C   UNL A   1      41.478  31.871  33.232  1.00  0.00     0.030 A 
ATOM     23  C   UNL A   1      40.304  32.948  31.041  1.00  0.00    -0.024 A 
ATOM     24  C   UNL A   1      39.247  32.970  29.958  1.00  0.00     0.047 C 
BRANCH  19  25
ATOM     25  O   UNL A   1      44.041  35.034  31.530  1.00  0.00    -0.497 OA
ATOM     26  C   UNL A   1      43.863  36.436  31.768  1.00  0.00     0.278 C 
ENDBRANCH  19  25
ENDBRANCH  13  18
ENDBRANCH   8  12
ENDBRANCH   5   7
ENDBRANCH   4   5
ENDBRANCH   3   4
ENDBRANCH   2   3
ENDBRANCH   1   2
BRANCH   1  27
ATOM     27  C   UNL A   1      33.979  32.780  28.215  1.00  0.00     0.202 C 
BRANCH  27  28
ATOM     28  C   UNL A   1      35.384  32.213  28.131  1.00  0.00     0.261 C 
BRANCH  28  29
ATOM     29  O   UNL A   1      35.479  30.924  28.880  1.00  0.00    -0.460 OA
BRANCH  29  30
ATOM     30  C   UNL A   1      36.377  30.607  29.891  1.00  0.00     0.338 C 
ATOM     31  O   UNL A   1      36.395  31.212  30.955  1.00  0.00    -0.246 OA
BRANCH  30  32
ATOM     32  C   UNL A   1      37.192  29.319  29.709  1.00  0.00     0.060 A 
ATOM     33  C   UNL A   1      37.824  28.653  30.795  1.00  0.00     0.016 A 
ATOM     34  C   UNL A   1      37.596  28.961  28.441  1.00  0.00     0.016 A 
ATOM     35  C   UNL A   1      39.025  27.892  30.636  1.00  0.00     0.010 A 
ATOM     36  C   UNL A   1      38.850  28.363  28.313  1.00  0.00     0.010 A 
ATOM     37  C   UNL A   1      39.636  27.863  29.400  1.00  0.00    -0.014 A 
BRANCH  37  38
ATOM     38  C   UNL A   1      40.998  27.351  28.988  1.00  0.00     0.031 A 
ATOM     39  C   UNL A   1      41.977  28.508  28.977  1.00  0.00     0.074 A 
ATOM     40  C   UNL A   1      41.427  26.033  28.933  1.00  0.00     0.049 A 
ATOM     41  N   UNL A   1      43.248  28.414  28.955  1.00  0.00    -0.248 NA
ATOM     42  C   UNL A   1      41.569  29.922  29.134  1.00  0.00     0.031 C 
ATOM     43  C   UNL A   1      42.807  25.527  29.021  1.00  0.00     0.029 A 
ATOM     44  N   UNL A   1      40.759  24.812  28.787  1.00  0.00    -0.354 N 
ATOM     45  C   UNL A   1      43.804  29.624  29.341  1.00  0.00     0.074 A 
ATOM     46  C   UNL A   1      42.709  30.532  29.467  1.00  0.00     0.031 C 
ATOM     47  C   UNL A   1      42.903  24.215  28.706  1.00  0.00     0.029 A 
ATOM     48  C   UNL A   1      41.603  23.809  28.271  1.00  0.00     0.049 A 
ATOM     49  H   UNL A   1      39.812  24.672  29.017  1.00  0.00     0.167 HD
ATOM     50  C   UNL A   1      45.140  29.660  29.585  1.00  0.00     0.031 A 
ATOM     51  C   UNL A   1      41.359  23.245  27.058  1.00  0.00     0.031 A 
ATOM     52  C   UNL A   1      45.708  28.365  29.175  1.00  0.00     0.049 A 
ATOM     53  C   UNL A   1      42.483  23.862  26.179  1.00  0.00     0.074 A 
ATOM     54  C   UNL A   1      46.126  27.254  29.878  1.00  0.00     0.029 A 
ATOM     55  N   UNL A   1      45.445  27.920  27.875  1.00  0.00    -0.354 N 
ATOM     56  N   UNL A   1      42.953  25.098  26.301  1.00  0.00    -0.248 NA
ATOM     57  C   UNL A   1      43.438  22.965  25.523  1.00  0.00     0.031 C 
ATOM     58  C   UNL A   1      46.071  26.133  28.978  1.00  0.00     0.029 A 
ATOM     59  C   UNL A   1      45.550  26.542  27.746  1.00  0.00     0.049 A 
ATOM     60  H   UNL A   1      45.211  28.522  27.132  1.00  0.00     0.167 HD
ATOM     61  C   UNL A   1      44.320  25.083  26.033  1.00  0.00     0.074 A 
ATOM     62  C   UNL A   1      44.544  23.724  25.519  1.00  0.00     0.031 C 
ATOM     63  C   UNL A   1      45.355  25.919  26.423  1.00  0.00     0.031 A 
BRANCH  50  64
ATOM     64  C   UNL A   1      45.934  30.759  30.282  1.00  0.00    -0.014 A 
ATOM     65  C   UNL A   1      45.596  31.051  31.620  1.00  0.00     0.010 A 
ATOM     66  C   UNL A   1      46.962  31.561  29.731  1.00  0.00     0.010 A 
ATOM     67  C   UNL A   1      46.231  32.055  32.370  1.00  0.00     0.020 A 
ATOM     68  C   UNL A   1      47.617  32.576  30.478  1.00  0.00     0.020 A 
ATOM     69  C   UNL A   1      47.247  32.810  31.800  1.00  0.00     0.054 A 
BRANCH  69  70
ATOM     70  S   UNL A   1      48.071  34.059  32.832  1.00  0.00     0.124 S 
ATOM     71  O   UNL A   1      48.697  33.247  33.875  1.00  0.00    -0.237 OA
ATOM     72  O   UNL A   1      48.995  34.685  31.891  1.00  0.00    -0.237 OA
ATOM     73  O   UNL A   1      46.980  34.915  33.291  1.00  0.00    -0.744 OA
ENDBRANCH  69  70
ENDBRANCH  50  64
BRANCH  51  74
ATOM     74  C   UNL A   1      39.857  23.096  26.948  1.00  0.00    -0.014 A 
ATOM     75  C   UNL A   1      39.095  24.279  26.660  1.00  0.00     0.010 A 
ATOM     76  C   UNL A   1      39.346  21.878  26.474  1.00  0.00     0.010 A 
ATOM     77  C   UNL A   1      37.971  24.251  25.802  1.00  0.00     0.020 A 
ATOM     78  C   UNL A   1      38.254  21.864  25.584  1.00  0.00     0.020 A 
ATOM     79  C   UNL A   1      37.582  23.039  25.237  1.00  0.00     0.054 A 
BRANCH  79  80
ATOM     80  S   UNL A   1      36.303  22.990  23.933  1.00  0.00     0.124 S 
ATOM     81  O   UNL A   1      35.637  21.725  24.209  1.00  0.00    -0.237 OA
ATOM     82  O   UNL A   1      35.512  24.190  24.187  1.00  0.00    -0.237 OA
ATOM     83  O   UNL A   1      37.084  23.043  22.703  1.00  0.00    -0.744 OA
ENDBRANCH  79  80
ENDBRANCH  51  74
BRANCH  63  84
ATOM     84  C   UNL A   1      46.322  26.347  25.331  1.00  0.00    -0.014 A 
ATOM     85  C   UNL A   1      47.384  25.542  24.907  1.00  0.00     0.010 A 
ATOM     86  C   UNL A   1      46.104  27.547  24.603  1.00  0.00     0.010 A 
ATOM     87  C   UNL A   1      48.211  25.925  23.863  1.00  0.00     0.020 A 
ATOM     88  C   UNL A   1      46.873  27.898  23.498  1.00  0.00     0.020 A 
ATOM     89  C   UNL A   1      47.942  27.091  23.157  1.00  0.00     0.054 A 
BRANCH  89  90
ATOM     90  S   UNL A   1      49.023  27.497  21.786  1.00  0.00     0.124 S 
ATOM     91  O   UNL A   1      48.608  26.516  20.785  1.00  0.00    -0.237 OA
ATOM     92  O   UNL A   1      48.650  28.880  21.501  1.00  0.00    -0.237 OA
ATOM     93  O   UNL A   1      50.365  27.312  22.329  1.00  0.00    -0.744 OA
ENDBRANCH  89  90
ENDBRANCH  63  84
ENDBRANCH  37  38
ENDBRANCH  30  32
ENDBRANCH  29  30
ENDBRANCH  28  29
ENDBRANCH  27  28
ENDBRANCH   1  27
TORSDOF 20
ENDMDL
