MODEL 1
REMARK VINA RESULT:     -10.7      0.000      0.000
REMARK SMILES CCc1ccnc(C(=O)c2[nH]c3ccc(OC(F)(F)F)cc3c2CC(=O)OCCOCCOC(=O)c2ccc(-c3c4nc(c(-c5ccc(S(=O)(=O)[O-])cc5)c5ccc([nH]5)c(-c5ccc(S(=O)(=O)[O-])cc5)c5nc(c(-c6ccc(S(=O)(=O)[O-])cc6)c6ccc3[nH]6)C=C5)C=C4)cc2)c1
REMARK SMILES IDX 29 1 28 2 27 3 25 4 26 5 24 6 23 7 10 8 11 9 12 10 22 12
REMARK SMILES IDX 13 13 21 14 14 15 15 16 8 17 9 18 7 19 3 20 4 21 96 22 5 23
REMARK SMILES IDX 6 24 2 25 1 26 16 27 17 28 18 29 19 30 20 31 30 32 31 33
REMARK SMILES IDX 32 34 33 35 34 36 35 37 36 38 37 39 95 40 38 41 94 42 39 43
REMARK SMILES IDX 40 44 41 45 88 46 42 47 93 48 87 49 89 50 43 51 92 52 86 53
REMARK SMILES IDX 85 54 44 56 74 57 55 58 73 59 56 60 59 61 72 62 90 63 57 64
REMARK SMILES IDX 58 65 71 67 91 68 60 69 45 70 46 71 54 72 47 73 53 74 48 75
REMARK SMILES IDX 49 76 50 77 51 78 52 79 75 80 76 81 84 82 77 83 83 84 78 85
REMARK SMILES IDX 79 86 80 87 81 88 82 89 61 90 62 91 70 92 63 93 69 94 64 95
REMARK SMILES IDX 65 96 66 97 67 98 68 99
REMARK H PARENT 11 11 89 55 59 66
REMARK Flexibility Score: inf
ROOT
ATOM      1  C   UNL A   1      38.498  21.817  25.752  1.00  0.00     0.202 C 
ENDROOT
BRANCH   1   2
ATOM      2  C   UNL A   1      37.691  23.096  25.496  1.00  0.00     0.261 C 
BRANCH   2   3
ATOM      3  O   UNL A   1      37.120  23.128  24.167  1.00  0.00    -0.463 OA
BRANCH   3   4
ATOM      4  C   UNL A   1      35.827  23.544  24.095  1.00  0.00     0.310 C 
ATOM      5  O   UNL A   1      35.147  23.502  23.071  1.00  0.00    -0.252 OA
BRANCH   4   6
ATOM      6  C   UNL A   1      35.277  24.162  25.360  1.00  0.00     0.161 C 
BRANCH   6   7
ATOM      7  C   UNL A   1      33.859  23.857  25.767  1.00  0.00     0.000 A 
ATOM      8  C   UNL A   1      33.292  22.598  25.976  1.00  0.00     0.093 A 
ATOM      9  N   UNL A   1      31.983  22.814  26.358  1.00  0.00    -0.352 N 
ATOM     10  C   UNL A   1      31.612  24.108  26.076  1.00  0.00     0.046 A 
ATOM     11  H   UNL A   1      31.398  22.138  26.773  1.00  0.00     0.167 HD
ATOM     12  C   UNL A   1      32.774  24.794  25.739  1.00  0.00     0.008 A 
ATOM     13  C   UNL A   1      30.351  24.717  26.081  1.00  0.00     0.030 A 
ATOM     14  C   UNL A   1      32.667  26.153  25.380  1.00  0.00     0.057 A 
ATOM     15  C   UNL A   1      30.270  26.057  25.669  1.00  0.00     0.049 A 
ATOM     16  C   UNL A   1      31.411  26.768  25.302  1.00  0.00     0.130 A 
BRANCH   8  17
ATOM     17  C   UNL A   1      33.937  21.297  25.819  1.00  0.00     0.227 C 
ATOM     18  O   UNL A   1      34.882  20.956  26.527  1.00  0.00    -0.285 OA
BRANCH  17  19
ATOM     19  C   UNL A   1      33.555  20.383  24.696  1.00  0.00     0.113 A 
ATOM     20  C   UNL A   1      33.352  18.160  23.797  1.00  0.00    -0.044 A 
ATOM     21  C   UNL A   1      32.441  18.678  22.870  1.00  0.00     0.024 A 
ATOM     22  C   UNL A   1      33.936  19.045  24.711  1.00  0.00     0.036 A 
ATOM     23  C   UNL A   1      32.143  20.032  22.904  1.00  0.00     0.112 A 
ATOM     24  N   UNL A   1      32.679  20.893  23.791  1.00  0.00    -0.253 NA
BRANCH  20  25
ATOM     25  C   UNL A   1      33.665  16.683  23.794  1.00  0.00     0.032 C 
ATOM     26  C   UNL A   1      34.457  16.196  25.003  1.00  0.00     0.009 C 
ENDBRANCH  20  25
ENDBRANCH  17  19
ENDBRANCH   8  17
BRANCH  16  27
ATOM     27  O   UNL A   1      31.454  28.056  24.846  1.00  0.00    -0.406 OA
BRANCH  27  28
ATOM     28  C   UNL A   1      31.863  29.065  25.751  1.00  0.00     0.573 C 
ATOM     29  F   UNL A   1      31.596  28.718  27.031  1.00  0.00    -0.132 F 
ATOM     30  F   UNL A   1      33.181  29.327  25.624  1.00  0.00    -0.132 F 
ATOM     31  F   UNL A   1      31.177  30.197  25.479  1.00  0.00    -0.132 F 
ENDBRANCH  27  28
ENDBRANCH  16  27
ENDBRANCH   6   7
ENDBRANCH   4   6
ENDBRANCH   3   4
ENDBRANCH   2   3
ENDBRANCH   1   2
BRANCH   1  32
ATOM     32  O   UNL A   1      38.094  20.644  25.039  1.00  0.00    -0.374 OA
BRANCH  32  33
ATOM     33  C   UNL A   1      38.776  19.439  25.376  1.00  0.00     0.202 C 
BRANCH  33  34
ATOM     34  C   UNL A   1      40.100  19.599  26.134  1.00  0.00     0.261 C 
BRANCH  34  35
ATOM     35  O   UNL A   1      41.241  19.555  25.262  1.00  0.00    -0.460 OA
BRANCH  35  36
ATOM     36  C   UNL A   1      42.424  19.717  25.897  1.00  0.00     0.338 C 
ATOM     37  O   UNL A   1      43.328  18.895  26.003  1.00  0.00    -0.246 OA
BRANCH  36  38
ATOM     38  C   UNL A   1      42.582  21.112  26.335  1.00  0.00     0.060 A 
ATOM     39  C   UNL A   1      42.682  22.084  25.332  1.00  0.00     0.016 A 
ATOM     40  C   UNL A   1      42.692  21.464  27.683  1.00  0.00     0.016 A 
ATOM     41  C   UNL A   1      42.954  23.404  25.670  1.00  0.00     0.010 A 
ATOM     42  C   UNL A   1      42.971  22.792  28.021  1.00  0.00     0.010 A 
ATOM     43  C   UNL A   1      43.142  23.758  27.012  1.00  0.00    -0.014 A 
BRANCH  43  44
ATOM     44  C   UNL A   1      43.651  25.113  27.327  1.00  0.00     0.031 A 
ATOM     45  C   UNL A   1      45.101  25.423  27.076  1.00  0.00     0.074 A 
ATOM     46  C   UNL A   1      42.810  26.067  27.765  1.00  0.00     0.049 A 
ATOM     47  N   UNL A   1      45.741  26.556  27.218  1.00  0.00    -0.248 NA
ATOM     48  C   UNL A   1      45.942  24.312  26.603  1.00  0.00     0.031 C 
ATOM     49  C   UNL A   1      41.380  25.882  28.013  1.00  0.00     0.029 A 
ATOM     50  N   UNL A   1      43.038  27.385  28.071  1.00  0.00    -0.354 N 
ATOM     51  C   UNL A   1      47.057  26.293  26.853  1.00  0.00     0.074 A 
ATOM     52  C   UNL A   1      47.132  24.889  26.517  1.00  0.00     0.031 C 
ATOM     53  C   UNL A   1      40.856  27.047  28.429  1.00  0.00     0.029 A 
ATOM     54  C   UNL A   1      41.916  28.051  28.501  1.00  0.00     0.049 A 
ATOM     55  H   UNL A   1      43.921  27.812  27.990  1.00  0.00     0.167 HD
ATOM     56  C   UNL A   1      48.105  27.149  26.799  1.00  0.00     0.031 A 
ATOM     57  C   UNL A   1      41.763  29.323  28.914  1.00  0.00     0.031 A 
ATOM     58  C   UNL A   1      48.021  28.542  27.151  1.00  0.00     0.049 A 
ATOM     59  C   UNL A   1      42.955  30.244  28.892  1.00  0.00     0.074 A 
ATOM     60  C   UNL A   1      49.016  29.503  27.112  1.00  0.00     0.029 A 
ATOM     61  N   UNL A   1      46.877  29.171  27.620  1.00  0.00    -0.354 N 
ATOM     62  N   UNL A   1      44.184  29.992  28.506  1.00  0.00    -0.248 NA
ATOM     63  C   UNL A   1      42.736  31.622  29.350  1.00  0.00     0.031 C 
ATOM     64  C   UNL A   1      48.488  30.697  27.614  1.00  0.00     0.029 A 
ATOM     65  C   UNL A   1      47.148  30.498  27.906  1.00  0.00     0.049 A 
ATOM     66  H   UNL A   1      46.000  28.736  27.733  1.00  0.00     0.167 HD
ATOM     67  C   UNL A   1      44.881  31.185  28.656  1.00  0.00     0.074 A 
ATOM     68  C   UNL A   1      43.932  32.163  29.149  1.00  0.00     0.031 C 
ATOM     69  C   UNL A   1      46.189  31.450  28.410  1.00  0.00     0.031 A 
BRANCH  56  70
ATOM     70  C   UNL A   1      49.441  26.589  26.382  1.00  0.00    -0.014 A 
ATOM     71  C   UNL A   1      49.832  26.553  25.031  1.00  0.00     0.010 A 
ATOM     72  C   UNL A   1      50.331  26.112  27.363  1.00  0.00     0.010 A 
ATOM     73  C   UNL A   1      51.070  26.012  24.666  1.00  0.00     0.020 A 
ATOM     74  C   UNL A   1      51.579  25.596  27.004  1.00  0.00     0.020 A 
ATOM     75  C   UNL A   1      51.933  25.532  25.656  1.00  0.00     0.054 A 
BRANCH  75  76
ATOM     76  S   UNL A   1      53.538  24.848  25.156  1.00  0.00     0.124 S 
ATOM     77  O   UNL A   1      53.222  23.429  24.995  1.00  0.00    -0.237 OA
ATOM     78  O   UNL A   1      53.824  25.571  23.920  1.00  0.00    -0.237 OA
ATOM     79  O   UNL A   1      54.416  25.166  26.279  1.00  0.00    -0.744 OA
ENDBRANCH  75  76
ENDBRANCH  56  70
BRANCH  57  80
ATOM     80  C   UNL A   1      40.434  29.791  29.393  1.00  0.00    -0.014 A 
ATOM     81  C   UNL A   1      40.186  29.990  30.763  1.00  0.00     0.010 A 
ATOM     82  C   UNL A   1      39.409  30.063  28.468  1.00  0.00     0.010 A 
ATOM     83  C   UNL A   1      38.937  30.444  31.197  1.00  0.00     0.020 A 
ATOM     84  C   UNL A   1      38.169  30.544  28.896  1.00  0.00     0.020 A 
ATOM     85  C   UNL A   1      37.937  30.723  30.260  1.00  0.00     0.054 A 
BRANCH  85  86
ATOM     86  S   UNL A   1      36.346  31.374  30.841  1.00  0.00     0.124 S 
ATOM     87  O   UNL A   1      36.740  32.634  31.464  1.00  0.00    -0.237 OA
ATOM     88  O   UNL A   1      35.581  31.492  29.601  1.00  0.00    -0.237 OA
ATOM     89  O   UNL A   1      35.871  30.342  31.761  1.00  0.00    -0.744 OA
ENDBRANCH  85  86
ENDBRANCH  57  80
BRANCH  69  90
ATOM     90  C   UNL A   1      46.664  32.858  28.654  1.00  0.00    -0.014 A 
ATOM     91  C   UNL A   1      46.724  33.797  27.609  1.00  0.00     0.010 A 
ATOM     92  C   UNL A   1      47.009  33.259  29.957  1.00  0.00     0.010 A 
ATOM     93  C   UNL A   1      47.159  35.101  27.856  1.00  0.00     0.020 A 
ATOM     94  C   UNL A   1      47.417  34.571  30.214  1.00  0.00     0.020 A 
ATOM     95  C   UNL A   1      47.505  35.479  29.157  1.00  0.00     0.054 A 
BRANCH  95  96
ATOM     96  S   UNL A   1      48.037  37.187  29.457  1.00  0.00     0.124 S 
ATOM     97  O   UNL A   1      49.474  37.105  29.208  1.00  0.00    -0.237 OA
ATOM     98  O   UNL A   1      47.269  37.941  28.470  1.00  0.00    -0.237 OA
ATOM     99  O   UNL A   1      47.660  37.428  30.848  1.00  0.00    -0.744 OA
ENDBRANCH  95  96
ENDBRANCH  69  90
ENDBRANCH  43  44
ENDBRANCH  36  38
ENDBRANCH  35  36
ENDBRANCH  34  35
ENDBRANCH  33  34
ENDBRANCH  32  33
ENDBRANCH   1  32
TORSDOF 23
ENDMDL
MODEL 2
REMARK VINA RESULT:     -10.7      2.818      9.345
REMARK SMILES CCc1ccnc(C(=O)c2[nH]c3ccc(OC(F)(F)F)cc3c2CC(=O)OCCOCCOC(=O)c2ccc(-c3c4nc(c(-c5ccc(S(=O)(=O)[O-])cc5)c5ccc([nH]5)c(-c5ccc(S(=O)(=O)[O-])cc5)c5nc(c(-c6ccc(S(=O)(=O)[O-])cc6)c6ccc3[nH]6)C=C5)C=C4)cc2)c1
REMARK SMILES IDX 29 1 28 2 27 3 25 4 26 5 24 6 23 7 10 8 11 9 12 10 22 12
REMARK SMILES IDX 13 13 21 14 14 15 15 16 8 17 9 18 7 19 3 20 4 21 96 22 5 23
REMARK SMILES IDX 6 24 2 25 1 26 16 27 17 28 18 29 19 30 20 31 30 32 31 33
REMARK SMILES IDX 32 34 33 35 34 36 35 37 36 38 37 39 95 40 38 41 94 42 39 43
REMARK SMILES IDX 40 44 41 45 88 46 42 47 93 48 87 49 89 50 43 51 92 52 86 53
REMARK SMILES IDX 85 54 44 56 74 57 55 58 73 59 56 60 59 61 72 62 90 63 57 64
REMARK SMILES IDX 58 65 71 67 91 68 60 69 45 70 46 71 54 72 47 73 53 74 48 75
REMARK SMILES IDX 49 76 50 77 51 78 52 79 75 80 76 81 84 82 77 83 83 84 78 85
REMARK SMILES IDX 79 86 80 87 81 88 82 89 61 90 62 91 70 92 63 93 69 94 64 95
REMARK SMILES IDX 65 96 66 97 67 98 68 99
REMARK H PARENT 11 11 89 55 59 66
REMARK Flexibility Score: inf
ROOT
ATOM      1  C   UNL A   1      34.283  30.429  27.748  1.00  0.00     0.202 C 
ENDROOT
BRANCH   1   2
ATOM      2  C   UNL A   1      33.214  29.888  26.790  1.00  0.00     0.261 C 
BRANCH   2   3
ATOM      3  O   UNL A   1      33.035  28.458  26.919  1.00  0.00    -0.463 OA
BRANCH   3   4
ATOM      4  C   UNL A   1      33.616  27.706  25.946  1.00  0.00     0.310 C 
ATOM      5  O   UNL A   1      34.306  28.169  25.038  1.00  0.00    -0.252 OA
BRANCH   4   6
ATOM      6  C   UNL A   1      33.287  26.231  25.988  1.00  0.00     0.161 C 
BRANCH   6   7
ATOM      7  C   UNL A   1      33.697  25.357  24.831  1.00  0.00     0.000 A 
ATOM      8  C   UNL A   1      32.928  25.013  23.717  1.00  0.00     0.093 A 
ATOM      9  N   UNL A   1      33.726  24.220  22.917  1.00  0.00    -0.352 N 
ATOM     10  C   UNL A   1      34.821  23.779  23.623  1.00  0.00     0.046 A 
ATOM     11  H   UNL A   1      33.538  24.001  21.975  1.00  0.00     0.167 HD
ATOM     12  C   UNL A   1      34.849  24.502  24.812  1.00  0.00     0.008 A 
ATOM     13  C   UNL A   1      35.773  22.801  23.314  1.00  0.00     0.030 A 
ATOM     14  C   UNL A   1      35.873  24.224  25.739  1.00  0.00     0.057 A 
ATOM     15  C   UNL A   1      36.750  22.509  24.279  1.00  0.00     0.049 A 
ATOM     16  C   UNL A   1      36.794  23.198  25.490  1.00  0.00     0.130 A 
BRANCH   8  17
ATOM     17  C   UNL A   1      31.548  25.400  23.439  1.00  0.00     0.227 C 
ATOM     18  O   UNL A   1      30.626  24.589  23.498  1.00  0.00    -0.285 OA
BRANCH  17  19
ATOM     19  C   UNL A   1      31.224  26.774  22.937  1.00  0.00     0.113 A 
ATOM     20  C   UNL A   1      29.677  28.606  22.738  1.00  0.00    -0.044 A 
ATOM     21  C   UNL A   1      30.773  29.427  22.450  1.00  0.00     0.024 A 
ATOM     22  C   UNL A   1      29.914  27.245  22.960  1.00  0.00     0.036 A 
ATOM     23  C   UNL A   1      32.041  28.868  22.414  1.00  0.00     0.112 A 
ATOM     24  N   UNL A   1      32.289  27.564  22.647  1.00  0.00    -0.253 NA
BRANCH  20  25
ATOM     25  C   UNL A   1      28.292  29.204  22.811  1.00  0.00     0.032 C 
ATOM     26  C   UNL A   1      27.981  30.227  21.723  1.00  0.00     0.009 C 
ENDBRANCH  20  25
ENDBRANCH  17  19
ENDBRANCH   8  17
BRANCH  16  27
ATOM     27  O   UNL A   1      37.665  22.977  26.519  1.00  0.00    -0.406 OA
BRANCH  27  28
ATOM     28  C   UNL A   1      38.763  23.861  26.659  1.00  0.00     0.573 C 
ATOM     29  F   UNL A   1      39.931  23.187  26.750  1.00  0.00    -0.132 F 
ATOM     30  F   UNL A   1      38.825  24.725  25.625  1.00  0.00    -0.132 F 
ATOM     31  F   UNL A   1      38.606  24.572  27.798  1.00  0.00    -0.132 F 
ENDBRANCH  27  28
ENDBRANCH  16  27
ENDBRANCH   6   7
ENDBRANCH   4   6
ENDBRANCH   3   4
ENDBRANCH   2   3
ENDBRANCH   1   2
BRANCH   1  32
ATOM     32  O   UNL A   1      33.981  31.650  28.431  1.00  0.00    -0.374 OA
BRANCH  32  33
ATOM     33  C   UNL A   1      35.092  32.488  28.738  1.00  0.00     0.202 C 
BRANCH  33  34
ATOM     34  C   UNL A   1      35.532  32.522  30.206  1.00  0.00     0.261 C 
BRANCH  34  35
ATOM     35  O   UNL A   1      36.057  31.260  30.651  1.00  0.00    -0.460 OA
BRANCH  35  36
ATOM     36  C   UNL A   1      37.194  31.363  31.376  1.00  0.00     0.338 C 
ATOM     37  O   UNL A   1      37.317  31.841  32.499  1.00  0.00    -0.246 OA
BRANCH  36  38
ATOM     38  C   UNL A   1      38.295  30.660  30.702  1.00  0.00     0.060 A 
ATOM     39  C   UNL A   1      39.302  30.129  31.516  1.00  0.00     0.016 A 
ATOM     40  C   UNL A   1      38.382  30.570  29.310  1.00  0.00     0.016 A 
ATOM     41  C   UNL A   1      40.432  29.558  30.942  1.00  0.00     0.010 A 
ATOM     42  C   UNL A   1      39.522  30.000  28.733  1.00  0.00     0.010 A 
ATOM     43  C   UNL A   1      40.567  29.529  29.548  1.00  0.00    -0.014 A 
BRANCH  43  44
ATOM     44  C   UNL A   1      41.869  29.127  28.967  1.00  0.00     0.031 A 
ATOM     45  C   UNL A   1      42.980  30.138  28.898  1.00  0.00     0.074 A 
ATOM     46  C   UNL A   1      42.071  27.857  28.573  1.00  0.00     0.049 A 
ATOM     47  N   UNL A   1      44.214  29.985  28.491  1.00  0.00    -0.248 NA
ATOM     48  C   UNL A   1      42.661  31.503  29.347  1.00  0.00     0.031 C 
ATOM     49  C   UNL A   1      41.073  26.789  28.625  1.00  0.00     0.029 A 
ATOM     50  N   UNL A   1      43.189  27.249  28.059  1.00  0.00    -0.354 N 
ATOM     51  C   UNL A   1      44.816  31.231  28.633  1.00  0.00     0.074 A 
ATOM     52  C   UNL A   1      43.804  32.136  29.131  1.00  0.00     0.031 C 
ATOM     53  C   UNL A   1      41.625  25.654  28.165  1.00  0.00     0.029 A 
ATOM     54  C   UNL A   1      43.005  25.921  27.764  1.00  0.00     0.049 A 
ATOM     55  H   UNL A   1      44.041  27.721  27.916  1.00  0.00     0.167 HD
ATOM     56  C   UNL A   1      46.098  31.584  28.377  1.00  0.00     0.031 A 
ATOM     57  C   UNL A   1      43.850  25.023  27.223  1.00  0.00     0.031 A 
ATOM     58  C   UNL A   1      47.092  30.676  27.866  1.00  0.00     0.049 A 
ATOM     59  C   UNL A   1      45.258  25.452  26.899  1.00  0.00     0.074 A 
ATOM     60  C   UNL A   1      48.425  30.924  27.591  1.00  0.00     0.029 A 
ATOM     61  N   UNL A   1      46.858  29.348  27.542  1.00  0.00    -0.354 N 
ATOM     62  N   UNL A   1      45.824  26.623  27.077  1.00  0.00    -0.248 NA
ATOM     63  C   UNL A   1      46.142  24.436  26.313  1.00  0.00     0.031 C 
ATOM     64  C   UNL A   1      48.981  29.762  27.044  1.00  0.00     0.029 A 
ATOM     65  C   UNL A   1      48.011  28.772  27.038  1.00  0.00     0.049 A 
ATOM     66  H   UNL A   1      45.996  28.883  27.654  1.00  0.00     0.167 HD
ATOM     67  C   UNL A   1      47.136  26.480  26.643  1.00  0.00     0.074 A 
ATOM     68  C   UNL A   1      47.285  25.103  26.213  1.00  0.00     0.031 C 
ATOM     69  C   UNL A   1      48.131  27.402  26.602  1.00  0.00     0.031 A 
BRANCH  56  70
ATOM     70  C   UNL A   1      46.483  33.023  28.605  1.00  0.00    -0.014 A 
ATOM     71  C   UNL A   1      46.986  33.460  29.844  1.00  0.00     0.010 A 
ATOM     72  C   UNL A   1      46.362  33.950  27.553  1.00  0.00     0.010 A 
ATOM     73  C   UNL A   1      47.321  34.804  30.039  1.00  0.00     0.020 A 
ATOM     74  C   UNL A   1      46.720  35.288  27.735  1.00  0.00     0.020 A 
ATOM     75  C   UNL A   1      47.181  35.711  28.983  1.00  0.00     0.054 A 
BRANCH  75  76
ATOM     76  S   UNL A   1      47.634  37.446  29.259  1.00  0.00     0.124 S 
ATOM     77  O   UNL A   1      46.380  38.135  28.959  1.00  0.00    -0.237 OA
ATOM     78  O   UNL A   1      48.034  37.455  30.663  1.00  0.00    -0.237 OA
ATOM     79  O   UNL A   1      48.714  37.679  28.304  1.00  0.00    -0.744 OA
ENDBRANCH  75  76
ENDBRANCH  56  70
BRANCH  57  80
ATOM     80  C   UNL A   1      43.381  23.638  26.944  1.00  0.00    -0.014 A 
ATOM     81  C   UNL A   1      43.142  23.205  25.629  1.00  0.00     0.010 A 
ATOM     82  C   UNL A   1      43.193  22.733  28.006  1.00  0.00     0.010 A 
ATOM     83  C   UNL A   1      42.715  21.896  25.381  1.00  0.00     0.020 A 
ATOM     84  C   UNL A   1      42.795  21.416  27.760  1.00  0.00     0.020 A 
ATOM     85  C   UNL A   1      42.550  21.008  26.449  1.00  0.00     0.054 A 
BRANCH  85  86
ATOM     86  S   UNL A   1      42.060  19.296  26.099  1.00  0.00     0.124 S 
ATOM     87  O   UNL A   1      42.890  18.971  24.944  1.00  0.00    -0.237 OA
ATOM     88  O   UNL A   1      42.405  18.609  27.342  1.00  0.00    -0.237 OA
ATOM     89  O   UNL A   1      40.626  19.400  25.831  1.00  0.00    -0.744 OA
ENDBRANCH  85  86
ENDBRANCH  57  80
BRANCH  69  90
ATOM     90  C   UNL A   1      49.472  26.946  26.090  1.00  0.00    -0.014 A 
ATOM     91  C   UNL A   1      49.856  27.172  24.756  1.00  0.00     0.010 A 
ATOM     92  C   UNL A   1      50.377  26.325  26.969  1.00  0.00     0.010 A 
ATOM     93  C   UNL A   1      51.107  26.749  24.301  1.00  0.00     0.020 A 
ATOM     94  C   UNL A   1      51.640  25.926  26.525  1.00  0.00     0.020 A 
ATOM     95  C   UNL A   1      51.990  26.127  25.189  1.00  0.00     0.054 A 
BRANCH  95  96
ATOM     96  S   UNL A   1      53.621  25.614  24.581  1.00  0.00     0.124 S 
ATOM     97  O   UNL A   1      53.528  25.931  23.158  1.00  0.00    -0.237 OA
ATOM     98  O   UNL A   1      54.531  26.456  25.354  1.00  0.00    -0.237 OA
ATOM     99  O   UNL A   1      53.678  24.189  24.899  1.00  0.00    -0.744 OA
ENDBRANCH  95  96
ENDBRANCH  69  90
ENDBRANCH  43  44
ENDBRANCH  36  38
ENDBRANCH  35  36
ENDBRANCH  34  35
ENDBRANCH  33  34
ENDBRANCH  32  33
ENDBRANCH   1  32
TORSDOF 23
ENDMDL
MODEL 3
REMARK VINA RESULT:     -10.5      0.717      7.809
REMARK SMILES CCc1ccnc(C(=O)c2[nH]c3ccc(OC(F)(F)F)cc3c2CC(=O)OCCOCCOC(=O)c2ccc(-c3c4nc(c(-c5ccc(S(=O)(=O)[O-])cc5)c5ccc([nH]5)c(-c5ccc(S(=O)(=O)[O-])cc5)c5nc(c(-c6ccc(S(=O)(=O)[O-])cc6)c6ccc3[nH]6)C=C5)C=C4)cc2)c1
REMARK SMILES IDX 29 1 28 2 27 3 25 4 26 5 24 6 23 7 10 8 11 9 12 10 22 12
REMARK SMILES IDX 13 13 21 14 14 15 15 16 8 17 9 18 7 19 3 20 4 21 96 22 5 23
REMARK SMILES IDX 6 24 2 25 1 26 16 27 17 28 18 29 19 30 20 31 30 32 31 33
REMARK SMILES IDX 32 34 33 35 34 36 35 37 36 38 37 39 95 40 38 41 94 42 39 43
REMARK SMILES IDX 40 44 41 45 88 46 42 47 93 48 87 49 89 50 43 51 92 52 86 53
REMARK SMILES IDX 85 54 44 56 74 57 55 58 73 59 56 60 59 61 72 62 90 63 57 64
REMARK SMILES IDX 58 65 71 67 91 68 60 69 45 70 46 71 54 72 47 73 53 74 48 75
REMARK SMILES IDX 49 76 50 77 51 78 52 79 75 80 76 81 84 82 77 83 83 84 78 85
REMARK SMILES IDX 79 86 80 87 81 88 82 89 61 90 62 91 70 92 63 93 69 94 64 95
REMARK SMILES IDX 65 96 66 97 67 98 68 99
REMARK H PARENT 11 11 89 55 59 66
REMARK Flexibility Score: inf
ROOT
ATOM      1  C   UNL A   1      38.470  22.024  25.838  1.00  0.00     0.202 C 
ENDROOT
BRANCH   1   2
ATOM      2  C   UNL A   1      37.593  23.279  25.749  1.00  0.00     0.261 C 
BRANCH   2   3
ATOM      3  O   UNL A   1      36.945  23.406  24.462  1.00  0.00    -0.463 OA
BRANCH   3   4
ATOM      4  C   UNL A   1      35.657  23.842  24.496  1.00  0.00     0.310 C 
ATOM      5  O   UNL A   1      34.942  23.955  23.501  1.00  0.00    -0.252 OA
BRANCH   4   6
ATOM      6  C   UNL A   1      35.160  24.280  25.856  1.00  0.00     0.161 C 
BRANCH   6   7
ATOM      7  C   UNL A   1      33.689  24.173  26.166  1.00  0.00     0.000 A 
ATOM      8  C   UNL A   1      32.953  23.006  26.378  1.00  0.00     0.093 A 
ATOM      9  N   UNL A   1      31.659  23.401  26.652  1.00  0.00    -0.352 N 
ATOM     10  C   UNL A   1      31.477  24.717  26.295  1.00  0.00     0.046 A 
ATOM     11  H   UNL A   1      30.965  22.824  27.047  1.00  0.00     0.167 HD
ATOM     12  C   UNL A   1      32.738  25.236  26.021  1.00  0.00     0.008 A 
ATOM     13  C   UNL A   1      30.307  25.479  26.183  1.00  0.00     0.030 A 
ATOM     14  C   UNL A   1      32.831  26.579  25.605  1.00  0.00     0.057 A 
ATOM     15  C   UNL A   1      30.427  26.798  25.716  1.00  0.00     0.049 A 
ATOM     16  C   UNL A   1      31.672  27.343  25.411  1.00  0.00     0.130 A 
BRANCH   8  17
ATOM     17  C   UNL A   1      33.435  21.629  26.318  1.00  0.00     0.227 C 
ATOM     18  O   UNL A   1      34.111  21.142  27.222  1.00  0.00    -0.285 OA
BRANCH  17  19
ATOM     19  C   UNL A   1      33.236  20.800  25.086  1.00  0.00     0.113 A 
ATOM     20  C   UNL A   1      33.103  18.644  24.027  1.00  0.00    -0.044 A 
ATOM     21  C   UNL A   1      32.420  19.265  22.976  1.00  0.00     0.024 A 
ATOM     22  C   UNL A   1      33.540  19.442  25.090  1.00  0.00     0.036 A 
ATOM     23  C   UNL A   1      32.189  20.631  23.037  1.00  0.00     0.112 A 
ATOM     24  N   UNL A   1      32.583  21.410  24.063  1.00  0.00    -0.253 NA
BRANCH  20  25
ATOM     25  C   UNL A   1      33.336  17.153  23.991  1.00  0.00     0.032 C 
ATOM     26  C   UNL A   1      34.074  16.652  22.754  1.00  0.00     0.009 C 
ENDBRANCH  20  25
ENDBRANCH  17  19
ENDBRANCH   8  17
BRANCH  16  27
ATOM     27  O   UNL A   1      31.912  28.592  24.911  1.00  0.00    -0.406 OA
BRANCH  27  28
ATOM     28  C   UNL A   1      32.311  29.603  25.820  1.00  0.00     0.573 C 
ATOM     29  F   UNL A   1      33.658  29.691  25.901  1.00  0.00    -0.132 F 
ATOM     30  F   UNL A   1      31.805  30.803  25.465  1.00  0.00    -0.132 F 
ATOM     31  F   UNL A   1      31.843  29.292  27.050  1.00  0.00    -0.132 F 
ENDBRANCH  27  28
ENDBRANCH  16  27
ENDBRANCH   6   7
ENDBRANCH   4   6
ENDBRANCH   3   4
ENDBRANCH   2   3
ENDBRANCH   1   2
BRANCH   1  32
ATOM     32  O   UNL A   1      37.991  20.852  25.171  1.00  0.00    -0.374 OA
BRANCH  32  33
ATOM     33  C   UNL A   1      38.792  19.681  25.306  1.00  0.00     0.202 C 
BRANCH  33  34
ATOM     34  C   UNL A   1      40.053  19.819  26.169  1.00  0.00     0.261 C 
BRANCH  34  35
ATOM     35  O   UNL A   1      41.205  19.218  25.556  1.00  0.00    -0.460 OA
BRANCH  35  36
ATOM     36  C   UNL A   1      42.351  19.393  26.253  1.00  0.00     0.338 C 
ATOM     37  O   UNL A   1      43.183  18.538  26.539  1.00  0.00    -0.246 OA
BRANCH  36  38
ATOM     38  C   UNL A   1      42.582  20.822  26.507  1.00  0.00     0.060 A 
ATOM     39  C   UNL A   1      42.810  21.637  25.391  1.00  0.00     0.016 A 
ATOM     40  C   UNL A   1      42.636  21.352  27.799  1.00  0.00     0.016 A 
ATOM     41  C   UNL A   1      43.154  22.972  25.565  1.00  0.00     0.010 A 
ATOM     42  C   UNL A   1      42.988  22.695  27.973  1.00  0.00     0.010 A 
ATOM     43  C   UNL A   1      43.286  23.497  26.856  1.00  0.00    -0.014 A 
BRANCH  43  44
ATOM     44  C   UNL A   1      43.871  24.849  27.019  1.00  0.00     0.031 A 
ATOM     45  C   UNL A   1      42.975  25.987  27.423  1.00  0.00     0.074 A 
ATOM     46  C   UNL A   1      45.195  25.035  26.875  1.00  0.00     0.049 A 
ATOM     47  N   UNL A   1      43.285  27.231  27.684  1.00  0.00    -0.248 NA
ATOM     48  C   UNL A   1      41.540  25.685  27.550  1.00  0.00     0.031 C 
ATOM     49  C   UNL A   1      46.159  23.995  26.516  1.00  0.00     0.029 A 
ATOM     50  N   UNL A   1      45.958  26.166  27.023  1.00  0.00    -0.354 N 
ATOM     51  C   UNL A   1      42.085  27.859  28.004  1.00  0.00     0.074 A 
ATOM     52  C   UNL A   1      41.040  26.869  27.872  1.00  0.00     0.031 C 
ATOM     53  C   UNL A   1      47.388  24.536  26.476  1.00  0.00     0.029 A 
ATOM     54  C   UNL A   1      47.294  25.962  26.780  1.00  0.00     0.049 A 
ATOM     55  H   UNL A   1      45.583  27.040  27.278  1.00  0.00     0.167 HD
ATOM     56  C   UNL A   1      41.878  29.144  28.380  1.00  0.00     0.031 A 
ATOM     57  C   UNL A   1      48.325  26.829  26.793  1.00  0.00     0.031 A 
ATOM     58  C   UNL A   1      42.926  30.123  28.493  1.00  0.00     0.049 A 
ATOM     59  C   UNL A   1      48.062  28.265  27.166  1.00  0.00     0.074 A 
ATOM     60  C   UNL A   1      42.830  31.446  28.887  1.00  0.00     0.029 A 
ATOM     61  N   UNL A   1      44.263  29.890  28.201  1.00  0.00    -0.354 N 
ATOM     62  N   UNL A   1      46.929  28.835  27.506  1.00  0.00    -0.248 NA
ATOM     63  C   UNL A   1      49.219  29.171  27.169  1.00  0.00     0.031 C 
ATOM     64  C   UNL A   1      44.098  32.028  28.774  1.00  0.00     0.029 A 
ATOM     65  C   UNL A   1      44.996  31.051  28.372  1.00  0.00     0.049 A 
ATOM     66  H   UNL A   1      44.634  29.024  27.914  1.00  0.00     0.167 HD
ATOM     67  C   UNL A   1      47.239  30.161  27.781  1.00  0.00     0.074 A 
ATOM     68  C   UNL A   1      48.669  30.304  27.588  1.00  0.00     0.031 C 
ATOM     69  C   UNL A   1      46.417  31.173  28.159  1.00  0.00     0.031 A 
BRANCH  56  70
ATOM     70  C   UNL A   1      40.459  29.569  28.655  1.00  0.00    -0.014 A 
ATOM     71  C   UNL A   1      40.083  30.115  29.895  1.00  0.00     0.010 A 
ATOM     72  C   UNL A   1      39.488  29.442  27.643  1.00  0.00     0.010 A 
ATOM     73  C   UNL A   1      38.755  30.486  30.133  1.00  0.00     0.020 A 
ATOM     74  C   UNL A   1      38.167  29.837  27.867  1.00  0.00     0.020 A 
ATOM     75  C   UNL A   1      37.805  30.340  29.118  1.00  0.00     0.054 A 
BRANCH  75  76
ATOM     76  S   UNL A   1      36.092  30.842  29.448  1.00  0.00     0.124 S 
ATOM     77  O   UNL A   1      35.337  29.875  28.654  1.00  0.00    -0.237 OA
ATOM     78  O   UNL A   1      35.985  30.684  30.896  1.00  0.00    -0.237 OA
ATOM     79  O   UNL A   1      36.035  32.220  28.968  1.00  0.00    -0.744 OA
ENDBRANCH  75  76
ENDBRANCH  56  70
BRANCH  57  80
ATOM     80  C   UNL A   1      49.690  26.362  26.431  1.00  0.00    -0.014 A 
ATOM     81  C   UNL A   1      50.194  26.537  25.131  1.00  0.00     0.010 A 
ATOM     82  C   UNL A   1      50.507  25.755  27.404  1.00  0.00     0.010 A 
ATOM     83  C   UNL A   1      51.486  26.107  24.808  1.00  0.00     0.020 A 
ATOM     84  C   UNL A   1      51.807  25.349  27.093  1.00  0.00     0.020 A 
ATOM     85  C   UNL A   1      52.286  25.519  25.794  1.00  0.00     0.054 A 
BRANCH  85  86
ATOM     86  S   UNL A   1      53.981  25.028  25.370  1.00  0.00     0.124 S 
ATOM     87  O   UNL A   1      54.646  25.074  26.668  1.00  0.00    -0.237 OA
ATOM     88  O   UNL A   1      53.790  23.695  24.802  1.00  0.00    -0.237 OA
ATOM     89  O   UNL A   1      54.403  26.050  24.413  1.00  0.00    -0.744 OA
ENDBRANCH  85  86
ENDBRANCH  57  80
BRANCH  69  90
ATOM     90  C   UNL A   1      47.049  32.518  28.405  1.00  0.00    -0.014 A 
ATOM     91  C   UNL A   1      47.659  32.820  29.636  1.00  0.00     0.010 A 
ATOM     92  C   UNL A   1      47.072  33.473  27.374  1.00  0.00     0.010 A 
ATOM     93  C   UNL A   1      48.247  34.071  29.843  1.00  0.00     0.020 A 
ATOM     94  C   UNL A   1      47.684  34.714  27.568  1.00  0.00     0.020 A 
ATOM     95  C   UNL A   1      48.254  35.010  28.808  1.00  0.00     0.054 A 
BRANCH  95  96
ATOM     96  S   UNL A   1      49.051  36.615  29.091  1.00  0.00     0.124 S 
ATOM     97  O   UNL A   1      50.411  36.219  29.451  1.00  0.00    -0.237 OA
ATOM     98  O   UNL A   1      48.911  37.277  27.797  1.00  0.00    -0.237 OA
ATOM     99  O   UNL A   1      48.268  37.205  30.175  1.00  0.00    -0.744 OA
ENDBRANCH  95  96
ENDBRANCH  69  90
ENDBRANCH  43  44
ENDBRANCH  36  38
ENDBRANCH  35  36
ENDBRANCH  34  35
ENDBRANCH  33  34
ENDBRANCH  32  33
ENDBRANCH   1  32
TORSDOF 23
ENDMDL
