MODEL 1
REMARK VINA RESULT:     -11.8      0.000      0.000
REMARK SMILES O=C(OCCOCCOC(=O)c1ccc(-c2c3nc(c(-c4ccc(S(=O)(=O)[O-])cc4)c4ccc([nH]4)c(-c4ccc(S(=O)(=O)[O-])cc4)c4nc(c(-c5ccc(S(=O)(=O)[O-])cc5)c5ccc2[nH]5)C=C4)C=C3)cc1)C1=Cc2cc(S(F)(F)(F)(F)F)cc(Br)c2O[C@@H]1C(F)(F)F
REMARK SMILES IDX 7 1 6 2 5 3 4 4 3 5 2 6 1 7 72 8 73 9 88 10 74 11 87 12
REMARK SMILES IDX 75 13 86 14 76 15 84 16 83 17 85 18 89 19 90 20 91 21 92 22
REMARK SMILES IDX 77 23 78 24 79 25 80 26 81 27 82 28 8 29 9 30 10 31 11 32
REMARK SMILES IDX 12 33 13 34 71 35 14 36 70 37 15 38 16 39 17 40 64 41 18 42
REMARK SMILES IDX 69 43 63 44 65 45 19 46 68 47 62 48 61 49 20 51 50 52 31 53
REMARK SMILES IDX 49 54 32 55 35 56 48 57 66 58 33 59 34 60 47 62 67 63 36 64
REMARK SMILES IDX 21 65 22 66 30 67 23 68 29 69 24 70 25 71 26 72 27 73 28 74
REMARK SMILES IDX 51 75 52 76 60 77 53 78 59 79 54 80 55 81 56 82 57 83 58 84
REMARK SMILES IDX 37 85 38 86 46 87 39 88 45 89 40 90 41 91 42 92 43 93 44 94
REMARK H PARENT 65 50 35 61
REMARK Flexibility Score: inf
ROOT
ATOM      1  C   UNL A   1      32.386  28.499  25.479  1.00  0.00     0.202 C 
ENDROOT
BRANCH   1   2
ATOM      2  O   UNL A   1      32.310  27.106  25.215  1.00  0.00    -0.374 OA
BRANCH   2   3
ATOM      3  C   UNL A   1      33.621  26.582  25.064  1.00  0.00     0.202 C 
BRANCH   3   4
ATOM      4  C   UNL A   1      33.687  25.734  23.803  1.00  0.00     0.261 C 
BRANCH   4   5
ATOM      5  O   UNL A   1      33.924  24.379  24.155  1.00  0.00    -0.460 OA
BRANCH   5   6
ATOM      6  C   UNL A   1      33.036  23.364  23.710  1.00  0.00     0.338 C 
ATOM      7  O   UNL A   1      33.242  22.781  22.600  1.00  0.00    -0.246 OA
BRANCH   6   8
ATOM      8  C   UNL A   1      31.839  22.975  24.562  1.00  0.00     0.087 C 
ATOM      9  C   UNL A   1      31.784  21.742  25.136  1.00  0.00     0.027 C 
ATOM     10  C   UNL A   1      30.703  23.963  24.773  1.00  0.00     0.316 C 
ATOM     11  C   UNL A   1      32.919  20.754  24.924  1.00  0.00     0.020 A 
ATOM     12  O   UNL A   1      34.382  22.590  25.291  1.00  0.00    -0.474 OA
ATOM     13  C   UNL A   1      32.666  19.450  24.531  1.00  0.00     0.036 A 
ATOM     14  C   UNL A   1      34.160  21.210  25.043  1.00  0.00     0.142 A 
ATOM     15  C   UNL A   1      33.805  18.611  24.564  1.00  0.00     0.109 A 
ATOM     16  C   UNL A   1      35.232  20.357  24.929  1.00  0.00     0.062 A 
ATOM     17  C   UNL A   1      35.052  19.043  24.600  1.00  0.00     0.044 A 
ATOM     18  Br  UNL A   1      37.045  21.037  25.241  1.00  0.00    -0.047 Br
BRANCH  10  19
ATOM     19  C   UNL A   1      30.554  24.255  26.257  1.00  0.00     0.430 C 
ATOM     20  F   UNL A   1      29.924  23.242  26.847  1.00  0.00    -0.167 F 
ATOM     21  F   UNL A   1      31.757  24.406  26.803  1.00  0.00    -0.167 F 
ATOM     22  F   UNL A   1      29.848  25.371  26.421  1.00  0.00    -0.167 F 
ENDBRANCH  10  19
BRANCH  15  23
ATOM     23  S   UNL A   1      33.533  16.822  24.556  1.00  0.00     0.310 S 
ATOM     24  F   UNL A   1      35.055  16.516  24.883  1.00  0.00    -0.094 F 
ATOM     25  F   UNL A   1      33.925  16.784  23.031  1.00  0.00    -0.094 F 
ATOM     26  F   UNL A   1      33.289  15.286  24.558  1.00  0.00    -0.094 F 
ATOM     27  F   UNL A   1      33.281  16.857  26.115  1.00  0.00    -0.094 F 
ATOM     28  F   UNL A   1      33.888  18.361  24.593  1.00  0.00    -0.094 F 
ENDBRANCH  15  23
ENDBRANCH   6   8
ENDBRANCH   5   6
ENDBRANCH   4   5
ENDBRANCH   3   4
ENDBRANCH   2   3
ENDBRANCH   1   2
BRANCH   1  29
ATOM     29  C   UNL A   1      33.808  28.864  25.873  1.00  0.00     0.261 C 
BRANCH  29  30
ATOM     30  O   UNL A   1      33.879  29.040  27.280  1.00  0.00    -0.460 OA
BRANCH  30  31
ATOM     31  C   UNL A   1      34.670  30.085  27.826  1.00  0.00     0.338 C 
ATOM     32  O   UNL A   1      34.191  31.257  27.931  1.00  0.00    -0.246 OA
BRANCH  31  33
ATOM     33  C   UNL A   1      36.092  29.801  28.284  1.00  0.00     0.060 A 
ATOM     34  C   UNL A   1      36.360  29.326  29.557  1.00  0.00     0.016 A 
ATOM     35  C   UNL A   1      37.051  29.909  27.373  1.00  0.00     0.016 A 
ATOM     36  C   UNL A   1      37.740  29.260  29.865  1.00  0.00     0.010 A 
ATOM     37  C   UNL A   1      38.365  29.698  27.713  1.00  0.00     0.010 A 
ATOM     38  C   UNL A   1      38.710  29.285  28.970  1.00  0.00    -0.014 A 
BRANCH  38  39
ATOM     39  C   UNL A   1      40.131  28.874  29.317  1.00  0.00     0.031 A 
ATOM     40  C   UNL A   1      40.926  29.844  29.929  1.00  0.00     0.074 A 
ATOM     41  C   UNL A   1      40.599  27.638  28.905  1.00  0.00     0.049 A 
ATOM     42  N   UNL A   1      42.217  29.756  30.248  1.00  0.00    -0.248 NA
ATOM     43  C   UNL A   1      40.439  31.171  30.337  1.00  0.00     0.031 C 
ATOM     44  C   UNL A   1      39.803  26.649  28.294  1.00  0.00     0.029 A 
ATOM     45  N   UNL A   1      41.882  27.144  29.002  1.00  0.00    -0.354 N 
ATOM     46  C   UNL A   1      42.625  30.881  30.839  1.00  0.00     0.074 A 
ATOM     47  C   UNL A   1      41.488  31.809  30.898  1.00  0.00     0.031 C 
ATOM     48  C   UNL A   1      40.595  25.581  28.017  1.00  0.00     0.029 A 
ATOM     49  C   UNL A   1      41.899  25.882  28.450  1.00  0.00     0.049 A 
ATOM     50  H   UNL A   1      42.652  27.613  29.397  1.00  0.00     0.167 HD
ATOM     51  C   UNL A   1      43.899  31.168  31.332  1.00  0.00     0.031 A 
ATOM     52  C   UNL A   1      42.983  25.028  28.320  1.00  0.00     0.031 A 
ATOM     53  C   UNL A   1      44.972  30.296  31.242  1.00  0.00     0.049 A 
ATOM     54  C   UNL A   1      44.272  25.339  28.761  1.00  0.00     0.074 A 
ATOM     55  C   UNL A   1      46.261  30.568  31.740  1.00  0.00     0.029 A 
ATOM     56  N   UNL A   1      44.996  29.045  30.668  1.00  0.00    -0.354 N 
ATOM     57  N   UNL A   1      44.670  26.448  29.387  1.00  0.00    -0.248 NA
ATOM     58  C   UNL A   1      45.434  24.455  28.600  1.00  0.00     0.031 C 
ATOM     59  C   UNL A   1      47.054  29.498  31.462  1.00  0.00     0.029 A 
ATOM     60  C   UNL A   1      46.274  28.542  30.785  1.00  0.00     0.049 A 
ATOM     61  H   UNL A   1      44.233  28.588  30.246  1.00  0.00     0.167 HD
ATOM     62  C   UNL A   1      45.972  26.375  29.669  1.00  0.00     0.074 A 
ATOM     63  C   UNL A   1      46.484  25.095  29.161  1.00  0.00     0.031 C 
ATOM     64  C   UNL A   1      46.753  27.322  30.334  1.00  0.00     0.031 A 
BRANCH  51  65
ATOM     65  C   UNL A   1      44.121  32.513  32.006  1.00  0.00    -0.014 A 
ATOM     66  C   UNL A   1      43.896  32.683  33.362  1.00  0.00     0.010 A 
ATOM     67  C   UNL A   1      44.410  33.544  31.221  1.00  0.00     0.010 A 
ATOM     68  C   UNL A   1      43.714  34.032  33.748  1.00  0.00     0.020 A 
ATOM     69  C   UNL A   1      44.343  34.829  31.701  1.00  0.00     0.020 A 
ATOM     70  C   UNL A   1      44.068  35.074  33.018  1.00  0.00     0.054 A 
BRANCH  70  71
ATOM     71  S   UNL A   1      44.183  36.738  33.723  1.00  0.00     0.124 S 
ATOM     72  O   UNL A   1      43.346  37.706  32.883  1.00  0.00    -0.237 OA
ATOM     73  O   UNL A   1      43.655  36.720  35.159  1.00  0.00    -0.237 OA
ATOM     74  O   UNL A   1      45.815  37.246  33.721  1.00  0.00    -0.744 OA
ENDBRANCH  70  71
ENDBRANCH  51  65
BRANCH  52  75
ATOM     75  C   UNL A   1      42.757  23.678  27.662  1.00  0.00    -0.014 A 
ATOM     76  C   UNL A   1      42.938  23.439  26.309  1.00  0.00     0.010 A 
ATOM     77  C   UNL A   1      42.458  22.693  28.501  1.00  0.00     0.010 A 
ATOM     78  C   UNL A   1      42.496  22.163  25.888  1.00  0.00     0.020 A 
ATOM     79  C   UNL A   1      42.169  21.435  28.029  1.00  0.00     0.020 A 
ATOM     80  C   UNL A   1      42.271  21.144  26.697  1.00  0.00     0.054 A 
BRANCH  80  81
ATOM     81  S   UNL A   1      42.104  19.451  26.076  1.00  0.00     0.124 S 
ATOM     82  O   UNL A   1      42.974  19.278  24.829  1.00  0.00    -0.237 OA
ATOM     83  O   UNL A   1      42.559  18.465  27.155  1.00  0.00    -0.237 OA
ATOM     84  O   UNL A   1      40.469  19.148  25.679  1.00  0.00    -0.744 OA
ENDBRANCH  80  81
ENDBRANCH  52  75
BRANCH  64  85
ATOM     85  C   UNL A   1      48.217  26.996  30.576  1.00  0.00    -0.014 A 
ATOM     86  C   UNL A   1      49.210  27.439  29.719  1.00  0.00     0.010 A 
ATOM     87  C   UNL A   1      48.514  26.366  31.707  1.00  0.00     0.010 A 
ATOM     88  C   UNL A   1      50.491  26.910  30.003  1.00  0.00     0.020 A 
ATOM     89  C   UNL A   1      49.809  25.999  31.984  1.00  0.00     0.020 A 
ATOM     90  C   UNL A   1      50.834  26.352  31.149  1.00  0.00     0.054 A 
BRANCH  90  91
ATOM     91  S   UNL A   1      52.565  26.069  31.593  1.00  0.00     0.124 S 
ATOM     92  O   UNL A   1      53.434  26.147  30.336  1.00  0.00    -0.237 OA
ATOM     93  O   UNL A   1      53.017  27.137  32.592  1.00  0.00    -0.237 OA
ATOM     94  O   UNL A   1      52.727  24.522  32.302  1.00  0.00    -0.744 OA
ENDBRANCH  90  91
ENDBRANCH  64  85
ENDBRANCH  38  39
ENDBRANCH  31  33
ENDBRANCH  30  31
ENDBRANCH  29  30
ENDBRANCH   1  29
TORSDOF 19
ENDMDL
MODEL 2
REMARK VINA RESULT:     -11.3      4.369      9.986
REMARK SMILES O=C(OCCOCCOC(=O)c1ccc(-c2c3nc(c(-c4ccc(S(=O)(=O)[O-])cc4)c4ccc([nH]4)c(-c4ccc(S(=O)(=O)[O-])cc4)c4nc(c(-c5ccc(S(=O)(=O)[O-])cc5)c5ccc2[nH]5)C=C4)C=C3)cc1)C1=Cc2cc(S(F)(F)(F)(F)F)cc(Br)c2O[C@@H]1C(F)(F)F
REMARK SMILES IDX 7 1 6 2 5 3 4 4 3 5 2 6 1 7 72 8 73 9 88 10 74 11 87 12
REMARK SMILES IDX 75 13 86 14 76 15 84 16 83 17 85 18 89 19 90 20 91 21 92 22
REMARK SMILES IDX 77 23 78 24 79 25 80 26 81 27 82 28 8 29 9 30 10 31 11 32
REMARK SMILES IDX 12 33 13 34 71 35 14 36 70 37 15 38 16 39 17 40 64 41 18 42
REMARK SMILES IDX 69 43 63 44 65 45 19 46 68 47 62 48 61 49 20 51 50 52 31 53
REMARK SMILES IDX 49 54 32 55 35 56 48 57 66 58 33 59 34 60 47 62 67 63 36 64
REMARK SMILES IDX 21 65 22 66 30 67 23 68 29 69 24 70 25 71 26 72 27 73 28 74
REMARK SMILES IDX 51 75 52 76 60 77 53 78 59 79 54 80 55 81 56 82 57 83 58 84
REMARK SMILES IDX 37 85 38 86 46 87 39 88 45 89 40 90 41 91 42 92 43 93 44 94
REMARK H PARENT 65 50 35 61
REMARK Flexibility Score: inf
ROOT
ATOM      1  C   UNL A   1      35.614  22.592  26.190  1.00  0.00     0.202 C 
ENDROOT
BRANCH   1   2
ATOM      2  O   UNL A   1      34.902  23.172  25.107  1.00  0.00    -0.374 OA
BRANCH   2   3
ATOM      3  C   UNL A   1      35.039  24.585  25.153  1.00  0.00     0.202 C 
BRANCH   3   4
ATOM      4  C   UNL A   1      33.927  25.230  24.342  1.00  0.00     0.261 C 
BRANCH   4   5
ATOM      5  O   UNL A   1      33.394  26.333  25.061  1.00  0.00    -0.460 OA
BRANCH   5   6
ATOM      6  C   UNL A   1      33.276  27.601  24.432  1.00  0.00     0.338 C 
ATOM      7  O   UNL A   1      33.160  27.674  23.168  1.00  0.00    -0.246 OA
BRANCH   6   8
ATOM      8  C   UNL A   1      33.289  28.869  25.269  1.00  0.00     0.087 C 
ATOM      9  C   UNL A   1      32.220  29.711  25.244  1.00  0.00     0.027 C 
ATOM     10  C   UNL A   1      34.496  29.197  26.133  1.00  0.00     0.316 C 
ATOM     11  C   UNL A   1      31.014  29.384  24.380  1.00  0.00     0.020 A 
ATOM     12  O   UNL A   1      31.238  27.156  25.178  1.00  0.00    -0.474 OA
ATOM     13  C   UNL A   1      30.471  30.328  23.524  1.00  0.00     0.036 A 
ATOM     14  C   UNL A   1      30.557  28.137  24.409  1.00  0.00     0.142 A 
ATOM     15  C   UNL A   1      29.246  29.933  22.937  1.00  0.00     0.109 A 
ATOM     16  C   UNL A   1      29.431  27.788  23.702  1.00  0.00     0.062 A 
ATOM     17  C   UNL A   1      28.810  28.688  22.883  1.00  0.00     0.044 A 
ATOM     18  Br  UNL A   1      28.708  25.974  23.872  1.00  0.00    -0.047 Br
BRANCH  10  19
ATOM     19  C   UNL A   1      34.067  29.289  27.588  1.00  0.00     0.430 C 
ATOM     20  F   UNL A   1      33.665  30.529  27.854  1.00  0.00    -0.167 F 
ATOM     21  F   UNL A   1      33.067  28.441  27.811  1.00  0.00    -0.167 F 
ATOM     22  F   UNL A   1      35.095  28.978  28.374  1.00  0.00    -0.167 F 
ENDBRANCH  10  19
BRANCH  15  23
ATOM     23  S   UNL A   1      28.206  31.222  22.210  1.00  0.00     0.310 S 
ATOM     24  F   UNL A   1      29.221  32.372  22.614  1.00  0.00    -0.094 F 
ATOM     25  F   UNL A   1      27.516  31.435  23.610  1.00  0.00    -0.094 F 
ATOM     26  F   UNL A   1      27.311  32.323  21.571  1.00  0.00    -0.094 F 
ATOM     27  F   UNL A   1      29.004  31.095  20.852  1.00  0.00    -0.094 F 
ATOM     28  F   UNL A   1      29.197  30.185  22.873  1.00  0.00    -0.094 F 
ENDBRANCH  15  23
ENDBRANCH   6   8
ENDBRANCH   5   6
ENDBRANCH   4   5
ENDBRANCH   3   4
ENDBRANCH   2   3
ENDBRANCH   1   2
BRANCH   1  29
ATOM     29  C   UNL A   1      36.807  21.817  25.655  1.00  0.00     0.261 C 
BRANCH  29  30
ATOM     30  O   UNL A   1      37.838  22.723  25.295  1.00  0.00    -0.460 OA
BRANCH  30  31
ATOM     31  C   UNL A   1      39.012  22.815  26.088  1.00  0.00     0.338 C 
ATOM     32  O   UNL A   1      39.774  21.806  26.215  1.00  0.00    -0.246 OA
BRANCH  31  33
ATOM     33  C   UNL A   1      39.356  24.120  26.789  1.00  0.00     0.060 A 
ATOM     34  C   UNL A   1      39.046  24.329  28.122  1.00  0.00     0.016 A 
ATOM     35  C   UNL A   1      40.077  24.999  26.104  1.00  0.00     0.016 A 
ATOM     36  C   UNL A   1      39.301  25.646  28.570  1.00  0.00     0.010 A 
ATOM     37  C   UNL A   1      40.406  26.214  26.653  1.00  0.00     0.010 A 
ATOM     38  C   UNL A   1      40.079  26.512  27.947  1.00  0.00    -0.014 A 
BRANCH  38  39
ATOM     39  C   UNL A   1      40.586  27.770  28.632  1.00  0.00     0.031 A 
ATOM     40  C   UNL A   1      41.886  27.720  29.140  1.00  0.00     0.074 A 
ATOM     41  C   UNL A   1      39.719  28.830  28.830  1.00  0.00     0.049 A 
ATOM     42  N   UNL A   1      42.519  28.655  29.850  1.00  0.00    -0.248 NA
ATOM     43  C   UNL A   1      42.797  26.580  28.959  1.00  0.00     0.031 C 
ATOM     44  C   UNL A   1      38.410  28.894  28.315  1.00  0.00     0.029 A 
ATOM     45  N   UNL A   1      39.947  29.988  29.542  1.00  0.00    -0.354 N 
ATOM     46  C   UNL A   1      43.758  28.253  30.141  1.00  0.00     0.074 A 
ATOM     47  C   UNL A   1      43.952  26.911  29.577  1.00  0.00     0.031 C 
ATOM     48  C   UNL A   1      37.853  30.065  28.718  1.00  0.00     0.029 A 
ATOM     49  C   UNL A   1      38.804  30.756  29.492  1.00  0.00     0.049 A 
ATOM     50  H   UNL A   1      40.783  30.225  30.005  1.00  0.00     0.167 HD
ATOM     51  C   UNL A   1      44.733  28.955  30.850  1.00  0.00     0.031 A 
ATOM     52  C   UNL A   1      38.585  31.990  30.084  1.00  0.00     0.031 A 
ATOM     53  C   UNL A   1      44.528  30.208  31.405  1.00  0.00     0.049 A 
ATOM     54  C   UNL A   1      39.541  32.666  30.845  1.00  0.00     0.074 A 
ATOM     55  C   UNL A   1      45.504  30.932  32.118  1.00  0.00     0.029 A 
ATOM     56  N   UNL A   1      43.378  30.964  31.377  1.00  0.00    -0.354 N 
ATOM     57  N   UNL A   1      40.793  32.282  31.101  1.00  0.00    -0.248 NA
ATOM     58  C   UNL A   1      39.309  33.958  31.503  1.00  0.00     0.031 C 
ATOM     59  C   UNL A   1      44.946  32.104  32.522  1.00  0.00     0.029 A 
ATOM     60  C   UNL A   1      43.613  32.132  32.069  1.00  0.00     0.049 A 
ATOM     61  H   UNL A   1      42.532  30.714  30.938  1.00  0.00     0.167 HD
ATOM     62  C   UNL A   1      41.412  33.199  31.847  1.00  0.00     0.074 A 
ATOM     63  C   UNL A   1      40.464  34.288  32.122  1.00  0.00     0.031 C 
ATOM     64  C   UNL A   1      42.730  33.174  32.304  1.00  0.00     0.031 A 
BRANCH  51  65
ATOM     65  C   UNL A   1      46.098  28.307  31.025  1.00  0.00    -0.014 A 
ATOM     66  C   UNL A   1      47.091  28.455  30.071  1.00  0.00     0.010 A 
ATOM     67  C   UNL A   1      46.254  27.490  32.060  1.00  0.00     0.010 A 
ATOM     68  C   UNL A   1      48.105  27.472  30.143  1.00  0.00     0.020 A 
ATOM     69  C   UNL A   1      47.339  26.652  32.132  1.00  0.00     0.020 A 
ATOM     70  C   UNL A   1      48.330  26.702  31.192  1.00  0.00     0.054 A 
BRANCH  70  71
ATOM     71  S   UNL A   1      49.868  25.765  31.376  1.00  0.00     0.124 S 
ATOM     72  O   UNL A   1      50.197  25.061  30.058  1.00  0.00    -0.237 OA
ATOM     73  O   UNL A   1      51.007  26.721  31.742  1.00  0.00    -0.237 OA
ATOM     74  O   UNL A   1      49.682  24.601  32.614  1.00  0.00    -0.744 OA
ENDBRANCH  70  71
ENDBRANCH  51  65
BRANCH  52  75
ATOM     75  C   UNL A   1      37.226  32.644  29.895  1.00  0.00    -0.014 A 
ATOM     76  C   UNL A   1      36.162  32.478  30.767  1.00  0.00     0.010 A 
ATOM     77  C   UNL A   1      37.150  33.480  28.867  1.00  0.00     0.010 A 
ATOM     78  C   UNL A   1      34.946  33.030  30.300  1.00  0.00     0.020 A 
ATOM     79  C   UNL A   1      35.961  34.090  28.548  1.00  0.00     0.020 A 
ATOM     80  C   UNL A   1      34.854  33.924  29.333  1.00  0.00     0.054 A 
BRANCH  80  81
ATOM     81  S   UNL A   1      33.340  34.880  29.059  1.00  0.00     0.124 S 
ATOM     82  O   UNL A   1      32.477  34.177  28.008  1.00  0.00    -0.237 OA
ATOM     83  O   UNL A   1      32.559  34.986  30.371  1.00  0.00    -0.237 OA
ATOM     84  O   UNL A   1      33.746  36.447  28.509  1.00  0.00    -0.744 OA
ENDBRANCH  80  81
ENDBRANCH  52  75
BRANCH  64  85
ATOM     85  C   UNL A   1      43.228  34.362  33.112  1.00  0.00    -0.014 A 
ATOM     86  C   UNL A   1      43.078  34.418  34.487  1.00  0.00     0.010 A 
ATOM     87  C   UNL A   1      43.914  35.291  32.456  1.00  0.00     0.010 A 
ATOM     88  C   UNL A   1      43.448  35.660  35.054  1.00  0.00     0.020 A 
ATOM     89  C   UNL A   1      44.364  36.416  33.103  1.00  0.00     0.020 A 
ATOM     90  C   UNL A   1      44.197  36.566  34.452  1.00  0.00     0.054 A 
BRANCH  90  91
ATOM     91  S   UNL A   1      44.963  37.929  35.361  1.00  0.00     0.124 S 
ATOM     92  O   UNL A   1      46.458  37.649  35.539  1.00  0.00    -0.237 OA
ATOM     93  O   UNL A   1      44.779  39.232  34.578  1.00  0.00    -0.237 OA
ATOM     94  O   UNL A   1      44.224  38.079  36.895  1.00  0.00    -0.744 OA
ENDBRANCH  90  91
ENDBRANCH  64  85
ENDBRANCH  38  39
ENDBRANCH  31  33
ENDBRANCH  30  31
ENDBRANCH  29  30
ENDBRANCH   1  29
TORSDOF 19
ENDMDL
MODEL 3
REMARK VINA RESULT:     -10.9      5.067      9.943
REMARK SMILES O=C(OCCOCCOC(=O)c1ccc(-c2c3nc(c(-c4ccc(S(=O)(=O)[O-])cc4)c4ccc([nH]4)c(-c4ccc(S(=O)(=O)[O-])cc4)c4nc(c(-c5ccc(S(=O)(=O)[O-])cc5)c5ccc2[nH]5)C=C4)C=C3)cc1)C1=Cc2cc(S(F)(F)(F)(F)F)cc(Br)c2O[C@@H]1C(F)(F)F
REMARK SMILES IDX 7 1 6 2 5 3 4 4 3 5 2 6 1 7 72 8 73 9 88 10 74 11 87 12
REMARK SMILES IDX 75 13 86 14 76 15 84 16 83 17 85 18 89 19 90 20 91 21 92 22
REMARK SMILES IDX 77 23 78 24 79 25 80 26 81 27 82 28 8 29 9 30 10 31 11 32
REMARK SMILES IDX 12 33 13 34 71 35 14 36 70 37 15 38 16 39 17 40 64 41 18 42
REMARK SMILES IDX 69 43 63 44 65 45 19 46 68 47 62 48 61 49 20 51 50 52 31 53
REMARK SMILES IDX 49 54 32 55 35 56 48 57 66 58 33 59 34 60 47 62 67 63 36 64
REMARK SMILES IDX 21 65 22 66 30 67 23 68 29 69 24 70 25 71 26 72 27 73 28 74
REMARK SMILES IDX 51 75 52 76 60 77 53 78 59 79 54 80 55 81 56 82 57 83 58 84
REMARK SMILES IDX 37 85 38 86 46 87 39 88 45 89 40 90 41 91 42 92 43 93 44 94
REMARK H PARENT 65 50 35 61
REMARK Flexibility Score: inf
ROOT
ATOM      1  C   UNL A   1      39.915  22.226  26.602  1.00  0.00     0.202 C 
ENDROOT
BRANCH   1   2
ATOM      2  O   UNL A   1      39.101  22.718  25.547  1.00  0.00    -0.374 OA
BRANCH   2   3
ATOM      3  C   UNL A   1      37.763  22.283  25.740  1.00  0.00     0.202 C 
BRANCH   3   4
ATOM      4  C   UNL A   1      36.872  23.486  26.004  1.00  0.00     0.261 C 
BRANCH   4   5
ATOM      5  O   UNL A   1      36.281  23.914  24.786  1.00  0.00    -0.460 OA
BRANCH   5   6
ATOM      6  C   UNL A   1      35.427  23.037  24.065  1.00  0.00     0.338 C 
ATOM      7  O   UNL A   1      35.585  22.884  22.813  1.00  0.00    -0.246 OA
BRANCH   6   8
ATOM      8  C   UNL A   1      34.325  22.283  24.789  1.00  0.00     0.087 C 
ATOM      9  C   UNL A   1      33.267  22.961  25.313  1.00  0.00     0.027 C 
ATOM     10  C   UNL A   1      34.404  20.771  24.930  1.00  0.00     0.316 C 
ATOM     11  C   UNL A   1      33.189  24.472  25.174  1.00  0.00     0.020 A 
ATOM     12  O   UNL A   1      33.886  24.148  22.925  1.00  0.00    -0.474 OA
ATOM     13  C   UNL A   1      32.928  25.277  26.270  1.00  0.00     0.036 A 
ATOM     14  C   UNL A   1      33.467  24.995  23.985  1.00  0.00     0.142 A 
ATOM     15  C   UNL A   1      32.698  26.634  25.943  1.00  0.00     0.109 A 
ATOM     16  C   UNL A   1      33.352  26.348  23.772  1.00  0.00     0.062 A 
ATOM     17  C   UNL A   1      33.040  27.196  24.797  1.00  0.00     0.044 A 
ATOM     18  Br  UNL A   1      33.642  27.070  21.973  1.00  0.00    -0.047 Br
BRANCH  10  19
ATOM     19  C   UNL A   1      33.194  20.137  24.263  1.00  0.00     0.430 C 
ATOM     20  F   UNL A   1      33.510  18.914  23.844  1.00  0.00    -0.167 F 
ATOM     21  F   UNL A   1      32.195  20.061  25.137  1.00  0.00    -0.167 F 
ATOM     22  F   UNL A   1      32.820  20.878  23.224  1.00  0.00    -0.167 F 
ENDBRANCH  10  19
BRANCH  15  23
ATOM     23  S   UNL A   1      31.881  27.673  27.178  1.00  0.00     0.310 S 
ATOM     24  F   UNL A   1      31.720  28.881  26.163  1.00  0.00    -0.094 F 
ATOM     25  F   UNL A   1      33.280  28.281  27.572  1.00  0.00    -0.094 F 
ATOM     26  F   UNL A   1      31.168  28.555  28.243  1.00  0.00    -0.094 F 
ATOM     27  F   UNL A   1      30.475  27.158  26.675  1.00  0.00    -0.094 F 
ATOM     28  F   UNL A   1      32.578  26.858  26.018  1.00  0.00    -0.094 F 
ENDBRANCH  15  23
ENDBRANCH   6   8
ENDBRANCH   5   6
ENDBRANCH   4   5
ENDBRANCH   3   4
ENDBRANCH   2   3
ENDBRANCH   1   2
BRANCH   1  29
ATOM     29  C   UNL A   1      40.108  23.317  27.644  1.00  0.00     0.261 C 
BRANCH  29  30
ATOM     30  O   UNL A   1      41.042  24.271  27.162  1.00  0.00    -0.460 OA
BRANCH  30  31
ATOM     31  C   UNL A   1      40.660  25.632  27.026  1.00  0.00     0.338 C 
ATOM     32  O   UNL A   1      40.464  26.125  25.872  1.00  0.00    -0.246 OA
BRANCH  31  33
ATOM     33  C   UNL A   1      40.486  26.500  28.263  1.00  0.00     0.060 A 
ATOM     34  C   UNL A   1      39.487  26.248  29.189  1.00  0.00     0.016 A 
ATOM     35  C   UNL A   1      41.409  27.429  28.481  1.00  0.00     0.016 A 
ATOM     36  C   UNL A   1      39.376  27.237  30.195  1.00  0.00     0.010 A 
ATOM     37  C   UNL A   1      41.310  28.274  29.559  1.00  0.00     0.010 A 
ATOM     38  C   UNL A   1      40.314  28.121  30.483  1.00  0.00    -0.014 A 
BRANCH  38  39
ATOM     39  C   UNL A   1      40.287  28.924  31.773  1.00  0.00     0.031 A 
ATOM     40  C   UNL A   1      39.321  29.927  31.861  1.00  0.00     0.074 A 
ATOM     41  C   UNL A   1      41.276  28.718  32.720  1.00  0.00     0.049 A 
ATOM     42  N   UNL A   1      39.153  30.814  32.843  1.00  0.00    -0.248 NA
ATOM     43  C   UNL A   1      38.290  30.169  30.839  1.00  0.00     0.031 C 
ATOM     44  C   UNL A   1      42.250  27.704  32.645  1.00  0.00     0.029 A 
ATOM     45  N   UNL A   1      41.501  29.432  33.877  1.00  0.00    -0.354 N 
ATOM     46  C   UNL A   1      38.109  31.603  32.580  1.00  0.00     0.074 A 
ATOM     47  C   UNL A   1      37.543  31.203  31.285  1.00  0.00     0.031 C 
ATOM     48  C   UNL A   1      43.056  27.811  33.733  1.00  0.00     0.029 A 
ATOM     49  C   UNL A   1      42.600  28.893  34.508  1.00  0.00     0.049 A 
ATOM     50  H   UNL A   1      40.967  30.195  34.197  1.00  0.00     0.167 HD
ATOM     51  C   UNL A   1      37.606  32.636  33.371  1.00  0.00     0.031 A 
ATOM     52  C   UNL A   1      43.188  29.310  35.692  1.00  0.00     0.031 A 
ATOM     53  C   UNL A   1      38.168  33.026  34.576  1.00  0.00     0.049 A 
ATOM     54  C   UNL A   1      42.720  30.384  36.454  1.00  0.00     0.074 A 
ATOM     55  C   UNL A   1      37.668  34.061  35.389  1.00  0.00     0.029 A 
ATOM     56  N   UNL A   1      39.282  32.503  35.195  1.00  0.00    -0.354 N 
ATOM     57  N   UNL A   1      41.652  31.146  36.211  1.00  0.00    -0.248 NA
ATOM     58  C   UNL A   1      43.353  30.855  37.692  1.00  0.00     0.031 C 
ATOM     59  C   UNL A   1      38.476  34.169  36.478  1.00  0.00     0.029 A 
ATOM     60  C   UNL A   1      39.493  33.203  36.363  1.00  0.00     0.049 A 
ATOM     61  H   UNL A   1      39.833  31.759  34.860  1.00  0.00     0.167 HD
ATOM     62  C   UNL A   1      41.511  32.059  37.173  1.00  0.00     0.074 A 
ATOM     63  C   UNL A   1      42.607  31.890  38.137  1.00  0.00     0.031 C 
ATOM     64  C   UNL A   1      40.509  33.024  37.290  1.00  0.00     0.031 A 
BRANCH  51  65
ATOM     65  C   UNL A   1      36.372  33.378  32.881  1.00  0.00    -0.014 A 
ATOM     66  C   UNL A   1      36.479  34.578  32.198  1.00  0.00     0.010 A 
ATOM     67  C   UNL A   1      35.191  32.898  33.250  1.00  0.00     0.010 A 
ATOM     68  C   UNL A   1      35.291  35.346  32.202  1.00  0.00     0.020 A 
ATOM     69  C   UNL A   1      34.052  33.651  33.101  1.00  0.00     0.020 A 
ATOM     70  C   UNL A   1      34.092  34.872  32.487  1.00  0.00     0.054 A 
BRANCH  70  71
ATOM     71  S   UNL A   1      32.583  35.788  32.086  1.00  0.00     0.124 S 
ATOM     72  O   UNL A   1      32.466  35.938  30.568  1.00  0.00    -0.237 OA
ATOM     73  O   UNL A   1      31.367  35.026  32.619  1.00  0.00    -0.237 OA
ATOM     74  O   UNL A   1      32.647  37.337  32.808  1.00  0.00    -0.744 OA
ENDBRANCH  70  71
ENDBRANCH  51  65
BRANCH  52  75
ATOM     75  C   UNL A   1      44.411  28.558  36.189  1.00  0.00    -0.014 A 
ATOM     76  C   UNL A   1      45.711  28.880  35.834  1.00  0.00     0.010 A 
ATOM     77  C   UNL A   1      44.155  27.609  37.081  1.00  0.00     0.010 A 
ATOM     78  C   UNL A   1      46.673  27.937  36.267  1.00  0.00     0.020 A 
ATOM     79  C   UNL A   1      45.165  26.812  37.564  1.00  0.00     0.020 A 
ATOM     80  C   UNL A   1      46.467  27.036  37.211  1.00  0.00     0.054 A 
BRANCH  80  81
ATOM     81  S   UNL A   1      47.834  26.144  37.993  1.00  0.00     0.124 S 
ATOM     82  O   UNL A   1      47.871  24.707  37.468  1.00  0.00    -0.237 OA
ATOM     83  O   UNL A   1      49.155  26.842  37.661  1.00  0.00    -0.237 OA
ATOM     84  O   UNL A   1      47.609  26.127  39.688  1.00  0.00    -0.744 OA
ENDBRANCH  80  81
ENDBRANCH  52  75
BRANCH  64  85
ATOM     85  C   UNL A   1      40.534  33.936  38.505  1.00  0.00    -0.014 A 
ATOM     86  C   UNL A   1      39.967  33.556  39.709  1.00  0.00     0.010 A 
ATOM     87  C   UNL A   1      41.224  35.066  38.395  1.00  0.00     0.010 A 
ATOM     88  C   UNL A   1      39.937  34.585  40.680  1.00  0.00     0.020 A 
ATOM     89  C   UNL A   1      41.263  35.965  39.434  1.00  0.00     0.020 A 
ATOM     90  C   UNL A   1      40.673  35.680  40.634  1.00  0.00     0.054 A 
BRANCH  90  91
ATOM     91  S   UNL A   1      40.890  36.746  42.080  1.00  0.00     0.124 S 
ATOM     92  O   UNL A   1      42.187  37.545  41.935  1.00  0.00    -0.237 OA
ATOM     93  O   UNL A   1      39.706  37.711  42.184  1.00  0.00    -0.237 OA
ATOM     94  O   UNL A   1      40.966  35.785  43.491  1.00  0.00    -0.744 OA
ENDBRANCH  90  91
ENDBRANCH  64  85
ENDBRANCH  38  39
ENDBRANCH  31  33
ENDBRANCH  30  31
ENDBRANCH  29  30
ENDBRANCH   1  29
TORSDOF 19
ENDMDL
