MODEL 1
REMARK VINA RESULT:     -10.7      0.000      0.000
REMARK SMILES O=C(C[NH+]1CCN(c2ncc(C(F)(F)F)cc2Cl)CC1)OCCOCCOC(=O)c1ccc(-c2c3nc(c(-c4ccc(S(=O)(=O)[O-])cc4)c4ccc([nH]4)c(-c4ccc(S(=O)(=O)[O-])cc4)c4nc(c(-c5ccc(S(=O)(=O)[O-])cc5)c5ccc2[nH]5)C=C4)C=C3)cc1
REMARK SMILES IDX 24 1 23 2 22 3 21 4 2 5 1 6 3 7 4 8 5 9 20 10 6 12 19 13
REMARK SMILES IDX 7 14 8 15 9 16 17 17 10 18 16 19 18 20 11 21 12 22 13 23
REMARK SMILES IDX 14 24 15 25 25 26 26 27 27 28 28 29 29 30 30 31 31 32 89 33
REMARK SMILES IDX 32 34 88 35 33 36 34 37 35 38 82 39 36 40 87 41 81 42 83 43
REMARK SMILES IDX 37 44 86 45 80 46 79 47 38 49 68 50 49 51 67 52 50 53 53 54
REMARK SMILES IDX 66 55 84 56 51 57 52 58 65 60 85 61 54 62 39 63 40 64 48 65
REMARK SMILES IDX 41 66 47 67 42 68 43 69 44 70 45 71 46 72 69 73 70 74 78 75
REMARK SMILES IDX 71 76 77 77 72 78 73 79 74 80 75 81 76 82 55 83 56 84 64 85
REMARK SMILES IDX 57 86 63 87 58 88 59 89 60 90 61 91 62 92
REMARK H PARENT 4 11 83 48 53 59
REMARK Flexibility Score: inf
ROOT
ATOM      1  O   UNL A   1      32.964  29.683  27.114  1.00  0.00    -0.374 OA
ENDROOT
BRANCH   1   2
ATOM      2  C   UNL A   1      32.608  30.016  25.790  1.00  0.00     0.202 C 
BRANCH   2   3
ATOM      3  C   UNL A   1      31.649  29.085  25.036  1.00  0.00     0.261 C 
BRANCH   3   4
ATOM      4  O   UNL A   1      31.517  27.669  25.363  1.00  0.00    -0.459 OA
BRANCH   4   5
ATOM      5  C   UNL A   1      30.733  26.591  25.195  1.00  0.00     0.361 C 
ATOM      6  O   UNL A   1      29.717  26.724  24.508  1.00  0.00    -0.245 OA
BRANCH   5   7
ATOM      7  C   UNL A   1      30.988  25.268  25.893  1.00  0.00     0.386 C 
BRANCH   7   8
ATOM      8  N   UNL A   1      30.618  24.007  25.234  1.00  0.00    -0.323 N 
ATOM      9  C   UNL A   1      31.116  23.666  23.875  1.00  0.00     0.284 C 
ATOM     10  C   UNL A   1      30.699  22.856  26.107  1.00  0.00     0.284 C 
ATOM     11  H   UNL A   1      29.651  24.255  25.026  1.00  0.00     0.348 HD
ATOM     12  C   UNL A   1      32.185  22.486  23.662  1.00  0.00     0.179 C 
ATOM     13  C   UNL A   1      32.100  22.255  26.047  1.00  0.00     0.179 C 
ATOM     14  N   UNL A   1      32.144  21.548  24.790  1.00  0.00    -0.344 N 
BRANCH  14  15
ATOM     15  C   UNL A   1      32.745  20.310  24.921  1.00  0.00     0.147 A 
ATOM     16  N   UNL A   1      31.965  19.213  25.021  1.00  0.00    -0.237 NA
ATOM     17  C   UNL A   1      34.154  20.175  24.767  1.00  0.00     0.084 A 
ATOM     18  C   UNL A   1      32.563  17.993  24.893  1.00  0.00     0.126 A 
ATOM     19  C   UNL A   1      34.727  18.923  24.598  1.00  0.00     0.039 A 
ATOM     20  Cl  UNL A   1      35.268  21.514  24.745  1.00  0.00    -0.080 Cl
ATOM     21  C   UNL A   1      33.920  17.795  24.664  1.00  0.00     0.075 A 
BRANCH  21  22
ATOM     22  C   UNL A   1      34.510  16.424  24.546  1.00  0.00     0.417 C 
ATOM     23  F   UNL A   1      34.590  16.016  23.256  1.00  0.00    -0.166 F 
ATOM     24  F   UNL A   1      35.753  16.341  25.079  1.00  0.00    -0.166 F 
ATOM     25  F   UNL A   1      33.760  15.480  25.188  1.00  0.00    -0.166 F 
ENDBRANCH  21  22
ENDBRANCH  14  15
ENDBRANCH   7   8
ENDBRANCH   5   7
ENDBRANCH   4   5
ENDBRANCH   3   4
ENDBRANCH   2   3
ENDBRANCH   1   2
BRANCH   1  26
ATOM     26  C   UNL A   1      34.210  30.155  27.601  1.00  0.00     0.202 C 
BRANCH  26  27
ATOM     27  C   UNL A   1      34.476  31.668  27.579  1.00  0.00     0.261 C 
BRANCH  27  28
ATOM     28  O   UNL A   1      33.302  32.489  27.742  1.00  0.00    -0.460 OA
BRANCH  28  29
ATOM     29  C   UNL A   1      33.491  33.701  28.331  1.00  0.00     0.338 C 
ATOM     30  O   UNL A   1      32.804  34.693  28.187  1.00  0.00    -0.246 OA
BRANCH  29  31
ATOM     31  C   UNL A   1      34.565  33.612  29.352  1.00  0.00     0.060 A 
ATOM     32  C   UNL A   1      35.826  34.151  29.051  1.00  0.00     0.016 A 
ATOM     33  C   UNL A   1      34.364  32.931  30.553  1.00  0.00     0.016 A 
ATOM     34  C   UNL A   1      36.904  33.957  29.921  1.00  0.00     0.010 A 
ATOM     35  C   UNL A   1      35.449  32.721  31.414  1.00  0.00     0.010 A 
ATOM     36  C   UNL A   1      36.733  33.192  31.082  1.00  0.00    -0.014 A 
BRANCH  36  37
ATOM     37  C   UNL A   1      37.915  32.682  31.828  1.00  0.00     0.031 A 
ATOM     38  C   UNL A   1      38.684  31.527  31.236  1.00  0.00     0.074 A 
ATOM     39  C   UNL A   1      38.295  33.209  33.005  1.00  0.00     0.049 A 
ATOM     40  N   UNL A   1      39.681  30.846  31.739  1.00  0.00    -0.248 NA
ATOM     41  C   UNL A   1      38.262  31.076  29.899  1.00  0.00     0.031 C 
ATOM     42  C   UNL A   1      37.665  34.350  33.666  1.00  0.00     0.029 A 
ATOM     43  N   UNL A   1      39.298  32.832  33.866  1.00  0.00    -0.354 N 
ATOM     44  C   UNL A   1      39.991  29.875  30.792  1.00  0.00     0.074 A 
ATOM     45  C   UNL A   1      39.063  30.042  29.695  1.00  0.00     0.031 C 
ATOM     46  C   UNL A   1      38.283  34.567  34.840  1.00  0.00     0.029 A 
ATOM     47  C   UNL A   1      39.329  33.564  35.031  1.00  0.00     0.049 A 
ATOM     48  H   UNL A   1      39.934  32.107  33.669  1.00  0.00     0.167 HD
ATOM     49  C   UNL A   1      40.959  28.929  30.830  1.00  0.00     0.031 A 
ATOM     50  C   UNL A   1      40.094  33.421  36.134  1.00  0.00     0.031 A 
ATOM     51  C   UNL A   1      41.868  28.752  31.932  1.00  0.00     0.049 A 
ATOM     52  C   UNL A   1      41.118  32.315  36.187  1.00  0.00     0.074 A 
ATOM     53  C   UNL A   1      42.891  27.831  32.062  1.00  0.00     0.029 A 
ATOM     54  N   UNL A   1      41.854  29.503  33.098  1.00  0.00    -0.354 N 
ATOM     55  N   UNL A   1      41.415  31.420  35.275  1.00  0.00    -0.248 NA
ATOM     56  C   UNL A   1      41.914  32.204  37.418  1.00  0.00     0.031 C 
ATOM     57  C   UNL A   1      43.454  27.982  33.333  1.00  0.00     0.029 A 
ATOM     58  C   UNL A   1      42.832  29.047  33.965  1.00  0.00     0.049 A 
ATOM     59  H   UNL A   1      41.239  30.249  33.281  1.00  0.00     0.167 HD
ATOM     60  C   UNL A   1      42.451  30.659  35.810  1.00  0.00     0.074 A 
ATOM     61  C   UNL A   1      42.739  31.209  37.119  1.00  0.00     0.031 C 
ATOM     62  C   UNL A   1      43.108  29.604  35.266  1.00  0.00     0.031 A 
BRANCH  49  63
ATOM     63  C   UNL A   1      41.056  27.982  29.661  1.00  0.00    -0.014 A 
ATOM     64  C   UNL A   1      40.213  26.861  29.554  1.00  0.00     0.010 A 
ATOM     65  C   UNL A   1      41.985  28.238  28.636  1.00  0.00     0.010 A 
ATOM     66  C   UNL A   1      40.326  25.992  28.465  1.00  0.00     0.020 A 
ATOM     67  C   UNL A   1      42.079  27.389  27.529  1.00  0.00     0.020 A 
ATOM     68  C   UNL A   1      41.260  26.261  27.459  1.00  0.00     0.054 A 
BRANCH  68  69
ATOM     69  S   UNL A   1      41.366  25.129  26.046  1.00  0.00     0.124 S 
ATOM     70  O   UNL A   1      39.993  24.638  25.950  1.00  0.00    -0.237 OA
ATOM     71  O   UNL A   1      41.796  26.009  24.964  1.00  0.00    -0.237 OA
ATOM     72  O   UNL A   1      42.353  24.138  26.468  1.00  0.00    -0.744 OA
ENDBRANCH  68  69
ENDBRANCH  49  63
BRANCH  50  73
ATOM     73  C   UNL A   1      39.907  34.338  37.296  1.00  0.00    -0.014 A 
ATOM     74  C   UNL A   1      39.076  33.976  38.372  1.00  0.00     0.010 A 
ATOM     75  C   UNL A   1      40.559  35.584  37.332  1.00  0.00     0.010 A 
ATOM     76  C   UNL A   1      38.893  34.845  39.453  1.00  0.00     0.020 A 
ATOM     77  C   UNL A   1      40.404  36.442  38.425  1.00  0.00     0.020 A 
ATOM     78  C   UNL A   1      39.564  36.071  39.475  1.00  0.00     0.054 A 
BRANCH  78  79
ATOM     79  S   UNL A   1      39.362  37.153  40.917  1.00  0.00     0.124 S 
ATOM     80  O   UNL A   1      40.743  37.514  41.224  1.00  0.00    -0.237 OA
ATOM     81  O   UNL A   1      38.527  38.228  40.389  1.00  0.00    -0.237 OA
ATOM     82  O   UNL A   1      38.706  36.293  41.901  1.00  0.00    -0.744 OA
ENDBRANCH  78  79
ENDBRANCH  50  73
BRANCH  62  83
ATOM     83  C   UNL A   1      44.236  28.994  36.060  1.00  0.00    -0.014 A 
ATOM     84  C   UNL A   1      45.544  29.508  35.996  1.00  0.00     0.010 A 
ATOM     85  C   UNL A   1      43.964  27.925  36.935  1.00  0.00     0.010 A 
ATOM     86  C   UNL A   1      46.563  28.941  36.768  1.00  0.00     0.020 A 
ATOM     87  C   UNL A   1      44.973  27.378  37.731  1.00  0.00     0.020 A 
ATOM     88  C   UNL A   1      46.271  27.881  37.632  1.00  0.00     0.054 A 
BRANCH  88  89
ATOM     89  S   UNL A   1      47.603  27.194  38.653  1.00  0.00     0.124 S 
ATOM     90  O   UNL A   1      47.457  25.759  38.421  1.00  0.00    -0.237 OA
ATOM     91  O   UNL A   1      48.797  27.807  38.076  1.00  0.00    -0.237 OA
ATOM     92  O   UNL A   1      47.271  27.643  40.004  1.00  0.00    -0.744 OA
ENDBRANCH  88  89
ENDBRANCH  62  83
ENDBRANCH  36  37
ENDBRANCH  29  31
ENDBRANCH  28  29
ENDBRANCH  27  28
ENDBRANCH  26  27
ENDBRANCH   1  26
TORSDOF 20
ENDMDL
MODEL 2
REMARK VINA RESULT:     -10.7      4.348      8.694
REMARK SMILES O=C(C[NH+]1CCN(c2ncc(C(F)(F)F)cc2Cl)CC1)OCCOCCOC(=O)c1ccc(-c2c3nc(c(-c4ccc(S(=O)(=O)[O-])cc4)c4ccc([nH]4)c(-c4ccc(S(=O)(=O)[O-])cc4)c4nc(c(-c5ccc(S(=O)(=O)[O-])cc5)c5ccc2[nH]5)C=C4)C=C3)cc1
REMARK SMILES IDX 24 1 23 2 22 3 21 4 2 5 1 6 3 7 4 8 5 9 20 10 6 12 19 13
REMARK SMILES IDX 7 14 8 15 9 16 17 17 10 18 16 19 18 20 11 21 12 22 13 23
REMARK SMILES IDX 14 24 15 25 25 26 26 27 27 28 28 29 29 30 30 31 31 32 89 33
REMARK SMILES IDX 32 34 88 35 33 36 34 37 35 38 82 39 36 40 87 41 81 42 83 43
REMARK SMILES IDX 37 44 86 45 80 46 79 47 38 49 68 50 49 51 67 52 50 53 53 54
REMARK SMILES IDX 66 55 84 56 51 57 52 58 65 60 85 61 54 62 39 63 40 64 48 65
REMARK SMILES IDX 41 66 47 67 42 68 43 69 44 70 45 71 46 72 69 73 70 74 78 75
REMARK SMILES IDX 71 76 77 77 72 78 73 79 74 80 75 81 76 82 55 83 56 84 64 85
REMARK SMILES IDX 57 86 63 87 58 88 59 89 60 90 61 91 62 92
REMARK H PARENT 4 11 83 48 53 59
REMARK Flexibility Score: inf
ROOT
ATOM      1  O   UNL A   1      38.665  22.929  26.377  1.00  0.00    -0.374 OA
ENDROOT
BRANCH   1   2
ATOM      2  C   UNL A   1      37.749  22.174  25.614  1.00  0.00     0.202 C 
BRANCH   2   3
ATOM      3  C   UNL A   1      36.993  22.874  24.478  1.00  0.00     0.261 C 
BRANCH   3   4
ATOM      4  O   UNL A   1      35.616  22.539  24.133  1.00  0.00    -0.459 OA
BRANCH   4   5
ATOM      5  C   UNL A   1      34.525  22.986  23.489  1.00  0.00     0.361 C 
ATOM      6  O   UNL A   1      34.638  23.247  22.288  1.00  0.00    -0.245 OA
BRANCH   5   7
ATOM      7  C   UNL A   1      33.212  23.276  24.190  1.00  0.00     0.386 C 
BRANCH   7   8
ATOM      8  N   UNL A   1      33.015  24.561  24.879  1.00  0.00    -0.323 N 
ATOM      9  C   UNL A   1      33.953  25.698  24.682  1.00  0.00     0.284 C 
ATOM     10  C   UNL A   1      31.644  25.023  24.853  1.00  0.00     0.284 C 
ATOM     11  H   UNL A   1      33.290  24.246  25.809  1.00  0.00     0.348 HD
ATOM     12  C   UNL A   1      33.493  27.016  23.885  1.00  0.00     0.179 C 
ATOM     13  C   UNL A   1      31.404  25.871  23.608  1.00  0.00     0.179 C 
ATOM     14  N   UNL A   1      32.030  27.138  23.899  1.00  0.00    -0.344 N 
BRANCH  14  15
ATOM     15  C   UNL A   1      31.239  28.202  23.508  1.00  0.00     0.147 A 
ATOM     16  N   UNL A   1      30.442  28.059  22.428  1.00  0.00    -0.237 NA
ATOM     17  C   UNL A   1      31.126  29.356  24.334  1.00  0.00     0.084 A 
ATOM     18  C   UNL A   1      29.490  29.013  22.208  1.00  0.00     0.126 A 
ATOM     19  C   UNL A   1      30.122  30.286  24.110  1.00  0.00     0.039 A 
ATOM     20  Cl  UNL A   1      32.175  29.700  25.681  1.00  0.00    -0.080 Cl
ATOM     21  C   UNL A   1      29.278  30.121  23.020  1.00  0.00     0.075 A 
BRANCH  21  22
ATOM     22  C   UNL A   1      28.220  31.136  22.711  1.00  0.00     0.417 C 
ATOM     23  F   UNL A   1      27.616  30.892  21.521  1.00  0.00    -0.166 F 
ATOM     24  F   UNL A   1      27.252  31.187  23.657  1.00  0.00    -0.166 F 
ATOM     25  F   UNL A   1      28.725  32.401  22.618  1.00  0.00    -0.166 F 
ENDBRANCH  21  22
ENDBRANCH  14  15
ENDBRANCH   7   8
ENDBRANCH   5   7
ENDBRANCH   4   5
ENDBRANCH   3   4
ENDBRANCH   2   3
ENDBRANCH   1   2
BRANCH   1  26
ATOM     26  C   UNL A   1      39.959  22.386  26.583  1.00  0.00     0.202 C 
BRANCH  26  27
ATOM     27  C   UNL A   1      41.125  23.355  26.835  1.00  0.00     0.261 C 
BRANCH  27  28
ATOM     28  O   UNL A   1      40.803  24.481  27.677  1.00  0.00    -0.460 OA
BRANCH  28  29
ATOM     29  C   UNL A   1      40.612  25.670  27.046  1.00  0.00     0.338 C 
ATOM     30  O   UNL A   1      40.563  25.855  25.845  1.00  0.00    -0.246 OA
BRANCH  29  31
ATOM     31  C   UNL A   1      40.271  26.726  28.032  1.00  0.00     0.060 A 
ATOM     32  C   UNL A   1      40.881  27.984  27.910  1.00  0.00     0.016 A 
ATOM     33  C   UNL A   1      39.433  26.457  29.116  1.00  0.00     0.016 A 
ATOM     34  C   UNL A   1      40.703  28.955  28.901  1.00  0.00     0.010 A 
ATOM     35  C   UNL A   1      39.272  27.423  30.116  1.00  0.00     0.010 A 
ATOM     36  C   UNL A   1      39.942  28.659  30.038  1.00  0.00    -0.014 A 
BRANCH  36  37
ATOM     37  C   UNL A   1      40.025  29.524  31.245  1.00  0.00     0.031 A 
ATOM     38  C   UNL A   1      41.153  29.282  32.217  1.00  0.00     0.074 A 
ATOM     39  C   UNL A   1      39.121  30.489  31.493  1.00  0.00     0.049 A 
ATOM     40  N   UNL A   1      41.381  29.831  33.381  1.00  0.00    -0.248 NA
ATOM     41  C   UNL A   1      42.152  28.275  31.821  1.00  0.00     0.031 C 
ATOM     42  C   UNL A   1      38.009  30.853  30.618  1.00  0.00     0.029 A 
ATOM     43  N   UNL A   1      38.989  31.328  32.574  1.00  0.00    -0.354 N 
ATOM     44  C   UNL A   1      42.535  29.224  33.866  1.00  0.00     0.074 A 
ATOM     45  C   UNL A   1      42.947  28.249  32.880  1.00  0.00     0.031 C 
ATOM     46  C   UNL A   1      37.294  31.827  31.208  1.00  0.00     0.029 A 
ATOM     47  C   UNL A   1      37.876  32.135  32.513  1.00  0.00     0.049 A 
ATOM     48  H   UNL A   1      39.629  31.349  33.321  1.00  0.00     0.167 HD
ATOM     49  C   UNL A   1      43.194  29.453  35.027  1.00  0.00     0.031 A 
ATOM     50  C   UNL A   1      37.371  32.999  33.418  1.00  0.00     0.031 A 
ATOM     51  C   UNL A   1      42.770  30.409  36.016  1.00  0.00     0.049 A 
ATOM     52  C   UNL A   1      38.080  33.189  34.737  1.00  0.00     0.074 A 
ATOM     53  C   UNL A   1      43.375  30.725  37.220  1.00  0.00     0.029 A 
ATOM     54  N   UNL A   1      41.630  31.192  35.923  1.00  0.00    -0.354 N 
ATOM     55  N   UNL A   1      39.182  32.624  35.171  1.00  0.00    -0.248 NA
ATOM     56  C   UNL A   1      37.477  34.136  35.686  1.00  0.00     0.031 C 
ATOM     57  C   UNL A   1      42.565  31.652  37.883  1.00  0.00     0.029 A 
ATOM     58  C   UNL A   1      41.496  31.970  37.060  1.00  0.00     0.049 A 
ATOM     59  H   UNL A   1      41.007  31.194  35.160  1.00  0.00     0.167 HD
ATOM     60  C   UNL A   1      39.421  33.170  36.429  1.00  0.00     0.074 A 
ATOM     61  C   UNL A   1      38.356  34.119  36.681  1.00  0.00     0.031 C 
ATOM     62  C   UNL A   1      40.431  32.913  37.297  1.00  0.00     0.031 A 
BRANCH  49  63
ATOM     63  C   UNL A   1      44.421  28.624  35.309  1.00  0.00    -0.014 A 
ATOM     64  C   UNL A   1      44.380  27.534  36.197  1.00  0.00     0.010 A 
ATOM     65  C   UNL A   1      45.627  28.921  34.649  1.00  0.00     0.010 A 
ATOM     66  C   UNL A   1      45.531  26.784  36.451  1.00  0.00     0.020 A 
ATOM     67  C   UNL A   1      46.773  28.153  34.875  1.00  0.00     0.020 A 
ATOM     68  C   UNL A   1      46.722  27.099  35.788  1.00  0.00     0.054 A 
BRANCH  68  69
ATOM     69  S   UNL A   1      48.194  26.092  36.118  1.00  0.00     0.124 S 
ATOM     70  O   UNL A   1      49.071  26.469  35.011  1.00  0.00    -0.237 OA
ATOM     71  O   UNL A   1      48.612  26.560  37.436  1.00  0.00    -0.237 OA
ATOM     72  O   UNL A   1      47.693  24.721  36.076  1.00  0.00    -0.744 OA
ENDBRANCH  68  69
ENDBRANCH  49  63
BRANCH  50  73
ATOM     73  C   UNL A   1      36.111  33.741  33.121  1.00  0.00    -0.014 A 
ATOM     74  C   UNL A   1      34.879  33.301  33.638  1.00  0.00     0.010 A 
ATOM     75  C   UNL A   1      36.137  34.894  32.315  1.00  0.00     0.010 A 
ATOM     76  C   UNL A   1      33.699  33.993  33.346  1.00  0.00     0.020 A 
ATOM     77  C   UNL A   1      34.964  35.605  32.046  1.00  0.00     0.020 A 
ATOM     78  C   UNL A   1      33.750  35.145  32.556  1.00  0.00     0.054 A 
BRANCH  78  79
ATOM     79  S   UNL A   1      32.215  36.060  32.243  1.00  0.00     0.124 S 
ATOM     80  O   UNL A   1      32.331  37.178  33.175  1.00  0.00    -0.237 OA
ATOM     81  O   UNL A   1      32.334  36.399  30.827  1.00  0.00    -0.237 OA
ATOM     82  O   UNL A   1      31.168  35.089  32.556  1.00  0.00    -0.744 OA
ENDBRANCH  78  79
ENDBRANCH  50  73
BRANCH  62  83
ATOM     83  C   UNL A   1      40.468  33.696  38.585  1.00  0.00    -0.014 A 
ATOM     84  C   UNL A   1      39.878  33.204  39.763  1.00  0.00     0.010 A 
ATOM     85  C   UNL A   1      41.163  34.920  38.628  1.00  0.00     0.010 A 
ATOM     86  C   UNL A   1      39.954  33.938  40.951  1.00  0.00     0.020 A 
ATOM     87  C   UNL A   1      41.269  35.640  39.821  1.00  0.00     0.020 A 
ATOM     88  C   UNL A   1      40.651  35.151  40.973  1.00  0.00     0.054 A 
BRANCH  88  89
ATOM     89  S   UNL A   1      40.771  36.061  42.537  1.00  0.00     0.124 S 
ATOM     90  O   UNL A   1      40.739  34.982  43.521  1.00  0.00    -0.237 OA
ATOM     91  O   UNL A   1      42.049  36.755  42.405  1.00  0.00    -0.237 OA
ATOM     92  O   UNL A   1      39.595  36.928  42.525  1.00  0.00    -0.744 OA
ENDBRANCH  88  89
ENDBRANCH  62  83
ENDBRANCH  36  37
ENDBRANCH  29  31
ENDBRANCH  28  29
ENDBRANCH  27  28
ENDBRANCH  26  27
ENDBRANCH   1  26
TORSDOF 20
ENDMDL
MODEL 3
REMARK VINA RESULT:     -10.5      6.640      8.925
REMARK SMILES O=C(C[NH+]1CCN(c2ncc(C(F)(F)F)cc2Cl)CC1)OCCOCCOC(=O)c1ccc(-c2c3nc(c(-c4ccc(S(=O)(=O)[O-])cc4)c4ccc([nH]4)c(-c4ccc(S(=O)(=O)[O-])cc4)c4nc(c(-c5ccc(S(=O)(=O)[O-])cc5)c5ccc2[nH]5)C=C4)C=C3)cc1
REMARK SMILES IDX 24 1 23 2 22 3 21 4 2 5 1 6 3 7 4 8 5 9 20 10 6 12 19 13
REMARK SMILES IDX 7 14 8 15 9 16 17 17 10 18 16 19 18 20 11 21 12 22 13 23
REMARK SMILES IDX 14 24 15 25 25 26 26 27 27 28 28 29 29 30 30 31 31 32 89 33
REMARK SMILES IDX 32 34 88 35 33 36 34 37 35 38 82 39 36 40 87 41 81 42 83 43
REMARK SMILES IDX 37 44 86 45 80 46 79 47 38 49 68 50 49 51 67 52 50 53 53 54
REMARK SMILES IDX 66 55 84 56 51 57 52 58 65 60 85 61 54 62 39 63 40 64 48 65
REMARK SMILES IDX 41 66 47 67 42 68 43 69 44 70 45 71 46 72 69 73 70 74 78 75
REMARK SMILES IDX 71 76 77 77 72 78 73 79 74 80 75 81 76 82 55 83 56 84 64 85
REMARK SMILES IDX 57 86 63 87 58 88 59 89 60 90 61 91 62 92
REMARK H PARENT 4 11 83 48 53 59
REMARK Flexibility Score: inf
ROOT
ATOM      1  O   UNL A   1      34.675  29.441  27.657  1.00  0.00    -0.374 OA
ENDROOT
BRANCH   1   2
ATOM      2  C   UNL A   1      34.053  29.078  26.443  1.00  0.00     0.202 C 
BRANCH   2   3
ATOM      3  C   UNL A   1      32.932  28.032  26.482  1.00  0.00     0.261 C 
BRANCH   3   4
ATOM      4  O   UNL A   1      32.159  27.670  25.298  1.00  0.00    -0.459 OA
BRANCH   4   5
ATOM      5  C   UNL A   1      31.405  26.700  24.755  1.00  0.00     0.361 C 
ATOM      6  O   UNL A   1      30.228  26.622  25.118  1.00  0.00    -0.245 OA
BRANCH   5   7
ATOM      7  C   UNL A   1      31.962  25.651  23.812  1.00  0.00     0.386 C 
BRANCH   7   8
ATOM      8  N   UNL A   1      33.123  24.842  24.215  1.00  0.00    -0.323 N 
ATOM      9  C   UNL A   1      33.337  24.444  25.632  1.00  0.00     0.284 C 
ATOM     10  C   UNL A   1      33.381  23.727  23.330  1.00  0.00     0.284 C 
ATOM     11  H   UNL A   1      33.825  25.575  24.114  1.00  0.00     0.348 HD
ATOM     12  C   UNL A   1      33.174  22.914  26.091  1.00  0.00     0.179 C 
ATOM     13  C   UNL A   1      32.604  22.500  23.799  1.00  0.00     0.179 C 
ATOM     14  N   UNL A   1      33.338  22.014  24.943  1.00  0.00    -0.344 N 
BRANCH  14  15
ATOM     15  C   UNL A   1      33.465  20.638  24.921  1.00  0.00     0.147 A 
ATOM     16  N   UNL A   1      32.367  19.885  24.704  1.00  0.00    -0.237 NA
ATOM     17  C   UNL A   1      34.755  20.036  24.941  1.00  0.00     0.084 A 
ATOM     18  C   UNL A   1      32.547  18.559  24.434  1.00  0.00     0.126 A 
ATOM     19  C   UNL A   1      34.910  18.695  24.622  1.00  0.00     0.039 A 
ATOM     20  Cl  UNL A   1      36.226  20.886  25.324  1.00  0.00    -0.080 Cl
ATOM     21  C   UNL A   1      33.783  17.926  24.363  1.00  0.00     0.075 A 
BRANCH  21  22
ATOM     22  C   UNL A   1      33.906  16.462  24.072  1.00  0.00     0.417 C 
ATOM     23  F   UNL A   1      32.831  15.765  24.518  1.00  0.00    -0.166 F 
ATOM     24  F   UNL A   1      34.044  16.199  22.751  1.00  0.00    -0.166 F 
ATOM     25  F   UNL A   1      34.990  15.901  24.684  1.00  0.00    -0.166 F 
ENDBRANCH  21  22
ENDBRANCH  14  15
ENDBRANCH   7   8
ENDBRANCH   5   7
ENDBRANCH   4   5
ENDBRANCH   3   4
ENDBRANCH   2   3
ENDBRANCH   1   2
BRANCH   1  26
ATOM     26  C   UNL A   1      34.998  30.809  27.850  1.00  0.00     0.202 C 
BRANCH  26  27
ATOM     27  C   UNL A   1      35.823  31.195  29.087  1.00  0.00     0.261 C 
BRANCH  27  28
ATOM     28  O   UNL A   1      37.219  30.840  29.017  1.00  0.00    -0.460 OA
BRANCH  28  29
ATOM     29  C   UNL A   1      37.567  29.651  29.578  1.00  0.00     0.338 C 
ATOM     30  O   UNL A   1      36.875  28.958  30.298  1.00  0.00    -0.246 OA
BRANCH  29  31
ATOM     31  C   UNL A   1      38.871  29.191  29.038  1.00  0.00     0.060 A 
ATOM     32  C   UNL A   1      39.849  28.735  29.936  1.00  0.00     0.016 A 
ATOM     33  C   UNL A   1      39.163  29.289  27.677  1.00  0.00     0.016 A 
ATOM     34  C   UNL A   1      41.139  28.436  29.486  1.00  0.00     0.010 A 
ATOM     35  C   UNL A   1      40.460  29.007  27.230  1.00  0.00     0.010 A 
ATOM     36  C   UNL A   1      41.466  28.624  28.137  1.00  0.00    -0.014 A 
BRANCH  36  37
ATOM     37  C   UNL A   1      42.890  28.652  27.706  1.00  0.00     0.031 A 
ATOM     38  C   UNL A   1      43.475  27.398  27.105  1.00  0.00     0.074 A 
ATOM     39  C   UNL A   1      43.658  29.746  27.855  1.00  0.00     0.049 A 
ATOM     40  N   UNL A   1      44.706  27.142  26.748  1.00  0.00    -0.248 NA
ATOM     41  C   UNL A   1      42.541  26.280  26.887  1.00  0.00     0.031 C 
ATOM     42  C   UNL A   1      43.207  31.032  28.382  1.00  0.00     0.029 A 
ATOM     43  N   UNL A   1      44.993  29.939  27.591  1.00  0.00    -0.354 N 
ATOM     44  C   UNL A   1      44.701  25.830  26.284  1.00  0.00     0.074 A 
ATOM     45  C   UNL A   1      43.348  25.337  26.425  1.00  0.00     0.031 C 
ATOM     46  C   UNL A   1      44.254  31.875  28.424  1.00  0.00     0.029 A 
ATOM     47  C   UNL A   1      45.454  31.182  27.957  1.00  0.00     0.049 A 
ATOM     48  H   UNL A   1      45.565  29.253  27.179  1.00  0.00     0.167 HD
ATOM     49  C   UNL A   1      45.727  25.100  25.786  1.00  0.00     0.031 A 
ATOM     50  C   UNL A   1      46.704  31.691  27.945  1.00  0.00     0.031 A 
ATOM     51  C   UNL A   1      47.076  25.586  25.666  1.00  0.00     0.049 A 
ATOM     52  C   UNL A   1      47.846  30.837  27.454  1.00  0.00     0.074 A 
ATOM     53  C   UNL A   1      48.184  24.928  25.163  1.00  0.00     0.029 A 
ATOM     54  N   UNL A   1      47.502  26.844  26.065  1.00  0.00    -0.354 N 
ATOM     55  N   UNL A   1      47.821  29.606  26.998  1.00  0.00    -0.248 NA
ATOM     56  C   UNL A   1      49.186  31.442  27.473  1.00  0.00     0.031 C 
ATOM     57  C   UNL A   1      49.294  25.765  25.318  1.00  0.00     0.029 A 
ATOM     58  C   UNL A   1      48.863  26.972  25.847  1.00  0.00     0.049 A 
ATOM     59  H   UNL A   1      46.923  27.542  26.446  1.00  0.00     0.167 HD
ATOM     60  C   UNL A   1      49.134  29.303  26.648  1.00  0.00     0.074 A 
ATOM     61  C   UNL A   1      49.925  30.482  26.932  1.00  0.00     0.031 C 
ATOM     62  C   UNL A   1      49.639  28.153  26.133  1.00  0.00     0.031 A 
BRANCH  49  63
ATOM     63  C   UNL A   1      45.436  23.679  25.374  1.00  0.00    -0.014 A 
ATOM     64  C   UNL A   1      45.006  23.367  24.071  1.00  0.00     0.010 A 
ATOM     65  C   UNL A   1      45.628  22.635  26.297  1.00  0.00     0.010 A 
ATOM     66  C   UNL A   1      44.734  22.044  23.713  1.00  0.00     0.020 A 
ATOM     67  C   UNL A   1      45.388  21.306  25.933  1.00  0.00     0.020 A 
ATOM     68  C   UNL A   1      44.926  21.021  24.648  1.00  0.00     0.054 A 
BRANCH  68  69
ATOM     69  S   UNL A   1      44.589  19.311  24.146  1.00  0.00     0.124 S 
ATOM     70  O   UNL A   1      45.725  18.598  24.727  1.00  0.00    -0.237 OA
ATOM     71  O   UNL A   1      43.296  19.045  24.769  1.00  0.00    -0.237 OA
ATOM     72  O   UNL A   1      44.574  19.373  22.687  1.00  0.00    -0.744 OA
ENDBRANCH  68  69
ENDBRANCH  49  63
BRANCH  50  73
ATOM     73  C   UNL A   1      46.950  33.079  28.435  1.00  0.00    -0.014 A 
ATOM     74  C   UNL A   1      46.892  34.174  27.553  1.00  0.00     0.010 A 
ATOM     75  C   UNL A   1      47.248  33.313  29.790  1.00  0.00     0.010 A 
ATOM     76  C   UNL A   1      47.137  35.471  28.015  1.00  0.00     0.020 A 
ATOM     77  C   UNL A   1      47.462  34.612  30.261  1.00  0.00     0.020 A 
ATOM     78  C   UNL A   1      47.415  35.682  29.368  1.00  0.00     0.054 A 
BRANCH  78  79
ATOM     79  S   UNL A   1      47.665  37.381  29.955  1.00  0.00     0.124 S 
ATOM     80  O   UNL A   1      46.333  37.958  29.799  1.00  0.00    -0.237 OA
ATOM     81  O   UNL A   1      48.110  37.176  31.331  1.00  0.00    -0.237 OA
ATOM     82  O   UNL A   1      48.687  37.908  29.051  1.00  0.00    -0.744 OA
ENDBRANCH  78  79
ENDBRANCH  50  73
BRANCH  62  83
ATOM     83  C   UNL A   1      51.110  28.120  25.800  1.00  0.00    -0.014 A 
ATOM     84  C   UNL A   1      52.057  27.602  26.700  1.00  0.00     0.010 A 
ATOM     85  C   UNL A   1      51.539  28.558  24.533  1.00  0.00     0.010 A 
ATOM     86  C   UNL A   1      53.411  27.554  26.352  1.00  0.00     0.020 A 
ATOM     87  C   UNL A   1      52.886  28.482  24.169  1.00  0.00     0.020 A 
ATOM     88  C   UNL A   1      53.816  27.993  25.087  1.00  0.00     0.054 A 
BRANCH  88  89
ATOM     89  S   UNL A   1      55.571  27.880  24.645  1.00  0.00     0.124 S 
ATOM     90  O   UNL A   1      56.223  28.366  25.858  1.00  0.00    -0.237 OA
ATOM     91  O   UNL A   1      55.740  26.456  24.367  1.00  0.00    -0.237 OA
ATOM     92  O   UNL A   1      55.693  28.754  23.480  1.00  0.00    -0.744 OA
ENDBRANCH  88  89
ENDBRANCH  62  83
ENDBRANCH  36  37
ENDBRANCH  29  31
ENDBRANCH  28  29
ENDBRANCH  27  28
ENDBRANCH  26  27
ENDBRANCH   1  26
TORSDOF 20
ENDMDL
