MODEL 1
REMARK VINA RESULT:     -11.6      0.000      0.000
REMARK SMILES NS(=O)(=O)c1ccc(-n2nc(C(F)F)cc2-c2ccc(C(=O)OCCOCCOC(=O)c3ccc(-c4c5nc(c(-c6ccc(S(=O)(=O)[O-])cc6)c6ccc([nH]6)c(-c6ccc(S(=O)(=O)[O-])cc6)c6nc(c(-c7ccc(S(=O)(=O)[O-])cc7)c7ccc4[nH]7)C=C6)C=C5)cc3)cc2)cc1
REMARK SMILES IDX 25 1 24 2 23 3 21 4 22 5 20 6 17 7 18 8 93 9 19 10 92 11
REMARK SMILES IDX 16 12 9 13 10 14 11 15 15 16 8 17 5 18 6 19 95 20 7 21 94 22
REMARK SMILES IDX 2 23 3 24 4 25 1 26 12 29 13 30 14 31 26 32 27 33 28 34
REMARK SMILES IDX 29 35 30 36 31 37 32 38 33 39 91 40 34 41 90 42 35 43 36 44
REMARK SMILES IDX 37 45 84 46 38 47 89 48 83 49 85 50 39 51 88 52 82 53 81 54
REMARK SMILES IDX 40 56 70 57 51 58 69 59 52 60 55 61 68 62 86 63 53 64 54 65
REMARK SMILES IDX 67 67 87 68 56 69 41 70 42 71 50 72 43 73 49 74 44 75 45 76
REMARK SMILES IDX 46 77 47 78 48 79 71 80 72 81 80 82 73 83 79 84 74 85 75 86
REMARK SMILES IDX 76 87 77 88 78 89 57 90 58 91 66 92 59 93 65 94 60 95 61 96
REMARK SMILES IDX 62 97 63 98 64 99
REMARK H PARENT 1 27 1 28 85 55 55 66
REMARK Flexibility Score: inf
ROOT
ATOM      1  C   UNL A   1      40.920  20.027  26.212  1.00  0.00     0.202 C 
ENDROOT
BRANCH   1   2
ATOM      2  C   UNL A   1      39.426  20.204  25.943  1.00  0.00     0.261 C 
BRANCH   2   3
ATOM      3  O   UNL A   1      39.128  21.403  25.213  1.00  0.00    -0.460 OA
BRANCH   3   4
ATOM      4  C   UNL A   1      38.707  22.429  25.990  1.00  0.00     0.338 C 
ATOM      5  O   UNL A   1      39.289  22.914  26.947  1.00  0.00    -0.246 OA
BRANCH   4   6
ATOM      6  C   UNL A   1      37.479  23.031  25.434  1.00  0.00     0.060 A 
ATOM      7  C   UNL A   1      34.980  23.980  24.631  1.00  0.00     0.000 A 
ATOM      8  C   UNL A   1      35.500  24.342  25.881  1.00  0.00     0.011 A 
ATOM      9  C   UNL A   1      35.752  23.202  23.758  1.00  0.00     0.011 A 
ATOM     10  C   UNL A   1      36.742  23.864  26.284  1.00  0.00     0.016 A 
ATOM     11  C   UNL A   1      37.011  22.737  24.151  1.00  0.00     0.016 A 
BRANCH   7  12
ATOM     12  C   UNL A   1      33.591  24.299  24.319  1.00  0.00     0.075 A 
ATOM     13  N   UNL A   1      32.632  23.409  23.853  1.00  0.00    -0.233 N 
ATOM     14  N   UNL A   1      31.601  24.056  23.249  1.00  0.00    -0.166 NA
ATOM     15  C   UNL A   1      31.776  25.351  23.566  1.00  0.00     0.129 A 
ATOM     16  C   UNL A   1      33.020  25.551  24.207  1.00  0.00     0.060 A 
BRANCH  13  17
ATOM     17  C   UNL A   1      32.653  21.992  23.939  1.00  0.00     0.065 A 
ATOM     18  C   UNL A   1      32.786  19.216  24.096  1.00  0.00     0.082 A 
ATOM     19  C   UNL A   1      33.043  19.981  25.234  1.00  0.00     0.024 A 
ATOM     20  C   UNL A   1      32.441  19.828  22.885  1.00  0.00     0.024 A 
ATOM     21  C   UNL A   1      32.992  21.372  25.151  1.00  0.00     0.030 A 
ATOM     22  C   UNL A   1      32.341  21.220  22.814  1.00  0.00     0.030 A 
BRANCH  18  23
ATOM     23  S   UNL A   1      32.933  17.454  24.165  1.00  0.00     0.238 S 
ATOM     24  O   UNL A   1      34.091  17.127  24.981  1.00  0.00    -0.207 OA
ATOM     25  O   UNL A   1      32.730  16.921  22.850  1.00  0.00    -0.207 OA
BRANCH  23  26
ATOM     26  N   UNL A   1      31.611  16.980  25.092  1.00  0.00    -0.225 NA
ATOM     27  H   UNL A   1      30.775  17.464  24.765  1.00  0.00     0.137 HD
ATOM     28  H   UNL A   1      31.779  17.216  26.070  1.00  0.00     0.137 HD
ENDBRANCH  23  26
ENDBRANCH  18  23
ENDBRANCH  13  17
BRANCH  15  29
ATOM     29  C   UNL A   1      30.785  26.421  23.219  1.00  0.00     0.393 C 
ATOM     30  F   UNL A   1      30.851  26.794  21.911  1.00  0.00    -0.203 F 
ATOM     31  F   UNL A   1      29.505  26.020  23.449  1.00  0.00    -0.203 F 
ENDBRANCH  15  29
ENDBRANCH   7  12
ENDBRANCH   4   6
ENDBRANCH   3   4
ENDBRANCH   2   3
ENDBRANCH   1   2
BRANCH   1  32
ATOM     32  O   UNL A   1      41.584  18.879  25.684  1.00  0.00    -0.374 OA
BRANCH  32  33
ATOM     33  C   UNL A   1      42.759  18.371  26.306  1.00  0.00     0.202 C 
BRANCH  33  34
ATOM     34  C   UNL A   1      44.113  18.628  25.660  1.00  0.00     0.261 C 
BRANCH  34  35
ATOM     35  O   UNL A   1      44.440  20.007  25.658  1.00  0.00    -0.460 OA
BRANCH  35  36
ATOM     36  C   UNL A   1      44.613  20.521  24.419  1.00  0.00     0.338 C 
ATOM     37  O   UNL A   1      44.568  19.922  23.358  1.00  0.00    -0.246 OA
BRANCH  36  38
ATOM     38  C   UNL A   1      45.008  21.926  24.553  1.00  0.00     0.060 A 
ATOM     39  C   UNL A   1      45.984  22.182  25.516  1.00  0.00     0.016 A 
ATOM     40  C   UNL A   1      44.155  22.923  24.058  1.00  0.00     0.016 A 
ATOM     41  C   UNL A   1      45.882  23.353  26.223  1.00  0.00     0.010 A 
ATOM     42  C   UNL A   1      44.047  24.085  24.774  1.00  0.00     0.010 A 
ATOM     43  C   UNL A   1      44.829  24.220  25.915  1.00  0.00    -0.014 A 
BRANCH  43  44
ATOM     44  C   UNL A   1      44.605  25.346  26.787  1.00  0.00     0.031 A 
ATOM     45  C   UNL A   1      45.650  26.370  26.611  1.00  0.00     0.074 A 
ATOM     46  C   UNL A   1      43.510  25.454  27.561  1.00  0.00     0.049 A 
ATOM     47  N   UNL A   1      46.676  26.583  27.364  1.00  0.00    -0.248 NA
ATOM     48  C   UNL A   1      45.706  27.046  25.302  1.00  0.00     0.031 C 
ATOM     49  C   UNL A   1      42.292  24.637  27.556  1.00  0.00     0.029 A 
ATOM     50  N   UNL A   1      43.217  26.412  28.473  1.00  0.00    -0.354 N 
ATOM     51  C   UNL A   1      47.363  27.613  26.737  1.00  0.00     0.074 A 
ATOM     52  C   UNL A   1      46.895  27.641  25.377  1.00  0.00     0.031 C 
ATOM     53  C   UNL A   1      41.314  25.292  28.229  1.00  0.00     0.029 A 
ATOM     54  C   UNL A   1      41.878  26.490  28.831  1.00  0.00     0.049 A 
ATOM     55  H   UNL A   1      43.903  27.008  28.852  1.00  0.00     0.167 HD
ATOM     56  C   UNL A   1      47.986  28.585  27.458  1.00  0.00     0.031 A 
ATOM     57  C   UNL A   1      41.292  27.520  29.499  1.00  0.00     0.031 A 
ATOM     58  C   UNL A   1      48.153  28.197  28.835  1.00  0.00     0.049 A 
ATOM     59  C   UNL A   1      42.392  28.285  30.151  1.00  0.00     0.074 A 
ATOM     60  C   UNL A   1      48.812  27.174  29.485  1.00  0.00     0.029 A 
ATOM     61  N   UNL A   1      47.225  28.685  29.726  1.00  0.00    -0.354 N 
ATOM     62  N   UNL A   1      43.154  27.791  31.089  1.00  0.00    -0.248 NA
ATOM     63  C   UNL A   1      42.958  29.407  29.416  1.00  0.00     0.031 C 
ATOM     64  C   UNL A   1      47.952  26.804  30.560  1.00  0.00     0.029 A 
ATOM     65  C   UNL A   1      46.850  27.663  30.559  1.00  0.00     0.049 A 
ATOM     66  H   UNL A   1      46.888  29.610  29.760  1.00  0.00     0.167 HD
ATOM     67  C   UNL A   1      44.432  28.250  30.795  1.00  0.00     0.074 A 
ATOM     68  C   UNL A   1      44.235  29.298  29.793  1.00  0.00     0.031 C 
ATOM     69  C   UNL A   1      45.540  27.546  31.171  1.00  0.00     0.031 A 
BRANCH  56  70
ATOM     70  C   UNL A   1      47.997  30.029  27.020  1.00  0.00    -0.014 A 
ATOM     71  C   UNL A   1      49.194  30.759  27.127  1.00  0.00     0.010 A 
ATOM     72  C   UNL A   1      46.822  30.767  26.762  1.00  0.00     0.010 A 
ATOM     73  C   UNL A   1      49.201  32.156  27.035  1.00  0.00     0.020 A 
ATOM     74  C   UNL A   1      46.822  32.153  26.622  1.00  0.00     0.020 A 
ATOM     75  C   UNL A   1      48.009  32.843  26.791  1.00  0.00     0.054 A 
BRANCH  75  76
ATOM     76  S   UNL A   1      48.011  34.648  26.754  1.00  0.00     0.124 S 
ATOM     77  O   UNL A   1      46.755  34.962  27.430  1.00  0.00    -0.237 OA
ATOM     78  O   UNL A   1      49.229  34.968  27.492  1.00  0.00    -0.237 OA
ATOM     79  O   UNL A   1      48.051  34.961  25.328  1.00  0.00    -0.744 OA
ENDBRANCH  75  76
ENDBRANCH  56  70
BRANCH  57  80
ATOM     80  C   UNL A   1      39.954  28.123  29.236  1.00  0.00    -0.014 A 
ATOM     81  C   UNL A   1      39.038  28.359  30.282  1.00  0.00     0.010 A 
ATOM     82  C   UNL A   1      39.694  28.743  27.997  1.00  0.00     0.010 A 
ATOM     83  C   UNL A   1      37.940  29.224  30.109  1.00  0.00     0.020 A 
ATOM     84  C   UNL A   1      38.601  29.602  27.815  1.00  0.00     0.020 A 
ATOM     85  C   UNL A   1      37.741  29.857  28.879  1.00  0.00     0.054 A 
BRANCH  85  86
ATOM     86  S   UNL A   1      36.427  31.106  28.710  1.00  0.00     0.124 S 
ATOM     87  O   UNL A   1      35.689  30.625  27.546  1.00  0.00    -0.237 OA
ATOM     88  O   UNL A   1      35.727  31.008  29.987  1.00  0.00    -0.237 OA
ATOM     89  O   UNL A   1      37.163  32.352  28.506  1.00  0.00    -0.744 OA
ENDBRANCH  85  86
ENDBRANCH  57  80
BRANCH  69  90
ATOM     90  C   UNL A   1      45.381  26.421  32.169  1.00  0.00    -0.014 A 
ATOM     91  C   UNL A   1      45.597  26.551  33.556  1.00  0.00     0.010 A 
ATOM     92  C   UNL A   1      44.800  25.235  31.689  1.00  0.00     0.010 A 
ATOM     93  C   UNL A   1      45.236  25.514  34.435  1.00  0.00     0.020 A 
ATOM     94  C   UNL A   1      44.426  24.209  32.558  1.00  0.00     0.020 A 
ATOM     95  C   UNL A   1      44.646  24.351  33.928  1.00  0.00     0.054 A 
BRANCH  95  96
ATOM     96  S   UNL A   1      44.102  23.043  35.065  1.00  0.00     0.124 S 
ATOM     97  O   UNL A   1      44.391  21.826  34.311  1.00  0.00    -0.237 OA
ATOM     98  O   UNL A   1      44.937  23.268  36.242  1.00  0.00    -0.237 OA
ATOM     99  O   UNL A   1      42.680  23.323  35.265  1.00  0.00    -0.744 OA
ENDBRANCH  95  96
ENDBRANCH  69  90
ENDBRANCH  43  44
ENDBRANCH  36  38
ENDBRANCH  35  36
ENDBRANCH  34  35
ENDBRANCH  33  34
ENDBRANCH  32  33
ENDBRANCH   1  32
TORSDOF 22
ENDMDL
MODEL 2
REMARK VINA RESULT:     -11.4      2.253      3.160
REMARK SMILES NS(=O)(=O)c1ccc(-n2nc(C(F)F)cc2-c2ccc(C(=O)OCCOCCOC(=O)c3ccc(-c4c5nc(c(-c6ccc(S(=O)(=O)[O-])cc6)c6ccc([nH]6)c(-c6ccc(S(=O)(=O)[O-])cc6)c6nc(c(-c7ccc(S(=O)(=O)[O-])cc7)c7ccc4[nH]7)C=C6)C=C5)cc3)cc2)cc1
REMARK SMILES IDX 25 1 24 2 23 3 21 4 22 5 20 6 17 7 18 8 93 9 19 10 92 11
REMARK SMILES IDX 16 12 9 13 10 14 11 15 15 16 8 17 5 18 6 19 95 20 7 21 94 22
REMARK SMILES IDX 2 23 3 24 4 25 1 26 12 29 13 30 14 31 26 32 27 33 28 34
REMARK SMILES IDX 29 35 30 36 31 37 32 38 33 39 91 40 34 41 90 42 35 43 36 44
REMARK SMILES IDX 37 45 84 46 38 47 89 48 83 49 85 50 39 51 88 52 82 53 81 54
REMARK SMILES IDX 40 56 70 57 51 58 69 59 52 60 55 61 68 62 86 63 53 64 54 65
REMARK SMILES IDX 67 67 87 68 56 69 41 70 42 71 50 72 43 73 49 74 44 75 45 76
REMARK SMILES IDX 46 77 47 78 48 79 71 80 72 81 80 82 73 83 79 84 74 85 75 86
REMARK SMILES IDX 76 87 77 88 78 89 57 90 58 91 66 92 59 93 65 94 60 95 61 96
REMARK SMILES IDX 62 97 63 98 64 99
REMARK H PARENT 1 27 1 28 85 55 55 66
REMARK Flexibility Score: inf
ROOT
ATOM      1  C   UNL A   1      41.672  20.296  26.198  1.00  0.00     0.202 C 
ENDROOT
BRANCH   1   2
ATOM      2  C   UNL A   1      40.174  20.015  26.316  1.00  0.00     0.261 C 
BRANCH   2   3
ATOM      3  O   UNL A   1      39.372  20.932  25.556  1.00  0.00    -0.460 OA
BRANCH   3   4
ATOM      4  C   UNL A   1      39.060  22.070  26.222  1.00  0.00     0.338 C 
ATOM      5  O   UNL A   1      39.681  22.578  27.141  1.00  0.00    -0.246 OA
BRANCH   4   6
ATOM      6  C   UNL A   1      37.915  22.747  25.582  1.00  0.00     0.060 A 
ATOM      7  C   UNL A   1      35.553  23.897  24.641  1.00  0.00     0.000 A 
ATOM      8  C   UNL A   1      36.127  24.350  25.836  1.00  0.00     0.011 A 
ATOM      9  C   UNL A   1      36.210  22.918  23.884  1.00  0.00     0.011 A 
ATOM     10  C   UNL A   1      37.301  23.773  26.309  1.00  0.00     0.016 A 
ATOM     11  C   UNL A   1      37.402  22.351  24.345  1.00  0.00     0.016 A 
BRANCH   7  12
ATOM     12  C   UNL A   1      34.214  24.351  24.278  1.00  0.00     0.075 A 
ATOM     13  N   UNL A   1      33.173  23.548  23.829  1.00  0.00    -0.233 N 
ATOM     14  N   UNL A   1      32.232  24.273  23.169  1.00  0.00    -0.166 NA
ATOM     15  C   UNL A   1      32.541  25.555  23.431  1.00  0.00     0.129 A 
ATOM     16  C   UNL A   1      33.786  25.650  24.095  1.00  0.00     0.060 A 
BRANCH  13  17
ATOM     17  C   UNL A   1      33.037  22.143  23.981  1.00  0.00     0.065 A 
ATOM     18  C   UNL A   1      32.859  19.378  24.256  1.00  0.00     0.082 A 
ATOM     19  C   UNL A   1      33.341  20.145  25.318  1.00  0.00     0.024 A 
ATOM     20  C   UNL A   1      32.444  19.987  23.064  1.00  0.00     0.024 A 
ATOM     21  C   UNL A   1      33.445  21.528  25.174  1.00  0.00     0.030 A 
ATOM     22  C   UNL A   1      32.501  21.378  22.938  1.00  0.00     0.030 A 
BRANCH  18  23
ATOM     23  S   UNL A   1      32.805  17.615  24.393  1.00  0.00     0.238 S 
ATOM     24  O   UNL A   1      32.887  17.053  23.055  1.00  0.00    -0.207 OA
ATOM     25  O   UNL A   1      31.778  17.256  25.327  1.00  0.00    -0.207 OA
BRANCH  23  26
ATOM     26  N   UNL A   1      34.275  17.226  25.111  1.00  0.00    -0.225 NA
ATOM     27  H   UNL A   1      34.336  16.216  25.236  1.00  0.00     0.137 HD
ATOM     28  H   UNL A   1      34.342  17.685  26.020  1.00  0.00     0.137 HD
ENDBRANCH  23  26
ENDBRANCH  18  23
ENDBRANCH  13  17
BRANCH  15  29
ATOM     29  C   UNL A   1      31.681  26.709  23.009  1.00  0.00     0.393 C 
ATOM     30  F   UNL A   1      31.105  26.516  21.791  1.00  0.00    -0.203 F 
ATOM     31  F   UNL A   1      30.669  26.934  23.892  1.00  0.00    -0.203 F 
ENDBRANCH  15  29
ENDBRANCH   7  12
ENDBRANCH   4   6
ENDBRANCH   3   4
ENDBRANCH   2   3
ENDBRANCH   1   2
BRANCH   1  32
ATOM     32  O   UNL A   1      42.457  19.491  25.319  1.00  0.00    -0.374 OA
BRANCH  32  33
ATOM     33  C   UNL A   1      43.868  19.658  25.249  1.00  0.00     0.202 C 
BRANCH  33  34
ATOM     34  C   UNL A   1      44.437  21.027  24.903  1.00  0.00     0.261 C 
BRANCH  34  35
ATOM     35  O   UNL A   1      44.178  21.976  25.922  1.00  0.00    -0.460 OA
BRANCH  35  36
ATOM     36  C   UNL A   1      43.901  23.214  25.452  1.00  0.00     0.338 C 
ATOM     37  O   UNL A   1      44.429  23.781  24.510  1.00  0.00    -0.246 OA
BRANCH  36  38
ATOM     38  C   UNL A   1      42.934  23.845  26.354  1.00  0.00     0.060 A 
ATOM     39  C   UNL A   1      42.089  24.783  25.760  1.00  0.00     0.016 A 
ATOM     40  C   UNL A   1      43.165  23.804  27.736  1.00  0.00     0.016 A 
ATOM     41  C   UNL A   1      41.744  25.882  26.505  1.00  0.00     0.010 A 
ATOM     42  C   UNL A   1      42.830  24.907  28.474  1.00  0.00     0.010 A 
ATOM     43  C   UNL A   1      42.235  25.975  27.811  1.00  0.00    -0.014 A 
BRANCH  43  44
ATOM     44  C   UNL A   1      42.039  27.216  28.518  1.00  0.00     0.031 A 
ATOM     45  C   UNL A   1      43.212  28.098  28.378  1.00  0.00     0.074 A 
ATOM     46  C   UNL A   1      40.878  27.531  29.119  1.00  0.00     0.049 A 
ATOM     47  N   UNL A   1      44.155  28.293  29.236  1.00  0.00    -0.248 NA
ATOM     48  C   UNL A   1      43.510  28.599  27.024  1.00  0.00     0.031 C 
ATOM     49  C   UNL A   1      39.581  26.849  29.035  1.00  0.00     0.029 A 
ATOM     50  N   UNL A   1      40.590  28.618  29.874  1.00  0.00    -0.354 N 
ATOM     51  C   UNL A   1      45.032  29.162  28.603  1.00  0.00     0.074 A 
ATOM     52  C   UNL A   1      44.743  29.072  27.196  1.00  0.00     0.031 C 
ATOM     53  C   UNL A   1      38.612  27.680  29.494  1.00  0.00     0.029 A 
ATOM     54  C   UNL A   1      39.235  28.877  30.035  1.00  0.00     0.049 A 
ATOM     55  H   UNL A   1      41.289  29.182  30.278  1.00  0.00     0.167 HD
ATOM     56  C   UNL A   1      45.671  30.145  29.294  1.00  0.00     0.031 A 
ATOM     57  C   UNL A   1      38.697  30.036  30.502  1.00  0.00     0.031 A 
ATOM     58  C   UNL A   1      45.620  29.912  30.714  1.00  0.00     0.049 A 
ATOM     59  C   UNL A   1      39.791  30.756  31.212  1.00  0.00     0.074 A 
ATOM     60  C   UNL A   1      46.067  28.913  31.554  1.00  0.00     0.029 A 
ATOM     61  N   UNL A   1      44.653  30.599  31.412  1.00  0.00    -0.354 N 
ATOM     62  N   UNL A   1      40.367  30.305  32.293  1.00  0.00    -0.248 NA
ATOM     63  C   UNL A   1      40.573  31.716  30.446  1.00  0.00     0.031 C 
ATOM     64  C   UNL A   1      45.042  28.768  32.535  1.00  0.00     0.029 A 
ATOM     65  C   UNL A   1      44.059  29.730  32.291  1.00  0.00     0.049 A 
ATOM     66  H   UNL A   1      44.427  31.551  31.301  1.00  0.00     0.167 HD
ATOM     67  C   UNL A   1      41.717  30.589  32.129  1.00  0.00     0.074 A 
ATOM     68  C   UNL A   1      41.772  31.522  31.004  1.00  0.00     0.031 C 
ATOM     69  C   UNL A   1      42.679  29.826  32.727  1.00  0.00     0.031 A 
BRANCH  56  70
ATOM     70  C   UNL A   1      45.908  31.516  28.709  1.00  0.00    -0.014 A 
ATOM     71  C   UNL A   1      44.871  32.464  28.768  1.00  0.00     0.010 A 
ATOM     72  C   UNL A   1      47.004  31.821  27.873  1.00  0.00     0.010 A 
ATOM     73  C   UNL A   1      44.908  33.626  27.988  1.00  0.00     0.020 A 
ATOM     74  C   UNL A   1      47.074  32.995  27.127  1.00  0.00     0.020 A 
ATOM     75  C   UNL A   1      46.009  33.878  27.166  1.00  0.00     0.054 A 
BRANCH  75  76
ATOM     76  S   UNL A   1      46.014  35.336  26.101  1.00  0.00     0.124 S 
ATOM     77  O   UNL A   1      46.723  36.308  26.929  1.00  0.00    -0.237 OA
ATOM     78  O   UNL A   1      46.734  34.855  24.926  1.00  0.00    -0.237 OA
ATOM     79  O   UNL A   1      44.595  35.609  25.889  1.00  0.00    -0.744 OA
ENDBRANCH  75  76
ENDBRANCH  56  70
BRANCH  57  80
ATOM     80  C   UNL A   1      37.484  30.738  29.996  1.00  0.00    -0.014 A 
ATOM     81  C   UNL A   1      36.354  30.932  30.816  1.00  0.00     0.010 A 
ATOM     82  C   UNL A   1      37.549  31.481  28.799  1.00  0.00     0.010 A 
ATOM     83  C   UNL A   1      35.361  31.872  30.479  1.00  0.00     0.020 A 
ATOM     84  C   UNL A   1      36.563  32.416  28.455  1.00  0.00     0.020 A 
ATOM     85  C   UNL A   1      35.483  32.624  29.308  1.00  0.00     0.054 A 
BRANCH  85  86
ATOM     86  S   UNL A   1      34.294  33.959  28.963  1.00  0.00     0.124 S 
ATOM     87  O   UNL A   1      33.397  33.334  27.995  1.00  0.00    -0.237 OA
ATOM     88  O   UNL A   1      33.719  34.222  30.279  1.00  0.00    -0.237 OA
ATOM     89  O   UNL A   1      35.129  35.033  28.430  1.00  0.00    -0.744 OA
ENDBRANCH  85  86
ENDBRANCH  57  80
BRANCH  69  90
ATOM     90  C   UNL A   1      42.265  28.853  33.809  1.00  0.00    -0.014 A 
ATOM     91  C   UNL A   1      41.869  27.521  33.573  1.00  0.00     0.010 A 
ATOM     92  C   UNL A   1      42.476  29.265  35.136  1.00  0.00     0.010 A 
ATOM     93  C   UNL A   1      41.692  26.628  34.645  1.00  0.00     0.020 A 
ATOM     94  C   UNL A   1      42.317  28.379  36.203  1.00  0.00     0.020 A 
ATOM     95  C   UNL A   1      41.925  27.064  35.954  1.00  0.00     0.054 A 
BRANCH  95  96
ATOM     96  S   UNL A   1      41.779  25.894  37.337  1.00  0.00     0.124 S 
ATOM     97  O   UNL A   1      42.787  26.382  38.273  1.00  0.00    -0.237 OA
ATOM     98  O   UNL A   1      40.391  26.064  37.760  1.00  0.00    -0.237 OA
ATOM     99  O   UNL A   1      42.076  24.598  36.729  1.00  0.00    -0.744 OA
ENDBRANCH  95  96
ENDBRANCH  69  90
ENDBRANCH  43  44
ENDBRANCH  36  38
ENDBRANCH  35  36
ENDBRANCH  34  35
ENDBRANCH  33  34
ENDBRANCH  32  33
ENDBRANCH   1  32
TORSDOF 22
ENDMDL
MODEL 3
REMARK VINA RESULT:     -11.1      3.312      9.454
REMARK SMILES NS(=O)(=O)c1ccc(-n2nc(C(F)F)cc2-c2ccc(C(=O)OCCOCCOC(=O)c3ccc(-c4c5nc(c(-c6ccc(S(=O)(=O)[O-])cc6)c6ccc([nH]6)c(-c6ccc(S(=O)(=O)[O-])cc6)c6nc(c(-c7ccc(S(=O)(=O)[O-])cc7)c7ccc4[nH]7)C=C6)C=C5)cc3)cc2)cc1
REMARK SMILES IDX 25 1 24 2 23 3 21 4 22 5 20 6 17 7 18 8 93 9 19 10 92 11
REMARK SMILES IDX 16 12 9 13 10 14 11 15 15 16 8 17 5 18 6 19 95 20 7 21 94 22
REMARK SMILES IDX 2 23 3 24 4 25 1 26 12 29 13 30 14 31 26 32 27 33 28 34
REMARK SMILES IDX 29 35 30 36 31 37 32 38 33 39 91 40 34 41 90 42 35 43 36 44
REMARK SMILES IDX 37 45 84 46 38 47 89 48 83 49 85 50 39 51 88 52 82 53 81 54
REMARK SMILES IDX 40 56 70 57 51 58 69 59 52 60 55 61 68 62 86 63 53 64 54 65
REMARK SMILES IDX 67 67 87 68 56 69 41 70 42 71 50 72 43 73 49 74 44 75 45 76
REMARK SMILES IDX 46 77 47 78 48 79 71 80 72 81 80 82 73 83 79 84 74 85 75 86
REMARK SMILES IDX 76 87 77 88 78 89 57 90 58 91 66 92 59 93 65 94 60 95 61 96
REMARK SMILES IDX 62 97 63 98 64 99
REMARK H PARENT 1 27 1 28 85 55 55 66
REMARK Flexibility Score: inf
ROOT
ATOM      1  C   UNL A   1      31.942  28.693  26.573  1.00  0.00     0.202 C 
ENDROOT
BRANCH   1   2
ATOM      2  C   UNL A   1      31.403  27.952  25.349  1.00  0.00     0.261 C 
BRANCH   2   3
ATOM      3  O   UNL A   1      31.024  26.598  25.638  1.00  0.00    -0.460 OA
BRANCH   3   4
ATOM      4  C   UNL A   1      31.109  25.765  24.573  1.00  0.00     0.338 C 
ATOM      5  O   UNL A   1      30.399  25.765  23.581  1.00  0.00    -0.246 OA
BRANCH   4   6
ATOM      6  C   UNL A   1      32.312  24.915  24.675  1.00  0.00     0.060 A 
ATOM      7  C   UNL A   1      34.740  23.587  25.031  1.00  0.00     0.000 A 
ATOM      8  C   UNL A   1      33.946  23.907  26.140  1.00  0.00     0.011 A 
ATOM      9  C   UNL A   1      34.274  23.869  23.740  1.00  0.00     0.011 A 
ATOM     10  C   UNL A   1      32.739  24.575  25.963  1.00  0.00     0.016 A 
ATOM     11  C   UNL A   1      33.051  24.521  23.557  1.00  0.00     0.016 A 
BRANCH   7  12
ATOM     12  C   UNL A   1      36.097  23.095  25.246  1.00  0.00     0.075 A 
ATOM     13  N   UNL A   1      36.465  21.769  25.440  1.00  0.00    -0.233 N 
ATOM     14  N   UNL A   1      37.681  21.670  26.039  1.00  0.00    -0.166 NA
ATOM     15  C   UNL A   1      38.194  22.912  25.980  1.00  0.00     0.129 A 
ATOM     16  C   UNL A   1      37.228  23.837  25.520  1.00  0.00     0.060 A 
BRANCH  13  17
ATOM     17  C   UNL A   1      35.722  20.608  25.104  1.00  0.00     0.065 A 
ATOM     18  C   UNL A   1      34.281  18.346  24.356  1.00  0.00     0.082 A 
ATOM     19  C   UNL A   1      35.670  18.268  24.473  1.00  0.00     0.024 A 
ATOM     20  C   UNL A   1      33.605  19.541  24.634  1.00  0.00     0.024 A 
ATOM     21  C   UNL A   1      36.393  19.406  24.831  1.00  0.00     0.030 A 
ATOM     22  C   UNL A   1      34.325  20.667  25.042  1.00  0.00     0.030 A 
BRANCH  18  23
ATOM     23  S   UNL A   1      33.361  16.934  23.817  1.00  0.00     0.238 S 
ATOM     24  O   UNL A   1      32.490  16.518  24.904  1.00  0.00    -0.207 OA
ATOM     25  O   UNL A   1      34.249  16.034  23.141  1.00  0.00    -0.207 OA
BRANCH  23  26
ATOM     26  N   UNL A   1      32.320  17.559  22.652  1.00  0.00    -0.225 NA
ATOM     27  H   UNL A   1      31.424  17.786  23.082  1.00  0.00     0.137 HD
ATOM     28  H   UNL A   1      32.177  16.865  21.916  1.00  0.00     0.137 HD
ENDBRANCH  23  26
ENDBRANCH  18  23
ENDBRANCH  13  17
BRANCH  15  29
ATOM     29  C   UNL A   1      39.593  23.243  26.407  1.00  0.00     0.393 C 
ATOM     30  F   UNL A   1      39.769  24.573  26.642  1.00  0.00    -0.203 F 
ATOM     31  F   UNL A   1      39.940  22.593  27.551  1.00  0.00    -0.203 F 
ENDBRANCH  15  29
ENDBRANCH   7  12
ENDBRANCH   4   6
ENDBRANCH   3   4
ENDBRANCH   2   3
ENDBRANCH   1   2
BRANCH   1  32
ATOM     32  O   UNL A   1      33.115  29.494  26.432  1.00  0.00    -0.374 OA
BRANCH  32  33
ATOM     33  C   UNL A   1      33.016  30.910  26.327  1.00  0.00     0.202 C 
BRANCH  33  34
ATOM     34  C   UNL A   1      33.308  31.768  27.550  1.00  0.00     0.261 C 
BRANCH  34  35
ATOM     35  O   UNL A   1      33.860  31.003  28.607  1.00  0.00    -0.460 OA
BRANCH  35  36
ATOM     36  C   UNL A   1      34.859  31.632  29.267  1.00  0.00     0.338 C 
ATOM     37  O   UNL A   1      34.750  32.431  30.183  1.00  0.00    -0.246 OA
BRANCH  36  38
ATOM     38  C   UNL A   1      36.126  31.302  28.610  1.00  0.00     0.060 A 
ATOM     39  C   UNL A   1      36.290  29.958  28.273  1.00  0.00     0.016 A 
ATOM     40  C   UNL A   1      37.205  32.189  28.728  1.00  0.00     0.016 A 
ATOM     41  C   UNL A   1      37.551  29.429  28.384  1.00  0.00     0.010 A 
ATOM     42  C   UNL A   1      38.460  31.656  28.852  1.00  0.00     0.010 A 
ATOM     43  C   UNL A   1      38.586  30.273  28.799  1.00  0.00    -0.014 A 
BRANCH  43  44
ATOM     44  C   UNL A   1      39.861  29.674  29.108  1.00  0.00     0.031 A 
ATOM     45  C   UNL A   1      40.129  29.714  30.557  1.00  0.00     0.074 A 
ATOM     46  C   UNL A   1      40.621  29.070  28.177  1.00  0.00     0.049 A 
ATOM     47  N   UNL A   1      40.885  30.543  31.194  1.00  0.00    -0.248 NA
ATOM     48  C   UNL A   1      39.237  28.919  31.421  1.00  0.00     0.031 C 
ATOM     49  C   UNL A   1      40.282  28.719  26.794  1.00  0.00     0.029 A 
ATOM     50  N   UNL A   1      41.860  28.541  28.319  1.00  0.00    -0.354 N 
ATOM     51  C   UNL A   1      40.754  30.185  32.528  1.00  0.00     0.074 A 
ATOM     52  C   UNL A   1      39.544  29.411  32.620  1.00  0.00     0.031 C 
ATOM     53  C   UNL A   1      41.185  27.821  26.329  1.00  0.00     0.029 A 
ATOM     54  C   UNL A   1      42.235  27.652  27.319  1.00  0.00     0.049 A 
ATOM     55  H   UNL A   1      42.450  28.769  29.073  1.00  0.00     0.167 HD
ATOM     56  C   UNL A   1      41.814  30.238  33.379  1.00  0.00     0.031 A 
ATOM     57  C   UNL A   1      43.289  26.794  27.373  1.00  0.00     0.031 A 
ATOM     58  C   UNL A   1      42.887  31.031  32.838  1.00  0.00     0.049 A 
ATOM     59  C   UNL A   1      44.191  27.296  28.448  1.00  0.00     0.074 A 
ATOM     60  C   UNL A   1      43.025  32.348  32.449  1.00  0.00     0.029 A 
ATOM     61  N   UNL A   1      43.914  30.342  32.235  1.00  0.00    -0.354 N 
ATOM     62  N   UNL A   1      44.816  28.440  28.387  1.00  0.00    -0.248 NA
ATOM     63  C   UNL A   1      44.004  26.760  29.788  1.00  0.00     0.031 C 
ATOM     64  C   UNL A   1      43.848  32.305  31.286  1.00  0.00     0.029 A 
ATOM     65  C   UNL A   1      44.232  30.981  31.064  1.00  0.00     0.049 A 
ATOM     66  H   UNL A   1      44.347  29.529  32.584  1.00  0.00     0.167 HD
ATOM     67  C   UNL A   1      44.730  28.967  29.670  1.00  0.00     0.074 A 
ATOM     68  C   UNL A   1      44.280  27.853  30.505  1.00  0.00     0.031 C 
ATOM     69  C   UNL A   1      44.752  30.315  29.885  1.00  0.00     0.031 A 
BRANCH  56  70
ATOM     70  C   UNL A   1      42.040  29.197  34.449  1.00  0.00    -0.014 A 
ATOM     71  C   UNL A   1      42.702  29.575  35.630  1.00  0.00     0.010 A 
ATOM     72  C   UNL A   1      41.868  27.813  34.229  1.00  0.00     0.010 A 
ATOM     73  C   UNL A   1      43.212  28.615  36.512  1.00  0.00     0.020 A 
ATOM     74  C   UNL A   1      42.329  26.849  35.122  1.00  0.00     0.020 A 
ATOM     75  C   UNL A   1      43.026  27.256  36.245  1.00  0.00     0.054 A 
BRANCH  75  76
ATOM     76  S   UNL A   1      43.756  26.022  37.344  1.00  0.00     0.124 S 
ATOM     77  O   UNL A   1      45.173  26.121  37.006  1.00  0.00    -0.237 OA
ATOM     78  O   UNL A   1      43.378  26.524  38.661  1.00  0.00    -0.237 OA
ATOM     79  O   UNL A   1      43.101  24.779  36.944  1.00  0.00    -0.744 OA
ENDBRANCH  75  76
ENDBRANCH  56  70
BRANCH  57  80
ATOM     80  C   UNL A   1      43.329  25.382  26.898  1.00  0.00    -0.014 A 
ATOM     81  C   UNL A   1      42.864  25.027  25.615  1.00  0.00     0.010 A 
ATOM     82  C   UNL A   1      44.102  24.429  27.592  1.00  0.00     0.010 A 
ATOM     83  C   UNL A   1      43.206  23.791  25.031  1.00  0.00     0.020 A 
ATOM     84  C   UNL A   1      44.444  23.196  27.020  1.00  0.00     0.020 A 
ATOM     85  C   UNL A   1      44.014  22.891  25.732  1.00  0.00     0.054 A 
BRANCH  85  86
ATOM     86  S   UNL A   1      44.599  21.375  24.910  1.00  0.00     0.124 S 
ATOM     87  O   UNL A   1      44.602  21.765  23.503  1.00  0.00    -0.237 OA
ATOM     88  O   UNL A   1      45.914  21.174  25.513  1.00  0.00    -0.237 OA
ATOM     89  O   UNL A   1      43.595  20.378  25.275  1.00  0.00    -0.744 OA
ENDBRANCH  85  86
ENDBRANCH  57  80
BRANCH  69  90
ATOM     90  C   UNL A   1      45.171  31.224  28.751  1.00  0.00    -0.014 A 
ATOM     91  C   UNL A   1      44.281  31.798  27.821  1.00  0.00     0.010 A 
ATOM     92  C   UNL A   1      46.507  31.659  28.758  1.00  0.00     0.010 A 
ATOM     93  C   UNL A   1      44.725  32.785  26.923  1.00  0.00     0.020 A 
ATOM     94  C   UNL A   1      46.950  32.650  27.880  1.00  0.00     0.020 A 
ATOM     95  C   UNL A   1      46.059  33.209  26.965  1.00  0.00     0.054 A 
BRANCH  95  96
ATOM     96  S   UNL A   1      46.619  34.541  25.865  1.00  0.00     0.124 S 
ATOM     97  O   UNL A   1      48.014  34.186  25.621  1.00  0.00    -0.237 OA
ATOM     98  O   UNL A   1      45.725  34.412  24.716  1.00  0.00    -0.237 OA
ATOM     99  O   UNL A   1      46.420  35.755  26.657  1.00  0.00    -0.744 OA
ENDBRANCH  95  96
ENDBRANCH  69  90
ENDBRANCH  43  44
ENDBRANCH  36  38
ENDBRANCH  35  36
ENDBRANCH  34  35
ENDBRANCH  33  34
ENDBRANCH  32  33
ENDBRANCH   1  32
TORSDOF 22
ENDMDL
