MODEL 1
REMARK VINA RESULT:      -8.9      0.000      0.000
REMARK SMILES CC(C)C[N@@H+](C[C@@H](C)C(=O)OCCOCCOC(=O)c1ccc(-c2c3nc(c(-c4ccc(S(=O)(=O)[O-])cc4)c4ccc([nH]4)c(-c4ccc(S(=O)(=O)[O-])cc4)c4nc(c(-c5ccc(S(=O)(=O)[O-])cc5)c5ccc2[nH]5)C=C4)C=C3)cc1)C1CCCC1
REMARK SMILES IDX 13 1 12 2 11 3 9 4 10 5 7 6 8 7 6 8 5 9 4 11 2 12 1 13 3 14
REMARK SMILES IDX 80 15 81 16 84 17 82 18 83 19 14 20 15 21 16 22 17 23 18 24
REMARK SMILES IDX 19 25 20 26 21 27 79 28 22 29 78 30 23 31 24 32 25 33 72 34
REMARK SMILES IDX 26 35 77 36 71 37 73 38 27 39 76 40 70 41 69 42 28 44 58 45
REMARK SMILES IDX 39 46 57 47 40 48 43 49 56 50 74 51 41 52 42 53 55 55 75 56
REMARK SMILES IDX 44 57 29 58 30 59 38 60 31 61 37 62 32 63 33 64 34 65 35 66
REMARK SMILES IDX 36 67 59 68 60 69 68 70 61 71 67 72 62 73 63 74 64 75 65 76
REMARK SMILES IDX 66 77 45 78 46 79 54 80 47 81 53 82 48 83 49 84 50 85 51 86
REMARK SMILES IDX 52 87
REMARK H PARENT 5 10 73 43 43 54
REMARK Flexibility Score: inf
ROOT
ATOM      1  C   UNL A   1      39.890  20.275  26.052  1.00  0.00     0.202 C 
ENDROOT
BRANCH   1   2
ATOM      2  C   UNL A   1      39.233  21.645  26.239  1.00  0.00     0.261 C 
BRANCH   2   3
ATOM      3  O   UNL A   1      38.123  21.862  25.353  1.00  0.00    -0.463 OA
BRANCH   3   4
ATOM      4  C   UNL A   1      37.401  22.986  25.604  1.00  0.00     0.314 C 
ATOM      5  O   UNL A   1      37.859  24.031  26.052  1.00  0.00    -0.252 OA
BRANCH   4   6
ATOM      6  C   UNL A   1      35.915  22.797  25.363  1.00  0.00     0.151 C 
ATOM      7  C   UNL A   1      35.255  22.883  26.731  1.00  0.00     0.026 C 
BRANCH   6   8
ATOM      8  C   UNL A   1      35.578  21.532  24.536  1.00  0.00     0.277 C 
BRANCH   8   9
ATOM      9  N   UNL A   1      34.236  20.915  24.635  1.00  0.00    -0.332 N 
ATOM     10  H   UNL A   1      33.934  21.154  25.579  1.00  0.00     0.348 HD
BRANCH   9  11
ATOM     11  C   UNL A   1      34.283  19.445  24.627  1.00  0.00     0.265 C 
BRANCH  11  12
ATOM     12  C   UNL A   1      33.020  18.623  24.249  1.00  0.00     0.038 C 
ATOM     13  C   UNL A   1      33.257  17.591  23.144  1.00  0.00     0.013 C 
ATOM     14  C   UNL A   1      32.528  17.868  25.496  1.00  0.00     0.013 C 
ENDBRANCH  11  12
ENDBRANCH   9  11
BRANCH   9  15
ATOM     15  C   UNL A   1      33.096  21.584  24.010  1.00  0.00     0.184 C 
ATOM     16  C   UNL A   1      32.089  22.304  24.935  1.00  0.00     0.065 C 
ATOM     17  C   UNL A   1      33.371  22.581  22.869  1.00  0.00     0.065 C 
ATOM     18  C   UNL A   1      31.394  23.298  24.013  1.00  0.00     0.006 C 
ATOM     19  C   UNL A   1      32.545  23.825  23.176  1.00  0.00     0.006 C 
ENDBRANCH   9  15
ENDBRANCH   8   9
ENDBRANCH   6   8
ENDBRANCH   4   6
ENDBRANCH   3   4
ENDBRANCH   2   3
ENDBRANCH   1   2
BRANCH   1  20
ATOM     20  O   UNL A   1      41.174  20.090  26.644  1.00  0.00    -0.374 OA
BRANCH  20  21
ATOM     21  C   UNL A   1      41.949  21.261  26.897  1.00  0.00     0.202 C 
BRANCH  21  22
ATOM     22  C   UNL A   1      42.853  21.746  25.759  1.00  0.00     0.261 C 
BRANCH  22  23
ATOM     23  O   UNL A   1      42.295  22.893  25.091  1.00  0.00    -0.460 OA
BRANCH  23  24
ATOM     24  C   UNL A   1      43.042  24.017  25.211  1.00  0.00     0.338 C 
ATOM     25  O   UNL A   1      44.077  24.275  24.619  1.00  0.00    -0.246 OA
BRANCH  24  26
ATOM     26  C   UNL A   1      42.346  25.021  26.039  1.00  0.00     0.060 A 
ATOM     27  C   UNL A   1      42.969  26.269  26.164  1.00  0.00     0.016 A 
ATOM     28  C   UNL A   1      41.193  24.725  26.771  1.00  0.00     0.016 A 
ATOM     29  C   UNL A   1      42.513  27.183  27.106  1.00  0.00     0.010 A 
ATOM     30  C   UNL A   1      40.735  25.647  27.721  1.00  0.00     0.010 A 
ATOM     31  C   UNL A   1      41.440  26.845  27.940  1.00  0.00    -0.014 A 
BRANCH  31  32
ATOM     32  C   UNL A   1      41.249  27.637  29.180  1.00  0.00     0.031 A 
ATOM     33  C   UNL A   1      42.239  27.454  30.304  1.00  0.00     0.074 A 
ATOM     34  C   UNL A   1      40.293  28.578  29.265  1.00  0.00     0.049 A 
ATOM     35  N   UNL A   1      42.340  28.103  31.435  1.00  0.00    -0.248 NA
ATOM     36  C   UNL A   1      43.256  26.403  30.125  1.00  0.00     0.031 C 
ATOM     37  C   UNL A   1      39.313  28.886  28.224  1.00  0.00     0.029 A 
ATOM     38  N   UNL A   1      40.008  29.466  30.271  1.00  0.00    -0.354 N 
ATOM     39  C   UNL A   1      43.422  27.536  32.101  1.00  0.00     0.074 A 
ATOM     40  C   UNL A   1      43.924  26.470  31.265  1.00  0.00     0.031 C 
ATOM     41  C   UNL A   1      38.540  29.904  28.642  1.00  0.00     0.029 A 
ATOM     42  C   UNL A   1      38.960  30.306  29.984  1.00  0.00     0.049 A 
ATOM     43  H   UNL A   1      40.509  29.499  31.118  1.00  0.00     0.167 HD
ATOM     44  C   UNL A   1      43.958  27.878  33.297  1.00  0.00     0.031 A 
ATOM     45  C   UNL A   1      38.403  31.288  30.720  1.00  0.00     0.031 A 
ATOM     46  C   UNL A   1      43.458  28.938  34.129  1.00  0.00     0.049 A 
ATOM     47  C   UNL A   1      38.987  31.620  32.069  1.00  0.00     0.074 A 
ATOM     48  C   UNL A   1      43.935  29.370  35.354  1.00  0.00     0.029 A 
ATOM     49  N   UNL A   1      42.363  29.732  33.821  1.00  0.00    -0.354 N 
ATOM     50  N   UNL A   1      40.022  31.085  32.675  1.00  0.00    -0.248 NA
ATOM     51  C   UNL A   1      38.338  32.700  32.824  1.00  0.00     0.031 C 
ATOM     52  C   UNL A   1      43.098  30.394  35.810  1.00  0.00     0.029 A 
ATOM     53  C   UNL A   1      42.137  30.639  34.842  1.00  0.00     0.049 A 
ATOM     54  H   UNL A   1      41.828  29.661  33.000  1.00  0.00     0.167 HD
ATOM     55  C   UNL A   1      40.169  31.791  33.865  1.00  0.00     0.074 A 
ATOM     56  C   UNL A   1      39.123  32.794  33.889  1.00  0.00     0.031 C 
ATOM     57  C   UNL A   1      41.092  31.631  34.846  1.00  0.00     0.031 A 
BRANCH  44  58
ATOM     58  C   UNL A   1      45.125  27.064  33.790  1.00  0.00    -0.014 A 
ATOM     59  C   UNL A   1      46.452  27.438  33.508  1.00  0.00     0.010 A 
ATOM     60  C   UNL A   1      44.889  25.914  34.566  1.00  0.00     0.010 A 
ATOM     61  C   UNL A   1      47.518  26.653  33.956  1.00  0.00     0.020 A 
ATOM     62  C   UNL A   1      45.953  25.142  35.039  1.00  0.00     0.020 A 
ATOM     63  C   UNL A   1      47.261  25.506  34.714  1.00  0.00     0.054 A 
BRANCH  63  64
ATOM     64  S   UNL A   1      48.661  24.511  35.297  1.00  0.00     0.124 S 
ATOM     65  O   UNL A   1      48.066  23.180  35.388  1.00  0.00    -0.237 OA
ATOM     66  O   UNL A   1      49.647  24.687  34.233  1.00  0.00    -0.237 OA
ATOM     67  O   UNL A   1      49.014  25.123  36.576  1.00  0.00    -0.744 OA
ENDBRANCH  63  64
ENDBRANCH  44  58
BRANCH  45  68
ATOM     68  C   UNL A   1      37.232  32.039  30.193  1.00  0.00    -0.014 A 
ATOM     69  C   UNL A   1      35.920  31.632  30.491  1.00  0.00     0.010 A 
ATOM     70  C   UNL A   1      37.427  33.172  29.381  1.00  0.00     0.010 A 
ATOM     71  C   UNL A   1      34.825  32.333  29.974  1.00  0.00     0.020 A 
ATOM     72  C   UNL A   1      36.337  33.890  28.884  1.00  0.00     0.020 A 
ATOM     73  C   UNL A   1      35.041  33.458  29.175  1.00  0.00     0.054 A 
BRANCH  73  74
ATOM     74  S   UNL A   1      33.608  34.383  28.556  1.00  0.00     0.124 S 
ATOM     75  O   UNL A   1      34.239  35.548  27.946  1.00  0.00    -0.237 OA
ATOM     76  O   UNL A   1      32.997  33.434  27.628  1.00  0.00    -0.237 OA
ATOM     77  O   UNL A   1      32.829  34.651  29.762  1.00  0.00    -0.744 OA
ENDBRANCH  73  74
ENDBRANCH  45  68
BRANCH  57  78
ATOM     78  C   UNL A   1      41.045  32.594  36.004  1.00  0.00    -0.014 A 
ATOM     79  C   UNL A   1      41.818  33.767  36.015  1.00  0.00     0.010 A 
ATOM     80  C   UNL A   1      40.180  32.330  37.083  1.00  0.00     0.010 A 
ATOM     81  C   UNL A   1      41.762  34.638  37.108  1.00  0.00     0.020 A 
ATOM     82  C   UNL A   1      40.101  33.212  38.163  1.00  0.00     0.020 A 
ATOM     83  C   UNL A   1      40.909  34.351  38.178  1.00  0.00     0.054 A 
BRANCH  83  84
ATOM     84  S   UNL A   1      40.840  35.502  39.578  1.00  0.00     0.124 S 
ATOM     85  O   UNL A   1      41.411  36.715  39.001  1.00  0.00    -0.237 OA
ATOM     86  O   UNL A   1      39.412  35.560  39.880  1.00  0.00    -0.237 OA
ATOM     87  O   UNL A   1      41.659  34.853  40.600  1.00  0.00    -0.744 OA
ENDBRANCH  83  84
ENDBRANCH  57  78
ENDBRANCH  31  32
ENDBRANCH  24  26
ENDBRANCH  23  24
ENDBRANCH  22  23
ENDBRANCH  21  22
ENDBRANCH  20  21
ENDBRANCH   1  20
TORSDOF 22
ENDMDL
MODEL 2
REMARK VINA RESULT:      -8.7      3.620      9.708
REMARK SMILES CC(C)C[N@@H+](C[C@@H](C)C(=O)OCCOCCOC(=O)c1ccc(-c2c3nc(c(-c4ccc(S(=O)(=O)[O-])cc4)c4ccc([nH]4)c(-c4ccc(S(=O)(=O)[O-])cc4)c4nc(c(-c5ccc(S(=O)(=O)[O-])cc5)c5ccc2[nH]5)C=C4)C=C3)cc1)C1CCCC1
REMARK SMILES IDX 13 1 12 2 11 3 9 4 10 5 7 6 8 7 6 8 5 9 4 11 2 12 1 13 3 14
REMARK SMILES IDX 80 15 81 16 84 17 82 18 83 19 14 20 15 21 16 22 17 23 18 24
REMARK SMILES IDX 19 25 20 26 21 27 79 28 22 29 78 30 23 31 24 32 25 33 72 34
REMARK SMILES IDX 26 35 77 36 71 37 73 38 27 39 76 40 70 41 69 42 28 44 58 45
REMARK SMILES IDX 39 46 57 47 40 48 43 49 56 50 74 51 41 52 42 53 55 55 75 56
REMARK SMILES IDX 44 57 29 58 30 59 38 60 31 61 37 62 32 63 33 64 34 65 35 66
REMARK SMILES IDX 36 67 59 68 60 69 68 70 61 71 67 72 62 73 63 74 64 75 65 76
REMARK SMILES IDX 66 77 45 78 46 79 54 80 47 81 53 82 48 83 49 84 50 85 51 86
REMARK SMILES IDX 52 87
REMARK H PARENT 5 10 73 43 43 54
REMARK Flexibility Score: inf
ROOT
ATOM      1  C   UNL A   1      30.242  26.059  25.764  1.00  0.00     0.202 C 
ENDROOT
BRANCH   1   2
ATOM      2  C   UNL A   1      30.503  26.817  24.460  1.00  0.00     0.261 C 
BRANCH   2   3
ATOM      3  O   UNL A   1      30.501  25.964  23.303  1.00  0.00    -0.463 OA
BRANCH   3   4
ATOM      4  C   UNL A   1      31.488  26.214  22.404  1.00  0.00     0.314 C 
ATOM      5  O   UNL A   1      31.314  26.446  21.214  1.00  0.00    -0.252 OA
BRANCH   4   6
ATOM      6  C   UNL A   1      32.876  26.079  23.003  1.00  0.00     0.151 C 
ATOM      7  C   UNL A   1      33.684  27.246  22.452  1.00  0.00     0.026 C 
BRANCH   6   8
ATOM      8  C   UNL A   1      33.503  24.678  22.804  1.00  0.00     0.277 C 
BRANCH   8   9
ATOM      9  N   UNL A   1      34.062  23.943  23.961  1.00  0.00    -0.332 N 
ATOM     10  H   UNL A   1      34.015  22.968  23.668  1.00  0.00     0.348 HD
BRANCH   9  11
ATOM     11  C   UNL A   1      33.197  24.010  25.149  1.00  0.00     0.265 C 
BRANCH  11  12
ATOM     12  C   UNL A   1      32.808  22.712  25.909  1.00  0.00     0.038 C 
ATOM     13  C   UNL A   1      32.274  22.955  27.322  1.00  0.00     0.013 C 
ATOM     14  C   UNL A   1      31.713  21.981  25.114  1.00  0.00     0.013 C 
ENDBRANCH  11  12
ENDBRANCH   9  11
BRANCH   9  15
ATOM     15  C   UNL A   1      35.512  23.905  24.150  1.00  0.00     0.184 C 
ATOM     16  C   UNL A   1      36.051  24.013  25.595  1.00  0.00     0.065 C 
ATOM     17  C   UNL A   1      36.299  22.742  23.518  1.00  0.00     0.065 C 
ATOM     18  C   UNL A   1      37.449  23.416  25.506  1.00  0.00     0.006 C 
ATOM     19  C   UNL A   1      37.235  22.218  24.601  1.00  0.00     0.006 C 
ENDBRANCH   9  15
ENDBRANCH   8   9
ENDBRANCH   6   8
ENDBRANCH   4   6
ENDBRANCH   3   4
ENDBRANCH   2   3
ENDBRANCH   1   2
BRANCH   1  20
ATOM     20  O   UNL A   1      31.007  26.450  26.901  1.00  0.00    -0.374 OA
BRANCH  20  21
ATOM     21  C   UNL A   1      32.268  27.072  26.654  1.00  0.00     0.202 C 
BRANCH  21  22
ATOM     22  C   UNL A   1      32.530  28.402  27.368  1.00  0.00     0.261 C 
BRANCH  22  23
ATOM     23  O   UNL A   1      33.936  28.702  27.432  1.00  0.00    -0.460 OA
BRANCH  23  24
ATOM     24  C   UNL A   1      34.210  30.002  27.695  1.00  0.00     0.338 C 
ATOM     25  O   UNL A   1      33.447  30.947  27.589  1.00  0.00    -0.246 OA
BRANCH  24  26
ATOM     26  C   UNL A   1      35.539  30.140  28.323  1.00  0.00     0.060 A 
ATOM     27  C   UNL A   1      36.515  30.816  27.580  1.00  0.00     0.016 A 
ATOM     28  C   UNL A   1      35.866  29.528  29.535  1.00  0.00     0.016 A 
ATOM     29  C   UNL A   1      37.844  30.784  27.984  1.00  0.00     0.010 A 
ATOM     30  C   UNL A   1      37.207  29.494  29.941  1.00  0.00     0.010 A 
ATOM     31  C   UNL A   1      38.205  30.060  29.126  1.00  0.00    -0.014 A 
BRANCH  31  32
ATOM     32  C   UNL A   1      39.635  29.698  29.295  1.00  0.00     0.031 A 
ATOM     33  C   UNL A   1      40.551  30.696  29.958  1.00  0.00     0.074 A 
ATOM     34  C   UNL A   1      40.085  28.472  28.974  1.00  0.00     0.049 A 
ATOM     35  N   UNL A   1      41.805  30.568  30.306  1.00  0.00    -0.248 NA
ATOM     36  C   UNL A   1      39.972  32.013  30.279  1.00  0.00     0.031 C 
ATOM     37  C   UNL A   1      39.283  27.405  28.378  1.00  0.00     0.029 A 
ATOM     38  N   UNL A   1      41.328  27.915  29.130  1.00  0.00    -0.354 N 
ATOM     39  C   UNL A   1      42.165  31.784  30.878  1.00  0.00     0.074 A 
ATOM     40  C   UNL A   1      41.009  32.649  30.801  1.00  0.00     0.031 C 
ATOM     41  C   UNL A   1      40.054  26.313  28.231  1.00  0.00     0.029 A 
ATOM     42  C   UNL A   1      41.404  26.611  28.704  1.00  0.00     0.049 A 
ATOM     43  H   UNL A   1      42.093  28.403  29.513  1.00  0.00     0.167 HD
ATOM     44  C   UNL A   1      43.348  32.148  31.429  1.00  0.00     0.031 A 
ATOM     45  C   UNL A   1      42.446  25.755  28.699  1.00  0.00     0.031 A 
ATOM     46  C   UNL A   1      44.497  31.288  31.505  1.00  0.00     0.049 A 
ATOM     47  C   UNL A   1      43.767  26.198  29.273  1.00  0.00     0.074 A 
ATOM     48  C   UNL A   1      45.740  31.558  32.051  1.00  0.00     0.029 A 
ATOM     49  N   UNL A   1      44.545  29.991  31.017  1.00  0.00    -0.354 N 
ATOM     50  N   UNL A   1      44.083  27.346  29.826  1.00  0.00    -0.248 NA
ATOM     51  C   UNL A   1      44.863  25.222  29.240  1.00  0.00     0.031 C 
ATOM     52  C   UNL A   1      46.556  30.439  31.849  1.00  0.00     0.029 A 
ATOM     53  C   UNL A   1      45.802  29.453  31.232  1.00  0.00     0.049 A 
ATOM     54  H   UNL A   1      43.797  29.523  30.584  1.00  0.00     0.167 HD
ATOM     55  C   UNL A   1      45.406  27.214  30.240  1.00  0.00     0.074 A 
ATOM     56  C   UNL A   1      45.825  25.874  29.880  1.00  0.00     0.031 C 
ATOM     57  C   UNL A   1      46.199  28.117  30.869  1.00  0.00     0.031 A 
BRANCH  44  58
ATOM     58  C   UNL A   1      43.463  33.554  31.954  1.00  0.00    -0.014 A 
ATOM     59  C   UNL A   1      44.007  34.588  31.170  1.00  0.00     0.010 A 
ATOM     60  C   UNL A   1      43.000  33.850  33.249  1.00  0.00     0.010 A 
ATOM     61  C   UNL A   1      44.125  35.881  31.687  1.00  0.00     0.020 A 
ATOM     62  C   UNL A   1      43.093  35.146  33.761  1.00  0.00     0.020 A 
ATOM     63  C   UNL A   1      43.673  36.151  32.983  1.00  0.00     0.054 A 
BRANCH  63  64
ATOM     64  S   UNL A   1      43.824  37.839  33.629  1.00  0.00     0.124 S 
ATOM     65  O   UNL A   1      44.989  37.722  34.502  1.00  0.00    -0.237 OA
ATOM     66  O   UNL A   1      44.024  38.630  32.417  1.00  0.00    -0.237 OA
ATOM     67  O   UNL A   1      42.553  38.064  34.313  1.00  0.00    -0.744 OA
ENDBRANCH  63  64
ENDBRANCH  44  58
BRANCH  45  68
ATOM     68  C   UNL A   1      42.280  24.387  28.139  1.00  0.00    -0.014 A 
ATOM     69  C   UNL A   1      41.972  23.298  28.973  1.00  0.00     0.010 A 
ATOM     70  C   UNL A   1      42.434  24.166  26.758  1.00  0.00     0.010 A 
ATOM     71  C   UNL A   1      41.838  22.012  28.440  1.00  0.00     0.020 A 
ATOM     72  C   UNL A   1      42.275  22.888  26.218  1.00  0.00     0.020 A 
ATOM     73  C   UNL A   1      41.989  21.816  27.065  1.00  0.00     0.054 A 
BRANCH  73  74
ATOM     74  S   UNL A   1      41.761  20.149  26.386  1.00  0.00     0.124 S 
ATOM     75  O   UNL A   1      42.734  20.128  25.299  1.00  0.00    -0.237 OA
ATOM     76  O   UNL A   1      42.071  19.296  27.531  1.00  0.00    -0.237 OA
ATOM     77  O   UNL A   1      40.360  20.138  25.974  1.00  0.00    -0.744 OA
ENDBRANCH  73  74
ENDBRANCH  45  68
BRANCH  57  78
ATOM     78  C   UNL A   1      47.585  27.668  31.255  1.00  0.00    -0.014 A 
ATOM     79  C   UNL A   1      47.834  27.023  32.478  1.00  0.00     0.010 A 
ATOM     80  C   UNL A   1      48.648  27.868  30.354  1.00  0.00     0.010 A 
ATOM     81  C   UNL A   1      49.132  26.627  32.815  1.00  0.00     0.020 A 
ATOM     82  C   UNL A   1      49.941  27.448  30.676  1.00  0.00     0.020 A 
ATOM     83  C   UNL A   1      50.178  26.848  31.914  1.00  0.00     0.054 A 
BRANCH  83  84
ATOM     84  S   UNL A   1      51.852  26.312  32.365  1.00  0.00     0.124 S 
ATOM     85  O   UNL A   1      52.629  27.528  32.142  1.00  0.00    -0.237 OA
ATOM     86  O   UNL A   1      51.698  25.910  33.760  1.00  0.00    -0.237 OA
ATOM     87  O   UNL A   1      52.126  25.219  31.435  1.00  0.00    -0.744 OA
ENDBRANCH  83  84
ENDBRANCH  57  78
ENDBRANCH  31  32
ENDBRANCH  24  26
ENDBRANCH  23  24
ENDBRANCH  22  23
ENDBRANCH  21  22
ENDBRANCH  20  21
ENDBRANCH   1  20
TORSDOF 22
ENDMDL
MODEL 3
REMARK VINA RESULT:      -8.2      4.593      5.923
REMARK SMILES CC(C)C[N@@H+](C[C@@H](C)C(=O)OCCOCCOC(=O)c1ccc(-c2c3nc(c(-c4ccc(S(=O)(=O)[O-])cc4)c4ccc([nH]4)c(-c4ccc(S(=O)(=O)[O-])cc4)c4nc(c(-c5ccc(S(=O)(=O)[O-])cc5)c5ccc2[nH]5)C=C4)C=C3)cc1)C1CCCC1
REMARK SMILES IDX 13 1 12 2 11 3 9 4 10 5 7 6 8 7 6 8 5 9 4 11 2 12 1 13 3 14
REMARK SMILES IDX 80 15 81 16 84 17 82 18 83 19 14 20 15 21 16 22 17 23 18 24
REMARK SMILES IDX 19 25 20 26 21 27 79 28 22 29 78 30 23 31 24 32 25 33 72 34
REMARK SMILES IDX 26 35 77 36 71 37 73 38 27 39 76 40 70 41 69 42 28 44 58 45
REMARK SMILES IDX 39 46 57 47 40 48 43 49 56 50 74 51 41 52 42 53 55 55 75 56
REMARK SMILES IDX 44 57 29 58 30 59 38 60 31 61 37 62 32 63 33 64 34 65 35 66
REMARK SMILES IDX 36 67 59 68 60 69 68 70 61 71 67 72 62 73 63 74 64 75 65 76
REMARK SMILES IDX 66 77 45 78 46 79 54 80 47 81 53 82 48 83 49 84 50 85 51 86
REMARK SMILES IDX 52 87
REMARK H PARENT 5 10 73 43 43 54
REMARK Flexibility Score: inf
ROOT
ATOM      1  C   UNL A   1      35.222  21.135  24.627  1.00  0.00     0.202 C 
ENDROOT
BRANCH   1   2
ATOM      2  C   UNL A   1      33.719  20.913  24.815  1.00  0.00     0.261 C 
BRANCH   2   3
ATOM      3  O   UNL A   1      32.952  22.122  24.689  1.00  0.00    -0.463 OA
BRANCH   3   4
ATOM      4  C   UNL A   1      31.927  22.246  25.573  1.00  0.00     0.314 C 
ATOM      5  O   UNL A   1      31.010  21.443  25.704  1.00  0.00    -0.252 OA
BRANCH   4   6
ATOM      6  C   UNL A   1      31.967  23.555  26.339  1.00  0.00     0.151 C 
ATOM      7  C   UNL A   1      30.522  24.017  26.452  1.00  0.00     0.026 C 
BRANCH   6   8
ATOM      8  C   UNL A   1      32.956  24.589  25.748  1.00  0.00     0.277 C 
BRANCH   8   9
ATOM      9  N   UNL A   1      32.446  25.770  25.016  1.00  0.00    -0.332 N 
ATOM     10  H   UNL A   1      31.475  25.530  24.824  1.00  0.00     0.348 HD
BRANCH   9  11
ATOM     11  C   UNL A   1      33.056  25.922  23.686  1.00  0.00     0.265 C 
BRANCH  11  12
ATOM     12  C   UNL A   1      32.431  25.212  22.453  1.00  0.00     0.038 C 
ATOM     13  C   UNL A   1      33.185  23.956  22.011  1.00  0.00     0.013 C 
ATOM     14  C   UNL A   1      30.990  24.796  22.798  1.00  0.00     0.013 C 
ENDBRANCH  11  12
ENDBRANCH   9  11
BRANCH   9  15
ATOM     15  C   UNL A   1      32.089  26.974  25.765  1.00  0.00     0.184 C 
ATOM     16  C   UNL A   1      33.175  27.611  26.662  1.00  0.00     0.065 C 
ATOM     17  C   UNL A   1      31.468  28.155  24.995  1.00  0.00     0.065 C 
ATOM     18  C   UNL A   1      32.701  29.048  26.842  1.00  0.00     0.006 C 
ATOM     19  C   UNL A   1      32.211  29.405  25.451  1.00  0.00     0.006 C 
ENDBRANCH   9  15
ENDBRANCH   8   9
ENDBRANCH   6   8
ENDBRANCH   4   6
ENDBRANCH   3   4
ENDBRANCH   2   3
ENDBRANCH   1   2
BRANCH   1  20
ATOM     20  O   UNL A   1      36.084  20.071  25.022  1.00  0.00    -0.374 OA
BRANCH  20  21
ATOM     21  C   UNL A   1      37.488  20.274  24.856  1.00  0.00     0.202 C 
BRANCH  21  22
ATOM     22  C   UNL A   1      38.153  21.281  25.799  1.00  0.00     0.261 C 
BRANCH  22  23
ATOM     23  O   UNL A   1      38.293  22.573  25.181  1.00  0.00    -0.460 OA
BRANCH  23  24
ATOM     24  C   UNL A   1      37.842  23.599  25.943  1.00  0.00     0.338 C 
ATOM     25  O   UNL A   1      36.690  23.806  26.286  1.00  0.00    -0.246 OA
BRANCH  24  26
ATOM     26  C   UNL A   1      38.970  24.379  26.490  1.00  0.00     0.060 A 
ATOM     27  C   UNL A   1      39.003  24.540  27.881  1.00  0.00     0.016 A 
ATOM     28  C   UNL A   1      39.895  25.037  25.676  1.00  0.00     0.016 A 
ATOM     29  C   UNL A   1      39.883  25.448  28.456  1.00  0.00     0.010 A 
ATOM     30  C   UNL A   1      40.782  25.954  26.256  1.00  0.00     0.010 A 
ATOM     31  C   UNL A   1      40.724  26.213  27.638  1.00  0.00    -0.014 A 
BRANCH  31  32
ATOM     32  C   UNL A   1      41.331  27.437  28.219  1.00  0.00     0.031 A 
ATOM     33  C   UNL A   1      42.824  27.617  28.105  1.00  0.00     0.074 A 
ATOM     34  C   UNL A   1      40.566  28.418  28.730  1.00  0.00     0.049 A 
ATOM     35  N   UNL A   1      43.564  28.642  28.441  1.00  0.00    -0.248 NA
ATOM     36  C   UNL A   1      43.584  26.494  27.528  1.00  0.00     0.031 C 
ATOM     37  C   UNL A   1      39.108  28.383  28.843  1.00  0.00     0.029 A 
ATOM     38  N   UNL A   1      40.914  29.647  29.228  1.00  0.00    -0.354 N 
ATOM     39  C   UNL A   1      44.871  28.285  28.124  1.00  0.00     0.074 A 
ATOM     40  C   UNL A   1      44.828  26.938  27.600  1.00  0.00     0.031 C 
ATOM     41  C   UNL A   1      38.685  29.547  29.367  1.00  0.00     0.029 A 
ATOM     42  C   UNL A   1      39.842  30.398  29.642  1.00  0.00     0.049 A 
ATOM     43  H   UNL A   1      41.846  29.961  29.283  1.00  0.00     0.167 HD
ATOM     44  C   UNL A   1      46.005  29.014  28.246  1.00  0.00     0.031 A 
ATOM     45  C   UNL A   1      39.798  31.634  30.179  1.00  0.00     0.031 A 
ATOM     46  C   UNL A   1      46.048  30.353  28.768  1.00  0.00     0.049 A 
ATOM     47  C   UNL A   1      41.079  32.409  30.350  1.00  0.00     0.074 A 
ATOM     48  C   UNL A   1      47.145  31.182  28.925  1.00  0.00     0.029 A 
ATOM     49  N   UNL A   1      44.943  31.059  29.220  1.00  0.00    -0.354 N 
ATOM     50  N   UNL A   1      42.303  32.062  30.027  1.00  0.00    -0.248 NA
ATOM     51  C   UNL A   1      40.967  33.750  30.939  1.00  0.00     0.031 C 
ATOM     52  C   UNL A   1      46.710  32.372  29.518  1.00  0.00     0.029 A 
ATOM     53  C   UNL A   1      45.334  32.306  29.674  1.00  0.00     0.049 A 
ATOM     54  H   UNL A   1      44.019  30.723  29.217  1.00  0.00     0.167 HD
ATOM     55  C   UNL A   1      43.102  33.158  30.341  1.00  0.00     0.074 A 
ATOM     56  C   UNL A   1      42.220  34.179  30.871  1.00  0.00     0.031 C 
ATOM     57  C   UNL A   1      44.442  33.310  30.196  1.00  0.00     0.031 A 
BRANCH  44  58
ATOM     58  C   UNL A   1      47.298  28.355  27.844  1.00  0.00    -0.014 A 
ATOM     59  C   UNL A   1      47.843  28.532  26.558  1.00  0.00     0.010 A 
ATOM     60  C   UNL A   1      47.990  27.561  28.776  1.00  0.00     0.010 A 
ATOM     61  C   UNL A   1      49.032  27.892  26.200  1.00  0.00     0.020 A 
ATOM     62  C   UNL A   1      49.193  26.941  28.430  1.00  0.00     0.020 A 
ATOM     63  C   UNL A   1      49.697  27.095  27.137  1.00  0.00     0.054 A 
BRANCH  63  64
ATOM     64  S   UNL A   1      51.246  26.284  26.654  1.00  0.00     0.124 S 
ATOM     65  O   UNL A   1      51.233  26.452  25.203  1.00  0.00    -0.237 OA
ATOM     66  O   UNL A   1      52.254  27.065  27.367  1.00  0.00    -0.237 OA
ATOM     67  O   UNL A   1      51.081  24.911  27.123  1.00  0.00    -0.744 OA
ENDBRANCH  63  64
ENDBRANCH  44  58
BRANCH  45  68
ATOM     68  C   UNL A   1      38.493  32.222  30.585  1.00  0.00    -0.014 A 
ATOM     69  C   UNL A   1      38.099  32.240  31.935  1.00  0.00     0.010 A 
ATOM     70  C   UNL A   1      37.632  32.767  29.615  1.00  0.00     0.010 A 
ATOM     71  C   UNL A   1      36.861  32.776  32.304  1.00  0.00     0.020 A 
ATOM     72  C   UNL A   1      36.406  33.327  29.983  1.00  0.00     0.020 A 
ATOM     73  C   UNL A   1      36.024  33.318  31.326  1.00  0.00     0.054 A 
BRANCH  73  74
ATOM     74  S   UNL A   1      34.444  34.055  31.832  1.00  0.00     0.124 S 
ATOM     75  O   UNL A   1      33.864  34.438  30.550  1.00  0.00    -0.237 OA
ATOM     76  O   UNL A   1      33.786  32.948  32.521  1.00  0.00    -0.237 OA
ATOM     77  O   UNL A   1      34.847  35.163  32.695  1.00  0.00    -0.744 OA
ENDBRANCH  73  74
ENDBRANCH  45  68
BRANCH  57  78
ATOM     78  C   UNL A   1      45.031  34.646  30.567  1.00  0.00    -0.014 A 
ATOM     79  C   UNL A   1      45.506  34.905  31.864  1.00  0.00     0.010 A 
ATOM     80  C   UNL A   1      45.140  35.646  29.583  1.00  0.00     0.010 A 
ATOM     81  C   UNL A   1      46.038  36.157  32.184  1.00  0.00     0.020 A 
ATOM     82  C   UNL A   1      45.697  36.890  29.892  1.00  0.00     0.020 A 
ATOM     83  C   UNL A   1      46.124  37.144  31.196  1.00  0.00     0.054 A 
BRANCH  83  84
ATOM     84  S   UNL A   1      46.832  38.757  31.628  1.00  0.00     0.124 S 
ATOM     85  O   UNL A   1      46.864  38.693  33.087  1.00  0.00    -0.237 OA
ATOM     86  O   UNL A   1      48.135  38.726  30.968  1.00  0.00    -0.237 OA
ATOM     87  O   UNL A   1      45.880  39.714  31.068  1.00  0.00    -0.744 OA
ENDBRANCH  83  84
ENDBRANCH  57  78
ENDBRANCH  31  32
ENDBRANCH  24  26
ENDBRANCH  23  24
ENDBRANCH  22  23
ENDBRANCH  21  22
ENDBRANCH  20  21
ENDBRANCH   1  20
TORSDOF 22
ENDMDL
