MODEL 1
REMARK VINA RESULT:     -10.1      0.000      0.000
REMARK SMILES CN(Cc1csc(Br)c1)c1cccc(F)c1C(=O)OCCOCCOC(=O)c1ccc(-c2c3nc(c(-c4ccc(S(=O)(=O)[O-])cc4)c4ccc([nH]4)c(-c4ccc(S(=O)(=O)[O-])cc4)c4nc(c(-c5ccc(S(=O)(=O)[O-])cc5)c5ccc2[nH]5)C=C4)C=C3)cc1
REMARK SMILES IDX 22 1 21 2 20 3 19 4 17 5 18 6 16 7 10 8 11 9 12 10 14 11
REMARK SMILES IDX 13 12 15 13 2 14 1 15 3 16 4 17 5 18 9 19 6 20 7 21 8 22
REMARK SMILES IDX 23 23 24 24 25 25 26 26 27 27 28 28 29 29 87 30 30 31 86 32
REMARK SMILES IDX 31 33 32 34 33 35 80 36 34 37 85 38 79 39 81 40 35 41 84 42
REMARK SMILES IDX 78 43 77 44 36 46 66 47 47 48 65 49 48 50 51 51 64 52 82 53
REMARK SMILES IDX 49 54 50 55 63 57 83 58 52 59 37 60 38 61 46 62 39 63 45 64
REMARK SMILES IDX 40 65 41 66 42 67 43 68 44 69 67 70 68 71 76 72 69 73 75 74
REMARK SMILES IDX 70 75 71 76 72 77 73 78 74 79 53 80 54 81 62 82 55 83 61 84
REMARK SMILES IDX 56 85 57 86 58 87 59 88 60 89
REMARK H PARENT 81 45 51 56
REMARK Flexibility Score: inf
ROOT
ATOM      1  O   UNL A   1      37.734  23.975  26.072  1.00  0.00    -0.374 OA
ENDROOT
BRANCH   1   2
ATOM      2  C   UNL A   1      36.697  23.518  25.204  1.00  0.00     0.202 C 
BRANCH   2   3
ATOM      3  C   UNL A   1      35.664  22.562  25.963  1.00  0.00     0.261 C 
BRANCH   3   4
ATOM      4  O   UNL A   1      34.588  23.289  26.664  1.00  0.00    -0.460 OA
BRANCH   4   5
ATOM      5  C   UNL A   1      33.302  22.800  26.813  1.00  0.00     0.343 C 
ATOM      6  O   UNL A   1      32.703  22.670  27.868  1.00  0.00    -0.246 OA
BRANCH   5   7
ATOM      7  C   UNL A   1      32.732  22.461  25.450  1.00  0.00     0.119 A 
ATOM      8  C   UNL A   1      32.301  23.371  24.420  1.00  0.00     0.054 A 
ATOM      9  C   UNL A   1      32.036  22.819  23.139  1.00  0.00     0.027 A 
ATOM     10  C   UNL A   1      32.157  21.459  22.861  1.00  0.00     0.005 A 
ATOM     11  C   UNL A   1      32.756  21.081  25.158  1.00  0.00     0.139 A 
ATOM     12  C   UNL A   1      32.489  20.585  23.882  1.00  0.00     0.040 A 
ATOM     13  F   UNL A   1      33.069  20.183  26.106  1.00  0.00    -0.206 F 
BRANCH   8  14
ATOM     14  N   UNL A   1      32.101  24.772  24.544  1.00  0.00    -0.369 N 
ATOM     15  C   UNL A   1      30.715  25.152  24.794  1.00  0.00     0.144 C 
BRANCH  14  16
ATOM     16  C   UNL A   1      32.757  25.689  23.557  1.00  0.00     0.152 C 
BRANCH  16  17
ATOM     17  C   UNL A   1      33.566  26.726  24.228  1.00  0.00    -0.017 A 
ATOM     18  C   UNL A   1      33.890  27.915  23.605  1.00  0.00     0.071 A 
ATOM     19  C   UNL A   1      33.619  26.849  25.645  1.00  0.00     0.033 A 
ATOM     20  S   UNL A   1      33.077  29.061  24.551  1.00  0.00    -0.136 S 
ATOM     21  C   UNL A   1      32.962  28.024  25.894  1.00  0.00     0.070 A 
ATOM     22  Br  UNL A   1      31.924  28.184  27.471  1.00  0.00    -0.039 Br
ENDBRANCH  16  17
ENDBRANCH  14  16
ENDBRANCH   8  14
ENDBRANCH   5   7
ENDBRANCH   4   5
ENDBRANCH   3   4
ENDBRANCH   2   3
ENDBRANCH   1   2
BRANCH   1  23
ATOM     23  C   UNL A   1      38.884  23.246  26.532  1.00  0.00     0.202 C 
BRANCH  23  24
ATOM     24  C   UNL A   1      39.201  21.786  26.132  1.00  0.00     0.261 C 
BRANCH  24  25
ATOM     25  O   UNL A   1      39.989  21.133  27.109  1.00  0.00    -0.460 OA
BRANCH  25  26
ATOM     26  C   UNL A   1      41.053  20.533  26.533  1.00  0.00     0.338 C 
ATOM     27  O   UNL A   1      41.063  19.548  25.829  1.00  0.00    -0.246 OA
BRANCH  26  28
ATOM     28  C   UNL A   1      42.143  21.497  26.626  1.00  0.00     0.060 A 
ATOM     29  C   UNL A   1      42.599  21.800  27.913  1.00  0.00     0.016 A 
ATOM     30  C   UNL A   1      42.689  22.076  25.481  1.00  0.00     0.016 A 
ATOM     31  C   UNL A   1      43.538  22.799  28.071  1.00  0.00     0.010 A 
ATOM     32  C   UNL A   1      43.624  23.086  25.640  1.00  0.00     0.010 A 
ATOM     33  C   UNL A   1      43.974  23.495  26.938  1.00  0.00    -0.014 A 
BRANCH  33  34
ATOM     34  C   UNL A   1      44.502  24.852  27.130  1.00  0.00     0.031 A 
ATOM     35  C   UNL A   1      43.522  25.910  27.554  1.00  0.00     0.074 A 
ATOM     36  C   UNL A   1      45.809  25.105  26.978  1.00  0.00     0.049 A 
ATOM     37  N   UNL A   1      43.714  27.186  27.743  1.00  0.00    -0.248 NA
ATOM     38  C   UNL A   1      42.132  25.469  27.791  1.00  0.00     0.031 C 
ATOM     39  C   UNL A   1      46.829  24.117  26.635  1.00  0.00     0.029 A 
ATOM     40  N   UNL A   1      46.492  26.282  27.094  1.00  0.00    -0.354 N 
ATOM     41  C   UNL A   1      42.472  27.698  28.104  1.00  0.00     0.074 A 
ATOM     42  C   UNL A   1      41.526  26.609  28.073  1.00  0.00     0.031 C 
ATOM     43  C   UNL A   1      48.019  24.738  26.557  1.00  0.00     0.029 A 
ATOM     44  C   UNL A   1      47.828  26.165  26.806  1.00  0.00     0.049 A 
ATOM     45  H   UNL A   1      46.067  27.130  27.356  1.00  0.00     0.167 HD
ATOM     46  C   UNL A   1      42.156  28.968  28.438  1.00  0.00     0.031 A 
ATOM     47  C   UNL A   1      48.773  27.119  26.731  1.00  0.00     0.031 A 
ATOM     48  C   UNL A   1      43.115  30.036  28.448  1.00  0.00     0.049 A 
ATOM     49  C   UNL A   1      48.380  28.543  27.027  1.00  0.00     0.074 A 
ATOM     50  C   UNL A   1      42.920  31.366  28.764  1.00  0.00     0.029 A 
ATOM     51  N   UNL A   1      44.456  29.888  28.117  1.00  0.00    -0.354 N 
ATOM     52  N   UNL A   1      47.206  29.022  27.374  1.00  0.00    -0.248 NA
ATOM     53  C   UNL A   1      49.440  29.554  26.936  1.00  0.00     0.031 C 
ATOM     54  C   UNL A   1      44.131  32.036  28.565  1.00  0.00     0.029 A 
ATOM     55  C   UNL A   1      45.097  31.109  28.201  1.00  0.00     0.049 A 
ATOM     56  H   UNL A   1      44.886  29.040  27.863  1.00  0.00     0.167 HD
ATOM     57  C   UNL A   1      47.397  30.384  27.578  1.00  0.00     0.074 A 
ATOM     58  C   UNL A   1      48.798  30.649  27.322  1.00  0.00     0.031 C 
ATOM     59  C   UNL A   1      46.500  31.332  27.949  1.00  0.00     0.031 A 
BRANCH  46  60
ATOM     60  C   UNL A   1      40.719  29.265  28.768  1.00  0.00    -0.014 A 
ATOM     61  C   UNL A   1      39.750  29.425  27.759  1.00  0.00     0.010 A 
ATOM     62  C   UNL A   1      40.327  29.375  30.115  1.00  0.00     0.010 A 
ATOM     63  C   UNL A   1      38.426  29.725  28.091  1.00  0.00     0.020 A 
ATOM     64  C   UNL A   1      38.998  29.644  30.451  1.00  0.00     0.020 A 
ATOM     65  C   UNL A   1      38.058  29.832  29.435  1.00  0.00     0.054 A 
BRANCH  65  66
ATOM     66  S   UNL A   1      36.327  30.193  29.838  1.00  0.00     0.124 S 
ATOM     67  O   UNL A   1      35.626  29.633  28.686  1.00  0.00    -0.237 OA
ATOM     68  O   UNL A   1      36.138  29.478  31.097  1.00  0.00    -0.237 OA
ATOM     69  O   UNL A   1      36.290  31.650  29.940  1.00  0.00    -0.744 OA
ENDBRANCH  65  66
ENDBRANCH  46  60
BRANCH  47  70
ATOM     70  C   UNL A   1      50.162  26.757  26.346  1.00  0.00    -0.014 A 
ATOM     71  C   UNL A   1      51.082  26.316  27.310  1.00  0.00     0.010 A 
ATOM     72  C   UNL A   1      50.567  26.842  25.000  1.00  0.00     0.010 A 
ATOM     73  C   UNL A   1      52.391  25.990  26.942  1.00  0.00     0.020 A 
ATOM     74  C   UNL A   1      51.865  26.488  24.622  1.00  0.00     0.020 A 
ATOM     75  C   UNL A   1      52.774  26.077  25.599  1.00  0.00     0.054 A 
BRANCH  75  76
ATOM     76  S   UNL A   1      54.467  25.616  25.142  1.00  0.00     0.124 S 
ATOM     77  O   UNL A   1      54.391  24.159  25.128  1.00  0.00    -0.237 OA
ATOM     78  O   UNL A   1      54.625  26.255  23.838  1.00  0.00    -0.237 OA
ATOM     79  O   UNL A   1      55.280  26.191  26.212  1.00  0.00    -0.744 OA
ENDBRANCH  75  76
ENDBRANCH  47  70
BRANCH  59  80
ATOM     80  C   UNL A   1      47.014  32.731  28.162  1.00  0.00    -0.014 A 
ATOM     81  C   UNL A   1      46.994  33.685  27.131  1.00  0.00     0.010 A 
ATOM     82  C   UNL A   1      47.444  33.112  29.447  1.00  0.00     0.010 A 
ATOM     83  C   UNL A   1      47.419  34.992  27.377  1.00  0.00     0.020 A 
ATOM     84  C   UNL A   1      47.838  34.426  29.704  1.00  0.00     0.020 A 
ATOM     85  C   UNL A   1      47.833  35.356  28.663  1.00  0.00     0.054 A 
BRANCH  85  86
ATOM     86  S   UNL A   1      48.320  37.075  28.969  1.00  0.00     0.124 S 
ATOM     87  O   UNL A   1      47.317  37.815  28.209  1.00  0.00    -0.237 OA
ATOM     88  O   UNL A   1      48.215  37.182  30.422  1.00  0.00    -0.237 OA
ATOM     89  O   UNL A   1      49.680  37.150  28.441  1.00  0.00    -0.744 OA
ENDBRANCH  85  86
ENDBRANCH  59  80
ENDBRANCH  33  34
ENDBRANCH  26  28
ENDBRANCH  25  26
ENDBRANCH  24  25
ENDBRANCH  23  24
ENDBRANCH   1  23
TORSDOF 20
ENDMDL
MODEL 2
REMARK VINA RESULT:      -9.8      6.557      8.582
REMARK SMILES CN(Cc1csc(Br)c1)c1cccc(F)c1C(=O)OCCOCCOC(=O)c1ccc(-c2c3nc(c(-c4ccc(S(=O)(=O)[O-])cc4)c4ccc([nH]4)c(-c4ccc(S(=O)(=O)[O-])cc4)c4nc(c(-c5ccc(S(=O)(=O)[O-])cc5)c5ccc2[nH]5)C=C4)C=C3)cc1
REMARK SMILES IDX 22 1 21 2 20 3 19 4 17 5 18 6 16 7 10 8 11 9 12 10 14 11
REMARK SMILES IDX 13 12 15 13 2 14 1 15 3 16 4 17 5 18 9 19 6 20 7 21 8 22
REMARK SMILES IDX 23 23 24 24 25 25 26 26 27 27 28 28 29 29 87 30 30 31 86 32
REMARK SMILES IDX 31 33 32 34 33 35 80 36 34 37 85 38 79 39 81 40 35 41 84 42
REMARK SMILES IDX 78 43 77 44 36 46 66 47 47 48 65 49 48 50 51 51 64 52 82 53
REMARK SMILES IDX 49 54 50 55 63 57 83 58 52 59 37 60 38 61 46 62 39 63 45 64
REMARK SMILES IDX 40 65 41 66 42 67 43 68 44 69 67 70 68 71 76 72 69 73 75 74
REMARK SMILES IDX 70 75 71 76 72 77 73 78 74 79 53 80 54 81 62 82 55 83 61 84
REMARK SMILES IDX 56 85 57 86 58 87 59 88 60 89
REMARK H PARENT 81 45 51 56
REMARK Flexibility Score: inf
ROOT
ATOM      1  O   UNL A   1      39.646  21.865  26.096  1.00  0.00    -0.374 OA
ENDROOT
BRANCH   1   2
ATOM      2  C   UNL A   1      38.291  21.855  25.647  1.00  0.00     0.202 C 
BRANCH   2   3
ATOM      3  C   UNL A   1      37.736  23.335  25.398  1.00  0.00     0.261 C 
BRANCH   3   4
ATOM      4  O   UNL A   1      36.280  23.390  25.164  1.00  0.00    -0.460 OA
BRANCH   4   5
ATOM      5  C   UNL A   1      35.666  22.891  24.028  1.00  0.00     0.343 C 
ATOM      6  O   UNL A   1      36.042  23.058  22.880  1.00  0.00    -0.246 OA
BRANCH   5   7
ATOM      7  C   UNL A   1      34.449  22.081  24.428  1.00  0.00     0.119 A 
ATOM      8  C   UNL A   1      33.083  22.528  24.529  1.00  0.00     0.054 A 
ATOM      9  C   UNL A   1      32.086  21.528  24.683  1.00  0.00     0.027 A 
ATOM     10  C   UNL A   1      32.382  20.169  24.758  1.00  0.00     0.005 A 
ATOM     11  C   UNL A   1      34.720  20.708  24.599  1.00  0.00     0.139 A 
ATOM     12  C   UNL A   1      33.705  19.761  24.746  1.00  0.00     0.040 A 
ATOM     13  F   UNL A   1      35.982  20.250  24.599  1.00  0.00    -0.206 F 
BRANCH   8  14
ATOM     14  N   UNL A   1      32.617  23.869  24.499  1.00  0.00    -0.369 N 
ATOM     15  C   UNL A   1      31.416  24.096  25.298  1.00  0.00     0.144 C 
BRANCH  14  16
ATOM     16  C   UNL A   1      32.550  24.586  23.185  1.00  0.00     0.152 C 
BRANCH  16  17
ATOM     17  C   UNL A   1      33.352  25.825  23.196  1.00  0.00    -0.017 A 
ATOM     18  C   UNL A   1      33.374  26.689  22.120  1.00  0.00     0.071 A 
ATOM     19  C   UNL A   1      33.708  26.488  24.405  1.00  0.00     0.033 A 
ATOM     20  S   UNL A   1      32.658  28.087  22.754  1.00  0.00    -0.136 S 
ATOM     21  C   UNL A   1      32.981  27.648  24.364  1.00  0.00     0.070 A 
ATOM     22  Br  UNL A   1      32.314  28.374  25.982  1.00  0.00    -0.039 Br
ENDBRANCH  16  17
ENDBRANCH  14  16
ENDBRANCH   8  14
ENDBRANCH   5   7
ENDBRANCH   4   5
ENDBRANCH   3   4
ENDBRANCH   2   3
ENDBRANCH   1   2
BRANCH   1  23
ATOM     23  C   UNL A   1      40.240  22.720  27.086  1.00  0.00     0.202 C 
BRANCH  23  24
ATOM     24  C   UNL A   1      40.912  24.077  26.768  1.00  0.00     0.261 C 
BRANCH  24  25
ATOM     25  O   UNL A   1      40.003  25.155  26.893  1.00  0.00    -0.460 OA
BRANCH  25  26
ATOM     26  C   UNL A   1      40.628  26.329  26.653  1.00  0.00     0.338 C 
ATOM     27  O   UNL A   1      41.141  26.702  25.622  1.00  0.00    -0.246 OA
BRANCH  26  28
ATOM     28  C   UNL A   1      40.259  27.202  27.760  1.00  0.00     0.060 A 
ATOM     29  C   UNL A   1      40.773  28.502  27.727  1.00  0.00     0.016 A 
ATOM     30  C   UNL A   1      39.436  26.747  28.790  1.00  0.00     0.016 A 
ATOM     31  C   UNL A   1      40.564  29.331  28.810  1.00  0.00     0.010 A 
ATOM     32  C   UNL A   1      39.234  27.574  29.883  1.00  0.00     0.010 A 
ATOM     33  C   UNL A   1      39.873  28.827  29.918  1.00  0.00    -0.014 A 
BRANCH  33  34
ATOM     34  C   UNL A   1      40.120  29.453  31.223  1.00  0.00     0.031 A 
ATOM     35  C   UNL A   1      39.117  30.472  31.689  1.00  0.00     0.074 A 
ATOM     36  C   UNL A   1      41.168  29.085  31.971  1.00  0.00     0.049 A 
ATOM     37  N   UNL A   1      39.123  31.203  32.769  1.00  0.00    -0.248 NA
ATOM     38  C   UNL A   1      37.950  30.702  30.814  1.00  0.00     0.031 C 
ATOM     39  C   UNL A   1      42.144  28.057  31.614  1.00  0.00     0.029 A 
ATOM     40  N   UNL A   1      41.581  29.546  33.188  1.00  0.00    -0.354 N 
ATOM     41  C   UNL A   1      37.977  31.986  32.694  1.00  0.00     0.074 A 
ATOM     42  C   UNL A   1      37.316  31.672  31.450  1.00  0.00     0.031 C 
ATOM     43  C   UNL A   1      43.056  27.972  32.598  1.00  0.00     0.029 A 
ATOM     44  C   UNL A   1      42.744  28.965  33.623  1.00  0.00     0.049 A 
ATOM     45  H   UNL A   1      41.091  30.228  33.702  1.00  0.00     0.167 HD
ATOM     46  C   UNL A   1      37.516  32.884  33.592  1.00  0.00     0.031 A 
ATOM     47  C   UNL A   1      43.478  29.236  34.717  1.00  0.00     0.031 A 
ATOM     48  C   UNL A   1      38.201  33.187  34.816  1.00  0.00     0.049 A 
ATOM     49  C   UNL A   1      42.988  30.301  35.665  1.00  0.00     0.074 A 
ATOM     50  C   UNL A   1      37.840  34.079  35.807  1.00  0.00     0.029 A 
ATOM     51  N   UNL A   1      39.398  32.603  35.210  1.00  0.00    -0.354 N 
ATOM     52  N   UNL A   1      41.900  31.034  35.592  1.00  0.00    -0.248 NA
ATOM     53  C   UNL A   1      43.815  30.565  36.847  1.00  0.00     0.031 C 
ATOM     54  C   UNL A   1      38.851  34.080  36.772  1.00  0.00     0.029 A 
ATOM     55  C   UNL A   1      39.802  33.132  36.420  1.00  0.00     0.049 A 
ATOM     56  H   UNL A   1      39.885  31.914  34.703  1.00  0.00     0.167 HD
ATOM     57  C   UNL A   1      41.894  31.820  36.739  1.00  0.00     0.074 A 
ATOM     58  C   UNL A   1      43.084  31.467  37.488  1.00  0.00     0.031 C 
ATOM     59  C   UNL A   1      40.989  32.746  37.144  1.00  0.00     0.031 A 
BRANCH  46  60
ATOM     60  C   UNL A   1      36.249  33.621  33.253  1.00  0.00    -0.014 A 
ATOM     61  C   UNL A   1      34.983  33.059  33.502  1.00  0.00     0.010 A 
ATOM     62  C   UNL A   1      36.327  34.905  32.684  1.00  0.00     0.010 A 
ATOM     63  C   UNL A   1      33.821  33.753  33.155  1.00  0.00     0.020 A 
ATOM     64  C   UNL A   1      35.167  35.615  32.365  1.00  0.00     0.020 A 
ATOM     65  C   UNL A   1      33.920  35.027  32.589  1.00  0.00     0.054 A 
BRANCH  65  66
ATOM     66  S   UNL A   1      32.395  35.918  32.176  1.00  0.00     0.124 S 
ATOM     67  O   UNL A   1      32.495  36.031  30.724  1.00  0.00    -0.237 OA
ATOM     68  O   UNL A   1      31.357  35.015  32.666  1.00  0.00    -0.237 OA
ATOM     69  O   UNL A   1      32.518  37.176  32.908  1.00  0.00    -0.744 OA
ENDBRANCH  65  66
ENDBRANCH  46  60
BRANCH  47  70
ATOM     70  C   UNL A   1      44.747  28.503  34.958  1.00  0.00    -0.014 A 
ATOM     71  C   UNL A   1      45.954  28.953  34.397  1.00  0.00     0.010 A 
ATOM     72  C   UNL A   1      44.756  27.349  35.766  1.00  0.00     0.010 A 
ATOM     73  C   UNL A   1      47.142  28.250  34.618  1.00  0.00     0.020 A 
ATOM     74  C   UNL A   1      45.946  26.661  36.014  1.00  0.00     0.020 A 
ATOM     75  C   UNL A   1      47.131  27.108  35.426  1.00  0.00     0.054 A 
BRANCH  75  76
ATOM     76  S   UNL A   1      48.691  26.234  35.725  1.00  0.00     0.124 S 
ATOM     77  O   UNL A   1      48.989  26.609  37.103  1.00  0.00    -0.237 OA
ATOM     78  O   UNL A   1      48.314  24.838  35.515  1.00  0.00    -0.237 OA
ATOM     79  O   UNL A   1      49.593  26.787  34.717  1.00  0.00    -0.744 OA
ENDBRANCH  75  76
ENDBRANCH  47  70
BRANCH  59  80
ATOM     80  C   UNL A   1      41.211  33.399  38.482  1.00  0.00    -0.014 A 
ATOM     81  C   UNL A   1      41.954  34.585  38.605  1.00  0.00     0.010 A 
ATOM     82  C   UNL A   1      40.588  32.853  39.620  1.00  0.00     0.010 A 
ATOM     83  C   UNL A   1      42.090  35.201  39.851  1.00  0.00     0.020 A 
ATOM     84  C   UNL A   1      40.695  33.485  40.860  1.00  0.00     0.020 A 
ATOM     85  C   UNL A   1      41.455  34.650  40.969  1.00  0.00     0.054 A 
BRANCH  85  86
ATOM     86  S   UNL A   1      41.596  35.504  42.561  1.00  0.00     0.124 S 
ATOM     87  O   UNL A   1      41.116  34.490  43.495  1.00  0.00    -0.237 OA
ATOM     88  O   UNL A   1      43.024  35.804  42.637  1.00  0.00    -0.237 OA
ATOM     89  O   UNL A   1      40.729  36.670  42.409  1.00  0.00    -0.744 OA
ENDBRANCH  85  86
ENDBRANCH  59  80
ENDBRANCH  33  34
ENDBRANCH  26  28
ENDBRANCH  25  26
ENDBRANCH  24  25
ENDBRANCH  23  24
ENDBRANCH   1  23
TORSDOF 20
ENDMDL
MODEL 3
REMARK VINA RESULT:      -9.8      0.977      8.288
REMARK SMILES CN(Cc1csc(Br)c1)c1cccc(F)c1C(=O)OCCOCCOC(=O)c1ccc(-c2c3nc(c(-c4ccc(S(=O)(=O)[O-])cc4)c4ccc([nH]4)c(-c4ccc(S(=O)(=O)[O-])cc4)c4nc(c(-c5ccc(S(=O)(=O)[O-])cc5)c5ccc2[nH]5)C=C4)C=C3)cc1
REMARK SMILES IDX 22 1 21 2 20 3 19 4 17 5 18 6 16 7 10 8 11 9 12 10 14 11
REMARK SMILES IDX 13 12 15 13 2 14 1 15 3 16 4 17 5 18 9 19 6 20 7 21 8 22
REMARK SMILES IDX 23 23 24 24 25 25 26 26 27 27 28 28 29 29 87 30 30 31 86 32
REMARK SMILES IDX 31 33 32 34 33 35 80 36 34 37 85 38 79 39 81 40 35 41 84 42
REMARK SMILES IDX 78 43 77 44 36 46 66 47 47 48 65 49 48 50 51 51 64 52 82 53
REMARK SMILES IDX 49 54 50 55 63 57 83 58 52 59 37 60 38 61 46 62 39 63 45 64
REMARK SMILES IDX 40 65 41 66 42 67 43 68 44 69 67 70 68 71 76 72 69 73 75 74
REMARK SMILES IDX 70 75 71 76 72 77 73 78 74 79 53 80 54 81 62 82 55 83 61 84
REMARK SMILES IDX 56 85 57 86 58 87 59 88 60 89
REMARK H PARENT 81 45 51 56
REMARK Flexibility Score: inf
ROOT
ATOM      1  O   UNL A   1      37.336  22.719  25.620  1.00  0.00    -0.374 OA
ENDROOT
BRANCH   1   2
ATOM      2  C   UNL A   1      36.502  22.059  24.667  1.00  0.00     0.202 C 
BRANCH   2   3
ATOM      3  C   UNL A   1      34.968  22.486  24.823  1.00  0.00     0.261 C 
BRANCH   3   4
ATOM      4  O   UNL A   1      34.279  22.702  23.536  1.00  0.00    -0.460 OA
BRANCH   4   5
ATOM      5  C   UNL A   1      32.925  22.492  23.346  1.00  0.00     0.343 C 
ATOM      6  O   UNL A   1      32.423  21.815  22.465  1.00  0.00    -0.246 OA
BRANCH   5   7
ATOM      7  C   UNL A   1      32.146  23.222  24.422  1.00  0.00     0.119 A 
ATOM      8  C   UNL A   1      31.803  24.621  24.470  1.00  0.00     0.054 A 
ATOM      9  C   UNL A   1      30.860  25.022  25.453  1.00  0.00     0.027 A 
ATOM     10  C   UNL A   1      30.288  24.132  26.360  1.00  0.00     0.005 A 
ATOM     11  C   UNL A   1      31.618  22.368  25.413  1.00  0.00     0.139 A 
ATOM     12  C   UNL A   1      30.691  22.808  26.358  1.00  0.00     0.040 A 
ATOM     13  F   UNL A   1      31.972  21.074  25.464  1.00  0.00    -0.206 F 
BRANCH   8  14
ATOM     14  N   UNL A   1      32.312  25.656  23.642  1.00  0.00    -0.369 N 
ATOM     15  C   UNL A   1      31.953  25.517  22.234  1.00  0.00     0.144 C 
BRANCH  14  16
ATOM     16  C   UNL A   1      33.739  26.085  23.809  1.00  0.00     0.152 C 
BRANCH  16  17
ATOM     17  C   UNL A   1      33.838  27.459  24.338  1.00  0.00    -0.017 A 
ATOM     18  C   UNL A   1      33.445  28.556  23.597  1.00  0.00     0.071 A 
ATOM     19  C   UNL A   1      33.821  27.740  25.733  1.00  0.00     0.033 A 
ATOM     20  S   UNL A   1      32.136  29.155  24.491  1.00  0.00    -0.136 S 
ATOM     21  C   UNL A   1      32.623  28.375  25.922  1.00  0.00     0.070 A 
ATOM     22  Br  UNL A   1      31.678  28.100  27.540  1.00  0.00    -0.039 Br
ENDBRANCH  16  17
ENDBRANCH  14  16
ENDBRANCH   8  14
ENDBRANCH   5   7
ENDBRANCH   4   5
ENDBRANCH   3   4
ENDBRANCH   2   3
ENDBRANCH   1   2
BRANCH   1  23
ATOM     23  C   UNL A   1      38.652  22.338  26.053  1.00  0.00     0.202 C 
BRANCH  23  24
ATOM     24  C   UNL A   1      39.266  20.936  25.828  1.00  0.00     0.261 C 
BRANCH  24  25
ATOM     25  O   UNL A   1      40.085  20.541  26.913  1.00  0.00    -0.460 OA
BRANCH  25  26
ATOM     26  C   UNL A   1      41.260  20.051  26.462  1.00  0.00     0.338 C 
ATOM     27  O   UNL A   1      41.448  19.051  25.806  1.00  0.00    -0.246 OA
BRANCH  26  28
ATOM     28  C   UNL A   1      42.220  21.138  26.610  1.00  0.00     0.060 A 
ATOM     29  C   UNL A   1      42.525  21.527  27.919  1.00  0.00     0.016 A 
ATOM     30  C   UNL A   1      42.792  21.748  25.494  1.00  0.00     0.016 A 
ATOM     31  C   UNL A   1      43.326  22.632  28.118  1.00  0.00     0.010 A 
ATOM     32  C   UNL A   1      43.587  22.864  25.693  1.00  0.00     0.010 A 
ATOM     33  C   UNL A   1      43.776  23.346  27.001  1.00  0.00    -0.014 A 
BRANCH  33  34
ATOM     34  C   UNL A   1      44.126  24.759  27.186  1.00  0.00     0.031 A 
ATOM     35  C   UNL A   1      45.568  25.135  26.990  1.00  0.00     0.074 A 
ATOM     36  C   UNL A   1      43.181  25.667  27.467  1.00  0.00     0.049 A 
ATOM     37  N   UNL A   1      46.149  26.293  27.140  1.00  0.00    -0.248 NA
ATOM     38  C   UNL A   1      46.484  24.053  26.576  1.00  0.00     0.031 C 
ATOM     39  C   UNL A   1      41.753  25.388  27.604  1.00  0.00     0.029 A 
ATOM     40  N   UNL A   1      43.295  27.009  27.689  1.00  0.00    -0.354 N 
ATOM     41  C   UNL A   1      47.492  26.075  26.855  1.00  0.00     0.074 A 
ATOM     42  C   UNL A   1      47.652  24.672  26.559  1.00  0.00     0.031 C 
ATOM     43  C   UNL A   1      41.119  26.536  27.901  1.00  0.00     0.029 A 
ATOM     44  C   UNL A   1      42.104  27.610  28.010  1.00  0.00     0.049 A 
ATOM     45  H   UNL A   1      44.147  27.498  27.627  1.00  0.00     0.167 HD
ATOM     46  C   UNL A   1      48.500  26.974  26.835  1.00  0.00     0.031 A 
ATOM     47  C   UNL A   1      41.858  28.880  28.374  1.00  0.00     0.031 A 
ATOM     48  C   UNL A   1      48.315  28.362  27.147  1.00  0.00     0.049 A 
ATOM     49  C   UNL A   1      43.012  29.849  28.426  1.00  0.00     0.074 A 
ATOM     50  C   UNL A   1      49.256  29.373  27.166  1.00  0.00     0.029 A 
ATOM     51  N   UNL A   1      47.098  28.931  27.501  1.00  0.00    -0.354 N 
ATOM     52  N   UNL A   1      44.280  29.639  28.149  1.00  0.00    -0.248 NA
ATOM     53  C   UNL A   1      42.702  31.226  28.826  1.00  0.00     0.031 C 
ATOM     54  C   UNL A   1      48.619  30.543  27.593  1.00  0.00     0.029 A 
ATOM     55  C   UNL A   1      47.268  30.277  27.763  1.00  0.00     0.049 A 
ATOM     56  H   UNL A   1      46.243  28.448  27.555  1.00  0.00     0.167 HD
ATOM     57  C   UNL A   1      44.911  30.868  28.305  1.00  0.00     0.074 A 
ATOM     58  C   UNL A   1      43.884  31.814  28.695  1.00  0.00     0.031 C 
ATOM     59  C   UNL A   1      46.218  31.192  28.137  1.00  0.00     0.031 A 
BRANCH  46  60
ATOM     60  C   UNL A   1      49.879  26.467  26.513  1.00  0.00    -0.014 A 
ATOM     61  C   UNL A   1      50.762  26.044  27.525  1.00  0.00     0.010 A 
ATOM     62  C   UNL A   1      50.297  26.404  25.172  1.00  0.00     0.010 A 
ATOM     63  C   UNL A   1      52.047  25.601  27.203  1.00  0.00     0.020 A 
ATOM     64  C   UNL A   1      51.570  25.931  24.843  1.00  0.00     0.020 A 
ATOM     65  C   UNL A   1      52.444  25.547  25.863  1.00  0.00     0.054 A 
BRANCH  65  66
ATOM     66  S   UNL A   1      54.107  24.940  25.471  1.00  0.00     0.124 S 
ATOM     67  O   UNL A   1      54.622  26.003  24.612  1.00  0.00    -0.237 OA
ATOM     68  O   UNL A   1      54.728  24.842  26.789  1.00  0.00    -0.237 OA
ATOM     69  O   UNL A   1      53.863  23.664  24.803  1.00  0.00    -0.744 OA
ENDBRANCH  65  66
ENDBRANCH  46  60
BRANCH  47  70
ATOM     70  C   UNL A   1      40.476  29.295  28.729  1.00  0.00    -0.014 A 
ATOM     71  C   UNL A   1      39.511  29.509  27.732  1.00  0.00     0.010 A 
ATOM     72  C   UNL A   1      40.115  29.468  30.079  1.00  0.00     0.010 A 
ATOM     73  C   UNL A   1      38.217  29.911  28.074  1.00  0.00     0.020 A 
ATOM     74  C   UNL A   1      38.814  29.841  30.428  1.00  0.00     0.020 A 
ATOM     75  C   UNL A   1      37.876  30.074  29.420  1.00  0.00     0.054 A 
BRANCH  75  76
ATOM     76  S   UNL A   1      36.182  30.564  29.840  1.00  0.00     0.124 S 
ATOM     77  O   UNL A   1      36.269  32.019  29.800  1.00  0.00    -0.237 OA
ATOM     78  O   UNL A   1      35.402  29.945  28.771  1.00  0.00    -0.237 OA
ATOM     79  O   UNL A   1      35.976  29.986  31.166  1.00  0.00    -0.744 OA
ENDBRANCH  75  76
ENDBRANCH  47  70
BRANCH  59  80
ATOM     80  C   UNL A   1      46.605  32.636  28.312  1.00  0.00    -0.014 A 
ATOM     81  C   UNL A   1      46.547  33.545  27.244  1.00  0.00     0.010 A 
ATOM     82  C   UNL A   1      46.950  33.099  29.596  1.00  0.00     0.010 A 
ATOM     83  C   UNL A   1      46.852  34.893  27.453  1.00  0.00     0.020 A 
ATOM     84  C   UNL A   1      47.223  34.451  29.814  1.00  0.00     0.020 A 
ATOM     85  C   UNL A   1      47.183  35.337  28.737  1.00  0.00     0.054 A 
BRANCH  85  86
ATOM     86  S   UNL A   1      47.513  37.101  28.991  1.00  0.00     0.124 S 
ATOM     87  O   UNL A   1      48.614  37.341  28.062  1.00  0.00    -0.237 OA
ATOM     88  O   UNL A   1      46.240  37.719  28.632  1.00  0.00    -0.237 OA
ATOM     89  O   UNL A   1      47.865  37.189  30.406  1.00  0.00    -0.744 OA
ENDBRANCH  85  86
ENDBRANCH  59  80
ENDBRANCH  33  34
ENDBRANCH  26  28
ENDBRANCH  25  26
ENDBRANCH  24  25
ENDBRANCH  23  24
ENDBRANCH   1  23
TORSDOF 20
ENDMDL
