MODEL 1
REMARK VINA RESULT:     -11.8      0.000      0.000
REMARK SMILES Cc1ccc(-c2cc(C(=O)OCCOCCOC(=O)c3ccc(-c4c5nc(c(-c6ccc(S(=O)(=O)[O-])cc6)c6ccc([nH]6)c(-c6ccc(S(=O)(=O)[O-])cc6)c6nc(c(-c7ccc(S(=O)(=O)[O-])cc7)c7ccc4[nH]7)C=C6)C=C5)cc3)c3cc(C)ccc3n2)c(C)c1
REMARK SMILES IDX 15 1 14 2 13 3 12 4 11 5 9 6 10 7 8 8 6 9 7 10 87 11 86 12
REMARK SMILES IDX 80 13 85 14 81 15 84 16 82 17 83 18 5 19 1 20 2 21 3 22
REMARK SMILES IDX 90 23 4 24 88 25 89 26 16 27 17 28 18 29 19 30 20 31 21 32
REMARK SMILES IDX 79 33 22 34 78 35 23 36 24 37 25 38 72 39 26 40 77 41 71 42
REMARK SMILES IDX 73 43 27 44 76 45 70 46 69 47 28 49 58 50 39 51 57 52 40 53
REMARK SMILES IDX 43 54 56 55 74 56 41 57 42 58 55 60 75 61 44 62 29 63 30 64
REMARK SMILES IDX 38 65 31 66 37 67 32 68 33 69 34 70 35 71 36 72 59 73 60 74
REMARK SMILES IDX 68 75 61 76 67 77 62 78 63 79 64 80 65 81 66 82 45 83 46 84
REMARK SMILES IDX 54 85 47 86 53 87 48 88 49 89 50 90 51 91 52 92
REMARK H PARENT 73 48 43 59
REMARK Flexibility Score: inf
ROOT
ATOM      1  C   UNL A   1      41.407  21.913  26.382  1.00  0.00     0.202 C 
ENDROOT
BRANCH   1   2
ATOM      2  O   UNL A   1      40.229  22.369  27.048  1.00  0.00    -0.374 OA
BRANCH   2   3
ATOM      3  C   UNL A   1      39.036  22.479  26.267  1.00  0.00     0.202 C 
BRANCH   3   4
ATOM      4  C   UNL A   1      38.390  23.864  26.253  1.00  0.00     0.261 C 
BRANCH   4   5
ATOM      5  O   UNL A   1      36.959  23.732  26.235  1.00  0.00    -0.460 OA
BRANCH   5   6
ATOM      6  C   UNL A   1      36.384  23.750  25.013  1.00  0.00     0.338 C 
ATOM      7  O   UNL A   1      36.898  23.402  23.960  1.00  0.00    -0.246 OA
BRANCH   6   8
ATOM      8  C   UNL A   1      34.936  24.040  25.125  1.00  0.00     0.071 A 
ATOM      9  C   UNL A   1      33.319  25.767  25.454  1.00  0.00     0.072 A 
ATOM     10  C   UNL A   1      34.636  25.395  25.284  1.00  0.00     0.045 A 
ATOM     11  N   UNL A   1      32.313  24.868  25.470  1.00  0.00    -0.248 NA
ATOM     12  C   UNL A   1      32.597  23.564  25.308  1.00  0.00     0.072 A 
ATOM     13  C   UNL A   1      33.905  23.071  25.112  1.00  0.00     0.015 A 
ATOM     14  C   UNL A   1      31.539  22.669  25.356  1.00  0.00     0.029 A 
ATOM     15  C   UNL A   1      34.080  21.671  24.936  1.00  0.00     0.014 A 
ATOM     16  C   UNL A   1      31.720  21.295  25.186  1.00  0.00     0.005 A 
ATOM     17  C   UNL A   1      32.995  20.784  24.964  1.00  0.00    -0.050 A 
ATOM     18  C   UNL A   1      33.205  19.321  24.707  1.00  0.00     0.044 C 
BRANCH   9  19
ATOM     19  C   UNL A   1      32.954  27.164  25.715  1.00  0.00     0.003 A 
ATOM     20  C   UNL A   1      31.661  31.217  26.530  1.00  0.00     0.044 C 
ATOM     21  C   UNL A   1      32.117  29.812  26.267  1.00  0.00    -0.051 A 
ATOM     22  C   UNL A   1      32.105  28.846  27.274  1.00  0.00     0.004 A 
ATOM     23  C   UNL A   1      32.560  29.454  24.989  1.00  0.00     0.007 A 
ATOM     24  C   UNL A   1      32.521  27.540  27.002  1.00  0.00     0.011 A 
ATOM     25  C   UNL A   1      32.972  28.141  24.697  1.00  0.00    -0.041 A 
ATOM     26  C   UNL A   1      33.436  27.846  23.295  1.00  0.00     0.045 C 
ENDBRANCH   9  19
ENDBRANCH   6   8
ENDBRANCH   5   6
ENDBRANCH   4   5
ENDBRANCH   3   4
ENDBRANCH   2   3
ENDBRANCH   1   2
BRANCH   1  27
ATOM     27  C   UNL A   1      42.431  22.986  25.995  1.00  0.00     0.261 C 
BRANCH  27  28
ATOM     28  O   UNL A   1      42.372  24.139  26.852  1.00  0.00    -0.460 OA
BRANCH  28  29
ATOM     29  C   UNL A   1      42.016  25.288  26.229  1.00  0.00     0.338 C 
ATOM     30  O   UNL A   1      41.978  25.492  25.024  1.00  0.00    -0.246 OA
BRANCH  29  31
ATOM     31  C   UNL A   1      41.494  26.256  27.211  1.00  0.00     0.060 A 
ATOM     32  C   UNL A   1      42.048  27.543  27.208  1.00  0.00     0.016 A 
ATOM     33  C   UNL A   1      40.540  25.897  28.167  1.00  0.00     0.016 A 
ATOM     34  C   UNL A   1      41.686  28.462  28.191  1.00  0.00     0.010 A 
ATOM     35  C   UNL A   1      40.185  26.818  29.159  1.00  0.00     0.010 A 
ATOM     36  C   UNL A   1      40.782  28.092  29.196  1.00  0.00    -0.014 A 
BRANCH  36  37
ATOM     37  C   UNL A   1      40.574  28.986  30.360  1.00  0.00     0.031 A 
ATOM     38  C   UNL A   1      41.456  28.828  31.570  1.00  0.00     0.074 A 
ATOM     39  C   UNL A   1      39.637  29.952  30.328  1.00  0.00     0.049 A 
ATOM     40  N   UNL A   1      41.432  29.481  32.704  1.00  0.00    -0.248 NA
ATOM     41  C   UNL A   1      42.507  27.800  31.489  1.00  0.00     0.031 C 
ATOM     42  C   UNL A   1      38.758  30.242  29.196  1.00  0.00     0.029 A 
ATOM     43  N   UNL A   1      39.272  30.870  31.281  1.00  0.00    -0.354 N 
ATOM     44  C   UNL A   1      42.462  28.946  33.469  1.00  0.00     0.074 A 
ATOM     45  C   UNL A   1      43.070  27.892  32.686  1.00  0.00     0.031 C 
ATOM     46  C   UNL A   1      37.953  31.270  29.521  1.00  0.00     0.029 A 
ATOM     47  C   UNL A   1      38.236  31.684  30.894  1.00  0.00     0.049 A 
ATOM     48  H   UNL A   1      39.712  30.938  32.159  1.00  0.00     0.167 HD
ATOM     49  C   UNL A   1      42.873  29.306  34.709  1.00  0.00     0.031 A 
ATOM     50  C   UNL A   1      37.578  32.644  31.575  1.00  0.00     0.031 A 
ATOM     51  C   UNL A   1      42.257  30.341  35.496  1.00  0.00     0.049 A 
ATOM     52  C   UNL A   1      37.990  32.958  32.990  1.00  0.00     0.074 A 
ATOM     53  C   UNL A   1      42.592  30.770  36.768  1.00  0.00     0.029 A 
ATOM     54  N   UNL A   1      41.177  31.108  35.087  1.00  0.00    -0.354 N 
ATOM     55  N   UNL A   1      38.968  32.445  33.700  1.00  0.00    -0.248 NA
ATOM     56  C   UNL A   1      37.213  33.988  33.695  1.00  0.00     0.031 C 
ATOM     57  C   UNL A   1      41.684  31.764  37.147  1.00  0.00     0.029 A 
ATOM     58  C   UNL A   1      40.819  31.994  36.088  1.00  0.00     0.049 A 
ATOM     59  H   UNL A   1      40.729  31.033  34.213  1.00  0.00     0.167 HD
ATOM     60  C   UNL A   1      38.942  33.112  34.919  1.00  0.00     0.074 A 
ATOM     61  C   UNL A   1      37.860  34.073  34.849  1.00  0.00     0.031 C 
ATOM     62  C   UNL A   1      39.744  32.949  36.001  1.00  0.00     0.031 A 
BRANCH  49  63
ATOM     63  C   UNL A   1      44.035  28.553  35.301  1.00  0.00    -0.014 A 
ATOM     64  C   UNL A   1      45.361  28.910  34.995  1.00  0.00     0.010 A 
ATOM     65  C   UNL A   1      43.800  27.499  36.203  1.00  0.00     0.010 A 
ATOM     66  C   UNL A   1      46.430  28.206  35.554  1.00  0.00     0.020 A 
ATOM     67  C   UNL A   1      44.867  26.809  36.784  1.00  0.00     0.020 A 
ATOM     68  C   UNL A   1      46.175  27.156  36.443  1.00  0.00     0.054 A 
BRANCH  68  69
ATOM     69  S   UNL A   1      47.583  26.272  37.171  1.00  0.00     0.124 S 
ATOM     70  O   UNL A   1      48.629  26.502  36.178  1.00  0.00    -0.237 OA
ATOM     71  O   UNL A   1      47.767  26.958  38.447  1.00  0.00    -0.237 OA
ATOM     72  O   UNL A   1      47.113  24.892  37.271  1.00  0.00    -0.744 OA
ENDBRANCH  68  69
ENDBRANCH  49  63
BRANCH  50  73
ATOM     73  C   UNL A   1      36.441  33.366  30.943  1.00  0.00    -0.014 A 
ATOM     74  C   UNL A   1      36.534  33.833  29.619  1.00  0.00     0.010 A 
ATOM     75  C   UNL A   1      35.266  33.617  31.674  1.00  0.00     0.010 A 
ATOM     76  C   UNL A   1      35.484  34.560  29.049  1.00  0.00     0.020 A 
ATOM     77  C   UNL A   1      34.203  34.319  31.097  1.00  0.00     0.020 A 
ATOM     78  C   UNL A   1      34.327  34.800  29.793  1.00  0.00     0.054 A 
BRANCH  78  79
ATOM     79  S   UNL A   1      32.965  35.721  29.026  1.00  0.00     0.124 S 
ATOM     80  O   UNL A   1      32.375  34.715  28.148  1.00  0.00    -0.237 OA
ATOM     81  O   UNL A   1      32.156  36.108  30.179  1.00  0.00    -0.237 OA
ATOM     82  O   UNL A   1      33.640  36.825  28.349  1.00  0.00    -0.744 OA
ENDBRANCH  78  79
ENDBRANCH  50  73
BRANCH  62  83
ATOM     83  C   UNL A   1      39.515  33.857  37.180  1.00  0.00    -0.014 A 
ATOM     84  C   UNL A   1      38.733  33.450  38.276  1.00  0.00     0.010 A 
ATOM     85  C   UNL A   1      40.142  35.117  37.215  1.00  0.00     0.010 A 
ATOM     86  C   UNL A   1      38.555  34.301  39.371  1.00  0.00     0.020 A 
ATOM     87  C   UNL A   1      39.988  35.958  38.320  1.00  0.00     0.020 A 
ATOM     88  C   UNL A   1      39.184  35.551  39.385  1.00  0.00     0.054 A 
BRANCH  88  89
ATOM     89  S   UNL A   1      38.974  36.618  40.837  1.00  0.00     0.124 S 
ATOM     90  O   UNL A   1      38.049  35.839  41.656  1.00  0.00    -0.237 OA
ATOM     91  O   UNL A   1      40.335  36.726  41.356  1.00  0.00    -0.237 OA
ATOM     92  O   UNL A   1      38.425  37.854  40.282  1.00  0.00    -0.744 OA
ENDBRANCH  88  89
ENDBRANCH  62  83
ENDBRANCH  36  37
ENDBRANCH  29  31
ENDBRANCH  28  29
ENDBRANCH  27  28
ENDBRANCH   1  27
TORSDOF 18
ENDMDL
MODEL 2
REMARK VINA RESULT:     -11.8      1.424      1.744
REMARK SMILES Cc1ccc(-c2cc(C(=O)OCCOCCOC(=O)c3ccc(-c4c5nc(c(-c6ccc(S(=O)(=O)[O-])cc6)c6ccc([nH]6)c(-c6ccc(S(=O)(=O)[O-])cc6)c6nc(c(-c7ccc(S(=O)(=O)[O-])cc7)c7ccc4[nH]7)C=C6)C=C5)cc3)c3cc(C)ccc3n2)c(C)c1
REMARK SMILES IDX 15 1 14 2 13 3 12 4 11 5 9 6 10 7 8 8 6 9 7 10 87 11 86 12
REMARK SMILES IDX 80 13 85 14 81 15 84 16 82 17 83 18 5 19 1 20 2 21 3 22
REMARK SMILES IDX 90 23 4 24 88 25 89 26 16 27 17 28 18 29 19 30 20 31 21 32
REMARK SMILES IDX 79 33 22 34 78 35 23 36 24 37 25 38 72 39 26 40 77 41 71 42
REMARK SMILES IDX 73 43 27 44 76 45 70 46 69 47 28 49 58 50 39 51 57 52 40 53
REMARK SMILES IDX 43 54 56 55 74 56 41 57 42 58 55 60 75 61 44 62 29 63 30 64
REMARK SMILES IDX 38 65 31 66 37 67 32 68 33 69 34 70 35 71 36 72 59 73 60 74
REMARK SMILES IDX 68 75 61 76 67 77 62 78 63 79 64 80 65 81 66 82 45 83 46 84
REMARK SMILES IDX 54 85 47 86 53 87 48 88 49 89 50 90 51 91 52 92
REMARK H PARENT 73 48 43 59
REMARK Flexibility Score: inf
ROOT
ATOM      1  C   UNL A   1      40.361  22.217  26.784  1.00  0.00     0.202 C 
ENDROOT
BRANCH   1   2
ATOM      2  O   UNL A   1      39.614  22.128  25.570  1.00  0.00    -0.374 OA
BRANCH   2   3
ATOM      3  C   UNL A   1      38.304  21.559  25.648  1.00  0.00     0.202 C 
BRANCH   3   4
ATOM      4  C   UNL A   1      37.162  22.565  25.783  1.00  0.00     0.261 C 
BRANCH   4   5
ATOM      5  O   UNL A   1      37.235  23.528  24.718  1.00  0.00    -0.460 OA
BRANCH   5   6
ATOM      6  C   UNL A   1      36.359  23.351  23.705  1.00  0.00     0.338 C 
ATOM      7  O   UNL A   1      36.606  22.890  22.600  1.00  0.00    -0.246 OA
BRANCH   6   8
ATOM      8  C   UNL A   1      34.972  23.578  24.172  1.00  0.00     0.071 A 
ATOM      9  C   UNL A   1      33.399  25.242  24.852  1.00  0.00     0.072 A 
ATOM     10  C   UNL A   1      34.649  24.924  24.364  1.00  0.00     0.045 A 
ATOM     11  N   UNL A   1      32.479  24.299  25.146  1.00  0.00    -0.248 NA
ATOM     12  C   UNL A   1      32.785  23.004  24.954  1.00  0.00     0.072 A 
ATOM     13  C   UNL A   1      34.026  22.563  24.446  1.00  0.00     0.015 A 
ATOM     14  C   UNL A   1      31.823  22.064  25.292  1.00  0.00     0.029 A 
ATOM     15  C   UNL A   1      34.227  21.167  24.271  1.00  0.00     0.014 A 
ATOM     16  C   UNL A   1      32.029  20.694  25.119  1.00  0.00     0.005 A 
ATOM     17  C   UNL A   1      33.234  20.233  24.596  1.00  0.00    -0.050 A 
ATOM     18  C   UNL A   1      33.452  18.772  24.335  1.00  0.00     0.044 C 
BRANCH   9  19
ATOM     19  C   UNL A   1      33.036  26.629  25.159  1.00  0.00     0.003 A 
ATOM     20  C   UNL A   1      31.800  30.647  26.206  1.00  0.00     0.044 C 
ATOM     21  C   UNL A   1      32.243  29.257  25.857  1.00  0.00    -0.051 A 
ATOM     22  C   UNL A   1      32.789  28.407  26.820  1.00  0.00     0.004 A 
ATOM     23  C   UNL A   1      32.108  28.794  24.543  1.00  0.00     0.007 A 
ATOM     24  C   UNL A   1      33.181  27.111  26.474  1.00  0.00     0.011 A 
ATOM     25  C   UNL A   1      32.490  27.490  24.182  1.00  0.00    -0.041 A 
ATOM     26  C   UNL A   1      32.312  27.078  22.744  1.00  0.00     0.045 C 
ENDBRANCH   9  19
ENDBRANCH   6   8
ENDBRANCH   5   6
ENDBRANCH   4   5
ENDBRANCH   3   4
ENDBRANCH   2   3
ENDBRANCH   1   2
BRANCH   1  27
ATOM     27  C   UNL A   1      40.861  23.611  27.178  1.00  0.00     0.261 C 
BRANCH  27  28
ATOM     28  O   UNL A   1      39.870  24.632  26.971  1.00  0.00    -0.460 OA
BRANCH  28  29
ATOM     29  C   UNL A   1      40.371  25.861  26.701  1.00  0.00     0.338 C 
ATOM     30  O   UNL A   1      40.853  26.244  25.644  1.00  0.00    -0.246 OA
BRANCH  29  31
ATOM     31  C   UNL A   1      40.105  26.776  27.826  1.00  0.00     0.060 A 
ATOM     32  C   UNL A   1      40.710  28.038  27.791  1.00  0.00     0.016 A 
ATOM     33  C   UNL A   1      39.343  26.385  28.930  1.00  0.00     0.016 A 
ATOM     34  C   UNL A   1      40.598  28.898  28.882  1.00  0.00     0.010 A 
ATOM     35  C   UNL A   1      39.238  27.246  30.028  1.00  0.00     0.010 A 
ATOM     36  C   UNL A   1      39.894  28.492  30.023  1.00  0.00    -0.014 A 
BRANCH  36  37
ATOM     37  C   UNL A   1      39.967  29.308  31.259  1.00  0.00     0.031 A 
ATOM     38  C   UNL A   1      41.097  29.073  32.225  1.00  0.00     0.074 A 
ATOM     39  C   UNL A   1      39.060  30.273  31.500  1.00  0.00     0.049 A 
ATOM     40  N   UNL A   1      41.339  29.651  33.374  1.00  0.00    -0.248 NA
ATOM     41  C   UNL A   1      42.089  28.054  31.843  1.00  0.00     0.031 C 
ATOM     42  C   UNL A   1      37.952  30.635  30.617  1.00  0.00     0.029 A 
ATOM     43  N   UNL A   1      38.932  31.127  32.567  1.00  0.00    -0.354 N 
ATOM     44  C   UNL A   1      42.507  29.069  33.851  1.00  0.00     0.074 A 
ATOM     45  C   UNL A   1      42.908  28.068  32.885  1.00  0.00     0.031 C 
ATOM     46  C   UNL A   1      37.255  31.638  31.181  1.00  0.00     0.029 A 
ATOM     47  C   UNL A   1      37.846  31.963  32.477  1.00  0.00     0.049 A 
ATOM     48  H   UNL A   1      39.560  31.139  33.326  1.00  0.00     0.167 HD
ATOM     49  C   UNL A   1      43.193  29.348  34.985  1.00  0.00     0.031 A 
ATOM     50  C   UNL A   1      37.372  32.876  33.350  1.00  0.00     0.031 A 
ATOM     51  C   UNL A   1      42.784  30.329  35.955  1.00  0.00     0.049 A 
ATOM     52  C   UNL A   1      38.098  33.099  34.651  1.00  0.00     0.074 A 
ATOM     53  C   UNL A   1      43.404  30.676  37.143  1.00  0.00     0.029 A 
ATOM     54  N   UNL A   1      41.650  31.120  35.850  1.00  0.00    -0.354 N 
ATOM     55  N   UNL A   1      39.204  32.542  35.087  1.00  0.00    -0.248 NA
ATOM     56  C   UNL A   1      37.514  34.080  35.578  1.00  0.00     0.031 C 
ATOM     57  C   UNL A   1      42.618  31.642  37.780  1.00  0.00     0.029 A 
ATOM     58  C   UNL A   1      41.540  31.939  36.961  1.00  0.00     0.049 A 
ATOM     59  H   UNL A   1      41.016  31.101  35.098  1.00  0.00     0.167 HD
ATOM     60  C   UNL A   1      39.463  33.129  36.321  1.00  0.00     0.074 A 
ATOM     61  C   UNL A   1      38.406  34.091  36.558  1.00  0.00     0.031 C 
ATOM     62  C   UNL A   1      40.487  32.897  37.180  1.00  0.00     0.031 A 
BRANCH  49  63
ATOM     63  C   UNL A   1      44.448  28.560  35.250  1.00  0.00    -0.014 A 
ATOM     64  C   UNL A   1      45.701  29.022  34.808  1.00  0.00     0.010 A 
ATOM     65  C   UNL A   1      44.380  27.361  35.982  1.00  0.00     0.010 A 
ATOM     66  C   UNL A   1      46.859  28.283  35.063  1.00  0.00     0.020 A 
ATOM     67  C   UNL A   1      45.539  26.631  36.262  1.00  0.00     0.020 A 
ATOM     68  C   UNL A   1      46.769  27.089  35.786  1.00  0.00     0.054 A 
BRANCH  68  69
ATOM     69  S   UNL A   1      48.291  26.161  36.122  1.00  0.00     0.124 S 
ATOM     70  O   UNL A   1      49.308  27.205  36.027  1.00  0.00    -0.237 OA
ATOM     71  O   UNL A   1      48.055  25.633  37.463  1.00  0.00    -0.237 OA
ATOM     72  O   UNL A   1      48.328  25.158  35.060  1.00  0.00    -0.744 OA
ENDBRANCH  68  69
ENDBRANCH  49  63
BRANCH  50  73
ATOM     73  C   UNL A   1      36.132  33.637  33.038  1.00  0.00    -0.014 A 
ATOM     74  C   UNL A   1      36.201  34.945  32.526  1.00  0.00     0.010 A 
ATOM     75  C   UNL A   1      34.870  33.065  33.278  1.00  0.00     0.010 A 
ATOM     76  C   UNL A   1      35.033  35.676  32.288  1.00  0.00     0.020 A 
ATOM     77  C   UNL A   1      33.700  33.781  33.014  1.00  0.00     0.020 A 
ATOM     78  C   UNL A   1      33.790  35.089  32.536  1.00  0.00     0.054 A 
BRANCH  78  79
ATOM     79  S   UNL A   1      32.285  36.043  32.193  1.00  0.00     0.124 S 
ATOM     80  O   UNL A   1      31.241  35.153  32.691  1.00  0.00    -0.237 OA
ATOM     81  O   UNL A   1      32.500  37.262  32.968  1.00  0.00    -0.237 OA
ATOM     82  O   UNL A   1      32.318  36.222  30.744  1.00  0.00    -0.744 OA
ENDBRANCH  78  79
ENDBRANCH  50  73
BRANCH  62  83
ATOM     83  C   UNL A   1      40.542  33.726  38.436  1.00  0.00    -0.014 A 
ATOM     84  C   UNL A   1      40.290  33.160  39.698  1.00  0.00     0.010 A 
ATOM     85  C   UNL A   1      40.909  35.082  38.353  1.00  0.00     0.010 A 
ATOM     86  C   UNL A   1      40.372  33.945  40.852  1.00  0.00     0.020 A 
ATOM     87  C   UNL A   1      41.019  35.862  39.507  1.00  0.00     0.020 A 
ATOM     88  C   UNL A   1      40.736  35.292  40.749  1.00  0.00     0.054 A 
BRANCH  88  89
ATOM     89  S   UNL A   1      40.879  36.277  42.265  1.00  0.00     0.124 S 
ATOM     90  O   UNL A   1      41.860  37.288  41.880  1.00  0.00    -0.237 OA
ATOM     91  O   UNL A   1      39.516  36.765  42.461  1.00  0.00    -0.237 OA
ATOM     92  O   UNL A   1      41.338  35.312  43.263  1.00  0.00    -0.744 OA
ENDBRANCH  88  89
ENDBRANCH  62  83
ENDBRANCH  36  37
ENDBRANCH  29  31
ENDBRANCH  28  29
ENDBRANCH  27  28
ENDBRANCH   1  27
TORSDOF 18
ENDMDL
MODEL 3
REMARK VINA RESULT:     -11.7      1.991      2.779
REMARK SMILES Cc1ccc(-c2cc(C(=O)OCCOCCOC(=O)c3ccc(-c4c5nc(c(-c6ccc(S(=O)(=O)[O-])cc6)c6ccc([nH]6)c(-c6ccc(S(=O)(=O)[O-])cc6)c6nc(c(-c7ccc(S(=O)(=O)[O-])cc7)c7ccc4[nH]7)C=C6)C=C5)cc3)c3cc(C)ccc3n2)c(C)c1
REMARK SMILES IDX 15 1 14 2 13 3 12 4 11 5 9 6 10 7 8 8 6 9 7 10 87 11 86 12
REMARK SMILES IDX 80 13 85 14 81 15 84 16 82 17 83 18 5 19 1 20 2 21 3 22
REMARK SMILES IDX 90 23 4 24 88 25 89 26 16 27 17 28 18 29 19 30 20 31 21 32
REMARK SMILES IDX 79 33 22 34 78 35 23 36 24 37 25 38 72 39 26 40 77 41 71 42
REMARK SMILES IDX 73 43 27 44 76 45 70 46 69 47 28 49 58 50 39 51 57 52 40 53
REMARK SMILES IDX 43 54 56 55 74 56 41 57 42 58 55 60 75 61 44 62 29 63 30 64
REMARK SMILES IDX 38 65 31 66 37 67 32 68 33 69 34 70 35 71 36 72 59 73 60 74
REMARK SMILES IDX 68 75 61 76 67 77 62 78 63 79 64 80 65 81 66 82 45 83 46 84
REMARK SMILES IDX 54 85 47 86 53 87 48 88 49 89 50 90 51 91 52 92
REMARK H PARENT 73 48 43 59
REMARK Flexibility Score: inf
ROOT
ATOM      1  C   UNL A   1      39.516  22.606  26.423  1.00  0.00     0.202 C 
ENDROOT
BRANCH   1   2
ATOM      2  O   UNL A   1      38.106  22.829  26.444  1.00  0.00    -0.374 OA
BRANCH   2   3
ATOM      3  C   UNL A   1      37.458  23.044  25.187  1.00  0.00     0.202 C 
BRANCH   3   4
ATOM      4  C   UNL A   1      36.682  21.846  24.640  1.00  0.00     0.261 C 
BRANCH   4   5
ATOM      5  O   UNL A   1      36.223  21.027  25.729  1.00  0.00    -0.460 OA
BRANCH   5   6
ATOM      6  C   UNL A   1      34.988  21.309  26.196  1.00  0.00     0.338 C 
ATOM      7  O   UNL A   1      34.702  21.670  27.328  1.00  0.00    -0.246 OA
BRANCH   6   8
ATOM      8  C   UNL A   1      34.009  21.347  25.086  1.00  0.00     0.071 A 
ATOM      9  C   UNL A   1      32.532  22.755  23.844  1.00  0.00     0.072 A 
ATOM     10  C   UNL A   1      33.495  22.619  24.822  1.00  0.00     0.045 A 
ATOM     11  N   UNL A   1      32.074  21.703  23.134  1.00  0.00    -0.248 NA
ATOM     12  C   UNL A   1      32.573  20.479  23.379  1.00  0.00     0.072 A 
ATOM     13  C   UNL A   1      33.570  20.224  24.345  1.00  0.00     0.015 A 
ATOM     14  C   UNL A   1      32.057  19.421  22.647  1.00  0.00     0.029 A 
ATOM     15  C   UNL A   1      34.031  18.889  24.504  1.00  0.00     0.014 A 
ATOM     16  C   UNL A   1      32.514  18.112  22.811  1.00  0.00     0.005 A 
ATOM     17  C   UNL A   1      33.515  17.836  23.737  1.00  0.00    -0.050 A 
ATOM     18  C   UNL A   1      34.071  16.449  23.881  1.00  0.00     0.044 C 
BRANCH   9  19
ATOM     19  C   UNL A   1      31.893  24.049  23.586  1.00  0.00     0.003 A 
ATOM     20  C   UNL A   1      30.213  27.972  22.841  1.00  0.00     0.044 C 
ATOM     21  C   UNL A   1      30.794  26.610  23.079  1.00  0.00    -0.051 A 
ATOM     22  C   UNL A   1      31.691  26.037  22.176  1.00  0.00     0.004 A 
ATOM     23  C   UNL A   1      30.439  25.894  24.228  1.00  0.00     0.007 A 
ATOM     24  C   UNL A   1      32.231  24.773  22.426  1.00  0.00     0.011 A 
ATOM     25  C   UNL A   1      30.981  24.624  24.497  1.00  0.00    -0.041 A 
ATOM     26  C   UNL A   1      30.540  23.925  25.757  1.00  0.00     0.045 C 
ENDBRANCH   9  19
ENDBRANCH   6   8
ENDBRANCH   5   6
ENDBRANCH   4   5
ENDBRANCH   3   4
ENDBRANCH   2   3
ENDBRANCH   1   2
BRANCH   1  27
ATOM     27  C   UNL A   1      40.405  23.832  26.663  1.00  0.00     0.261 C 
BRANCH  27  28
ATOM     28  O   UNL A   1      39.676  25.068  26.579  1.00  0.00    -0.460 OA
BRANCH  28  29
ATOM     29  C   UNL A   1      40.450  26.178  26.519  1.00  0.00     0.338 C 
ATOM     30  O   UNL A   1      41.171  26.525  25.595  1.00  0.00    -0.246 OA
BRANCH  29  31
ATOM     31  C   UNL A   1      40.182  27.045  27.681  1.00  0.00     0.060 A 
ATOM     32  C   UNL A   1      40.776  28.314  27.692  1.00  0.00     0.016 A 
ATOM     33  C   UNL A   1      39.430  26.605  28.773  1.00  0.00     0.016 A 
ATOM     34  C   UNL A   1      40.663  29.129  28.817  1.00  0.00     0.010 A 
ATOM     35  C   UNL A   1      39.324  27.421  29.905  1.00  0.00     0.010 A 
ATOM     36  C   UNL A   1      39.969  28.672  29.945  1.00  0.00    -0.014 A 
BRANCH  36  37
ATOM     37  C   UNL A   1      40.042  29.440  31.211  1.00  0.00     0.031 A 
ATOM     38  C   UNL A   1      41.178  29.174  32.163  1.00  0.00     0.074 A 
ATOM     39  C   UNL A   1      39.130  30.389  31.494  1.00  0.00     0.049 A 
ATOM     40  N   UNL A   1      41.420  29.708  33.333  1.00  0.00    -0.248 NA
ATOM     41  C   UNL A   1      42.174  28.177  31.737  1.00  0.00     0.031 C 
ATOM     42  C   UNL A   1      38.016  30.778  30.631  1.00  0.00     0.029 A 
ATOM     43  N   UNL A   1      39.001  31.200  32.594  1.00  0.00    -0.354 N 
ATOM     44  C   UNL A   1      42.595  29.115  33.782  1.00  0.00     0.074 A 
ATOM     45  C   UNL A   1      42.998  28.156  32.776  1.00  0.00     0.031 C 
ATOM     46  C   UNL A   1      37.315  31.754  31.235  1.00  0.00     0.029 A 
ATOM     47  C   UNL A   1      37.910  32.032  32.541  1.00  0.00     0.049 A 
ATOM     48  H   UNL A   1      39.632  31.185  33.350  1.00  0.00     0.167 HD
ATOM     49  C   UNL A   1      43.283  29.354  34.924  1.00  0.00     0.031 A 
ATOM     50  C   UNL A   1      37.434  32.906  33.451  1.00  0.00     0.031 A 
ATOM     51  C   UNL A   1      42.873  30.294  35.933  1.00  0.00     0.049 A 
ATOM     52  C   UNL A   1      38.164  33.082  34.757  1.00  0.00     0.074 A 
ATOM     53  C   UNL A   1      43.496  30.598  37.131  1.00  0.00     0.029 A 
ATOM     54  N   UNL A   1      41.734  31.081  35.864  1.00  0.00    -0.354 N 
ATOM     55  N   UNL A   1      39.275  32.516  35.167  1.00  0.00    -0.248 NA
ATOM     56  C   UNL A   1      37.578  34.022  35.724  1.00  0.00     0.031 C 
ATOM     57  C   UNL A   1      42.707  31.533  37.809  1.00  0.00     0.029 A 
ATOM     58  C   UNL A   1      41.623  31.855  37.006  1.00  0.00     0.049 A 
ATOM     59  H   UNL A   1      41.096  31.087  35.114  1.00  0.00     0.167 HD
ATOM     60  C   UNL A   1      39.536  33.056  36.421  1.00  0.00     0.074 A 
ATOM     61  C   UNL A   1      38.474  34.001  36.701  1.00  0.00     0.031 C 
ATOM     62  C   UNL A   1      40.565  32.797  37.267  1.00  0.00     0.031 A 
BRANCH  49  63
ATOM     63  C   UNL A   1      44.544  28.564  35.153  1.00  0.00    -0.014 A 
ATOM     64  C   UNL A   1      45.773  28.988  34.614  1.00  0.00     0.010 A 
ATOM     65  C   UNL A   1      44.509  27.403  35.946  1.00  0.00     0.010 A 
ATOM     66  C   UNL A   1      46.937  28.248  34.836  1.00  0.00     0.020 A 
ATOM     67  C   UNL A   1      45.676  26.674  36.193  1.00  0.00     0.020 A 
ATOM     68  C   UNL A   1      46.879  27.093  35.622  1.00  0.00     0.054 A 
BRANCH  68  69
ATOM     69  S   UNL A   1      48.410  26.162  35.913  1.00  0.00     0.124 S 
ATOM     70  O   UNL A   1      48.140  25.535  37.204  1.00  0.00    -0.237 OA
ATOM     71  O   UNL A   1      48.455  25.255  34.770  1.00  0.00    -0.237 OA
ATOM     72  O   UNL A   1      49.445  27.194  35.927  1.00  0.00    -0.744 OA
ENDBRANCH  68  69
ENDBRANCH  49  63
BRANCH  50  73
ATOM     73  C   UNL A   1      36.187  33.671  33.174  1.00  0.00    -0.014 A 
ATOM     74  C   UNL A   1      34.925  33.088  33.385  1.00  0.00     0.010 A 
ATOM     75  C   UNL A   1      36.258  34.982  32.670  1.00  0.00     0.010 A 
ATOM     76  C   UNL A   1      33.758  33.791  33.071  1.00  0.00     0.020 A 
ATOM     77  C   UNL A   1      35.093  35.698  32.381  1.00  0.00     0.020 A 
ATOM     78  C   UNL A   1      33.851  35.091  32.569  1.00  0.00     0.054 A 
BRANCH  78  79
ATOM     79  S   UNL A   1      32.325  35.998  32.193  1.00  0.00     0.124 S 
ATOM     80  O   UNL A   1      32.464  37.186  33.028  1.00  0.00    -0.237 OA
ATOM     81  O   UNL A   1      32.434  36.218  30.753  1.00  0.00    -0.237 OA
ATOM     82  O   UNL A   1      31.270  35.070  32.594  1.00  0.00    -0.744 OA
ENDBRANCH  78  79
ENDBRANCH  50  73
BRANCH  62  83
ATOM     83  C   UNL A   1      40.620  33.576  38.554  1.00  0.00    -0.014 A 
ATOM     84  C   UNL A   1      41.256  34.828  38.624  1.00  0.00     0.010 A 
ATOM     85  C   UNL A   1      39.976  33.069  39.698  1.00  0.00     0.010 A 
ATOM     86  C   UNL A   1      41.273  35.545  39.824  1.00  0.00     0.020 A 
ATOM     87  C   UNL A   1      39.967  33.796  40.892  1.00  0.00     0.020 A 
ATOM     88  C   UNL A   1      40.629  35.023  40.951  1.00  0.00     0.054 A 
BRANCH  88  89
ATOM     89  S   UNL A   1      40.627  35.992  42.484  1.00  0.00     0.124 S 
ATOM     90  O   UNL A   1      41.070  35.008  43.467  1.00  0.00    -0.237 OA
ATOM     91  O   UNL A   1      41.579  37.061  42.191  1.00  0.00    -0.237 OA
ATOM     92  O   UNL A   1      39.237  36.425  42.619  1.00  0.00    -0.744 OA
ENDBRANCH  88  89
ENDBRANCH  62  83
ENDBRANCH  36  37
ENDBRANCH  29  31
ENDBRANCH  28  29
ENDBRANCH  27  28
ENDBRANCH   1  27
TORSDOF 18
ENDMDL
