MODEL 1
REMARK VINA RESULT:     -11.3      0.000      0.000
REMARK SMILES CN(C(=O)C[C@@H]1SC(=O)N(c2ccccc2)C1=O)c1ccccc1C(=O)OCCOCCOC(=O)c1ccc(-c2c3nc(c(-c4ccc(S(=O)(=O)[O-])cc4)c4ccc([nH]4)c(-c4ccc(S(=O)(=O)[O-])cc4)c4nc(c(-c5ccc(S(=O)(=O)[O-])cc5)c5ccc2[nH]5)C=C4)C=C3)cc1
REMARK SMILES IDX 29 1 28 2 27 3 25 4 26 5 24 6 19 7 20 8 21 9 23 10 22 11
REMARK SMILES IDX 2 12 1 13 3 14 4 15 5 16 6 17 7 18 17 19 8 20 10 21 18 22
REMARK SMILES IDX 9 23 11 24 12 25 16 26 13 27 15 28 14 29 30 30 31 31 32 32
REMARK SMILES IDX 33 33 34 34 35 35 36 36 37 37 95 38 38 39 94 40 39 41 40 42
REMARK SMILES IDX 41 43 88 44 42 45 93 46 87 47 89 48 43 49 92 50 86 51 85 52
REMARK SMILES IDX 44 54 74 55 55 56 73 57 56 58 59 59 72 60 90 61 57 62 58 63
REMARK SMILES IDX 71 65 91 66 60 67 45 68 46 69 54 70 47 71 53 72 48 73 49 74
REMARK SMILES IDX 50 75 51 76 52 77 75 78 76 79 84 80 77 81 83 82 78 83 79 84
REMARK SMILES IDX 80 85 81 86 82 87 61 88 62 89 70 90 63 91 69 92 64 93 65 94
REMARK SMILES IDX 66 95 67 96 68 97
REMARK H PARENT 89 53 59 64
REMARK Flexibility Score: inf
ROOT
ATOM      1  C   UNL A   1      34.840  30.685  27.693  1.00  0.00     0.202 C 
ENDROOT
BRANCH   1   2
ATOM      2  C   UNL A   1      33.574  30.351  26.896  1.00  0.00     0.261 C 
BRANCH   2   3
ATOM      3  O   UNL A   1      33.762  29.326  25.899  1.00  0.00    -0.460 OA
BRANCH   3   4
ATOM      4  C   UNL A   1      32.684  28.528  25.712  1.00  0.00     0.340 C 
ATOM      5  O   UNL A   1      31.647  28.554  26.362  1.00  0.00    -0.246 OA
BRANCH   4   6
ATOM      6  C   UNL A   1      32.780  27.673  24.511  1.00  0.00     0.083 A 
ATOM      7  C   UNL A   1      32.058  26.486  24.250  1.00  0.00     0.058 A 
ATOM      8  C   UNL A   1      32.115  25.988  22.930  1.00  0.00     0.027 A 
ATOM      9  C   UNL A   1      32.906  26.569  21.938  1.00  0.00     0.002 A 
ATOM     10  C   UNL A   1      33.606  28.234  23.510  1.00  0.00     0.018 A 
ATOM     11  C   UNL A   1      33.682  27.677  22.237  1.00  0.00     0.001 A 
BRANCH   7  12
ATOM     12  N   UNL A   1      31.266  25.739  25.206  1.00  0.00    -0.315 N 
ATOM     13  C   UNL A   1      29.814  25.931  25.180  1.00  0.00     0.153 C 
BRANCH  12  14
ATOM     14  C   UNL A   1      31.929  24.929  26.158  1.00  0.00     0.228 C 
ATOM     15  O   UNL A   1      31.412  24.503  27.197  1.00  0.00    -0.274 OA
BRANCH  14  16
ATOM     16  C   UNL A   1      33.288  24.336  25.816  1.00  0.00     0.125 C 
BRANCH  16  17
ATOM     17  C   UNL A   1      33.388  22.885  26.284  1.00  0.00     0.156 C 
ATOM     18  S   UNL A   1      35.090  22.438  26.683  1.00  0.00    -0.050 SA
ATOM     19  C   UNL A   1      32.902  21.798  25.311  1.00  0.00     0.248 C 
ATOM     20  C   UNL A   1      35.164  21.339  25.337  1.00  0.00     0.293 C 
ATOM     21  N   UNL A   1      33.912  20.885  25.049  1.00  0.00    -0.240 N 
ATOM     22  O   UNL A   1      31.738  21.742  24.927  1.00  0.00    -0.273 OA
ATOM     23  O   UNL A   1      36.211  21.096  24.745  1.00  0.00    -0.261 OA
BRANCH  21  24
ATOM     24  C   UNL A   1      33.749  19.595  24.466  1.00  0.00     0.053 A 
ATOM     25  C   UNL A   1      34.652  18.547  24.641  1.00  0.00     0.027 A 
ATOM     26  C   UNL A   1      32.639  19.377  23.621  1.00  0.00     0.027 A 
ATOM     27  C   UNL A   1      34.418  17.305  24.027  1.00  0.00     0.002 A 
ATOM     28  C   UNL A   1      32.445  18.167  22.954  1.00  0.00     0.002 A 
ATOM     29  C   UNL A   1      33.326  17.120  23.176  1.00  0.00     0.000 A 
ENDBRANCH  21  24
ENDBRANCH  16  17
ENDBRANCH  14  16
ENDBRANCH  12  14
ENDBRANCH   7  12
ENDBRANCH   4   6
ENDBRANCH   3   4
ENDBRANCH   2   3
ENDBRANCH   1   2
BRANCH   1  30
ATOM     30  O   UNL A   1      35.125  32.073  27.858  1.00  0.00    -0.374 OA
BRANCH  30  31
ATOM     31  C   UNL A   1      34.356  32.764  28.850  1.00  0.00     0.202 C 
BRANCH  31  32
ATOM     32  C   UNL A   1      35.119  33.109  30.137  1.00  0.00     0.261 C 
BRANCH  32  33
ATOM     33  O   UNL A   1      36.465  32.593  30.105  1.00  0.00    -0.460 OA
BRANCH  33  34
ATOM     34  C   UNL A   1      36.775  31.638  31.009  1.00  0.00     0.338 C 
ATOM     35  O   UNL A   1      36.208  31.412  32.064  1.00  0.00    -0.246 OA
BRANCH  34  36
ATOM     36  C   UNL A   1      37.985  30.921  30.558  1.00  0.00     0.060 A 
ATOM     37  C   UNL A   1      38.923  30.445  31.475  1.00  0.00     0.016 A 
ATOM     38  C   UNL A   1      38.206  30.757  29.190  1.00  0.00     0.016 A 
ATOM     39  C   UNL A   1      40.110  29.855  31.011  1.00  0.00     0.010 A 
ATOM     40  C   UNL A   1      39.334  30.071  28.737  1.00  0.00     0.010 A 
ATOM     41  C   UNL A   1      40.339  29.679  29.635  1.00  0.00    -0.014 A 
BRANCH  41  42
ATOM     42  C   UNL A   1      41.660  29.229  29.097  1.00  0.00     0.031 A 
ATOM     43  C   UNL A   1      42.796  30.229  28.983  1.00  0.00     0.074 A 
ATOM     44  C   UNL A   1      41.855  27.963  28.675  1.00  0.00     0.049 A 
ATOM     45  N   UNL A   1      44.003  30.064  28.500  1.00  0.00    -0.248 NA
ATOM     46  C   UNL A   1      42.525  31.606  29.431  1.00  0.00     0.031 C 
ATOM     47  C   UNL A   1      40.850  26.900  28.673  1.00  0.00     0.029 A 
ATOM     48  N   UNL A   1      42.976  27.358  28.157  1.00  0.00    -0.354 N 
ATOM     49  C   UNL A   1      44.610  31.315  28.554  1.00  0.00     0.074 A 
ATOM     50  C   UNL A   1      43.619  32.243  29.050  1.00  0.00     0.031 C 
ATOM     51  C   UNL A   1      41.407  25.769  28.203  1.00  0.00     0.029 A 
ATOM     52  C   UNL A   1      42.800  26.029  27.847  1.00  0.00     0.049 A 
ATOM     53  H   UNL A   1      43.829  27.832  28.021  1.00  0.00     0.167 HD
ATOM     54  C   UNL A   1      45.884  31.669  28.259  1.00  0.00     0.031 A 
ATOM     55  C   UNL A   1      43.659  25.121  27.338  1.00  0.00     0.031 A 
ATOM     56  C   UNL A   1      46.894  30.745  27.817  1.00  0.00     0.049 A 
ATOM     57  C   UNL A   1      45.082  25.521  27.049  1.00  0.00     0.074 A 
ATOM     58  C   UNL A   1      48.235  30.989  27.580  1.00  0.00     0.029 A 
ATOM     59  N   UNL A   1      46.676  29.403  27.554  1.00  0.00    -0.354 N 
ATOM     60  N   UNL A   1      45.655  26.692  27.192  1.00  0.00    -0.248 NA
ATOM     61  C   UNL A   1      45.980  24.469  26.547  1.00  0.00     0.031 C 
ATOM     62  C   UNL A   1      48.819  29.802  27.127  1.00  0.00     0.029 A 
ATOM     63  C   UNL A   1      47.853  28.808  27.138  1.00  0.00     0.049 A 
ATOM     64  H   UNL A   1      45.811  28.942  27.649  1.00  0.00     0.167 HD
ATOM     65  C   UNL A   1      46.987  26.510  26.826  1.00  0.00     0.074 A 
ATOM     66  C   UNL A   1      47.136  25.115  26.470  1.00  0.00     0.031 C 
ATOM     67  C   UNL A   1      47.993  27.417  26.791  1.00  0.00     0.031 A 
BRANCH  54  68
ATOM     68  C   UNL A   1      46.266  33.119  28.420  1.00  0.00    -0.014 A 
ATOM     69  C   UNL A   1      46.332  33.982  27.310  1.00  0.00     0.010 A 
ATOM     70  C   UNL A   1      46.526  33.637  29.702  1.00  0.00     0.010 A 
ATOM     71  C   UNL A   1      46.697  35.321  27.473  1.00  0.00     0.020 A 
ATOM     72  C   UNL A   1      46.858  34.986  29.874  1.00  0.00     0.020 A 
ATOM     73  C   UNL A   1      46.959  35.814  28.754  1.00  0.00     0.054 A 
BRANCH  73  74
ATOM     74  S   UNL A   1      47.405  37.563  28.936  1.00  0.00     0.124 S 
ATOM     75  O   UNL A   1      46.093  38.204  28.980  1.00  0.00    -0.237 OA
ATOM     76  O   UNL A   1      48.151  37.575  30.192  1.00  0.00    -0.237 OA
ATOM     77  O   UNL A   1      48.197  37.845  27.742  1.00  0.00    -0.744 OA
ENDBRANCH  73  74
ENDBRANCH  54  68
BRANCH  55  78
ATOM     78  C   UNL A   1      43.205  23.721  27.105  1.00  0.00    -0.014 A 
ATOM     79  C   UNL A   1      42.872  23.287  25.809  1.00  0.00     0.010 A 
ATOM     80  C   UNL A   1      43.111  22.813  28.174  1.00  0.00     0.010 A 
ATOM     81  C   UNL A   1      42.441  21.976  25.589  1.00  0.00     0.020 A 
ATOM     82  C   UNL A   1      42.706  21.493  27.954  1.00  0.00     0.020 A 
ATOM     83  C   UNL A   1      42.365  21.085  26.663  1.00  0.00     0.054 A 
BRANCH  83  84
ATOM     84  S   UNL A   1      41.866  19.369  26.344  1.00  0.00     0.124 S 
ATOM     85  O   UNL A   1      40.410  19.464  26.382  1.00  0.00    -0.237 OA
ATOM     86  O   UNL A   1      42.451  19.111  25.030  1.00  0.00    -0.237 OA
ATOM     87  O   UNL A   1      42.477  18.628  27.445  1.00  0.00    -0.744 OA
ENDBRANCH  83  84
ENDBRANCH  55  78
BRANCH  67  88
ATOM     88  C   UNL A   1      49.361  26.933  26.388  1.00  0.00    -0.014 A 
ATOM     89  C   UNL A   1      50.181  26.230  27.289  1.00  0.00     0.010 A 
ATOM     90  C   UNL A   1      49.801  27.123  25.065  1.00  0.00     0.010 A 
ATOM     91  C   UNL A   1      51.429  25.752  26.880  1.00  0.00     0.020 A 
ATOM     92  C   UNL A   1      51.036  26.622  24.646  1.00  0.00     0.020 A 
ATOM     93  C   UNL A   1      51.849  25.951  25.561  1.00  0.00     0.054 A 
BRANCH  93  94
ATOM     94  S   UNL A   1      53.453  25.278  25.044  1.00  0.00     0.124 S 
ATOM     95  O   UNL A   1      53.471  25.598  23.620  1.00  0.00    -0.237 OA
ATOM     96  O   UNL A   1      54.396  26.027  25.870  1.00  0.00    -0.237 OA
ATOM     97  O   UNL A   1      53.349  23.855  25.362  1.00  0.00    -0.744 OA
ENDBRANCH  93  94
ENDBRANCH  67  88
ENDBRANCH  41  42
ENDBRANCH  34  36
ENDBRANCH  33  34
ENDBRANCH  32  33
ENDBRANCH  31  32
ENDBRANCH  30  31
ENDBRANCH   1  30
TORSDOF 22
ENDMDL
MODEL 2
REMARK VINA RESULT:     -11.3      1.852      2.428
REMARK SMILES CN(C(=O)C[C@@H]1SC(=O)N(c2ccccc2)C1=O)c1ccccc1C(=O)OCCOCCOC(=O)c1ccc(-c2c3nc(c(-c4ccc(S(=O)(=O)[O-])cc4)c4ccc([nH]4)c(-c4ccc(S(=O)(=O)[O-])cc4)c4nc(c(-c5ccc(S(=O)(=O)[O-])cc5)c5ccc2[nH]5)C=C4)C=C3)cc1
REMARK SMILES IDX 29 1 28 2 27 3 25 4 26 5 24 6 19 7 20 8 21 9 23 10 22 11
REMARK SMILES IDX 2 12 1 13 3 14 4 15 5 16 6 17 7 18 17 19 8 20 10 21 18 22
REMARK SMILES IDX 9 23 11 24 12 25 16 26 13 27 15 28 14 29 30 30 31 31 32 32
REMARK SMILES IDX 33 33 34 34 35 35 36 36 37 37 95 38 38 39 94 40 39 41 40 42
REMARK SMILES IDX 41 43 88 44 42 45 93 46 87 47 89 48 43 49 92 50 86 51 85 52
REMARK SMILES IDX 44 54 74 55 55 56 73 57 56 58 59 59 72 60 90 61 57 62 58 63
REMARK SMILES IDX 71 65 91 66 60 67 45 68 46 69 54 70 47 71 53 72 48 73 49 74
REMARK SMILES IDX 50 75 51 76 52 77 75 78 76 79 84 80 77 81 83 82 78 83 79 84
REMARK SMILES IDX 80 85 81 86 82 87 61 88 62 89 70 90 63 91 69 92 64 93 65 94
REMARK SMILES IDX 66 95 67 96 68 97
REMARK H PARENT 89 53 59 64
REMARK Flexibility Score: inf
ROOT
ATOM      1  C   UNL A   1      34.226  30.230  27.448  1.00  0.00     0.202 C 
ENDROOT
BRANCH   1   2
ATOM      2  C   UNL A   1      32.787  30.500  26.994  1.00  0.00     0.261 C 
BRANCH   2   3
ATOM      3  O   UNL A   1      32.111  29.340  26.467  1.00  0.00    -0.460 OA
BRANCH   3   4
ATOM      4  C   UNL A   1      31.635  29.498  25.209  1.00  0.00     0.340 C 
ATOM      5  O   UNL A   1      30.936  30.422  24.813  1.00  0.00    -0.246 OA
BRANCH   4   6
ATOM      6  C   UNL A   1      32.164  28.510  24.246  1.00  0.00     0.083 A 
ATOM      7  C   UNL A   1      31.553  27.300  23.844  1.00  0.00     0.058 A 
ATOM      8  C   UNL A   1      32.111  26.653  22.720  1.00  0.00     0.027 A 
ATOM      9  C   UNL A   1      33.258  27.116  22.075  1.00  0.00     0.002 A 
ATOM     10  C   UNL A   1      33.346  28.952  23.609  1.00  0.00     0.018 A 
ATOM     11  C   UNL A   1      33.899  28.252  22.541  1.00  0.00     0.001 A 
BRANCH   7  12
ATOM     12  N   UNL A   1      30.412  26.668  24.474  1.00  0.00    -0.315 N 
ATOM     13  C   UNL A   1      29.138  26.693  23.750  1.00  0.00     0.153 C 
BRANCH  12  14
ATOM     14  C   UNL A   1      30.559  26.131  25.774  1.00  0.00     0.228 C 
ATOM     15  O   UNL A   1      29.620  25.796  26.506  1.00  0.00    -0.274 OA
BRANCH  14  16
ATOM     16  C   UNL A   1      31.941  25.714  26.257  1.00  0.00     0.125 C 
BRANCH  16  17
ATOM     17  C   UNL A   1      32.329  24.346  25.698  1.00  0.00     0.156 C 
ATOM     18  S   UNL A   1      31.918  23.022  26.853  1.00  0.00    -0.050 SA
ATOM     19  C   UNL A   1      33.808  24.126  25.341  1.00  0.00     0.248 C 
ATOM     20  C   UNL A   1      33.601  22.677  27.126  1.00  0.00     0.293 C 
ATOM     21  N   UNL A   1      34.325  23.039  26.030  1.00  0.00    -0.240 N 
ATOM     22  O   UNL A   1      34.377  24.794  24.484  1.00  0.00    -0.273 OA
ATOM     23  O   UNL A   1      34.015  22.228  28.190  1.00  0.00    -0.261 OA
BRANCH  21  24
ATOM     24  C   UNL A   1      35.534  22.348  25.726  1.00  0.00     0.053 A 
ATOM     25  C   UNL A   1      36.791  22.950  25.731  1.00  0.00     0.027 A 
ATOM     26  C   UNL A   1      35.452  20.991  25.346  1.00  0.00     0.027 A 
ATOM     27  C   UNL A   1      37.934  22.197  25.415  1.00  0.00     0.002 A 
ATOM     28  C   UNL A   1      36.578  20.262  24.961  1.00  0.00     0.002 A 
ATOM     29  C   UNL A   1      37.826  20.862  25.018  1.00  0.00     0.000 A 
ENDBRANCH  21  24
ENDBRANCH  16  17
ENDBRANCH  14  16
ENDBRANCH  12  14
ENDBRANCH   7  12
ENDBRANCH   4   6
ENDBRANCH   3   4
ENDBRANCH   2   3
ENDBRANCH   1   2
BRANCH   1  30
ATOM     30  O   UNL A   1      35.029  31.382  27.697  1.00  0.00    -0.374 OA
BRANCH  30  31
ATOM     31  C   UNL A   1      34.804  32.053  28.943  1.00  0.00     0.202 C 
BRANCH  31  32
ATOM     32  C   UNL A   1      35.764  31.659  30.074  1.00  0.00     0.261 C 
BRANCH  32  33
ATOM     33  O   UNL A   1      36.935  30.991  29.561  1.00  0.00    -0.460 OA
BRANCH  33  34
ATOM     34  C   UNL A   1      37.174  29.742  30.017  1.00  0.00     0.338 C 
ATOM     35  O   UNL A   1      36.463  29.078  30.752  1.00  0.00    -0.246 OA
BRANCH  34  36
ATOM     36  C   UNL A   1      38.500  29.300  29.539  1.00  0.00     0.060 A 
ATOM     37  C   UNL A   1      39.403  28.672  30.400  1.00  0.00     0.016 A 
ATOM     38  C   UNL A   1      38.864  29.553  28.216  1.00  0.00     0.016 A 
ATOM     39  C   UNL A   1      40.691  28.353  29.941  1.00  0.00     0.010 A 
ATOM     40  C   UNL A   1      40.105  29.133  27.735  1.00  0.00     0.010 A 
ATOM     41  C   UNL A   1      41.065  28.599  28.608  1.00  0.00    -0.014 A 
BRANCH  41  42
ATOM     42  C   UNL A   1      42.475  28.446  28.135  1.00  0.00     0.031 A 
ATOM     43  C   UNL A   1      43.427  29.623  28.242  1.00  0.00     0.074 A 
ATOM     44  C   UNL A   1      42.912  27.298  27.578  1.00  0.00     0.049 A 
ATOM     45  N   UNL A   1      44.673  29.723  27.848  1.00  0.00    -0.248 NA
ATOM     46  C   UNL A   1      42.895  30.864  28.833  1.00  0.00     0.031 C 
ATOM     47  C   UNL A   1      42.106  26.096  27.358  1.00  0.00     0.029 A 
ATOM     48  N   UNL A   1      44.151  26.959  27.087  1.00  0.00    -0.354 N 
ATOM     49  C   UNL A   1      45.050  31.037  28.108  1.00  0.00     0.074 A 
ATOM     50  C   UNL A   1      43.886  31.716  28.628  1.00  0.00     0.031 C 
ATOM     51  C   UNL A   1      42.878  25.145  26.802  1.00  0.00     0.029 A 
ATOM     52  C   UNL A   1      44.226  25.674  26.601  1.00  0.00     0.049 A 
ATOM     53  H   UNL A   1      44.916  27.579  27.084  1.00  0.00     0.167 HD
ATOM     54  C   UNL A   1      46.261  31.630  27.969  1.00  0.00     0.031 A 
ATOM     55  C   UNL A   1      45.259  24.995  26.060  1.00  0.00     0.031 A 
ATOM     56  C   UNL A   1      47.441  30.951  27.505  1.00  0.00     0.049 A 
ATOM     57  C   UNL A   1      46.607  25.655  25.945  1.00  0.00     0.074 A 
ATOM     58  C   UNL A   1      48.733  31.438  27.416  1.00  0.00     0.029 A 
ATOM     59  N   UNL A   1      47.474  29.639  27.061  1.00  0.00    -0.354 N 
ATOM     60  N   UNL A   1      46.960  26.873  26.280  1.00  0.00    -0.248 NA
ATOM     61  C   UNL A   1      47.703  24.841  25.396  1.00  0.00     0.031 C 
ATOM     62  C   UNL A   1      49.540  30.434  26.871  1.00  0.00     0.029 A 
ATOM     63  C   UNL A   1      48.760  29.305  26.677  1.00  0.00     0.049 A 
ATOM     64  H   UNL A   1      46.698  29.036  27.024  1.00  0.00     0.167 HD
ATOM     65  C   UNL A   1      48.324  26.961  26.010  1.00  0.00     0.074 A 
ATOM     66  C   UNL A   1      48.734  25.671  25.498  1.00  0.00     0.031 C 
ATOM     67  C   UNL A   1      49.159  28.016  26.174  1.00  0.00     0.031 A 
BRANCH  54  68
ATOM     68  C   UNL A   1      46.377  33.087  28.341  1.00  0.00    -0.014 A 
ATOM     69  C   UNL A   1      46.677  33.480  29.659  1.00  0.00     0.010 A 
ATOM     70  C   UNL A   1      46.224  34.077  27.353  1.00  0.00     0.010 A 
ATOM     71  C   UNL A   1      46.772  34.833  29.992  1.00  0.00     0.020 A 
ATOM     72  C   UNL A   1      46.353  35.433  27.675  1.00  0.00     0.020 A 
ATOM     73  C   UNL A   1      46.608  35.802  28.997  1.00  0.00     0.054 A 
BRANCH  73  74
ATOM     74  S   UNL A   1      46.763  37.550  29.455  1.00  0.00     0.124 S 
ATOM     75  O   UNL A   1      47.783  37.498  30.498  1.00  0.00    -0.237 OA
ATOM     76  O   UNL A   1      47.180  38.174  28.201  1.00  0.00    -0.237 OA
ATOM     77  O   UNL A   1      45.423  37.910  29.911  1.00  0.00    -0.744 OA
ENDBRANCH  73  74
ENDBRANCH  54  68
BRANCH  55  78
ATOM     78  C   UNL A   1      45.068  23.584  25.617  1.00  0.00    -0.014 A 
ATOM     79  C   UNL A   1      44.320  23.295  24.462  1.00  0.00     0.010 A 
ATOM     80  C   UNL A   1      45.640  22.524  26.343  1.00  0.00     0.010 A 
ATOM     81  C   UNL A   1      44.136  21.973  24.048  1.00  0.00     0.020 A 
ATOM     82  C   UNL A   1      45.481  21.202  25.918  1.00  0.00     0.020 A 
ATOM     83  C   UNL A   1      44.722  20.934  24.777  1.00  0.00     0.054 A 
BRANCH  83  84
ATOM     84  S   UNL A   1      44.525  19.230  24.185  1.00  0.00     0.124 S 
ATOM     85  O   UNL A   1      44.676  19.390  22.742  1.00  0.00    -0.237 OA
ATOM     86  O   UNL A   1      45.616  18.534  24.863  1.00  0.00    -0.237 OA
ATOM     87  O   UNL A   1      43.186  18.864  24.640  1.00  0.00    -0.744 OA
ENDBRANCH  83  84
ENDBRANCH  55  78
BRANCH  67  88
ATOM     88  C   UNL A   1      50.613  27.819  25.833  1.00  0.00    -0.014 A 
ATOM     89  C   UNL A   1      51.528  27.339  26.787  1.00  0.00     0.010 A 
ATOM     90  C   UNL A   1      51.054  28.052  24.517  1.00  0.00     0.010 A 
ATOM     91  C   UNL A   1      52.864  27.122  26.437  1.00  0.00     0.020 A 
ATOM     92  C   UNL A   1      52.381  27.810  24.157  1.00  0.00     0.020 A 
ATOM     93  C   UNL A   1      53.282  27.360  25.123  1.00  0.00     0.054 A 
BRANCH  93  94
ATOM     94  S   UNL A   1      55.010  27.024  24.684  1.00  0.00     0.124 S 
ATOM     95  O   UNL A   1      54.996  25.579  24.481  1.00  0.00    -0.237 OA
ATOM     96  O   UNL A   1      55.196  27.828  23.478  1.00  0.00    -0.237 OA
ATOM     97  O   UNL A   1      55.759  27.483  25.852  1.00  0.00    -0.744 OA
ENDBRANCH  93  94
ENDBRANCH  67  88
ENDBRANCH  41  42
ENDBRANCH  34  36
ENDBRANCH  33  34
ENDBRANCH  32  33
ENDBRANCH  31  32
ENDBRANCH  30  31
ENDBRANCH   1  30
TORSDOF 22
ENDMDL
MODEL 3
REMARK VINA RESULT:     -11.2      1.393      2.151
REMARK SMILES CN(C(=O)C[C@@H]1SC(=O)N(c2ccccc2)C1=O)c1ccccc1C(=O)OCCOCCOC(=O)c1ccc(-c2c3nc(c(-c4ccc(S(=O)(=O)[O-])cc4)c4ccc([nH]4)c(-c4ccc(S(=O)(=O)[O-])cc4)c4nc(c(-c5ccc(S(=O)(=O)[O-])cc5)c5ccc2[nH]5)C=C4)C=C3)cc1
REMARK SMILES IDX 29 1 28 2 27 3 25 4 26 5 24 6 19 7 20 8 21 9 23 10 22 11
REMARK SMILES IDX 2 12 1 13 3 14 4 15 5 16 6 17 7 18 17 19 8 20 10 21 18 22
REMARK SMILES IDX 9 23 11 24 12 25 16 26 13 27 15 28 14 29 30 30 31 31 32 32
REMARK SMILES IDX 33 33 34 34 35 35 36 36 37 37 95 38 38 39 94 40 39 41 40 42
REMARK SMILES IDX 41 43 88 44 42 45 93 46 87 47 89 48 43 49 92 50 86 51 85 52
REMARK SMILES IDX 44 54 74 55 55 56 73 57 56 58 59 59 72 60 90 61 57 62 58 63
REMARK SMILES IDX 71 65 91 66 60 67 45 68 46 69 54 70 47 71 53 72 48 73 49 74
REMARK SMILES IDX 50 75 51 76 52 77 75 78 76 79 84 80 77 81 83 82 78 83 79 84
REMARK SMILES IDX 80 85 81 86 82 87 61 88 62 89 70 90 63 91 69 92 64 93 65 94
REMARK SMILES IDX 66 95 67 96 68 97
REMARK H PARENT 89 53 59 64
REMARK Flexibility Score: inf
ROOT
ATOM      1  C   UNL A   1      33.618  30.737  27.451  1.00  0.00     0.202 C 
ENDROOT
BRANCH   1   2
ATOM      2  C   UNL A   1      32.213  30.523  26.878  1.00  0.00     0.261 C 
BRANCH   2   3
ATOM      3  O   UNL A   1      32.045  29.267  26.189  1.00  0.00    -0.460 OA
BRANCH   3   4
ATOM      4  C   UNL A   1      32.234  29.337  24.850  1.00  0.00     0.340 C 
ATOM      5  O   UNL A   1      33.307  29.499  24.281  1.00  0.00    -0.246 OA
BRANCH   4   6
ATOM      6  C   UNL A   1      31.020  29.041  24.062  1.00  0.00     0.083 A 
ATOM      7  C   UNL A   1      30.577  27.772  23.624  1.00  0.00     0.058 A 
ATOM      8  C   UNL A   1      29.259  27.701  23.122  1.00  0.00     0.027 A 
ATOM      9  C   UNL A   1      28.446  28.825  22.974  1.00  0.00     0.002 A 
ATOM     10  C   UNL A   1      30.203  30.180  23.876  1.00  0.00     0.018 A 
ATOM     11  C   UNL A   1      28.931  30.075  23.321  1.00  0.00     0.001 A 
BRANCH   7  12
ATOM     12  N   UNL A   1      31.346  26.544  23.645  1.00  0.00    -0.315 N 
ATOM     13  C   UNL A   1      32.568  26.496  22.839  1.00  0.00     0.153 C 
BRANCH  12  14
ATOM     14  C   UNL A   1      30.846  25.437  24.370  1.00  0.00     0.228 C 
ATOM     15  O   UNL A   1      30.655  25.427  25.592  1.00  0.00    -0.274 OA
BRANCH  14  16
ATOM     16  C   UNL A   1      30.284  24.242  23.614  1.00  0.00     0.125 C 
BRANCH  16  17
ATOM     17  C   UNL A   1      31.074  22.972  23.928  1.00  0.00     0.156 C 
ATOM     18  S   UNL A   1      31.022  22.582  25.689  1.00  0.00    -0.050 SA
ATOM     19  C   UNL A   1      32.566  22.963  23.555  1.00  0.00     0.248 C 
ATOM     20  C   UNL A   1      32.721  22.916  25.858  1.00  0.00     0.293 C 
ATOM     21  N   UNL A   1      33.349  22.699  24.669  1.00  0.00    -0.240 N 
ATOM     22  O   UNL A   1      32.948  23.083  22.396  1.00  0.00    -0.273 OA
ATOM     23  O   UNL A   1      33.207  23.335  26.904  1.00  0.00    -0.261 OA
BRANCH  21  24
ATOM     24  C   UNL A   1      34.718  22.301  24.659  1.00  0.00     0.053 A 
ATOM     25  C   UNL A   1      35.760  23.124  24.232  1.00  0.00     0.027 A 
ATOM     26  C   UNL A   1      35.034  20.982  25.053  1.00  0.00     0.027 A 
ATOM     27  C   UNL A   1      37.083  22.651  24.250  1.00  0.00     0.002 A 
ATOM     28  C   UNL A   1      36.338  20.490  25.002  1.00  0.00     0.002 A 
ATOM     29  C   UNL A   1      37.369  21.335  24.620  1.00  0.00     0.000 A 
ENDBRANCH  21  24
ENDBRANCH  16  17
ENDBRANCH  14  16
ENDBRANCH  12  14
ENDBRANCH   7  12
ENDBRANCH   4   6
ENDBRANCH   3   4
ENDBRANCH   2   3
ENDBRANCH   1   2
BRANCH   1  30
ATOM     30  O   UNL A   1      33.829  31.965  28.145  1.00  0.00    -0.374 OA
BRANCH  30  31
ATOM     31  C   UNL A   1      35.178  32.447  28.185  1.00  0.00     0.202 C 
BRANCH  31  32
ATOM     32  C   UNL A   1      35.583  33.132  29.497  1.00  0.00     0.261 C 
BRANCH  32  33
ATOM     33  O   UNL A   1      36.816  32.592  30.014  1.00  0.00    -0.460 OA
BRANCH  33  34
ATOM     34  C   UNL A   1      36.776  31.329  30.491  1.00  0.00     0.338 C 
ATOM     35  O   UNL A   1      35.906  30.831  31.184  1.00  0.00    -0.246 OA
BRANCH  34  36
ATOM     36  C   UNL A   1      38.014  30.625  30.097  1.00  0.00     0.060 A 
ATOM     37  C   UNL A   1      38.946  30.218  31.054  1.00  0.00     0.016 A 
ATOM     38  C   UNL A   1      38.267  30.404  28.743  1.00  0.00     0.016 A 
ATOM     39  C   UNL A   1      40.157  29.641  30.641  1.00  0.00     0.010 A 
ATOM     40  C   UNL A   1      39.422  29.728  28.345  1.00  0.00     0.010 A 
ATOM     41  C   UNL A   1      40.419  29.407  29.279  1.00  0.00    -0.014 A 
BRANCH  41  42
ATOM     42  C   UNL A   1      41.762  28.970  28.789  1.00  0.00     0.031 A 
ATOM     43  C   UNL A   1      42.889  29.983  28.705  1.00  0.00     0.074 A 
ATOM     44  C   UNL A   1      41.986  27.703  28.382  1.00  0.00     0.049 A 
ATOM     45  N   UNL A   1      44.114  29.828  28.264  1.00  0.00    -0.248 NA
ATOM     46  C   UNL A   1      42.588  31.358  29.135  1.00  0.00     0.031 C 
ATOM     47  C   UNL A   1      40.994  26.628  28.353  1.00  0.00     0.029 A 
ATOM     48  N   UNL A   1      43.131  27.108  27.905  1.00  0.00    -0.354 N 
ATOM     49  C   UNL A   1      44.704  31.087  28.330  1.00  0.00     0.074 A 
ATOM     50  C   UNL A   1      43.687  32.006  28.786  1.00  0.00     0.031 C 
ATOM     51  C   UNL A   1      41.580  25.501  27.911  1.00  0.00     0.029 A 
ATOM     52  C   UNL A   1      42.981  25.776  27.599  1.00  0.00     0.049 A 
ATOM     53  H   UNL A   1      43.982  27.592  27.794  1.00  0.00     0.167 HD
ATOM     54  C   UNL A   1      45.983  31.454  28.075  1.00  0.00     0.031 A 
ATOM     55  C   UNL A   1      43.866  24.874  27.125  1.00  0.00     0.031 A 
ATOM     56  C   UNL A   1      47.018  30.540  27.673  1.00  0.00     0.049 A 
ATOM     57  C   UNL A   1      45.294  25.289  26.881  1.00  0.00     0.074 A 
ATOM     58  C   UNL A   1      48.363  30.797  27.479  1.00  0.00     0.029 A 
ATOM     59  N   UNL A   1      46.824  29.193  27.412  1.00  0.00    -0.354 N 
ATOM     60  N   UNL A   1      45.848  26.468  27.034  1.00  0.00    -0.248 NA
ATOM     61  C   UNL A   1      46.220  24.245  26.416  1.00  0.00     0.031 C 
ATOM     62  C   UNL A   1      48.976  29.614  27.054  1.00  0.00     0.029 A 
ATOM     63  C   UNL A   1      48.022  28.609  27.040  1.00  0.00     0.049 A 
ATOM     64  H   UNL A   1      45.963  28.723  27.482  1.00  0.00     0.167 HD
ATOM     65  C   UNL A   1      47.193  26.299  26.714  1.00  0.00     0.074 A 
ATOM     66  C   UNL A   1      47.371  24.904  26.373  1.00  0.00     0.031 C 
ATOM     67  C   UNL A   1      48.189  27.218  26.707  1.00  0.00     0.031 A 
BRANCH  54  68
ATOM     68  C   UNL A   1      46.343  32.909  28.239  1.00  0.00    -0.014 A 
ATOM     69  C   UNL A   1      46.866  33.398  29.452  1.00  0.00     0.010 A 
ATOM     70  C   UNL A   1      46.194  33.796  27.156  1.00  0.00     0.010 A 
ATOM     71  C   UNL A   1      47.186  34.750  29.594  1.00  0.00     0.020 A 
ATOM     72  C   UNL A   1      46.546  35.144  27.284  1.00  0.00     0.020 A 
ATOM     73  C   UNL A   1      47.022  35.615  28.508  1.00  0.00     0.054 A 
BRANCH  73  74
ATOM     74  S   UNL A   1      47.471  37.360  28.715  1.00  0.00     0.124 S 
ATOM     75  O   UNL A   1      46.993  37.635  30.068  1.00  0.00    -0.237 OA
ATOM     76  O   UNL A   1      48.923  37.339  28.556  1.00  0.00    -0.237 OA
ATOM     77  O   UNL A   1      46.739  38.036  27.647  1.00  0.00    -0.744 OA
ENDBRANCH  73  74
ENDBRANCH  54  68
BRANCH  55  78
ATOM     78  C   UNL A   1      43.437  23.467  26.886  1.00  0.00    -0.014 A 
ATOM     79  C   UNL A   1      43.431  22.936  25.584  1.00  0.00     0.010 A 
ATOM     80  C   UNL A   1      43.039  22.650  27.959  1.00  0.00     0.010 A 
ATOM     81  C   UNL A   1      43.024  21.618  25.357  1.00  0.00     0.020 A 
ATOM     82  C   UNL A   1      42.656  21.323  27.740  1.00  0.00     0.020 A 
ATOM     83  C   UNL A   1      42.643  20.818  26.438  1.00  0.00     0.054 A 
BRANCH  83  84
ATOM     84  S   UNL A   1      42.180  19.091  26.128  1.00  0.00     0.124 S 
ATOM     85  O   UNL A   1      42.503  18.457  27.403  1.00  0.00    -0.237 OA
ATOM     86  O   UNL A   1      40.757  19.198  25.816  1.00  0.00    -0.237 OA
ATOM     87  O   UNL A   1      43.030  18.708  25.003  1.00  0.00    -0.744 OA
ENDBRANCH  83  84
ENDBRANCH  55  78
BRANCH  67  88
ATOM     88  C   UNL A   1      49.576  26.748  26.353  1.00  0.00    -0.014 A 
ATOM     89  C   UNL A   1      50.421  26.175  27.320  1.00  0.00     0.010 A 
ATOM     90  C   UNL A   1      50.009  26.815  25.016  1.00  0.00     0.010 A 
ATOM     91  C   UNL A   1      51.687  25.706  26.960  1.00  0.00     0.020 A 
ATOM     92  C   UNL A   1      51.263  26.321  24.648  1.00  0.00     0.020 A 
ATOM     93  C   UNL A   1      52.101  25.782  25.626  1.00  0.00     0.054 A 
BRANCH  93  94
ATOM     94  S   UNL A   1      53.730  25.120  25.178  1.00  0.00     0.124 S 
ATOM     95  O   UNL A   1      54.563  25.597  26.277  1.00  0.00    -0.237 OA
ATOM     96  O   UNL A   1      53.493  23.680  25.145  1.00  0.00    -0.237 OA
ATOM     97  O   UNL A   1      54.004  25.729  23.878  1.00  0.00    -0.744 OA
ENDBRANCH  93  94
ENDBRANCH  67  88
ENDBRANCH  41  42
ENDBRANCH  34  36
ENDBRANCH  33  34
ENDBRANCH  32  33
ENDBRANCH  31  32
ENDBRANCH  30  31
ENDBRANCH   1  30
TORSDOF 22
ENDMDL
