MODEL 1
REMARK VINA RESULT:     -10.8      0.000      0.000
REMARK SMILES O=C(OCCOCCOC(=O)c1ccc(-c2c3nc(c(-c4ccc(S(=O)(=O)[O-])cc4)c4ccc([nH]4)c(-c4ccc(S(=O)(=O)[O-])cc4)c4nc(c(-c5ccc(S(=O)(=O)[O-])cc5)c5ccc2[nH]5)C=C4)C=C3)cc1)C1=Cc2c(ccc(Cl)c2Cl)O[C@H]1C(F)(F)F
REMARK SMILES IDX 7 1 6 2 5 3 4 4 3 5 2 6 1 7 72 8 73 9 83 10 74 11 82 12
REMARK SMILES IDX 75 13 80 14 76 15 78 16 81 17 77 18 79 19 84 20 85 21 86 22
REMARK SMILES IDX 87 23 8 24 9 25 10 26 11 27 12 28 13 29 71 30 14 31 70 32
REMARK SMILES IDX 15 33 16 34 17 35 64 36 18 37 69 38 63 39 65 40 19 41 68 42
REMARK SMILES IDX 62 43 61 44 20 46 50 47 31 48 49 49 32 50 35 51 48 52 66 53
REMARK SMILES IDX 33 54 34 55 47 57 67 58 36 59 21 60 22 61 30 62 23 63 29 64
REMARK SMILES IDX 24 65 25 66 26 67 27 68 28 69 51 70 52 71 60 72 53 73 59 74
REMARK SMILES IDX 54 75 55 76 56 77 57 78 58 79 37 80 38 81 46 82 39 83 45 84
REMARK SMILES IDX 40 85 41 86 42 87 43 88 44 89
REMARK H PARENT 65 45 35 56
REMARK Flexibility Score: inf
ROOT
ATOM      1  C   UNL A   1      32.041  30.327  25.764  1.00  0.00     0.202 C 
ENDROOT
BRANCH   1   2
ATOM      2  O   UNL A   1      33.130  29.830  24.994  1.00  0.00    -0.374 OA
BRANCH   2   3
ATOM      3  C   UNL A   1      32.799  28.674  24.223  1.00  0.00     0.202 C 
BRANCH   3   4
ATOM      4  C   UNL A   1      33.753  27.513  24.513  1.00  0.00     0.261 C 
BRANCH   4   5
ATOM      5  O   UNL A   1      33.535  26.916  25.807  1.00  0.00    -0.460 OA
BRANCH   5   6
ATOM      6  C   UNL A   1      32.398  26.348  26.268  1.00  0.00     0.338 C 
ATOM      7  O   UNL A   1      31.709  26.961  27.084  1.00  0.00    -0.246 OA
BRANCH   6   8
ATOM      8  C   UNL A   1      31.829  25.122  25.656  1.00  0.00     0.087 C 
ATOM      9  C   UNL A   1      31.872  23.885  26.154  1.00  0.00     0.029 C 
ATOM     10  C   UNL A   1      31.110  25.342  24.342  1.00  0.00     0.316 C 
ATOM     11  C   UNL A   1      32.079  22.814  25.199  1.00  0.00     0.037 A 
ATOM     12  O   UNL A   1      30.826  24.116  23.588  1.00  0.00    -0.475 OA
ATOM     13  C   UNL A   1      31.536  22.996  23.930  1.00  0.00     0.129 A 
ATOM     14  C   UNL A   1      32.905  21.700  25.463  1.00  0.00     0.070 A 
ATOM     15  C   UNL A   1      31.717  22.023  22.953  1.00  0.00     0.049 A 
ATOM     16  C   UNL A   1      33.105  20.737  24.471  1.00  0.00     0.060 A 
ATOM     17  Cl  UNL A   1      33.771  21.575  26.961  1.00  0.00    -0.082 Cl
ATOM     18  C   UNL A   1      32.499  20.896  23.223  1.00  0.00     0.026 A 
ATOM     19  Cl  UNL A   1      34.101  19.345  24.712  1.00  0.00    -0.083 Cl
BRANCH  10  20
ATOM     20  C   UNL A   1      29.776  26.117  24.570  1.00  0.00     0.430 C 
ATOM     21  F   UNL A   1      29.173  25.832  25.750  1.00  0.00    -0.167 F 
ATOM     22  F   UNL A   1      29.974  27.458  24.530  1.00  0.00    -0.167 F 
ATOM     23  F   UNL A   1      28.856  25.835  23.611  1.00  0.00    -0.167 F 
ENDBRANCH  10  20
ENDBRANCH   6   8
ENDBRANCH   5   6
ENDBRANCH   4   5
ENDBRANCH   3   4
ENDBRANCH   2   3
ENDBRANCH   1   2
BRANCH   1  24
ATOM     24  C   UNL A   1      32.437  30.708  27.193  1.00  0.00     0.261 C 
BRANCH  24  25
ATOM     25  O   UNL A   1      33.702  30.131  27.566  1.00  0.00    -0.460 OA
BRANCH  25  26
ATOM     26  C   UNL A   1      34.534  30.921  28.291  1.00  0.00     0.338 C 
ATOM     27  O   UNL A   1      34.239  31.981  28.828  1.00  0.00    -0.246 OA
BRANCH  26  28
ATOM     28  C   UNL A   1      35.869  30.276  28.449  1.00  0.00     0.060 A 
ATOM     29  C   UNL A   1      36.227  29.769  29.709  1.00  0.00     0.016 A 
ATOM     30  C   UNL A   1      36.762  30.141  27.380  1.00  0.00     0.016 A 
ATOM     31  C   UNL A   1      37.465  29.141  29.901  1.00  0.00     0.010 A 
ATOM     32  C   UNL A   1      38.000  29.518  27.572  1.00  0.00     0.010 A 
ATOM     33  C   UNL A   1      38.370  29.034  28.838  1.00  0.00    -0.014 A 
BRANCH  33  34
ATOM     34  C   UNL A   1      39.786  28.647  29.070  1.00  0.00     0.031 A 
ATOM     35  C   UNL A   1      40.714  29.703  29.612  1.00  0.00     0.074 A 
ATOM     36  C   UNL A   1      40.269  27.429  28.759  1.00  0.00     0.049 A 
ATOM     37  N   UNL A   1      42.004  29.655  29.811  1.00  0.00    -0.248 NA
ATOM     38  C   UNL A   1      40.094  30.992  29.961  1.00  0.00     0.031 C 
ATOM     39  C   UNL A   1      39.483  26.304  28.258  1.00  0.00     0.029 A 
ATOM     40  N   UNL A   1      41.555  26.945  28.810  1.00  0.00    -0.354 N 
ATOM     41  C   UNL A   1      42.353  30.907  30.303  1.00  0.00     0.074 A 
ATOM     42  C   UNL A   1      41.144  31.701  30.341  1.00  0.00     0.031 C 
ATOM     43  C   UNL A   1      40.309  25.264  28.033  1.00  0.00     0.029 A 
ATOM     44  C   UNL A   1      41.684  25.656  28.343  1.00  0.00     0.049 A 
ATOM     45  H   UNL A   1      42.315  27.471  29.148  1.00  0.00     0.167 HD
ATOM     46  C   UNL A   1      43.568  31.363  30.689  1.00  0.00     0.031 A 
ATOM     47  C   UNL A   1      42.784  24.893  28.169  1.00  0.00     0.031 A 
ATOM     48  C   UNL A   1      44.781  30.598  30.606  1.00  0.00     0.049 A 
ATOM     49  C   UNL A   1      44.144  25.449  28.528  1.00  0.00     0.074 A 
ATOM     50  C   UNL A   1      46.061  30.975  30.969  1.00  0.00     0.029 A 
ATOM     51  N   UNL A   1      44.869  29.306  30.111  1.00  0.00    -0.354 N 
ATOM     52  N   UNL A   1      44.453  26.622  29.027  1.00  0.00    -0.248 NA
ATOM     53  C   UNL A   1      45.305  24.573  28.301  1.00  0.00     0.031 C 
ATOM     54  C   UNL A   1      46.934  29.936  30.632  1.00  0.00     0.029 A 
ATOM     55  C   UNL A   1      46.186  28.881  30.131  1.00  0.00     0.049 A 
ATOM     56  H   UNL A   1      44.107  28.770  29.791  1.00  0.00     0.167 HD
ATOM     57  C   UNL A   1      45.835  26.609  29.210  1.00  0.00     0.074 A 
ATOM     58  C   UNL A   1      46.301  25.311  28.772  1.00  0.00     0.031 C 
ATOM     59  C   UNL A   1      46.642  27.583  29.702  1.00  0.00     0.031 A 
BRANCH  46  60
ATOM     60  C   UNL A   1      43.637  32.782  31.187  1.00  0.00    -0.014 A 
ATOM     61  C   UNL A   1      43.801  33.857  30.296  1.00  0.00     0.010 A 
ATOM     62  C   UNL A   1      43.544  33.041  32.566  1.00  0.00     0.010 A 
ATOM     63  C   UNL A   1      43.928  35.161  30.780  1.00  0.00     0.020 A 
ATOM     64  C   UNL A   1      43.636  34.347  33.052  1.00  0.00     0.020 A 
ATOM     65  C   UNL A   1      43.851  35.397  32.156  1.00  0.00     0.054 A 
BRANCH  65  66
ATOM     66  S   UNL A   1      44.024  37.098  32.756  1.00  0.00     0.124 S 
ATOM     67  O   UNL A   1      43.952  37.864  31.514  1.00  0.00    -0.237 OA
ATOM     68  O   UNL A   1      42.877  37.241  33.649  1.00  0.00    -0.237 OA
ATOM     69  O   UNL A   1      45.328  37.104  33.415  1.00  0.00    -0.744 OA
ENDBRANCH  65  66
ENDBRANCH  46  60
BRANCH  47  70
ATOM     70  C   UNL A   1      42.662  23.511  27.616  1.00  0.00    -0.014 A 
ATOM     71  C   UNL A   1      42.286  22.437  28.443  1.00  0.00     0.010 A 
ATOM     72  C   UNL A   1      42.946  23.257  26.261  1.00  0.00     0.010 A 
ATOM     73  C   UNL A   1      42.207  21.137  27.931  1.00  0.00     0.020 A 
ATOM     74  C   UNL A   1      42.840  21.963  25.739  1.00  0.00     0.020 A 
ATOM     75  C   UNL A   1      42.479  20.909  26.580  1.00  0.00     0.054 A 
BRANCH  75  76
ATOM     76  S   UNL A   1      42.310  19.224  25.924  1.00  0.00     0.124 S 
ATOM     77  O   UNL A   1      40.872  19.128  25.692  1.00  0.00    -0.237 OA
ATOM     78  O   UNL A   1      43.143  19.269  24.725  1.00  0.00    -0.237 OA
ATOM     79  O   UNL A   1      42.828  18.385  27.002  1.00  0.00    -0.744 OA
ENDBRANCH  75  76
ENDBRANCH  47  70
BRANCH  59  80
ATOM     80  C   UNL A   1      48.113  27.280  29.852  1.00  0.00    -0.014 A 
ATOM     81  C   UNL A   1      49.054  27.683  28.888  1.00  0.00     0.010 A 
ATOM     82  C   UNL A   1      48.569  26.656  31.030  1.00  0.00     0.010 A 
ATOM     83  C   UNL A   1      50.419  27.446  29.089  1.00  0.00     0.020 A 
ATOM     84  C   UNL A   1      49.933  26.445  31.248  1.00  0.00     0.020 A 
ATOM     85  C   UNL A   1      50.849  26.832  30.269  1.00  0.00     0.054 A 
BRANCH  85  86
ATOM     86  S   UNL A   1      52.629  26.589  30.532  1.00  0.00     0.124 S 
ATOM     87  O   UNL A   1      53.044  27.899  31.028  1.00  0.00    -0.237 OA
ATOM     88  O   UNL A   1      52.663  25.505  31.512  1.00  0.00    -0.237 OA
ATOM     89  O   UNL A   1      53.132  26.239  29.206  1.00  0.00    -0.744 OA
ENDBRANCH  85  86
ENDBRANCH  59  80
ENDBRANCH  33  34
ENDBRANCH  26  28
ENDBRANCH  25  26
ENDBRANCH  24  25
ENDBRANCH   1  24
TORSDOF 18
ENDMDL
MODEL 2
REMARK VINA RESULT:     -10.2      3.568      8.080
REMARK SMILES O=C(OCCOCCOC(=O)c1ccc(-c2c3nc(c(-c4ccc(S(=O)(=O)[O-])cc4)c4ccc([nH]4)c(-c4ccc(S(=O)(=O)[O-])cc4)c4nc(c(-c5ccc(S(=O)(=O)[O-])cc5)c5ccc2[nH]5)C=C4)C=C3)cc1)C1=Cc2c(ccc(Cl)c2Cl)O[C@H]1C(F)(F)F
REMARK SMILES IDX 7 1 6 2 5 3 4 4 3 5 2 6 1 7 72 8 73 9 83 10 74 11 82 12
REMARK SMILES IDX 75 13 80 14 76 15 78 16 81 17 77 18 79 19 84 20 85 21 86 22
REMARK SMILES IDX 87 23 8 24 9 25 10 26 11 27 12 28 13 29 71 30 14 31 70 32
REMARK SMILES IDX 15 33 16 34 17 35 64 36 18 37 69 38 63 39 65 40 19 41 68 42
REMARK SMILES IDX 62 43 61 44 20 46 50 47 31 48 49 49 32 50 35 51 48 52 66 53
REMARK SMILES IDX 33 54 34 55 47 57 67 58 36 59 21 60 22 61 30 62 23 63 29 64
REMARK SMILES IDX 24 65 25 66 26 67 27 68 28 69 51 70 52 71 60 72 53 73 59 74
REMARK SMILES IDX 54 75 55 76 56 77 57 78 58 79 37 80 38 81 46 82 39 83 45 84
REMARK SMILES IDX 40 85 41 86 42 87 43 88 44 89
REMARK H PARENT 65 45 35 56
REMARK Flexibility Score: inf
ROOT
ATOM      1  C   UNL A   1      37.767  20.571  24.998  1.00  0.00     0.202 C 
ENDROOT
BRANCH   1   2
ATOM      2  O   UNL A   1      36.624  21.362  24.689  1.00  0.00    -0.374 OA
BRANCH   2   3
ATOM      3  C   UNL A   1      36.349  22.368  25.665  1.00  0.00     0.202 C 
BRANCH   3   4
ATOM      4  C   UNL A   1      35.036  22.094  26.401  1.00  0.00     0.261 C 
BRANCH   4   5
ATOM      5  O   UNL A   1      33.895  22.059  25.520  1.00  0.00    -0.460 OA
BRANCH   5   6
ATOM      6  C   UNL A   1      32.882  22.953  25.454  1.00  0.00     0.338 C 
ATOM      7  O   UNL A   1      31.965  22.883  26.272  1.00  0.00    -0.246 OA
BRANCH   6   8
ATOM      8  C   UNL A   1      32.950  24.153  24.585  1.00  0.00     0.087 C 
ATOM      9  C   UNL A   1      33.483  25.336  24.895  1.00  0.00     0.029 C 
ATOM     10  C   UNL A   1      32.364  23.971  23.200  1.00  0.00     0.316 C 
ATOM     11  C   UNL A   1      32.779  26.507  24.408  1.00  0.00     0.037 A 
ATOM     12  O   UNL A   1      32.145  25.218  22.460  1.00  0.00    -0.475 OA
ATOM     13  C   UNL A   1      32.123  26.379  23.187  1.00  0.00     0.129 A 
ATOM     14  C   UNL A   1      32.625  27.682  25.175  1.00  0.00     0.070 A 
ATOM     15  C   UNL A   1      31.406  27.451  22.670  1.00  0.00     0.049 A 
ATOM     16  C   UNL A   1      31.881  28.748  24.663  1.00  0.00     0.060 A 
ATOM     17  Cl  UNL A   1      33.244  27.772  26.793  1.00  0.00    -0.082 Cl
ATOM     18  C   UNL A   1      31.285  28.633  23.406  1.00  0.00     0.026 A 
ATOM     19  Cl  UNL A   1      31.643  30.221  25.537  1.00  0.00    -0.083 Cl
BRANCH  10  20
ATOM     20  C   UNL A   1      33.263  23.026  22.346  1.00  0.00     0.430 C 
ATOM     21  F   UNL A   1      33.280  23.332  21.026  1.00  0.00    -0.167 F 
ATOM     22  F   UNL A   1      34.548  23.042  22.781  1.00  0.00    -0.167 F 
ATOM     23  F   UNL A   1      32.850  21.733  22.417  1.00  0.00    -0.167 F 
ENDBRANCH  10  20
ENDBRANCH   6   8
ENDBRANCH   5   6
ENDBRANCH   4   5
ENDBRANCH   3   4
ENDBRANCH   2   3
ENDBRANCH   1   2
BRANCH   1  24
ATOM     24  C   UNL A   1      38.851  21.347  25.752  1.00  0.00     0.261 C 
BRANCH  24  25
ATOM     25  O   UNL A   1      39.594  20.492  26.641  1.00  0.00    -0.460 OA
BRANCH  25  26
ATOM     26  C   UNL A   1      40.870  20.207  26.276  1.00  0.00     0.338 C 
ATOM     27  O   UNL A   1      41.258  19.170  25.751  1.00  0.00    -0.246 OA
BRANCH  26  28
ATOM     28  C   UNL A   1      41.759  21.382  26.504  1.00  0.00     0.060 A 
ATOM     29  C   UNL A   1      42.116  21.711  27.821  1.00  0.00     0.016 A 
ATOM     30  C   UNL A   1      42.265  22.149  25.448  1.00  0.00     0.016 A 
ATOM     31  C   UNL A   1      42.961  22.797  28.084  1.00  0.00     0.010 A 
ATOM     32  C   UNL A   1      43.106  23.237  25.709  1.00  0.00     0.010 A 
ATOM     33  C   UNL A   1      43.443  23.582  27.028  1.00  0.00    -0.014 A 
BRANCH  33  34
ATOM     34  C   UNL A   1      44.089  24.896  27.280  1.00  0.00     0.031 A 
ATOM     35  C   UNL A   1      43.200  26.040  27.694  1.00  0.00     0.074 A 
ATOM     36  C   UNL A   1      45.406  25.107  27.095  1.00  0.00     0.049 A 
ATOM     37  N   UNL A   1      43.494  27.298  27.879  1.00  0.00    -0.248 NA
ATOM     38  C   UNL A   1      41.781  25.710  27.912  1.00  0.00     0.031 C 
ATOM     39  C   UNL A   1      46.389  24.090  26.727  1.00  0.00     0.029 A 
ATOM     40  N   UNL A   1      46.139  26.268  27.179  1.00  0.00    -0.354 N 
ATOM     41  C   UNL A   1      42.299  27.915  28.230  1.00  0.00     0.074 A 
ATOM     42  C   UNL A   1      41.271  26.896  28.200  1.00  0.00     0.031 C 
ATOM     43  C   UNL A   1      47.595  24.676  26.604  1.00  0.00     0.029 A 
ATOM     44  C   UNL A   1      47.467  26.113  26.851  1.00  0.00     0.049 A 
ATOM     45  H   UNL A   1      45.751  27.131  27.449  1.00  0.00     0.167 HD
ATOM     46  C   UNL A   1      42.068  29.209  28.549  1.00  0.00     0.031 A 
ATOM     47  C   UNL A   1      48.456  27.026  26.744  1.00  0.00     0.031 A 
ATOM     48  C   UNL A   1      43.073  30.236  28.531  1.00  0.00     0.049 A 
ATOM     49  C   UNL A   1      48.161  28.483  27.023  1.00  0.00     0.074 A 
ATOM     50  C   UNL A   1      42.935  31.579  28.834  1.00  0.00     0.029 A 
ATOM     51  N   UNL A   1      44.399  30.039  28.176  1.00  0.00    -0.354 N 
ATOM     52  N   UNL A   1      47.033  29.043  27.391  1.00  0.00    -0.248 NA
ATOM     53  C   UNL A   1      49.277  29.431  26.876  1.00  0.00     0.031 C 
ATOM     54  C   UNL A   1      44.161  32.207  28.598  1.00  0.00     0.029 A 
ATOM     55  C   UNL A   1      45.084  31.241  28.223  1.00  0.00     0.049 A 
ATOM     56  H   UNL A   1      44.794  29.173  27.925  1.00  0.00     0.167 HD
ATOM     57  C   UNL A   1      47.315  30.399  27.554  1.00  0.00     0.074 A 
ATOM     58  C   UNL A   1      48.719  30.574  27.251  1.00  0.00     0.031 C 
ATOM     59  C   UNL A   1      46.485  31.406  27.929  1.00  0.00     0.031 A 
BRANCH  46  60
ATOM     60  C   UNL A   1      40.652  29.586  28.892  1.00  0.00    -0.014 A 
ATOM     61  C   UNL A   1      40.302  29.992  30.192  1.00  0.00     0.010 A 
ATOM     62  C   UNL A   1      39.656  29.525  27.901  1.00  0.00     0.010 A 
ATOM     63  C   UNL A   1      38.972  30.276  30.509  1.00  0.00     0.020 A 
ATOM     64  C   UNL A   1      38.330  29.840  28.205  1.00  0.00     0.020 A 
ATOM     65  C   UNL A   1      37.993  30.192  29.514  1.00  0.00     0.054 A 
BRANCH  65  66
ATOM     66  S   UNL A   1      36.274  30.560  29.954  1.00  0.00     0.124 S 
ATOM     67  O   UNL A   1      36.360  31.963  30.352  1.00  0.00    -0.237 OA
ATOM     68  O   UNL A   1      35.562  30.306  28.705  1.00  0.00    -0.237 OA
ATOM     69  O   UNL A   1      35.983  29.624  31.036  1.00  0.00    -0.744 OA
ENDBRANCH  65  66
ENDBRANCH  46  60
BRANCH  47  70
ATOM     70  C   UNL A   1      49.831  26.604  26.344  1.00  0.00    -0.014 A 
ATOM     71  C   UNL A   1      50.252  26.703  25.006  1.00  0.00     0.010 A 
ATOM     72  C   UNL A   1      50.722  26.077  27.298  1.00  0.00     0.010 A 
ATOM     73  C   UNL A   1      51.529  26.274  24.626  1.00  0.00     0.020 A 
ATOM     74  C   UNL A   1      52.010  25.674  26.928  1.00  0.00     0.020 A 
ATOM     75  C   UNL A   1      52.403  25.767  25.592  1.00  0.00     0.054 A 
BRANCH  75  76
ATOM     76  S   UNL A   1      54.076  25.274  25.086  1.00  0.00     0.124 S 
ATOM     77  O   UNL A   1      54.890  25.781  26.187  1.00  0.00    -0.237 OA
ATOM     78  O   UNL A   1      53.962  23.820  25.000  1.00  0.00    -0.237 OA
ATOM     79  O   UNL A   1      54.260  25.953  23.806  1.00  0.00    -0.744 OA
ENDBRANCH  75  76
ENDBRANCH  47  70
BRANCH  59  80
ATOM     80  C   UNL A   1      47.070  32.788  28.090  1.00  0.00    -0.014 A 
ATOM     81  C   UNL A   1      47.707  33.187  29.278  1.00  0.00     0.010 A 
ATOM     82  C   UNL A   1      47.058  33.671  26.994  1.00  0.00     0.010 A 
ATOM     83  C   UNL A   1      48.299  34.452  29.373  1.00  0.00     0.020 A 
ATOM     84  C   UNL A   1      47.674  34.923  27.074  1.00  0.00     0.020 A 
ATOM     85  C   UNL A   1      48.282  35.310  28.269  1.00  0.00     0.054 A 
BRANCH  85  86
ATOM     86  S   UNL A   1      49.108  36.921  28.399  1.00  0.00     0.124 S 
ATOM     87  O   UNL A   1      50.495  36.576  28.100  1.00  0.00    -0.237 OA
ATOM     88  O   UNL A   1      48.423  37.714  27.380  1.00  0.00    -0.237 OA
ATOM     89  O   UNL A   1      48.852  37.334  29.777  1.00  0.00    -0.744 OA
ENDBRANCH  85  86
ENDBRANCH  59  80
ENDBRANCH  33  34
ENDBRANCH  26  28
ENDBRANCH  25  26
ENDBRANCH  24  25
ENDBRANCH   1  24
TORSDOF 18
ENDMDL
MODEL 3
REMARK VINA RESULT:     -10.2      2.990      3.579
REMARK SMILES O=C(OCCOCCOC(=O)c1ccc(-c2c3nc(c(-c4ccc(S(=O)(=O)[O-])cc4)c4ccc([nH]4)c(-c4ccc(S(=O)(=O)[O-])cc4)c4nc(c(-c5ccc(S(=O)(=O)[O-])cc5)c5ccc2[nH]5)C=C4)C=C3)cc1)C1=Cc2c(ccc(Cl)c2Cl)O[C@H]1C(F)(F)F
REMARK SMILES IDX 7 1 6 2 5 3 4 4 3 5 2 6 1 7 72 8 73 9 83 10 74 11 82 12
REMARK SMILES IDX 75 13 80 14 76 15 78 16 81 17 77 18 79 19 84 20 85 21 86 22
REMARK SMILES IDX 87 23 8 24 9 25 10 26 11 27 12 28 13 29 71 30 14 31 70 32
REMARK SMILES IDX 15 33 16 34 17 35 64 36 18 37 69 38 63 39 65 40 19 41 68 42
REMARK SMILES IDX 62 43 61 44 20 46 50 47 31 48 49 49 32 50 35 51 48 52 66 53
REMARK SMILES IDX 33 54 34 55 47 57 67 58 36 59 21 60 22 61 30 62 23 63 29 64
REMARK SMILES IDX 24 65 25 66 26 67 27 68 28 69 51 70 52 71 60 72 53 73 59 74
REMARK SMILES IDX 54 75 55 76 56 77 57 78 58 79 37 80 38 81 46 82 39 83 45 84
REMARK SMILES IDX 40 85 41 86 42 87 43 88 44 89
REMARK H PARENT 65 45 35 56
REMARK Flexibility Score: inf
ROOT
ATOM      1  C   UNL A   1      31.777  30.315  26.135  1.00  0.00     0.202 C 
ENDROOT
BRANCH   1   2
ATOM      2  O   UNL A   1      31.471  29.693  24.892  1.00  0.00    -0.374 OA
BRANCH   2   3
ATOM      3  C   UNL A   1      31.913  28.337  24.813  1.00  0.00     0.202 C 
BRANCH   3   4
ATOM      4  C   UNL A   1      32.849  28.119  23.621  1.00  0.00     0.261 C 
BRANCH   4   5
ATOM      5  O   UNL A   1      33.798  27.056  23.839  1.00  0.00    -0.460 OA
BRANCH   5   6
ATOM      6  C   UNL A   1      33.801  25.829  23.270  1.00  0.00     0.338 C 
ATOM      7  O   UNL A   1      33.876  25.736  22.045  1.00  0.00    -0.246 OA
BRANCH   6   8
ATOM      8  C   UNL A   1      33.955  24.592  24.074  1.00  0.00     0.087 C 
ATOM      9  C   UNL A   1      34.818  24.388  25.070  1.00  0.00     0.029 C 
ATOM     10  C   UNL A   1      33.000  23.474  23.712  1.00  0.00     0.316 C 
ATOM     11  C   UNL A   1      35.420  23.070  25.141  1.00  0.00     0.037 A 
ATOM     12  O   UNL A   1      33.349  22.166  24.275  1.00  0.00    -0.475 OA
ATOM     13  C   UNL A   1      34.633  22.001  24.721  1.00  0.00     0.129 A 
ATOM     14  C   UNL A   1      36.776  22.864  25.476  1.00  0.00     0.070 A 
ATOM     15  C   UNL A   1      35.151  20.712  24.736  1.00  0.00     0.049 A 
ATOM     16  C   UNL A   1      37.300  21.569  25.466  1.00  0.00     0.060 A 
ATOM     17  Cl  UNL A   1      37.827  24.208  25.782  1.00  0.00    -0.082 Cl
ATOM     18  C   UNL A   1      36.482  20.496  25.107  1.00  0.00     0.026 A 
ATOM     19  Cl  UNL A   1      38.949  21.229  25.861  1.00  0.00    -0.083 Cl
BRANCH  10  20
ATOM     20  C   UNL A   1      31.545  23.838  24.139  1.00  0.00     0.430 C 
ATOM     21  F   UNL A   1      31.449  25.014  24.807  1.00  0.00    -0.167 F 
ATOM     22  F   UNL A   1      30.721  23.915  23.064  1.00  0.00    -0.167 F 
ATOM     23  F   UNL A   1      31.011  22.902  24.966  1.00  0.00    -0.167 F 
ENDBRANCH  10  20
ENDBRANCH   6   8
ENDBRANCH   5   6
ENDBRANCH   4   5
ENDBRANCH   3   4
ENDBRANCH   2   3
ENDBRANCH   1   2
BRANCH   1  24
ATOM     24  C   UNL A   1      33.255  30.205  26.518  1.00  0.00     0.261 C 
BRANCH  24  25
ATOM     25  O   UNL A   1      33.512  30.775  27.814  1.00  0.00    -0.460 OA
BRANCH  25  26
ATOM     26  C   UNL A   1      34.529  31.673  27.887  1.00  0.00     0.338 C 
ATOM     27  O   UNL A   1      34.442  32.880  27.699  1.00  0.00    -0.246 OA
BRANCH  26  28
ATOM     28  C   UNL A   1      35.786  31.010  28.335  1.00  0.00     0.060 A 
ATOM     29  C   UNL A   1      35.695  29.892  29.179  1.00  0.00     0.016 A 
ATOM     30  C   UNL A   1      37.049  31.452  27.923  1.00  0.00     0.016 A 
ATOM     31  C   UNL A   1      36.849  29.227  29.613  1.00  0.00     0.010 A 
ATOM     32  C   UNL A   1      38.203  30.792  28.359  1.00  0.00     0.010 A 
ATOM     33  C   UNL A   1      38.113  29.689  29.224  1.00  0.00    -0.014 A 
BRANCH  33  34
ATOM     34  C   UNL A   1      39.349  29.200  29.890  1.00  0.00     0.031 A 
ATOM     35  C   UNL A   1      39.837  29.965  31.093  1.00  0.00     0.074 A 
ATOM     36  C   UNL A   1      40.062  28.157  29.426  1.00  0.00     0.049 A 
ATOM     37  N   UNL A   1      40.930  29.808  31.791  1.00  0.00    -0.248 NA
ATOM     38  C   UNL A   1      38.974  31.064  31.556  1.00  0.00     0.031 C 
ATOM     39  C   UNL A   1      39.694  27.309  28.295  1.00  0.00     0.029 A 
ATOM     40  N   UNL A   1      41.266  27.646  29.852  1.00  0.00    -0.354 N 
ATOM     41  C   UNL A   1      40.891  30.792  32.772  1.00  0.00     0.074 A 
ATOM     42  C   UNL A   1      39.683  31.558  32.558  1.00  0.00     0.031 C 
ATOM     43  C   UNL A   1      40.662  26.391  28.108  1.00  0.00     0.029 A 
ATOM     44  C   UNL A   1      41.732  26.604  29.083  1.00  0.00     0.049 A 
ATOM     45  H   UNL A   1      41.752  27.994  30.635  1.00  0.00     0.167 HD
ATOM     46  C   UNL A   1      41.776  31.042  33.765  1.00  0.00     0.031 A 
ATOM     47  C   UNL A   1      42.893  25.918  29.147  1.00  0.00     0.031 A 
ATOM     48  C   UNL A   1      43.003  30.318  33.953  1.00  0.00     0.049 A 
ATOM     49  C   UNL A   1      43.909  26.266  30.212  1.00  0.00     0.074 A 
ATOM     50  C   UNL A   1      43.968  30.501  34.927  1.00  0.00     0.029 A 
ATOM     51  N   UNL A   1      43.444  29.284  33.142  1.00  0.00    -0.354 N 
ATOM     52  N   UNL A   1      43.840  27.175  31.156  1.00  0.00    -0.248 NA
ATOM     53  C   UNL A   1      45.161  25.492  30.220  1.00  0.00     0.031 C 
ATOM     54  C   UNL A   1      45.023  29.623  34.666  1.00  0.00     0.029 A 
ATOM     55  C   UNL A   1      44.681  28.838  33.575  1.00  0.00     0.049 A 
ATOM     56  H   UNL A   1      42.951  28.921  32.370  1.00  0.00     0.167 HD
ATOM     57  C   UNL A   1      45.019  27.054  31.890  1.00  0.00     0.074 A 
ATOM     58  C   UNL A   1      45.780  25.982  31.286  1.00  0.00     0.031 C 
ATOM     59  C   UNL A   1      45.429  27.763  32.973  1.00  0.00     0.031 A 
BRANCH  46  60
ATOM     60  C   UNL A   1      41.461  32.188  34.688  1.00  0.00    -0.014 A 
ATOM     61  C   UNL A   1      40.613  32.016  35.797  1.00  0.00     0.010 A 
ATOM     62  C   UNL A   1      42.014  33.456  34.437  1.00  0.00     0.010 A 
ATOM     63  C   UNL A   1      40.280  33.105  36.606  1.00  0.00     0.020 A 
ATOM     64  C   UNL A   1      41.710  34.541  35.263  1.00  0.00     0.020 A 
ATOM     65  C   UNL A   1      40.826  34.362  36.329  1.00  0.00     0.054 A 
BRANCH  65  66
ATOM     66  S   UNL A   1      40.372  35.758  37.392  1.00  0.00     0.124 S 
ATOM     67  O   UNL A   1      39.633  36.613  36.465  1.00  0.00    -0.237 OA
ATOM     68  O   UNL A   1      39.569  35.120  38.432  1.00  0.00    -0.237 OA
ATOM     69  O   UNL A   1      41.657  36.289  37.837  1.00  0.00    -0.744 OA
ENDBRANCH  65  66
ENDBRANCH  46  60
BRANCH  47  70
ATOM     70  C   UNL A   1      43.179  24.827  28.168  1.00  0.00    -0.014 A 
ATOM     71  C   UNL A   1      42.711  23.520  28.392  1.00  0.00     0.010 A 
ATOM     72  C   UNL A   1      43.943  25.085  27.014  1.00  0.00     0.010 A 
ATOM     73  C   UNL A   1      43.009  22.491  27.492  1.00  0.00     0.020 A 
ATOM     74  C   UNL A   1      44.219  24.066  26.097  1.00  0.00     0.020 A 
ATOM     75  C   UNL A   1      43.757  22.772  26.346  1.00  0.00     0.054 A 
BRANCH  75  76
ATOM     76  S   UNL A   1      44.081  21.434  25.160  1.00  0.00     0.124 S 
ATOM     77  O   UNL A   1      45.411  20.987  25.560  1.00  0.00    -0.237 OA
ATOM     78  O   UNL A   1      42.990  20.502  25.435  1.00  0.00    -0.237 OA
ATOM     79  O   UNL A   1      44.007  22.102  23.863  1.00  0.00    -0.744 OA
ENDBRANCH  75  76
ENDBRANCH  47  70
BRANCH  59  80
ATOM     80  C   UNL A   1      46.737  27.380  33.621  1.00  0.00    -0.014 A 
ATOM     81  C   UNL A   1      47.947  28.004  33.271  1.00  0.00     0.010 A 
ATOM     82  C   UNL A   1      46.734  26.438  34.667  1.00  0.00     0.010 A 
ATOM     83  C   UNL A   1      49.132  27.673  33.938  1.00  0.00     0.020 A 
ATOM     84  C   UNL A   1      47.909  26.127  35.357  1.00  0.00     0.020 A 
ATOM     85  C   UNL A   1      49.105  26.740  34.979  1.00  0.00     0.054 A 
BRANCH  85  86
ATOM     86  S   UNL A   1      50.645  26.373  35.868  1.00  0.00     0.124 S 
ATOM     87  O   UNL A   1      50.709  27.470  36.829  1.00  0.00    -0.237 OA
ATOM     88  O   UNL A   1      50.379  25.053  36.436  1.00  0.00    -0.237 OA
ATOM     89  O   UNL A   1      51.665  26.401  34.822  1.00  0.00    -0.744 OA
ENDBRANCH  85  86
ENDBRANCH  59  80
ENDBRANCH  33  34
ENDBRANCH  26  28
ENDBRANCH  25  26
ENDBRANCH  24  25
ENDBRANCH   1  24
TORSDOF 18
ENDMDL
