MODEL 1
REMARK VINA RESULT:      -9.0      0.000      0.000
REMARK SMILES Cc1cc(F)cc(/C=C/C(=O)OCCOCCOC(=O)c2ccc(-c3c4nc(c(-c5ccc(S(=O)(=O)[O-])cc5)c5ccc([nH]5)c(-c5ccc(S(=O)(=O)[O-])cc5)c5nc(c(-c6ccc(S(=O)(=O)[O-])cc6)c6ccc3[nH]6)C=C5)C=C4)cc2)c1
REMARK SMILES IDX 16 1 15 2 14 3 13 4 12 5 10 6 11 7 9 8 8 9 7 10 1 11 2 12
REMARK SMILES IDX 3 13 81 14 4 15 5 16 6 17 17 18 18 19 19 20 20 21 21 22
REMARK SMILES IDX 22 23 80 24 23 25 79 26 24 27 25 28 26 29 73 30 27 31 78 32
REMARK SMILES IDX 72 33 74 34 28 35 77 36 71 37 70 38 29 40 59 41 40 42 58 43
REMARK SMILES IDX 41 44 44 45 57 46 75 47 42 48 43 49 56 51 76 52 45 53 30 54
REMARK SMILES IDX 31 55 39 56 32 57 38 58 33 59 34 60 35 61 36 62 37 63 60 64
REMARK SMILES IDX 61 65 69 66 62 67 68 68 63 69 64 70 65 71 66 72 67 73 46 74
REMARK SMILES IDX 47 75 55 76 48 77 54 78 49 79 50 80 51 81 52 82 53 83
REMARK H PARENT 74 39 44 50
REMARK Flexibility Score: inf
ROOT
ATOM      1  C   UNL A   1      41.955  19.420  26.277  1.00  0.00     0.202 C 
ENDROOT
BRANCH   1   2
ATOM      2  O   UNL A   1      42.637  19.320  25.025  1.00  0.00    -0.374 OA
BRANCH   2   3
ATOM      3  C   UNL A   1      44.025  18.991  25.079  1.00  0.00     0.202 C 
BRANCH   3   4
ATOM      4  C   UNL A   1      44.984  20.093  24.625  1.00  0.00     0.261 C 
BRANCH   4   5
ATOM      5  O   UNL A   1      44.422  21.399  24.843  1.00  0.00    -0.460 OA
BRANCH   5   6
ATOM      6  C   UNL A   1      45.321  22.409  24.903  1.00  0.00     0.330 C 
ATOM      7  O   UNL A   1      46.067  22.777  24.007  1.00  0.00    -0.247 OA
BRANCH   6   8
ATOM      8  C   UNL A   1      45.275  23.133  26.189  1.00  0.00     0.094 C 
ATOM      9  C   UNL A   1      46.315  23.639  26.872  1.00  0.00     0.016 C 
BRANCH   9  10
ATOM     10  C   UNL A   1      46.150  24.324  28.169  1.00  0.00    -0.022 A 
ATOM     11  C   UNL A   1      47.993  26.950  30.257  1.00  0.00     0.044 C 
ATOM     12  C   UNL A   1      46.980  25.935  29.816  1.00  0.00    -0.048 A 
ATOM     13  C   UNL A   1      45.861  25.684  30.617  1.00  0.00     0.042 A 
ATOM     14  C   UNL A   1      47.117  25.249  28.594  1.00  0.00     0.011 A 
ATOM     15  C   UNL A   1      44.922  24.746  30.213  1.00  0.00     0.124 A 
ATOM     16  F   UNL A   1      43.859  24.500  30.990  1.00  0.00    -0.207 F 
ATOM     17  C   UNL A   1      45.061  24.060  29.011  1.00  0.00     0.047 A 
ENDBRANCH   9  10
ENDBRANCH   6   8
ENDBRANCH   5   6
ENDBRANCH   4   5
ENDBRANCH   3   4
ENDBRANCH   2   3
ENDBRANCH   1   2
BRANCH   1  18
ATOM     18  C   UNL A   1      40.535  20.000  26.221  1.00  0.00     0.261 C 
BRANCH  18  19
ATOM     19  O   UNL A   1      40.394  21.156  27.068  1.00  0.00    -0.460 OA
BRANCH  19  20
ATOM     20  C   UNL A   1      39.558  22.112  26.599  1.00  0.00     0.338 C 
ATOM     21  O   UNL A   1      38.534  21.942  25.951  1.00  0.00    -0.246 OA
BRANCH  20  22
ATOM     22  C   UNL A   1      39.949  23.430  27.135  1.00  0.00     0.060 A 
ATOM     23  C   UNL A   1      39.327  24.561  26.589  1.00  0.00     0.016 A 
ATOM     24  C   UNL A   1      40.942  23.568  28.107  1.00  0.00     0.016 A 
ATOM     25  C   UNL A   1      39.729  25.837  26.980  1.00  0.00     0.010 A 
ATOM     26  C   UNL A   1      41.350  24.851  28.493  1.00  0.00     0.010 A 
ATOM     27  C   UNL A   1      40.768  25.991  27.907  1.00  0.00    -0.014 A 
BRANCH  27  28
ATOM     28  C   UNL A   1      41.335  27.338  28.158  1.00  0.00     0.031 A 
ATOM     29  C   UNL A   1      42.743  27.634  27.716  1.00  0.00     0.074 A 
ATOM     30  C   UNL A   1      40.599  28.295  28.751  1.00  0.00     0.049 A 
ATOM     31  N   UNL A   1      43.439  28.732  27.852  1.00  0.00    -0.248 NA
ATOM     32  C   UNL A   1      43.459  26.547  27.029  1.00  0.00     0.031 C 
ATOM     33  C   UNL A   1      39.210  28.148  29.188  1.00  0.00     0.029 A 
ATOM     34  N   UNL A   1      40.922  29.586  29.089  1.00  0.00    -0.354 N 
ATOM     35  C   UNL A   1      44.677  28.468  27.278  1.00  0.00     0.074 A 
ATOM     36  C   UNL A   1      44.645  27.097  26.815  1.00  0.00     0.031 C 
ATOM     37  C   UNL A   1      38.802  29.303  29.741  1.00  0.00     0.029 A 
ATOM     38  C   UNL A   1      39.907  30.260  29.726  1.00  0.00     0.049 A 
ATOM     39  H   UNL A   1      41.797  29.991  28.894  1.00  0.00     0.167 HD
ATOM     40  C   UNL A   1      45.744  29.292  27.143  1.00  0.00     0.031 A 
ATOM     41  C   UNL A   1      39.877  31.501  30.253  1.00  0.00     0.031 A 
ATOM     42  C   UNL A   1      45.779  30.652  27.613  1.00  0.00     0.049 A 
ATOM     43  C   UNL A   1      41.099  32.375  30.154  1.00  0.00     0.074 A 
ATOM     44  C   UNL A   1      46.807  31.573  27.507  1.00  0.00     0.029 A 
ATOM     45  N   UNL A   1      44.745  31.284  28.286  1.00  0.00    -0.354 N 
ATOM     46  N   UNL A   1      42.253  32.119  29.585  1.00  0.00    -0.248 NA
ATOM     47  C   UNL A   1      41.011  33.712  30.761  1.00  0.00     0.031 C 
ATOM     48  C   UNL A   1      46.414  32.743  28.164  1.00  0.00     0.029 A 
ATOM     49  C   UNL A   1      45.120  32.572  28.627  1.00  0.00     0.049 A 
ATOM     50  H   UNL A   1      43.872  30.876  28.491  1.00  0.00     0.167 HD
ATOM     51  C   UNL A   1      43.019  33.270  29.742  1.00  0.00     0.074 A 
ATOM     52  C   UNL A   1      42.193  34.227  30.450  1.00  0.00     0.031 C 
ATOM     53  C   UNL A   1      44.289  33.514  29.333  1.00  0.00     0.031 A 
BRANCH  40  54
ATOM     54  C   UNL A   1      46.978  28.730  26.489  1.00  0.00    -0.014 A 
ATOM     55  C   UNL A   1      46.973  28.336  25.139  1.00  0.00     0.010 A 
ATOM     56  C   UNL A   1      48.170  28.625  27.228  1.00  0.00     0.010 A 
ATOM     57  C   UNL A   1      48.127  27.811  24.551  1.00  0.00     0.020 A 
ATOM     58  C   UNL A   1      49.333  28.125  26.637  1.00  0.00     0.020 A 
ATOM     59  C   UNL A   1      49.300  27.705  25.306  1.00  0.00     0.054 A 
BRANCH  59  60
ATOM     60  S   UNL A   1      50.789  27.035  24.516  1.00  0.00     0.124 S 
ATOM     61  O   UNL A   1      51.770  28.082  24.787  1.00  0.00    -0.237 OA
ATOM     62  O   UNL A   1      50.996  25.780  25.234  1.00  0.00    -0.237 OA
ATOM     63  O   UNL A   1      50.403  26.891  23.114  1.00  0.00    -0.744 OA
ENDBRANCH  59  60
ENDBRANCH  40  54
BRANCH  41  64
ATOM     64  C   UNL A   1      38.649  31.985  30.939  1.00  0.00    -0.014 A 
ATOM     65  C   UNL A   1      38.465  31.770  32.316  1.00  0.00     0.010 A 
ATOM     66  C   UNL A   1      37.656  32.670  30.215  1.00  0.00     0.010 A 
ATOM     67  C   UNL A   1      37.304  32.219  32.954  1.00  0.00     0.020 A 
ATOM     68  C   UNL A   1      36.507  33.144  30.854  1.00  0.00     0.020 A 
ATOM     69  C   UNL A   1      36.334  32.906  32.218  1.00  0.00     0.054 A 
BRANCH  69  70
ATOM     70  S   UNL A   1      34.862  33.531  33.077  1.00  0.00     0.124 S 
ATOM     71  O   UNL A   1      35.185  33.252  34.473  1.00  0.00    -0.237 OA
ATOM     72  O   UNL A   1      34.850  34.941  32.698  1.00  0.00    -0.237 OA
ATOM     73  O   UNL A   1      33.775  32.733  32.513  1.00  0.00    -0.744 OA
ENDBRANCH  69  70
ENDBRANCH  41  64
BRANCH  53  74
ATOM     74  C   UNL A   1      44.858  34.881  29.608  1.00  0.00    -0.014 A 
ATOM     75  C   UNL A   1      44.631  35.958  28.732  1.00  0.00     0.010 A 
ATOM     76  C   UNL A   1      45.584  35.103  30.793  1.00  0.00     0.010 A 
ATOM     77  C   UNL A   1      45.143  37.226  29.023  1.00  0.00     0.020 A 
ATOM     78  C   UNL A   1      46.076  36.374  31.100  1.00  0.00     0.020 A 
ATOM     79  C   UNL A   1      45.865  37.425  30.205  1.00  0.00     0.054 A 
BRANCH  79  80
ATOM     80  S   UNL A   1      46.483  39.089  30.582  1.00  0.00     0.124 S 
ATOM     81  O   UNL A   1      47.511  39.269  29.560  1.00  0.00    -0.237 OA
ATOM     82  O   UNL A   1      45.290  39.918  30.425  1.00  0.00    -0.237 OA
ATOM     83  O   UNL A   1      46.978  38.972  31.951  1.00  0.00    -0.744 OA
ENDBRANCH  79  80
ENDBRANCH  53  74
ENDBRANCH  27  28
ENDBRANCH  20  22
ENDBRANCH  19  20
ENDBRANCH  18  19
ENDBRANCH   1  18
TORSDOF 18
ENDMDL
MODEL 2
REMARK VINA RESULT:      -8.9      3.093      4.295
REMARK SMILES Cc1cc(F)cc(/C=C/C(=O)OCCOCCOC(=O)c2ccc(-c3c4nc(c(-c5ccc(S(=O)(=O)[O-])cc5)c5ccc([nH]5)c(-c5ccc(S(=O)(=O)[O-])cc5)c5nc(c(-c6ccc(S(=O)(=O)[O-])cc6)c6ccc3[nH]6)C=C5)C=C4)cc2)c1
REMARK SMILES IDX 16 1 15 2 14 3 13 4 12 5 10 6 11 7 9 8 8 9 7 10 1 11 2 12
REMARK SMILES IDX 3 13 81 14 4 15 5 16 6 17 17 18 18 19 19 20 20 21 21 22
REMARK SMILES IDX 22 23 80 24 23 25 79 26 24 27 25 28 26 29 73 30 27 31 78 32
REMARK SMILES IDX 72 33 74 34 28 35 77 36 71 37 70 38 29 40 59 41 40 42 58 43
REMARK SMILES IDX 41 44 44 45 57 46 75 47 42 48 43 49 56 51 76 52 45 53 30 54
REMARK SMILES IDX 31 55 39 56 32 57 38 58 33 59 34 60 35 61 36 62 37 63 60 64
REMARK SMILES IDX 61 65 69 66 62 67 68 68 63 69 64 70 65 71 66 72 67 73 46 74
REMARK SMILES IDX 47 75 55 76 48 77 54 78 49 79 50 80 51 81 52 82 53 83
REMARK H PARENT 74 39 44 50
REMARK Flexibility Score: inf
ROOT
ATOM      1  C   UNL A   1      41.028  21.475  27.212  1.00  0.00     0.202 C 
ENDROOT
BRANCH   1   2
ATOM      2  O   UNL A   1      42.315  22.081  27.086  1.00  0.00    -0.374 OA
BRANCH   2   3
ATOM      3  C   UNL A   1      42.774  22.336  25.758  1.00  0.00     0.202 C 
BRANCH   3   4
ATOM      4  C   UNL A   1      44.242  21.996  25.490  1.00  0.00     0.261 C 
BRANCH   4   5
ATOM      5  O   UNL A   1      45.113  23.049  25.938  1.00  0.00    -0.460 OA
BRANCH   5   6
ATOM      6  C   UNL A   1      45.419  23.980  25.005  1.00  0.00     0.330 C 
ATOM      7  O   UNL A   1      45.992  23.787  23.942  1.00  0.00    -0.247 OA
BRANCH   6   8
ATOM      8  C   UNL A   1      44.908  25.320  25.352  1.00  0.00     0.094 C 
ATOM      9  C   UNL A   1      45.437  26.188  26.230  1.00  0.00     0.016 C 
BRANCH   9  10
ATOM     10  C   UNL A   1      44.820  27.497  26.516  1.00  0.00    -0.022 A 
ATOM     11  C   UNL A   1      45.783  30.789  28.217  1.00  0.00     0.044 C 
ATOM     12  C   UNL A   1      44.996  29.735  27.495  1.00  0.00    -0.048 A 
ATOM     13  C   UNL A   1      43.699  30.023  27.056  1.00  0.00     0.042 A 
ATOM     14  C   UNL A   1      45.547  28.469  27.222  1.00  0.00     0.011 A 
ATOM     15  C   UNL A   1      42.968  29.051  26.388  1.00  0.00     0.124 A 
ATOM     16  F   UNL A   1      41.721  29.328  25.981  1.00  0.00    -0.207 F 
ATOM     17  C   UNL A   1      43.507  27.797  26.127  1.00  0.00     0.047 A 
ENDBRANCH   9  10
ENDBRANCH   6   8
ENDBRANCH   5   6
ENDBRANCH   4   5
ENDBRANCH   3   4
ENDBRANCH   2   3
ENDBRANCH   1   2
BRANCH   1  18
ATOM     18  C   UNL A   1      40.058  21.714  26.046  1.00  0.00     0.261 C 
BRANCH  18  19
ATOM     19  O   UNL A   1      38.760  22.136  26.506  1.00  0.00    -0.460 OA
BRANCH  19  20
ATOM     20  C   UNL A   1      38.359  23.348  26.055  1.00  0.00     0.338 C 
ATOM     21  O   UNL A   1      37.454  23.577  25.264  1.00  0.00    -0.246 OA
BRANCH  20  22
ATOM     22  C   UNL A   1      39.055  24.417  26.797  1.00  0.00     0.060 A 
ATOM     23  C   UNL A   1      38.727  24.588  28.148  1.00  0.00     0.016 A 
ATOM     24  C   UNL A   1      39.966  25.275  26.176  1.00  0.00     0.016 A 
ATOM     25  C   UNL A   1      39.273  25.645  28.873  1.00  0.00     0.010 A 
ATOM     26  C   UNL A   1      40.507  26.342  26.904  1.00  0.00     0.010 A 
ATOM     27  C   UNL A   1      40.138  26.551  28.246  1.00  0.00    -0.014 A 
BRANCH  27  28
ATOM     28  C   UNL A   1      40.545  27.789  28.954  1.00  0.00     0.031 A 
ATOM     29  C   UNL A   1      41.910  27.855  29.585  1.00  0.00     0.074 A 
ATOM     30  C   UNL A   1      39.721  28.850  29.016  1.00  0.00     0.049 A 
ATOM     31  N   UNL A   1      42.461  28.827  30.266  1.00  0.00    -0.248 NA
ATOM     32  C   UNL A   1      42.768  26.670  29.425  1.00  0.00     0.031 C 
ATOM     33  C   UNL A   1      38.391  28.926  28.410  1.00  0.00     0.029 A 
ATOM     34  N   UNL A   1      39.884  30.071  29.622  1.00  0.00    -0.354 N 
ATOM     35  C   UNL A   1      43.723  28.369  30.624  1.00  0.00     0.074 A 
ATOM     36  C   UNL A   1      43.847  27.023  30.108  1.00  0.00     0.031 C 
ATOM     37  C   UNL A   1      37.858  30.130  28.680  1.00  0.00     0.029 A 
ATOM     38  C   UNL A   1      38.792  30.897  29.501  1.00  0.00     0.049 A 
ATOM     39  H   UNL A   1      40.706  30.330  30.098  1.00  0.00     0.167 HD
ATOM     40  C   UNL A   1      44.694  29.011  31.317  1.00  0.00     0.031 A 
ATOM     41  C   UNL A   1      38.565  32.124  30.010  1.00  0.00     0.031 A 
ATOM     42  C   UNL A   1      44.565  30.346  31.840  1.00  0.00     0.049 A 
ATOM     43  C   UNL A   1      39.632  32.791  30.838  1.00  0.00     0.074 A 
ATOM     44  C   UNL A   1      45.500  31.089  32.539  1.00  0.00     0.029 A 
ATOM     45  N   UNL A   1      43.430  31.133  31.729  1.00  0.00    -0.354 N 
ATOM     46  N   UNL A   1      40.830  32.354  31.147  1.00  0.00    -0.248 NA
ATOM     47  C   UNL A   1      39.319  34.122  31.379  1.00  0.00     0.031 C 
ATOM     48  C   UNL A   1      44.910  32.306  32.898  1.00  0.00     0.029 A 
ATOM     49  C   UNL A   1      43.630  32.344  32.371  1.00  0.00     0.049 A 
ATOM     50  H   UNL A   1      42.604  30.871  31.262  1.00  0.00     0.167 HD
ATOM     51  C   UNL A   1      41.423  33.367  31.894  1.00  0.00     0.074 A 
ATOM     52  C   UNL A   1      40.456  34.442  31.982  1.00  0.00     0.031 C 
ATOM     53  C   UNL A   1      42.658  33.405  32.453  1.00  0.00     0.031 A 
BRANCH  40  54
ATOM     54  C   UNL A   1      45.972  28.260  31.581  1.00  0.00    -0.014 A 
ATOM     55  C   UNL A   1      47.048  28.309  30.677  1.00  0.00     0.010 A 
ATOM     56  C   UNL A   1      46.110  27.520  32.769  1.00  0.00     0.010 A 
ATOM     57  C   UNL A   1      48.223  27.600  30.937  1.00  0.00     0.020 A 
ATOM     58  C   UNL A   1      47.293  26.830  33.046  1.00  0.00     0.020 A 
ATOM     59  C   UNL A   1      48.337  26.861  32.119  1.00  0.00     0.054 A 
BRANCH  59  60
ATOM     60  S   UNL A   1      49.879  25.962  32.440  1.00  0.00     0.124 S 
ATOM     61  O   UNL A   1      50.276  25.555  31.094  1.00  0.00    -0.237 OA
ATOM     62  O   UNL A   1      50.721  26.981  33.062  1.00  0.00    -0.237 OA
ATOM     63  O   UNL A   1      49.469  24.873  33.324  1.00  0.00    -0.744 OA
ENDBRANCH  59  60
ENDBRANCH  40  54
BRANCH  41  64
ATOM     64  C   UNL A   1      37.261  32.798  29.766  1.00  0.00    -0.014 A 
ATOM     65  C   UNL A   1      37.084  33.634  28.649  1.00  0.00     0.010 A 
ATOM     66  C   UNL A   1      36.185  32.603  30.651  1.00  0.00     0.010 A 
ATOM     67  C   UNL A   1      35.860  34.273  28.430  1.00  0.00     0.020 A 
ATOM     68  C   UNL A   1      34.952  33.218  30.421  1.00  0.00     0.020 A 
ATOM     69  C   UNL A   1      34.800  34.058  29.317  1.00  0.00     0.054 A 
BRANCH  69  70
ATOM     70  S   UNL A   1      33.202  34.850  28.982  1.00  0.00     0.124 S 
ATOM     71  O   UNL A   1      33.612  36.118  28.386  1.00  0.00    -0.237 OA
ATOM     72  O   UNL A   1      32.562  33.900  28.075  1.00  0.00    -0.237 OA
ATOM     73  O   UNL A   1      32.587  34.948  30.304  1.00  0.00    -0.744 OA
ENDBRANCH  69  70
ENDBRANCH  41  64
BRANCH  53  74
ATOM     74  C   UNL A   1      43.054  34.662  33.183  1.00  0.00    -0.014 A 
ATOM     75  C   UNL A   1      42.827  34.808  34.563  1.00  0.00     0.010 A 
ATOM     76  C   UNL A   1      43.715  35.688  32.484  1.00  0.00     0.010 A 
ATOM     77  C   UNL A   1      43.229  35.971  35.225  1.00  0.00     0.020 A 
ATOM     78  C   UNL A   1      44.142  36.842  33.147  1.00  0.00     0.020 A 
ATOM     79  C   UNL A   1      43.883  36.982  34.512  1.00  0.00     0.054 A 
BRANCH  79  80
ATOM     80  S   UNL A   1      44.436  38.463  35.403  1.00  0.00     0.124 S 
ATOM     81  O   UNL A   1      43.983  38.185  36.764  1.00  0.00    -0.237 OA
ATOM     82  O   UNL A   1      45.882  38.437  35.204  1.00  0.00    -0.237 OA
ATOM     83  O   UNL A   1      43.739  39.554  34.725  1.00  0.00    -0.744 OA
ENDBRANCH  79  80
ENDBRANCH  53  74
ENDBRANCH  27  28
ENDBRANCH  20  22
ENDBRANCH  19  20
ENDBRANCH  18  19
ENDBRANCH   1  18
TORSDOF 18
ENDMDL
MODEL 3
REMARK VINA RESULT:      -8.8      1.540      2.228
REMARK SMILES Cc1cc(F)cc(/C=C/C(=O)OCCOCCOC(=O)c2ccc(-c3c4nc(c(-c5ccc(S(=O)(=O)[O-])cc5)c5ccc([nH]5)c(-c5ccc(S(=O)(=O)[O-])cc5)c5nc(c(-c6ccc(S(=O)(=O)[O-])cc6)c6ccc3[nH]6)C=C5)C=C4)cc2)c1
REMARK SMILES IDX 16 1 15 2 14 3 13 4 12 5 10 6 11 7 9 8 8 9 7 10 1 11 2 12
REMARK SMILES IDX 3 13 81 14 4 15 5 16 6 17 17 18 18 19 19 20 20 21 21 22
REMARK SMILES IDX 22 23 80 24 23 25 79 26 24 27 25 28 26 29 73 30 27 31 78 32
REMARK SMILES IDX 72 33 74 34 28 35 77 36 71 37 70 38 29 40 59 41 40 42 58 43
REMARK SMILES IDX 41 44 44 45 57 46 75 47 42 48 43 49 56 51 76 52 45 53 30 54
REMARK SMILES IDX 31 55 39 56 32 57 38 58 33 59 34 60 35 61 36 62 37 63 60 64
REMARK SMILES IDX 61 65 69 66 62 67 68 68 63 69 64 70 65 71 66 72 67 73 46 74
REMARK SMILES IDX 47 75 55 76 48 77 54 78 49 79 50 80 51 81 52 82 53 83
REMARK H PARENT 74 39 44 50
REMARK Flexibility Score: inf
ROOT
ATOM      1  C   UNL A   1      41.253  19.923  26.217  1.00  0.00     0.202 C 
ENDROOT
BRANCH   1   2
ATOM      2  O   UNL A   1      42.342  19.383  26.968  1.00  0.00    -0.374 OA
BRANCH   2   3
ATOM      3  C   UNL A   1      42.849  18.119  26.540  1.00  0.00     0.202 C 
BRANCH   3   4
ATOM      4  C   UNL A   1      44.164  18.165  25.758  1.00  0.00     0.261 C 
BRANCH   4   5
ATOM      5  O   UNL A   1      44.057  19.015  24.604  1.00  0.00    -0.460 OA
BRANCH   5   6
ATOM      6  C   UNL A   1      45.235  19.366  24.036  1.00  0.00     0.330 C 
ATOM      7  O   UNL A   1      45.810  18.782  23.129  1.00  0.00    -0.247 OA
BRANCH   6   8
ATOM      8  C   UNL A   1      45.770  20.632  24.574  1.00  0.00     0.094 C 
ATOM      9  C   UNL A   1      45.095  21.571  25.258  1.00  0.00     0.016 C 
BRANCH   9  10
ATOM     10  C   UNL A   1      45.733  22.817  25.727  1.00  0.00    -0.022 A 
ATOM     11  C   UNL A   1      47.792  25.689  24.255  1.00  0.00     0.044 C 
ATOM     12  C   UNL A   1      47.055  24.817  25.228  1.00  0.00    -0.048 A 
ATOM     13  C   UNL A   1      46.938  25.220  26.563  1.00  0.00     0.042 A 
ATOM     14  C   UNL A   1      46.451  23.613  24.820  1.00  0.00     0.011 A 
ATOM     15  C   UNL A   1      46.257  24.417  27.466  1.00  0.00     0.124 A 
ATOM     16  F   UNL A   1      46.158  24.802  28.746  1.00  0.00    -0.207 F 
ATOM     17  C   UNL A   1      45.668  23.222  27.066  1.00  0.00     0.047 A 
ENDBRANCH   9  10
ENDBRANCH   6   8
ENDBRANCH   5   6
ENDBRANCH   4   5
ENDBRANCH   3   4
ENDBRANCH   2   3
ENDBRANCH   1   2
BRANCH   1  18
ATOM     18  C   UNL A   1      41.149  21.454  26.195  1.00  0.00     0.261 C 
BRANCH  18  19
ATOM     19  O   UNL A   1      40.108  21.934  27.067  1.00  0.00    -0.460 OA
BRANCH  19  20
ATOM     20  C   UNL A   1      39.245  22.810  26.501  1.00  0.00     0.338 C 
ATOM     21  O   UNL A   1      38.269  22.543  25.814  1.00  0.00    -0.246 OA
BRANCH  20  22
ATOM     22  C   UNL A   1      39.530  24.177  26.977  1.00  0.00     0.060 A 
ATOM     23  C   UNL A   1      40.086  25.080  26.061  1.00  0.00     0.016 A 
ATOM     24  C   UNL A   1      39.316  24.558  28.304  1.00  0.00     0.016 A 
ATOM     25  C   UNL A   1      40.472  26.352  26.479  1.00  0.00     0.010 A 
ATOM     26  C   UNL A   1      39.713  25.833  28.724  1.00  0.00     0.010 A 
ATOM     27  C   UNL A   1      40.323  26.724  27.821  1.00  0.00    -0.014 A 
BRANCH  27  28
ATOM     28  C   UNL A   1      40.928  27.989  28.305  1.00  0.00     0.031 A 
ATOM     29  C   UNL A   1      42.422  28.160  28.232  1.00  0.00     0.074 A 
ATOM     30  C   UNL A   1      40.157  28.983  28.781  1.00  0.00     0.049 A 
ATOM     31  N   UNL A   1      43.158  29.171  28.615  1.00  0.00    -0.248 NA
ATOM     32  C   UNL A   1      43.185  27.045  27.650  1.00  0.00     0.031 C 
ATOM     33  C   UNL A   1      38.696  28.957  28.864  1.00  0.00     0.029 A 
ATOM     34  N   UNL A   1      40.500  30.212  29.286  1.00  0.00    -0.354 N 
ATOM     35  C   UNL A   1      44.470  28.812  28.330  1.00  0.00     0.074 A 
ATOM     36  C   UNL A   1      44.431  27.479  27.766  1.00  0.00     0.031 C 
ATOM     37  C   UNL A   1      38.270  30.116  29.394  1.00  0.00     0.029 A 
ATOM     38  C   UNL A   1      39.424  30.952  29.716  1.00  0.00     0.049 A 
ATOM     39  H   UNL A   1      41.429  30.534  29.336  1.00  0.00     0.167 HD
ATOM     40  C   UNL A   1      45.606  29.526  28.517  1.00  0.00     0.031 A 
ATOM     41  C   UNL A   1      39.377  32.158  30.317  1.00  0.00     0.031 A 
ATOM     42  C   UNL A   1      45.644  30.847  29.088  1.00  0.00     0.049 A 
ATOM     43  C   UNL A   1      40.658  32.904  30.579  1.00  0.00     0.074 A 
ATOM     44  C   UNL A   1      46.744  31.660  29.300  1.00  0.00     0.029 A 
ATOM     45  N   UNL A   1      44.537  31.544  29.545  1.00  0.00    -0.354 N 
ATOM     46  N   UNL A   1      41.889  32.561  30.281  1.00  0.00    -0.248 NA
ATOM     47  C   UNL A   1      40.543  34.207  31.252  1.00  0.00     0.031 C 
ATOM     48  C   UNL A   1      46.308  32.826  29.936  1.00  0.00     0.029 A 
ATOM     49  C   UNL A   1      44.930  32.766  30.066  1.00  0.00     0.049 A 
ATOM     50  H   UNL A   1      43.609  31.219  29.506  1.00  0.00     0.167 HD
ATOM     51  C   UNL A   1      42.691  33.616  30.705  1.00  0.00     0.074 A 
ATOM     52  C   UNL A   1      41.806  34.613  31.270  1.00  0.00     0.031 C 
ATOM     53  C   UNL A   1      44.039  33.749  30.627  1.00  0.00     0.031 A 
BRANCH  40  54
ATOM     54  C   UNL A   1      46.907  28.876  28.130  1.00  0.00    -0.014 A 
ATOM     55  C   UNL A   1      47.477  29.081  26.860  1.00  0.00     0.010 A 
ATOM     56  C   UNL A   1      47.587  28.073  29.064  1.00  0.00     0.010 A 
ATOM     57  C   UNL A   1      48.683  28.463  26.518  1.00  0.00     0.020 A 
ATOM     58  C   UNL A   1      48.806  27.475  28.735  1.00  0.00     0.020 A 
ATOM     59  C   UNL A   1      49.338  27.660  27.457  1.00  0.00     0.054 A 
BRANCH  59  60
ATOM     60  S   UNL A   1      50.910  26.882  26.994  1.00  0.00     0.124 S 
ATOM     61  O   UNL A   1      51.617  26.850  28.272  1.00  0.00    -0.237 OA
ATOM     62  O   UNL A   1      50.486  25.584  26.478  1.00  0.00    -0.237 OA
ATOM     63  O   UNL A   1      51.468  27.793  25.997  1.00  0.00    -0.744 OA
ENDBRANCH  59  60
ENDBRANCH  40  54
BRANCH  41  64
ATOM     64  C   UNL A   1      38.067  32.729  30.730  1.00  0.00    -0.014 A 
ATOM     65  C   UNL A   1      37.305  33.499  29.834  1.00  0.00     0.010 A 
ATOM     66  C   UNL A   1      37.572  32.502  32.027  1.00  0.00     0.010 A 
ATOM     67  C   UNL A   1      36.079  34.042  30.230  1.00  0.00     0.020 A 
ATOM     68  C   UNL A   1      36.335  33.020  32.419  1.00  0.00     0.020 A 
ATOM     69  C   UNL A   1      35.600  33.796  31.521  1.00  0.00     0.054 A 
BRANCH  69  70
ATOM     70  S   UNL A   1      33.981  34.461  31.996  1.00  0.00     0.124 S 
ATOM     71  O   UNL A   1      33.477  33.425  32.892  1.00  0.00    -0.237 OA
ATOM     72  O   UNL A   1      34.334  35.730  32.629  1.00  0.00    -0.237 OA
ATOM     73  O   UNL A   1      33.276  34.585  30.721  1.00  0.00    -0.744 OA
ENDBRANCH  69  70
ENDBRANCH  41  64
BRANCH  53  74
ATOM     74  C   UNL A   1      44.642  35.032  31.136  1.00  0.00    -0.014 A 
ATOM     75  C   UNL A   1      44.761  36.162  30.309  1.00  0.00     0.010 A 
ATOM     76  C   UNL A   1      45.043  35.122  32.482  1.00  0.00     0.010 A 
ATOM     77  C   UNL A   1      45.297  37.352  30.811  1.00  0.00     0.020 A 
ATOM     78  C   UNL A   1      45.555  36.316  32.995  1.00  0.00     0.020 A 
ATOM     79  C   UNL A   1      45.691  37.420  32.151  1.00  0.00     0.054 A 
BRANCH  79  80
ATOM     80  S   UNL A   1      46.343  38.989  32.792  1.00  0.00     0.124 S 
ATOM     81  O   UNL A   1      45.127  39.784  32.941  1.00  0.00    -0.237 OA
ATOM     82  O   UNL A   1      46.985  38.584  34.040  1.00  0.00    -0.237 OA
ATOM     83  O   UNL A   1      47.257  39.437  31.744  1.00  0.00    -0.744 OA
ENDBRANCH  79  80
ENDBRANCH  53  74
ENDBRANCH  27  28
ENDBRANCH  20  22
ENDBRANCH  19  20
ENDBRANCH  18  19
ENDBRANCH   1  18
TORSDOF 18
ENDMDL
