MODEL 1
REMARK VINA RESULT:     -10.4      0.000      0.000
REMARK SMILES COc1cccc(NC(=O)[C@@H]2[C@@H](C(=O)OCCOCCOC(=O)c3ccc(-c4c5nc(c(-c6ccc(S(=O)(=O)[O-])cc6)c6ccc([nH]6)c(-c6ccc(S(=O)(=O)[O-])cc6)c6nc(c(-c7ccc(S(=O)(=O)[O-])cc7)c7ccc4[nH]7)C=C6)C=C5)cc3)[C@H]3C=C[C@@H]2C3)c1
REMARK SMILES IDX 18 1 17 2 16 3 15 4 13 5 14 6 12 7 11 8 87 9 84 10 86 11
REMARK SMILES IDX 88 12 85 13 9 14 8 15 10 17 7 18 3 19 4 20 89 21 5 22 6 23
REMARK SMILES IDX 2 24 1 25 19 26 20 27 21 28 22 29 23 30 24 31 25 32 83 33
REMARK SMILES IDX 26 34 82 35 27 36 28 37 29 38 76 39 30 40 81 41 75 42 77 43
REMARK SMILES IDX 31 44 80 45 74 46 73 47 32 49 62 50 43 51 61 52 44 53 47 54
REMARK SMILES IDX 60 55 78 56 45 57 46 58 59 60 79 61 48 62 33 63 34 64 42 65
REMARK SMILES IDX 35 66 41 67 36 68 37 69 38 70 39 71 40 72 63 73 64 74 72 75
REMARK SMILES IDX 65 76 71 77 66 78 67 79 68 80 69 81 70 82 49 83 50 84 58 85
REMARK SMILES IDX 51 86 57 87 52 88 53 89 54 90 55 91 56 92
REMARK H PARENT 8 16 77 48 47 59
REMARK Flexibility Score: inf
ROOT
ATOM      1  O   UNL A   1      37.916  22.223  26.284  1.00  0.00    -0.374 OA
ENDROOT
BRANCH   1   2
ATOM      2  C   UNL A   1      37.143  22.824  25.245  1.00  0.00     0.202 C 
BRANCH   2   3
ATOM      3  C   UNL A   1      36.080  23.820  25.715  1.00  0.00     0.261 C 
BRANCH   3   4
ATOM      4  O   UNL A   1      34.784  23.439  25.224  1.00  0.00    -0.463 OA
BRANCH   4   5
ATOM      5  C   UNL A   1      34.382  24.049  24.073  1.00  0.00     0.310 C 
ATOM      6  O   UNL A   1      35.106  24.314  23.125  1.00  0.00    -0.252 OA
BRANCH   5   7
ATOM      7  C   UNL A   1      32.868  24.181  24.080  1.00  0.00     0.119 C 
ATOM      8  C   UNL A   1      32.207  23.476  25.277  1.00  0.00     0.100 C 
ATOM      9  C   UNL A   1      31.329  22.388  24.611  1.00  0.00     0.025 C 
ATOM     10  C   UNL A   1      32.179  23.496  22.866  1.00  0.00     0.027 C 
ATOM     11  C   UNL A   1      32.237  21.430  23.852  1.00  0.00    -0.027 C 
ATOM     12  C   UNL A   1      30.787  23.116  23.390  1.00  0.00     0.017 C 
ATOM     13  C   UNL A   1      32.714  22.087  22.781  1.00  0.00    -0.027 C 
BRANCH   8  14
ATOM     14  C   UNL A   1      31.513  24.383  26.296  1.00  0.00     0.228 C 
ATOM     15  N   UNL A   1      30.732  25.476  26.116  1.00  0.00    -0.326 N 
ATOM     16  H   UNL A   1      30.320  25.727  26.974  1.00  0.00     0.169 HD
ATOM     17  O   UNL A   1      31.574  24.029  27.489  1.00  0.00    -0.274 OA
BRANCH  15  18
ATOM     18  C   UNL A   1      30.312  26.374  25.117  1.00  0.00     0.044 A 
ATOM     19  C   UNL A   1      30.858  28.429  23.931  1.00  0.00     0.120 A 
ATOM     20  C   UNL A   1      29.620  28.434  23.305  1.00  0.00     0.046 A 
ATOM     21  C   UNL A   1      31.202  27.423  24.838  1.00  0.00     0.072 A 
ATOM     22  C   UNL A   1      28.772  27.356  23.498  1.00  0.00     0.006 A 
ATOM     23  C   UNL A   1      29.139  26.320  24.366  1.00  0.00     0.026 A 
BRANCH  19  24
ATOM     24  O   UNL A   1      31.735  29.451  23.697  1.00  0.00    -0.497 OA
ATOM     25  C   UNL A   1      33.074  28.961  23.788  1.00  0.00     0.278 C 
ENDBRANCH  19  24
ENDBRANCH  15  18
ENDBRANCH   8  14
ENDBRANCH   5   7
ENDBRANCH   4   5
ENDBRANCH   3   4
ENDBRANCH   2   3
ENDBRANCH   1   2
BRANCH   1  26
ATOM     26  C   UNL A   1      39.336  22.274  26.135  1.00  0.00     0.202 C 
BRANCH  26  27
ATOM     27  C   UNL A   1      40.053  23.337  26.972  1.00  0.00     0.261 C 
BRANCH  27  28
ATOM     28  O   UNL A   1      39.320  24.576  26.986  1.00  0.00    -0.460 OA
BRANCH  28  29
ATOM     29  C   UNL A   1      40.085  25.686  26.868  1.00  0.00     0.338 C 
ATOM     30  O   UNL A   1      40.794  25.995  25.918  1.00  0.00    -0.246 OA
BRANCH  29  31
ATOM     31  C   UNL A   1      39.813  26.609  27.985  1.00  0.00     0.060 A 
ATOM     32  C   UNL A   1      40.414  27.874  27.933  1.00  0.00     0.016 A 
ATOM     33  C   UNL A   1      39.047  26.234  29.091  1.00  0.00     0.016 A 
ATOM     34  C   UNL A   1      40.300  28.746  29.011  1.00  0.00     0.010 A 
ATOM     35  C   UNL A   1      38.940  27.110  30.177  1.00  0.00     0.010 A 
ATOM     36  C   UNL A   1      39.600  28.352  30.158  1.00  0.00    -0.014 A 
BRANCH  36  37
ATOM     37  C   UNL A   1      39.702  29.178  31.386  1.00  0.00     0.031 A 
ATOM     38  C   UNL A   1      40.851  28.938  32.329  1.00  0.00     0.074 A 
ATOM     39  C   UNL A   1      38.818  30.160  31.634  1.00  0.00     0.049 A 
ATOM     40  N   UNL A   1      41.146  29.550  33.446  1.00  0.00    -0.248 NA
ATOM     41  C   UNL A   1      41.795  27.869  31.960  1.00  0.00     0.031 C 
ATOM     42  C   UNL A   1      37.688  30.517  30.775  1.00  0.00     0.029 A 
ATOM     43  N   UNL A   1      38.736  31.040  32.682  1.00  0.00    -0.354 N 
ATOM     44  C   UNL A   1      42.304  28.940  33.918  1.00  0.00     0.074 A 
ATOM     45  C   UNL A   1      42.640  27.889  32.981  1.00  0.00     0.031 C 
ATOM     46  C   UNL A   1      37.024  31.544  31.335  1.00  0.00     0.029 A 
ATOM     47  C   UNL A   1      37.663  31.896  32.601  1.00  0.00     0.049 A 
ATOM     48  H   UNL A   1      39.383  31.057  33.424  1.00  0.00     0.167 HD
ATOM     49  C   UNL A   1      43.025  29.230  35.026  1.00  0.00     0.031 A 
ATOM     50  C   UNL A   1      37.238  32.846  33.457  1.00  0.00     0.031 A 
ATOM     51  C   UNL A   1      42.684  30.267  35.962  1.00  0.00     0.049 A 
ATOM     52  C   UNL A   1      38.021  33.108  34.719  1.00  0.00     0.074 A 
ATOM     53  C   UNL A   1      43.359  30.647  37.109  1.00  0.00     0.029 A 
ATOM     54  N   UNL A   1      41.568  31.084  35.866  1.00  0.00    -0.354 N 
ATOM     55  N   UNL A   1      39.125  32.537  35.137  1.00  0.00    -0.248 NA
ATOM     56  C   UNL A   1      37.503  34.149  35.617  1.00  0.00     0.031 C 
ATOM     57  C   UNL A   1      42.622  31.659  37.734  1.00  0.00     0.029 A 
ATOM     58  C   UNL A   1      41.520  31.949  36.945  1.00  0.00     0.049 A 
ATOM     59  H   UNL A   1      40.907  31.054  35.136  1.00  0.00     0.167 HD
ATOM     60  C   UNL A   1      39.449  33.169  36.334  1.00  0.00     0.074 A 
ATOM     61  C   UNL A   1      38.431  34.173  36.564  1.00  0.00     0.031 C 
ATOM     62  C   UNL A   1      40.497  32.941  37.164  1.00  0.00     0.031 A 
BRANCH  49  63
ATOM     63  C   UNL A   1      44.243  28.388  35.301  1.00  0.00    -0.014 A 
ATOM     64  C   UNL A   1      45.497  28.718  34.757  1.00  0.00     0.010 A 
ATOM     65  C   UNL A   1      44.135  27.266  36.142  1.00  0.00     0.010 A 
ATOM     66  C   UNL A   1      46.613  27.919  35.017  1.00  0.00     0.020 A 
ATOM     67  C   UNL A   1      45.255  26.478  36.426  1.00  0.00     0.020 A 
ATOM     68  C   UNL A   1      46.483  26.800  35.848  1.00  0.00     0.054 A 
BRANCH  68  69
ATOM     69  S   UNL A   1      47.951  25.787  36.182  1.00  0.00     0.124 S 
ATOM     70  O   UNL A   1      47.387  24.440  36.204  1.00  0.00    -0.237 OA
ATOM     71  O   UNL A   1      48.814  26.088  35.043  1.00  0.00    -0.237 OA
ATOM     72  O   UNL A   1      48.428  26.284  37.470  1.00  0.00    -0.744 OA
ENDBRANCH  68  69
ENDBRANCH  49  63
BRANCH  50  73
ATOM     73  C   UNL A   1      36.000  33.614  33.158  1.00  0.00    -0.014 A 
ATOM     74  C   UNL A   1      34.735  33.104  33.496  1.00  0.00     0.010 A 
ATOM     75  C   UNL A   1      36.084  34.871  32.529  1.00  0.00     0.010 A 
ATOM     76  C   UNL A   1      33.576  33.828  33.202  1.00  0.00     0.020 A 
ATOM     77  C   UNL A   1      34.929  35.609  32.256  1.00  0.00     0.020 A 
ATOM     78  C   UNL A   1      33.681  35.078  32.585  1.00  0.00     0.054 A 
BRANCH  78  79
ATOM     79  S   UNL A   1      32.169  36.027  32.261  1.00  0.00     0.124 S 
ATOM     80  O   UNL A   1      32.315  36.360  30.848  1.00  0.00    -0.237 OA
ATOM     81  O   UNL A   1      31.118  35.064  32.581  1.00  0.00    -0.237 OA
ATOM     82  O   UNL A   1      32.271  37.155  33.185  1.00  0.00    -0.744 OA
ENDBRANCH  78  79
ENDBRANCH  50  73
BRANCH  62  83
ATOM     83  C   UNL A   1      40.618  33.813  38.385  1.00  0.00    -0.014 A 
ATOM     84  C   UNL A   1      41.340  35.020  38.353  1.00  0.00     0.010 A 
ATOM     85  C   UNL A   1      39.953  33.445  39.570  1.00  0.00     0.010 A 
ATOM     86  C   UNL A   1      41.423  35.825  39.493  1.00  0.00     0.020 A 
ATOM     87  C   UNL A   1      40.010  34.260  40.703  1.00  0.00     0.020 A 
ATOM     88  C   UNL A   1      40.759  35.438  40.661  1.00  0.00     0.054 A 
BRANCH  88  89
ATOM     89  S   UNL A   1      40.849  36.518  42.116  1.00  0.00     0.124 S 
ATOM     90  O   UNL A   1      41.605  35.697  43.058  1.00  0.00    -0.237 OA
ATOM     91  O   UNL A   1      41.549  37.693  41.603  1.00  0.00    -0.237 OA
ATOM     92  O   UNL A   1      39.448  36.741  42.469  1.00  0.00    -0.744 OA
ENDBRANCH  88  89
ENDBRANCH  62  83
ENDBRANCH  36  37
ENDBRANCH  29  31
ENDBRANCH  28  29
ENDBRANCH  27  28
ENDBRANCH  26  27
ENDBRANCH   1  26
TORSDOF 20
ENDMDL
MODEL 2
REMARK VINA RESULT:     -10.3      6.339      8.924
REMARK SMILES COc1cccc(NC(=O)[C@@H]2[C@@H](C(=O)OCCOCCOC(=O)c3ccc(-c4c5nc(c(-c6ccc(S(=O)(=O)[O-])cc6)c6ccc([nH]6)c(-c6ccc(S(=O)(=O)[O-])cc6)c6nc(c(-c7ccc(S(=O)(=O)[O-])cc7)c7ccc4[nH]7)C=C6)C=C5)cc3)[C@H]3C=C[C@@H]2C3)c1
REMARK SMILES IDX 18 1 17 2 16 3 15 4 13 5 14 6 12 7 11 8 87 9 84 10 86 11
REMARK SMILES IDX 88 12 85 13 9 14 8 15 10 17 7 18 3 19 4 20 89 21 5 22 6 23
REMARK SMILES IDX 2 24 1 25 19 26 20 27 21 28 22 29 23 30 24 31 25 32 83 33
REMARK SMILES IDX 26 34 82 35 27 36 28 37 29 38 76 39 30 40 81 41 75 42 77 43
REMARK SMILES IDX 31 44 80 45 74 46 73 47 32 49 62 50 43 51 61 52 44 53 47 54
REMARK SMILES IDX 60 55 78 56 45 57 46 58 59 60 79 61 48 62 33 63 34 64 42 65
REMARK SMILES IDX 35 66 41 67 36 68 37 69 38 70 39 71 40 72 63 73 64 74 72 75
REMARK SMILES IDX 65 76 71 77 66 78 67 79 68 80 69 81 70 82 49 83 50 84 58 85
REMARK SMILES IDX 51 86 57 87 52 88 53 89 54 90 55 91 56 92
REMARK H PARENT 8 16 77 48 47 59
REMARK Flexibility Score: inf
ROOT
ATOM      1  O   UNL A   1      37.674  21.232  25.060  1.00  0.00    -0.374 OA
ENDROOT
BRANCH   1   2
ATOM      2  C   UNL A   1      36.474  21.650  25.712  1.00  0.00     0.202 C 
BRANCH   2   3
ATOM      3  C   UNL A   1      36.177  23.149  25.637  1.00  0.00     0.261 C 
BRANCH   3   4
ATOM      4  O   UNL A   1      34.869  23.428  26.161  1.00  0.00    -0.463 OA
BRANCH   4   5
ATOM      5  C   UNL A   1      34.217  24.486  25.599  1.00  0.00     0.310 C 
ATOM      6  O   UNL A   1      34.693  25.598  25.431  1.00  0.00    -0.252 OA
BRANCH   5   7
ATOM      7  C   UNL A   1      32.879  24.016  25.052  1.00  0.00     0.119 C 
ATOM      8  C   UNL A   1      32.896  22.544  24.602  1.00  0.00     0.100 C 
ATOM      9  C   UNL A   1      32.602  22.632  23.084  1.00  0.00     0.025 C 
ATOM     10  C   UNL A   1      32.442  24.757  23.757  1.00  0.00     0.027 C 
ATOM     11  C   UNL A   1      33.726  23.414  22.417  1.00  0.00    -0.027 C 
ATOM     12  C   UNL A   1      31.560  23.738  23.021  1.00  0.00     0.017 C 
ATOM     13  C   UNL A   1      33.602  24.698  22.792  1.00  0.00    -0.027 C 
BRANCH   8  14
ATOM     14  C   UNL A   1      32.023  21.581  25.411  1.00  0.00     0.228 C 
ATOM     15  N   UNL A   1      31.954  20.227  25.393  1.00  0.00    -0.326 N 
ATOM     16  H   UNL A   1      31.404  19.919  26.148  1.00  0.00     0.169 HD
ATOM     17  O   UNL A   1      31.323  22.085  26.310  1.00  0.00    -0.274 OA
BRANCH  15  18
ATOM     18  C   UNL A   1      32.403  19.114  24.658  1.00  0.00     0.044 A 
ATOM     19  C   UNL A   1      33.332  16.869  24.814  1.00  0.00     0.120 A 
ATOM     20  C   UNL A   1      33.539  16.825  23.442  1.00  0.00     0.046 A 
ATOM     21  C   UNL A   1      32.785  18.001  25.423  1.00  0.00     0.072 A 
ATOM     22  C   UNL A   1      33.080  17.875  22.666  1.00  0.00     0.006 A 
ATOM     23  C   UNL A   1      32.482  18.989  23.272  1.00  0.00     0.026 A 
BRANCH  19  24
ATOM     24  O   UNL A   1      33.718  15.810  25.587  1.00  0.00    -0.497 OA
ATOM     25  C   UNL A   1      32.686  14.820  25.588  1.00  0.00     0.278 C 
ENDBRANCH  19  24
ENDBRANCH  15  18
ENDBRANCH   8  14
ENDBRANCH   5   7
ENDBRANCH   4   5
ENDBRANCH   3   4
ENDBRANCH   2   3
ENDBRANCH   1   2
BRANCH   1  26
ATOM     26  C   UNL A   1      37.868  19.823  24.921  1.00  0.00     0.202 C 
BRANCH  26  27
ATOM     27  C   UNL A   1      39.171  19.272  25.508  1.00  0.00     0.261 C 
BRANCH  27  28
ATOM     28  O   UNL A   1      39.941  20.311  26.141  1.00  0.00    -0.460 OA
BRANCH  28  29
ATOM     29  C   UNL A   1      41.229  19.983  26.397  1.00  0.00     0.338 C 
ATOM     30  O   UNL A   1      41.725  18.864  26.360  1.00  0.00    -0.246 OA
BRANCH  29  31
ATOM     31  C   UNL A   1      42.041  21.203  26.553  1.00  0.00     0.060 A 
ATOM     32  C   UNL A   1      42.472  21.526  27.847  1.00  0.00     0.016 A 
ATOM     33  C   UNL A   1      42.325  22.051  25.480  1.00  0.00     0.016 A 
ATOM     34  C   UNL A   1      43.135  22.727  28.083  1.00  0.00     0.010 A 
ATOM     35  C   UNL A   1      42.986  23.261  25.721  1.00  0.00     0.010 A 
ATOM     36  C   UNL A   1      43.357  23.622  27.029  1.00  0.00    -0.014 A 
BRANCH  36  37
ATOM     37  C   UNL A   1      43.828  24.994  27.335  1.00  0.00     0.031 A 
ATOM     38  C   UNL A   1      45.277  25.333  27.103  1.00  0.00     0.074 A 
ATOM     39  C   UNL A   1      42.973  25.939  27.763  1.00  0.00     0.049 A 
ATOM     40  N   UNL A   1      45.901  26.468  27.285  1.00  0.00    -0.248 NA
ATOM     41  C   UNL A   1      46.135  24.248  26.596  1.00  0.00     0.031 C 
ATOM     42  C   UNL A   1      41.539  25.746  27.984  1.00  0.00     0.029 A 
ATOM     43  N   UNL A   1      43.188  27.255  28.084  1.00  0.00    -0.354 N 
ATOM     44  C   UNL A   1      47.223  26.236  26.920  1.00  0.00     0.074 A 
ATOM     45  C   UNL A   1      47.317  24.844  26.537  1.00  0.00     0.031 C 
ATOM     46  C   UNL A   1      41.004  26.904  28.407  1.00  0.00     0.029 A 
ATOM     47  C   UNL A   1      42.059  27.910  28.514  1.00  0.00     0.049 A 
ATOM     48  H   UNL A   1      44.069  27.690  28.016  1.00  0.00     0.167 HD
ATOM     49  C   UNL A   1      48.262  27.103  26.900  1.00  0.00     0.031 A 
ATOM     50  C   UNL A   1      41.897  29.173  28.955  1.00  0.00     0.031 A 
ATOM     51  C   UNL A   1      48.169  28.483  27.293  1.00  0.00     0.049 A 
ATOM     52  C   UNL A   1      43.084  30.103  28.987  1.00  0.00     0.074 A 
ATOM     53  C   UNL A   1      49.164  29.446  27.295  1.00  0.00     0.029 A 
ATOM     54  N   UNL A   1      47.018  29.097  27.760  1.00  0.00    -0.354 N 
ATOM     55  N   UNL A   1      44.321  29.872  28.617  1.00  0.00    -0.248 NA
ATOM     56  C   UNL A   1      42.847  31.464  29.487  1.00  0.00     0.031 C 
ATOM     57  C   UNL A   1      48.625  30.628  27.816  1.00  0.00     0.029 A 
ATOM     58  C   UNL A   1      47.281  30.417  28.079  1.00  0.00     0.049 A 
ATOM     59  H   UNL A   1      46.140  28.658  27.851  1.00  0.00     0.167 HD
ATOM     60  C   UNL A   1      45.004  31.069  28.814  1.00  0.00     0.074 A 
ATOM     61  C   UNL A   1      44.039  32.022  29.324  1.00  0.00     0.031 C 
ATOM     62  C   UNL A   1      46.311  31.354  28.590  1.00  0.00     0.031 A 
BRANCH  49  63
ATOM     63  C   UNL A   1      49.602  26.569  26.467  1.00  0.00    -0.014 A 
ATOM     64  C   UNL A   1      50.036  26.679  25.134  1.00  0.00     0.010 A 
ATOM     65  C   UNL A   1      50.452  25.974  27.417  1.00  0.00     0.010 A 
ATOM     66  C   UNL A   1      51.279  26.170  24.750  1.00  0.00     0.020 A 
ATOM     67  C   UNL A   1      51.708  25.486  27.042  1.00  0.00     0.020 A 
ATOM     68  C   UNL A   1      52.106  25.572  25.708  1.00  0.00     0.054 A 
BRANCH  68  69
ATOM     69  S   UNL A   1      53.722  24.932  25.187  1.00  0.00     0.124 S 
ATOM     70  O   UNL A   1      54.576  25.329  26.304  1.00  0.00    -0.237 OA
ATOM     71  O   UNL A   1      53.474  23.498  25.067  1.00  0.00    -0.237 OA
ATOM     72  O   UNL A   1      53.979  25.625  23.929  1.00  0.00    -0.744 OA
ENDBRANCH  68  69
ENDBRANCH  49  63
BRANCH  50  73
ATOM     73  C   UNL A   1      40.559  29.632  29.418  1.00  0.00    -0.014 A 
ATOM     74  C   UNL A   1      39.519  29.863  28.501  1.00  0.00     0.010 A 
ATOM     75  C   UNL A   1      40.321  29.838  30.790  1.00  0.00     0.010 A 
ATOM     76  C   UNL A   1      38.269  30.303  28.944  1.00  0.00     0.020 A 
ATOM     77  C   UNL A   1      39.064  30.253  31.239  1.00  0.00     0.020 A 
ATOM     78  C   UNL A   1      38.049  30.493  30.312  1.00  0.00     0.054 A 
BRANCH  78  79
ATOM     79  S   UNL A   1      36.403  31.012  30.872  1.00  0.00     0.124 S 
ATOM     80  O   UNL A   1      35.993  29.883  31.700  1.00  0.00    -0.237 OA
ATOM     81  O   UNL A   1      36.688  32.253  31.587  1.00  0.00    -0.237 OA
ATOM     82  O   UNL A   1      35.657  31.178  29.625  1.00  0.00    -0.744 OA
ENDBRANCH  78  79
ENDBRANCH  50  73
BRANCH  62  83
ATOM     83  C   UNL A   1      46.772  32.761  28.862  1.00  0.00    -0.014 A 
ATOM     84  C   UNL A   1      47.326  33.121  30.103  1.00  0.00     0.010 A 
ATOM     85  C   UNL A   1      46.696  33.725  27.840  1.00  0.00     0.010 A 
ATOM     86  C   UNL A   1      47.766  34.428  30.329  1.00  0.00     0.020 A 
ATOM     87  C   UNL A   1      47.160  35.026  28.052  1.00  0.00     0.020 A 
ATOM     88  C   UNL A   1      47.678  35.373  29.301  1.00  0.00     0.054 A 
BRANCH  88  89
ATOM     89  S   UNL A   1      48.291  37.054  29.604  1.00  0.00     0.124 S 
ATOM     90  O   UNL A   1      48.598  37.012  31.032  1.00  0.00    -0.237 OA
ATOM     91  O   UNL A   1      49.446  37.141  28.714  1.00  0.00    -0.237 OA
ATOM     92  O   UNL A   1      47.162  37.906  29.234  1.00  0.00    -0.744 OA
ENDBRANCH  88  89
ENDBRANCH  62  83
ENDBRANCH  36  37
ENDBRANCH  29  31
ENDBRANCH  28  29
ENDBRANCH  27  28
ENDBRANCH  26  27
ENDBRANCH   1  26
TORSDOF 20
ENDMDL
MODEL 3
REMARK VINA RESULT:     -10.2      4.784     10.522
REMARK SMILES COc1cccc(NC(=O)[C@@H]2[C@@H](C(=O)OCCOCCOC(=O)c3ccc(-c4c5nc(c(-c6ccc(S(=O)(=O)[O-])cc6)c6ccc([nH]6)c(-c6ccc(S(=O)(=O)[O-])cc6)c6nc(c(-c7ccc(S(=O)(=O)[O-])cc7)c7ccc4[nH]7)C=C6)C=C5)cc3)[C@H]3C=C[C@@H]2C3)c1
REMARK SMILES IDX 18 1 17 2 16 3 15 4 13 5 14 6 12 7 11 8 87 9 84 10 86 11
REMARK SMILES IDX 88 12 85 13 9 14 8 15 10 17 7 18 3 19 4 20 89 21 5 22 6 23
REMARK SMILES IDX 2 24 1 25 19 26 20 27 21 28 22 29 23 30 24 31 25 32 83 33
REMARK SMILES IDX 26 34 82 35 27 36 28 37 29 38 76 39 30 40 81 41 75 42 77 43
REMARK SMILES IDX 31 44 80 45 74 46 73 47 32 49 62 50 43 51 61 52 44 53 47 54
REMARK SMILES IDX 60 55 78 56 45 57 46 58 59 60 79 61 48 62 33 63 34 64 42 65
REMARK SMILES IDX 35 66 41 67 36 68 37 69 38 70 39 71 40 72 63 73 64 74 72 75
REMARK SMILES IDX 65 76 71 77 66 78 67 79 68 80 69 81 70 82 49 83 50 84 58 85
REMARK SMILES IDX 51 86 57 87 52 88 53 89 54 90 55 91 56 92
REMARK H PARENT 8 16 77 48 47 59
REMARK Flexibility Score: inf
ROOT
ATOM      1  O   UNL A   1      33.515  28.730  23.396  1.00  0.00    -0.374 OA
ENDROOT
BRANCH   1   2
ATOM      2  C   UNL A   1      33.364  27.458  22.765  1.00  0.00     0.202 C 
BRANCH   2   3
ATOM      3  C   UNL A   1      32.909  26.322  23.683  1.00  0.00     0.261 C 
BRANCH   3   4
ATOM      4  O   UNL A   1      33.841  25.230  23.629  1.00  0.00    -0.463 OA
BRANCH   4   5
ATOM      5  C   UNL A   1      34.312  24.791  24.832  1.00  0.00     0.310 C 
ATOM      6  O   UNL A   1      34.514  25.495  25.809  1.00  0.00    -0.252 OA
BRANCH   5   7
ATOM      7  C   UNL A   1      34.371  23.272  24.821  1.00  0.00     0.119 C 
ATOM      8  C   UNL A   1      34.676  22.672  26.204  1.00  0.00     0.100 C 
ATOM      9  C   UNL A   1      36.028  21.948  25.990  1.00  0.00     0.025 C 
ATOM     10  C   UNL A   1      35.524  22.702  23.947  1.00  0.00     0.027 C 
ATOM     11  C   UNL A   1      37.077  22.984  25.606  1.00  0.00    -0.027 C 
ATOM     12  C   UNL A   1      35.857  21.353  24.600  1.00  0.00     0.017 C 
ATOM     13  C   UNL A   1      36.794  23.405  24.362  1.00  0.00    -0.027 C 
BRANCH   8  14
ATOM     14  C   UNL A   1      33.556  21.848  26.844  1.00  0.00     0.228 C 
ATOM     15  N   UNL A   1      32.866  20.780  26.373  1.00  0.00    -0.326 N 
ATOM     16  H   UNL A   1      32.326  20.393  27.100  1.00  0.00     0.169 HD
ATOM     17  O   UNL A   1      33.277  22.113  28.029  1.00  0.00    -0.274 OA
BRANCH  15  18
ATOM     18  C   UNL A   1      32.660  20.038  25.194  1.00  0.00     0.044 A 
ATOM     19  C   UNL A   1      32.797  17.828  24.184  1.00  0.00     0.120 A 
ATOM     20  C   UNL A   1      32.522  18.350  22.928  1.00  0.00     0.046 A 
ATOM     21  C   UNL A   1      32.881  18.657  25.306  1.00  0.00     0.072 A 
ATOM     22  C   UNL A   1      32.208  19.694  22.820  1.00  0.00     0.006 A 
ATOM     23  C   UNL A   1      32.240  20.517  23.954  1.00  0.00     0.026 A 
BRANCH  19  24
ATOM     24  O   UNL A   1      33.042  16.489  24.318  1.00  0.00    -0.497 OA
ATOM     25  C   UNL A   1      33.864  16.267  25.465  1.00  0.00     0.278 C 
ENDBRANCH  19  24
ENDBRANCH  15  18
ENDBRANCH   8  14
ENDBRANCH   5   7
ENDBRANCH   4   5
ENDBRANCH   3   4
ENDBRANCH   2   3
ENDBRANCH   1   2
BRANCH   1  26
ATOM     26  C   UNL A   1      32.548  29.068  24.392  1.00  0.00     0.202 C 
BRANCH  26  27
ATOM     27  C   UNL A   1      33.012  30.067  25.456  1.00  0.00     0.261 C 
BRANCH  27  28
ATOM     28  O   UNL A   1      34.300  29.705  25.988  1.00  0.00    -0.460 OA
BRANCH  28  29
ATOM     29  C   UNL A   1      34.321  29.495  27.324  1.00  0.00     0.338 C 
ATOM     30  O   UNL A   1      33.371  29.196  28.037  1.00  0.00    -0.246 OA
BRANCH  29  31
ATOM     31  C   UNL A   1      35.710  29.491  27.816  1.00  0.00     0.060 A 
ATOM     32  C   UNL A   1      36.729  29.604  26.861  1.00  0.00     0.016 A 
ATOM     33  C   UNL A   1      36.021  29.316  29.167  1.00  0.00     0.016 A 
ATOM     34  C   UNL A   1      38.062  29.482  27.244  1.00  0.00     0.010 A 
ATOM     35  C   UNL A   1      37.361  29.186  29.548  1.00  0.00     0.010 A 
ATOM     36  C   UNL A   1      38.384  29.228  28.583  1.00  0.00    -0.014 A 
BRANCH  36  37
ATOM     37  C   UNL A   1      39.774  28.848  28.932  1.00  0.00     0.031 A 
ATOM     38  C   UNL A   1      40.645  29.850  29.643  1.00  0.00     0.074 A 
ATOM     39  C   UNL A   1      40.241  27.615  28.666  1.00  0.00     0.049 A 
ATOM     40  N   UNL A   1      41.879  29.728  30.056  1.00  0.00    -0.248 NA
ATOM     41  C   UNL A   1      40.040  31.162  29.930  1.00  0.00     0.031 C 
ATOM     42  C   UNL A   1      39.481  26.544  28.021  1.00  0.00     0.029 A 
ATOM     43  N   UNL A   1      41.469  27.056  28.912  1.00  0.00    -0.354 N 
ATOM     44  C   UNL A   1      42.203  30.945  30.646  1.00  0.00     0.074 A 
ATOM     45  C   UNL A   1      41.046  31.802  30.510  1.00  0.00     0.031 C 
ATOM     46  C   UNL A   1      40.263  25.455  27.921  1.00  0.00     0.029 A 
ATOM     47  C   UNL A   1      41.584  25.760  28.468  1.00  0.00     0.049 A 
ATOM     48  H   UNL A   1      42.200  27.537  29.363  1.00  0.00     0.167 HD
ATOM     49  C   UNL A   1      43.356  31.314  31.252  1.00  0.00     0.031 A 
ATOM     50  C   UNL A   1      42.638  24.921  28.489  1.00  0.00     0.031 A 
ATOM     51  C   UNL A   1      44.509  30.465  31.377  1.00  0.00     0.049 A 
ATOM     52  C   UNL A   1      43.934  25.377  29.110  1.00  0.00     0.074 A 
ATOM     53  C   UNL A   1      45.721  30.743  31.986  1.00  0.00     0.029 A 
ATOM     54  N   UNL A   1      44.600  29.175  30.878  1.00  0.00    -0.354 N 
ATOM     55  N   UNL A   1      44.214  26.523  29.683  1.00  0.00    -0.248 NA
ATOM     56  C   UNL A   1      45.050  24.421  29.094  1.00  0.00     0.031 C 
ATOM     57  C   UNL A   1      46.563  29.640  31.807  1.00  0.00     0.029 A 
ATOM     58  C   UNL A   1      45.855  28.652  31.141  1.00  0.00     0.049 A 
ATOM     59  H   UNL A   1      43.877  28.699  30.407  1.00  0.00     0.167 HD
ATOM     60  C   UNL A   1      45.531  26.416  30.120  1.00  0.00     0.074 A 
ATOM     61  C   UNL A   1      45.985  25.088  29.756  1.00  0.00     0.031 C 
ATOM     62  C   UNL A   1      46.294  27.331  30.768  1.00  0.00     0.031 A 
BRANCH  49  63
ATOM     63  C   UNL A   1      43.435  32.715  31.799  1.00  0.00    -0.014 A 
ATOM     64  C   UNL A   1      44.028  33.755  31.061  1.00  0.00     0.010 A 
ATOM     65  C   UNL A   1      42.879  33.001  33.059  1.00  0.00     0.010 A 
ATOM     66  C   UNL A   1      44.099  35.046  31.589  1.00  0.00     0.020 A 
ATOM     67  C   UNL A   1      42.925  34.297  33.580  1.00  0.00     0.020 A 
ATOM     68  C   UNL A   1      43.550  35.308  32.849  1.00  0.00     0.054 A 
BRANCH  68  69
ATOM     69  S   UNL A   1      43.642  36.996  33.507  1.00  0.00     0.124 S 
ATOM     70  O   UNL A   1      45.067  37.129  33.797  1.00  0.00    -0.237 OA
ATOM     71  O   UNL A   1      43.151  37.801  32.391  1.00  0.00    -0.237 OA
ATOM     72  O   UNL A   1      42.769  36.960  34.676  1.00  0.00    -0.744 OA
ENDBRANCH  68  69
ENDBRANCH  49  63
BRANCH  50  73
ATOM     73  C   UNL A   1      42.518  23.564  27.889  1.00  0.00    -0.014 A 
ATOM     74  C   UNL A   1      41.778  22.556  28.529  1.00  0.00     0.010 A 
ATOM     75  C   UNL A   1      43.149  23.277  26.664  1.00  0.00     0.010 A 
ATOM     76  C   UNL A   1      41.679  21.281  27.963  1.00  0.00     0.020 A 
ATOM     77  C   UNL A   1      43.031  22.012  26.082  1.00  0.00     0.020 A 
ATOM     78  C   UNL A   1      42.306  21.019  26.740  1.00  0.00     0.054 A 
BRANCH  78  79
ATOM     79  S   UNL A   1      42.119  19.375  25.995  1.00  0.00     0.124 S 
ATOM     80  O   UNL A   1      42.937  19.492  24.793  1.00  0.00    -0.237 OA
ATOM     81  O   UNL A   1      42.644  18.495  27.037  1.00  0.00    -0.237 OA
ATOM     82  O   UNL A   1      40.679  19.267  25.767  1.00  0.00    -0.744 OA
ENDBRANCH  78  79
ENDBRANCH  50  73
BRANCH  62  83
ATOM     83  C   UNL A   1      47.690  26.922  31.157  1.00  0.00    -0.014 A 
ATOM     84  C   UNL A   1      47.949  26.280  32.381  1.00  0.00     0.010 A 
ATOM     85  C   UNL A   1      48.751  27.136  30.258  1.00  0.00     0.010 A 
ATOM     86  C   UNL A   1      49.249  25.890  32.714  1.00  0.00     0.020 A 
ATOM     87  C   UNL A   1      50.048  26.724  30.575  1.00  0.00     0.020 A 
ATOM     88  C   UNL A   1      50.291  26.117  31.808  1.00  0.00     0.054 A 
BRANCH  88  89
ATOM     89  S   UNL A   1      51.964  25.568  32.246  1.00  0.00     0.124 S 
ATOM     90  O   UNL A   1      52.184  26.249  33.519  1.00  0.00    -0.237 OA
ATOM     91  O   UNL A   1      51.817  24.117  32.326  1.00  0.00    -0.237 OA
ATOM     92  O   UNL A   1      52.786  26.043  31.134  1.00  0.00    -0.744 OA
ENDBRANCH  88  89
ENDBRANCH  62  83
ENDBRANCH  36  37
ENDBRANCH  29  31
ENDBRANCH  28  29
ENDBRANCH  27  28
ENDBRANCH  26  27
ENDBRANCH   1  26
TORSDOF 20
ENDMDL
