MODEL 1
REMARK VINA RESULT:     -12.2      0.000      0.000
REMARK SMILES O=C(Cn1c(-c2nc(-c3ccc(C(F)(F)F)cc3)no2)cc2ccccc21)OCCOCCOC(=O)c1ccc(-c2c3nc(c(-c4ccc(S(=O)(=O)[O-])cc4)c4ccc([nH]4)c(-c4ccc(S(=O)(=O)[O-])cc4)c4nc(c(-c5ccc(S(=O)(=O)[O-])cc5)c5ccc2[nH]5)C=C4)C=C3)cc1
REMARK SMILES IDX 30 1 29 2 28 3 2 4 1 5 3 6 4 7 5 8 27 9 21 10 22 11 26 12
REMARK SMILES IDX 23 13 25 14 24 15 6 16 7 17 20 18 8 19 19 20 9 21 10 22
REMARK SMILES IDX 18 23 11 24 17 25 12 26 13 27 14 28 15 29 16 30 31 31 32 32
REMARK SMILES IDX 33 33 34 34 35 35 36 36 37 37 38 38 96 39 39 40 95 41 40 42
REMARK SMILES IDX 41 43 42 44 89 45 43 46 94 47 88 48 90 49 44 50 93 51 87 52
REMARK SMILES IDX 86 53 45 55 75 56 56 57 74 58 57 59 60 60 73 61 91 62 58 63
REMARK SMILES IDX 59 64 72 66 92 67 61 68 46 69 47 70 55 71 48 72 54 73 49 74
REMARK SMILES IDX 50 75 51 76 52 77 53 78 76 79 77 80 85 81 78 82 84 83 79 84
REMARK SMILES IDX 80 85 81 86 82 87 83 88 62 89 63 90 71 91 64 92 70 93 65 94
REMARK SMILES IDX 66 95 67 96 68 97 69 98
REMARK H PARENT 90 54 60 65
REMARK Flexibility Score: inf
ROOT
ATOM      1  C   UNL A   1      34.044  31.673  27.432  1.00  0.00     0.202 C 
ENDROOT
BRANCH   1   2
ATOM      2  C   UNL A   1      33.514  30.237  27.335  1.00  0.00     0.261 C 
BRANCH   2   3
ATOM      3  O   UNL A   1      32.159  30.095  26.945  1.00  0.00    -0.462 OA
BRANCH   3   4
ATOM      4  C   UNL A   1      31.791  29.003  26.266  1.00  0.00     0.326 C 
ATOM      5  O   UNL A   1      31.491  27.988  26.887  1.00  0.00    -0.250 OA
BRANCH   4   6
ATOM      6  C   UNL A   1      31.892  29.079  24.758  1.00  0.00     0.245 C 
BRANCH   6   7
ATOM      7  N   UNL A   1      30.704  28.631  24.056  1.00  0.00    -0.325 N 
ATOM      8  C   UNL A   1      30.187  27.343  23.771  1.00  0.00     0.109 A 
ATOM      9  C   UNL A   1      29.771  29.641  23.765  1.00  0.00     0.049 A 
ATOM     10  C   UNL A   1      28.883  27.632  23.344  1.00  0.00     0.042 A 
ATOM     11  C   UNL A   1      28.653  29.032  23.236  1.00  0.00     0.000 A 
ATOM     12  C   UNL A   1      29.827  31.046  23.956  1.00  0.00     0.027 A 
ATOM     13  C   UNL A   1      27.589  29.852  22.792  1.00  0.00     0.010 A 
ATOM     14  C   UNL A   1      28.754  31.835  23.552  1.00  0.00     0.002 A 
ATOM     15  C   UNL A   1      27.654  31.247  22.953  1.00  0.00     0.001 A 
BRANCH   8  16
ATOM     16  C   UNL A   1      30.673  25.918  23.939  1.00  0.00     0.274 A 
ATOM     17  N   UNL A   1      31.886  25.441  24.267  1.00  0.00    -0.185 NA
ATOM     18  O   UNL A   1      29.914  24.872  23.437  1.00  0.00    -0.332 OA
ATOM     19  C   UNL A   1      31.867  24.043  23.907  1.00  0.00     0.202 A 
ATOM     20  N   UNL A   1      30.656  23.689  23.463  1.00  0.00    -0.057 NA
BRANCH  19  21
ATOM     21  C   UNL A   1      33.012  23.041  24.021  1.00  0.00     0.023 A 
ATOM     22  C   UNL A   1      32.992  21.748  24.566  1.00  0.00     0.013 A 
ATOM     23  C   UNL A   1      34.256  23.350  23.525  1.00  0.00     0.013 A 
ATOM     24  C   UNL A   1      34.195  20.974  24.820  1.00  0.00     0.014 A 
ATOM     25  C   UNL A   1      35.470  22.653  23.848  1.00  0.00     0.014 A 
ATOM     26  C   UNL A   1      35.470  21.479  24.565  1.00  0.00     0.056 A 
BRANCH  26  27
ATOM     27  C   UNL A   1      36.796  20.858  24.979  1.00  0.00     0.416 C 
ATOM     28  F   UNL A   1      37.299  21.364  26.140  1.00  0.00    -0.166 F 
ATOM     29  F   UNL A   1      36.732  19.508  25.154  1.00  0.00    -0.166 F 
ATOM     30  F   UNL A   1      37.784  21.051  24.051  1.00  0.00    -0.166 F 
ENDBRANCH  26  27
ENDBRANCH  19  21
ENDBRANCH   8  16
ENDBRANCH   6   7
ENDBRANCH   4   6
ENDBRANCH   3   4
ENDBRANCH   2   3
ENDBRANCH   1   2
BRANCH   1  31
ATOM     31  O   UNL A   1      33.096  32.653  27.854  1.00  0.00    -0.374 OA
BRANCH  31  32
ATOM     32  C   UNL A   1      33.610  33.955  28.165  1.00  0.00     0.202 C 
BRANCH  32  33
ATOM     33  C   UNL A   1      34.806  33.960  29.128  1.00  0.00     0.261 C 
BRANCH  33  34
ATOM     34  O   UNL A   1      34.488  33.126  30.276  1.00  0.00    -0.460 OA
BRANCH  34  35
ATOM     35  C   UNL A   1      35.171  33.412  31.436  1.00  0.00     0.338 C 
ATOM     36  O   UNL A   1      34.682  33.758  32.455  1.00  0.00    -0.246 OA
BRANCH  35  37
ATOM     37  C   UNL A   1      36.553  32.797  31.322  1.00  0.00     0.060 A 
ATOM     38  C   UNL A   1      37.793  33.393  31.015  1.00  0.00     0.016 A 
ATOM     39  C   UNL A   1      36.548  31.431  31.391  1.00  0.00     0.016 A 
ATOM     40  C   UNL A   1      38.962  32.602  30.607  1.00  0.00     0.010 A 
ATOM     41  C   UNL A   1      37.754  30.767  31.142  1.00  0.00     0.010 A 
ATOM     42  C   UNL A   1      38.931  31.207  30.547  1.00  0.00    -0.014 A 
BRANCH  42  43
ATOM     43  C   UNL A   1      40.021  30.126  30.278  1.00  0.00     0.031 A 
ATOM     44  C   UNL A   1      40.677  29.541  31.515  1.00  0.00     0.074 A 
ATOM     45  C   UNL A   1      40.258  29.280  29.214  1.00  0.00     0.049 A 
ATOM     46  N   UNL A   1      41.370  30.163  32.419  1.00  0.00    -0.248 NA
ATOM     47  C   UNL A   1      40.418  28.120  31.888  1.00  0.00     0.031 C 
ATOM     48  C   UNL A   1      39.613  29.151  27.912  1.00  0.00     0.029 A 
ATOM     49  N   UNL A   1      41.159  28.214  29.144  1.00  0.00    -0.354 N 
ATOM     50  C   UNL A   1      41.780  29.156  33.295  1.00  0.00     0.074 A 
ATOM     51  C   UNL A   1      40.801  28.119  33.163  1.00  0.00     0.031 C 
ATOM     52  C   UNL A   1      39.964  27.974  27.312  1.00  0.00     0.029 A 
ATOM     53  C   UNL A   1      40.994  27.316  28.082  1.00  0.00     0.049 A 
ATOM     54  H   UNL A   1      41.875  28.099  29.809  1.00  0.00     0.167 HD
ATOM     55  C   UNL A   1      43.085  28.890  33.618  1.00  0.00     0.031 A 
ATOM     56  C   UNL A   1      41.725  26.196  27.788  1.00  0.00     0.031 A 
ATOM     57  C   UNL A   1      43.994  29.679  32.820  1.00  0.00     0.049 A 
ATOM     58  C   UNL A   1      43.062  26.455  28.367  1.00  0.00     0.074 A 
ATOM     59  C   UNL A   1      44.113  31.016  32.496  1.00  0.00     0.029 A 
ATOM     60  N   UNL A   1      44.710  28.990  31.862  1.00  0.00    -0.354 N 
ATOM     61  N   UNL A   1      43.828  27.433  27.971  1.00  0.00    -0.248 NA
ATOM     62  C   UNL A   1      43.480  25.789  29.588  1.00  0.00     0.031 C 
ATOM     63  C   UNL A   1      44.507  31.039  31.129  1.00  0.00     0.029 A 
ATOM     64  C   UNL A   1      44.703  29.724  30.700  1.00  0.00     0.049 A 
ATOM     65  H   UNL A   1      45.152  28.120  31.991  1.00  0.00     0.167 HD
ATOM     66  C   UNL A   1      44.480  27.825  29.119  1.00  0.00     0.074 A 
ATOM     67  C   UNL A   1      44.396  26.668  30.004  1.00  0.00     0.031 C 
ATOM     68  C   UNL A   1      44.703  29.149  29.362  1.00  0.00     0.031 A 
BRANCH  55  69
ATOM     69  C   UNL A   1      43.576  27.667  34.377  1.00  0.00    -0.014 A 
ATOM     70  C   UNL A   1      43.814  27.587  35.765  1.00  0.00     0.010 A 
ATOM     71  C   UNL A   1      43.756  26.476  33.647  1.00  0.00     0.010 A 
ATOM     72  C   UNL A   1      44.339  26.441  36.372  1.00  0.00     0.020 A 
ATOM     73  C   UNL A   1      44.221  25.299  34.255  1.00  0.00     0.020 A 
ATOM     74  C   UNL A   1      44.551  25.304  35.607  1.00  0.00     0.054 A 
BRANCH  74  75
ATOM     75  S   UNL A   1      45.212  23.830  36.423  1.00  0.00     0.124 S 
ATOM     76  O   UNL A   1      44.401  22.769  35.828  1.00  0.00    -0.237 OA
ATOM     77  O   UNL A   1      46.615  23.848  36.023  1.00  0.00    -0.237 OA
ATOM     78  O   UNL A   1      44.965  24.087  37.839  1.00  0.00    -0.744 OA
ENDBRANCH  74  75
ENDBRANCH  55  69
BRANCH  56  79
ATOM     79  C   UNL A   1      41.529  24.902  27.049  1.00  0.00    -0.014 A 
ATOM     80  C   UNL A   1      40.365  24.134  27.247  1.00  0.00     0.010 A 
ATOM     81  C   UNL A   1      42.638  24.236  26.469  1.00  0.00     0.010 A 
ATOM     82  C   UNL A   1      40.347  22.745  26.983  1.00  0.00     0.020 A 
ATOM     83  C   UNL A   1      42.628  22.850  26.203  1.00  0.00     0.020 A 
ATOM     84  C   UNL A   1      41.493  22.102  26.507  1.00  0.00     0.054 A 
BRANCH  84  85
ATOM     85  S   UNL A   1      41.517  20.279  26.400  1.00  0.00     0.124 S 
ATOM     86  O   UNL A   1      41.919  19.900  27.751  1.00  0.00    -0.237 OA
ATOM     87  O   UNL A   1      40.135  19.962  26.045  1.00  0.00    -0.237 OA
ATOM     88  O   UNL A   1      42.502  20.001  25.357  1.00  0.00    -0.744 OA
ENDBRANCH  84  85
ENDBRANCH  56  79
BRANCH  68  89
ATOM     89  C   UNL A   1      44.639  30.136  28.201  1.00  0.00    -0.014 A 
ATOM     90  C   UNL A   1      45.857  30.654  27.726  1.00  0.00     0.010 A 
ATOM     91  C   UNL A   1      43.449  30.698  27.694  1.00  0.00     0.010 A 
ATOM     92  C   UNL A   1      45.890  31.732  26.836  1.00  0.00     0.020 A 
ATOM     93  C   UNL A   1      43.471  31.762  26.778  1.00  0.00     0.020 A 
ATOM     94  C   UNL A   1      44.696  32.295  26.384  1.00  0.00     0.054 A 
BRANCH  94  95
ATOM     95  S   UNL A   1      44.784  33.749  25.303  1.00  0.00     0.124 S 
ATOM     96  O   UNL A   1      44.316  33.210  24.027  1.00  0.00    -0.237 OA
ATOM     97  O   UNL A   1      43.872  34.690  25.952  1.00  0.00    -0.237 OA
ATOM     98  O   UNL A   1      46.191  34.133  25.340  1.00  0.00    -0.744 OA
ENDBRANCH  94  95
ENDBRANCH  68  89
ENDBRANCH  42  43
ENDBRANCH  35  37
ENDBRANCH  34  35
ENDBRANCH  33  34
ENDBRANCH  32  33
ENDBRANCH  31  32
ENDBRANCH   1  31
TORSDOF 21
ENDMDL
MODEL 2
REMARK VINA RESULT:     -12.1      3.129      5.519
REMARK SMILES O=C(Cn1c(-c2nc(-c3ccc(C(F)(F)F)cc3)no2)cc2ccccc21)OCCOCCOC(=O)c1ccc(-c2c3nc(c(-c4ccc(S(=O)(=O)[O-])cc4)c4ccc([nH]4)c(-c4ccc(S(=O)(=O)[O-])cc4)c4nc(c(-c5ccc(S(=O)(=O)[O-])cc5)c5ccc2[nH]5)C=C4)C=C3)cc1
REMARK SMILES IDX 30 1 29 2 28 3 2 4 1 5 3 6 4 7 5 8 27 9 21 10 22 11 26 12
REMARK SMILES IDX 23 13 25 14 24 15 6 16 7 17 20 18 8 19 19 20 9 21 10 22
REMARK SMILES IDX 18 23 11 24 17 25 12 26 13 27 14 28 15 29 16 30 31 31 32 32
REMARK SMILES IDX 33 33 34 34 35 35 36 36 37 37 38 38 96 39 39 40 95 41 40 42
REMARK SMILES IDX 41 43 42 44 89 45 43 46 94 47 88 48 90 49 44 50 93 51 87 52
REMARK SMILES IDX 86 53 45 55 75 56 56 57 74 58 57 59 60 60 73 61 91 62 58 63
REMARK SMILES IDX 59 64 72 66 92 67 61 68 46 69 47 70 55 71 48 72 54 73 49 74
REMARK SMILES IDX 50 75 51 76 52 77 53 78 76 79 77 80 85 81 78 82 84 83 79 84
REMARK SMILES IDX 80 85 81 86 82 87 83 88 62 89 63 90 71 91 64 92 70 93 65 94
REMARK SMILES IDX 66 95 67 96 68 97 69 98
REMARK H PARENT 90 54 60 65
REMARK Flexibility Score: inf
ROOT
ATOM      1  C   UNL A   1      33.581  27.145  26.134  1.00  0.00     0.202 C 
ENDROOT
BRANCH   1   2
ATOM      2  C   UNL A   1      34.013  25.749  25.665  1.00  0.00     0.261 C 
BRANCH   2   3
ATOM      3  O   UNL A   1      33.532  24.656  26.428  1.00  0.00    -0.462 OA
BRANCH   3   4
ATOM      4  C   UNL A   1      33.968  23.424  26.141  1.00  0.00     0.326 C 
ATOM      5  O   UNL A   1      35.142  23.266  25.821  1.00  0.00    -0.250 OA
BRANCH   4   6
ATOM      6  C   UNL A   1      32.925  22.327  26.122  1.00  0.00     0.245 C 
BRANCH   6   7
ATOM      7  N   UNL A   1      32.509  21.923  24.792  1.00  0.00    -0.325 N 
ATOM      8  C   UNL A   1      32.228  22.655  23.611  1.00  0.00     0.109 A 
ATOM      9  C   UNL A   1      32.579  20.542  24.543  1.00  0.00     0.049 A 
ATOM     10  C   UNL A   1      32.184  21.645  22.638  1.00  0.00     0.042 A 
ATOM     11  C   UNL A   1      32.292  20.346  23.208  1.00  0.00     0.000 A 
ATOM     12  C   UNL A   1      32.900  19.454  25.396  1.00  0.00     0.027 A 
ATOM     13  C   UNL A   1      32.228  19.020  22.722  1.00  0.00     0.010 A 
ATOM     14  C   UNL A   1      32.874  18.157  24.892  1.00  0.00     0.002 A 
ATOM     15  C   UNL A   1      32.518  17.939  23.573  1.00  0.00     0.001 A 
BRANCH   8  16
ATOM     16  C   UNL A   1      32.109  24.120  23.246  1.00  0.00     0.274 A 
ATOM     17  N   UNL A   1      31.195  25.038  23.603  1.00  0.00    -0.185 NA
ATOM     18  O   UNL A   1      32.836  24.620  22.176  1.00  0.00    -0.332 OA
ATOM     19  C   UNL A   1      31.356  26.132  22.674  1.00  0.00     0.202 A 
ATOM     20  N   UNL A   1      32.386  25.902  21.853  1.00  0.00    -0.057 NA
BRANCH  19  21
ATOM     21  C   UNL A   1      30.531  27.414  22.599  1.00  0.00     0.023 A 
ATOM     22  C   UNL A   1      30.865  28.635  21.993  1.00  0.00     0.013 A 
ATOM     23  C   UNL A   1      29.272  27.460  23.147  1.00  0.00     0.013 A 
ATOM     24  C   UNL A   1      30.094  29.851  22.179  1.00  0.00     0.014 A 
ATOM     25  C   UNL A   1      28.538  28.664  23.428  1.00  0.00     0.014 A 
ATOM     26  C   UNL A   1      28.972  29.899  23.006  1.00  0.00     0.056 A 
BRANCH  26  27
ATOM     27  C   UNL A   1      28.215  31.145  23.443  1.00  0.00     0.416 C 
ATOM     28  F   UNL A   1      27.914  31.991  22.419  1.00  0.00    -0.166 F 
ATOM     29  F   UNL A   1      27.034  30.872  24.066  1.00  0.00    -0.166 F 
ATOM     30  F   UNL A   1      28.921  31.906  24.336  1.00  0.00    -0.166 F 
ENDBRANCH  26  27
ENDBRANCH  19  21
ENDBRANCH   8  16
ENDBRANCH   6   7
ENDBRANCH   4   6
ENDBRANCH   3   4
ENDBRANCH   2   3
ENDBRANCH   1   2
BRANCH   1  31
ATOM     31  O   UNL A   1      33.088  28.012  25.112  1.00  0.00    -0.374 OA
BRANCH  31  32
ATOM     32  C   UNL A   1      33.308  29.416  25.300  1.00  0.00     0.202 C 
BRANCH  32  33
ATOM     33  C   UNL A   1      32.693  29.997  26.581  1.00  0.00     0.261 C 
BRANCH  33  34
ATOM     34  O   UNL A   1      33.727  30.088  27.599  1.00  0.00    -0.460 OA
BRANCH  34  35
ATOM     35  C   UNL A   1      34.438  31.266  27.633  1.00  0.00     0.338 C 
ATOM     36  O   UNL A   1      33.971  32.352  27.610  1.00  0.00    -0.246 OA
BRANCH  35  37
ATOM     37  C   UNL A   1      35.831  30.951  28.142  1.00  0.00     0.060 A 
ATOM     38  C   UNL A   1      36.793  31.789  28.743  1.00  0.00     0.016 A 
ATOM     39  C   UNL A   1      36.251  29.687  27.831  1.00  0.00     0.016 A 
ATOM     40  C   UNL A   1      38.206  31.403  28.856  1.00  0.00     0.010 A 
ATOM     41  C   UNL A   1      37.579  29.357  28.124  1.00  0.00     0.010 A 
ATOM     42  C   UNL A   1      38.674  30.161  28.421  1.00  0.00    -0.014 A 
BRANCH  42  43
ATOM     43  C   UNL A   1      40.055  29.446  28.523  1.00  0.00     0.031 A 
ATOM     44  C   UNL A   1      40.408  28.903  29.895  1.00  0.00     0.074 A 
ATOM     45  C   UNL A   1      40.863  28.832  27.587  1.00  0.00     0.049 A 
ATOM     46  N   UNL A   1      40.554  29.566  31.001  1.00  0.00    -0.248 NA
ATOM     47  C   UNL A   1      40.463  27.429  30.115  1.00  0.00     0.031 C 
ATOM     48  C   UNL A   1      40.749  28.704  26.138  1.00  0.00     0.029 A 
ATOM     49  N   UNL A   1      42.005  28.057  27.810  1.00  0.00    -0.354 N 
ATOM     50  C   UNL A   1      40.925  28.600  31.938  1.00  0.00     0.074 A 
ATOM     51  C   UNL A   1      40.389  27.368  31.443  1.00  0.00     0.031 C 
ATOM     52  C   UNL A   1      41.602  27.744  25.670  1.00  0.00     0.029 A 
ATOM     53  C   UNL A   1      42.465  27.287  26.733  1.00  0.00     0.049 A 
ATOM     54  H   UNL A   1      42.463  28.051  28.681  1.00  0.00     0.167 HD
ATOM     55  C   UNL A   1      42.069  28.647  32.692  1.00  0.00     0.031 A 
ATOM     56  C   UNL A   1      43.543  26.445  26.685  1.00  0.00     0.031 A 
ATOM     57  C   UNL A   1      42.920  29.740  32.285  1.00  0.00     0.049 A 
ATOM     58  C   UNL A   1      44.480  26.970  27.704  1.00  0.00     0.074 A 
ATOM     59  C   UNL A   1      42.747  31.091  32.059  1.00  0.00     0.029 A 
ATOM     60  N   UNL A   1      44.078  29.389  31.621  1.00  0.00    -0.354 N 
ATOM     61  N   UNL A   1      45.015  28.156  27.628  1.00  0.00    -0.248 NA
ATOM     62  C   UNL A   1      44.646  26.289  28.976  1.00  0.00     0.031 C 
ATOM     63  C   UNL A   1      43.545  31.388  30.918  1.00  0.00     0.029 A 
ATOM     64  C   UNL A   1      44.242  30.235  30.550  1.00  0.00     0.049 A 
ATOM     65  H   UNL A   1      44.685  28.656  31.874  1.00  0.00     0.167 HD
ATOM     66  C   UNL A   1      45.111  28.558  28.942  1.00  0.00     0.074 A 
ATOM     67  C   UNL A   1      45.079  27.318  29.709  1.00  0.00     0.031 C 
ATOM     68  C   UNL A   1      44.848  29.853  29.283  1.00  0.00     0.031 A 
BRANCH  55  69
ATOM     69  C   UNL A   1      42.614  27.510  33.542  1.00  0.00    -0.014 A 
ATOM     70  C   UNL A   1      42.144  27.119  34.812  1.00  0.00     0.010 A 
ATOM     71  C   UNL A   1      43.648  26.726  32.994  1.00  0.00     0.010 A 
ATOM     72  C   UNL A   1      42.754  26.107  35.560  1.00  0.00     0.020 A 
ATOM     73  C   UNL A   1      44.228  25.665  33.708  1.00  0.00     0.020 A 
ATOM     74  C   UNL A   1      43.805  25.391  35.005  1.00  0.00     0.054 A 
BRANCH  74  75
ATOM     75  S   UNL A   1      44.562  24.074  35.988  1.00  0.00     0.124 S 
ATOM     76  O   UNL A   1      44.160  24.443  37.344  1.00  0.00    -0.237 OA
ATOM     77  O   UNL A   1      43.931  22.873  35.450  1.00  0.00    -0.237 OA
ATOM     78  O   UNL A   1      45.986  24.211  35.698  1.00  0.00    -0.744 OA
ENDBRANCH  74  75
ENDBRANCH  55  69
BRANCH  56  79
ATOM     79  C   UNL A   1      43.984  25.248  25.890  1.00  0.00    -0.014 A 
ATOM     80  C   UNL A   1      43.039  24.448  25.217  1.00  0.00     0.010 A 
ATOM     81  C   UNL A   1      45.259  24.670  26.117  1.00  0.00     0.010 A 
ATOM     82  C   UNL A   1      43.319  23.102  24.889  1.00  0.00     0.020 A 
ATOM     83  C   UNL A   1      45.544  23.326  25.792  1.00  0.00     0.020 A 
ATOM     84  C   UNL A   1      44.552  22.535  25.220  1.00  0.00     0.054 A 
BRANCH  84  85
ATOM     85  S   UNL A   1      44.799  20.738  25.000  1.00  0.00     0.124 S 
ATOM     86  O   UNL A   1      46.151  20.551  25.521  1.00  0.00    -0.237 OA
ATOM     87  O   UNL A   1      43.730  20.166  25.814  1.00  0.00    -0.237 OA
ATOM     88  O   UNL A   1      44.655  20.538  23.560  1.00  0.00    -0.744 OA
ENDBRANCH  84  85
ENDBRANCH  56  79
BRANCH  68  89
ATOM     89  C   UNL A   1      44.887  30.926  28.200  1.00  0.00    -0.014 A 
ATOM     90  C   UNL A   1      45.961  31.834  28.230  1.00  0.00     0.010 A 
ATOM     91  C   UNL A   1      43.840  31.182  27.290  1.00  0.00     0.010 A 
ATOM     92  C   UNL A   1      45.960  32.986  27.435  1.00  0.00     0.020 A 
ATOM     93  C   UNL A   1      43.843  32.320  26.468  1.00  0.00     0.020 A 
ATOM     94  C   UNL A   1      44.890  33.234  26.574  1.00  0.00     0.054 A 
BRANCH  94  95
ATOM     95  S   UNL A   1      44.885  34.783  25.630  1.00  0.00     0.124 S 
ATOM     96  O   UNL A   1      45.984  35.521  26.248  1.00  0.00    -0.237 OA
ATOM     97  O   UNL A   1      45.132  34.328  24.263  1.00  0.00    -0.237 OA
ATOM     98  O   UNL A   1      43.553  35.334  25.862  1.00  0.00    -0.744 OA
ENDBRANCH  94  95
ENDBRANCH  68  89
ENDBRANCH  42  43
ENDBRANCH  35  37
ENDBRANCH  34  35
ENDBRANCH  33  34
ENDBRANCH  32  33
ENDBRANCH  31  32
ENDBRANCH   1  31
TORSDOF 21
ENDMDL
MODEL 3
REMARK VINA RESULT:     -12.0      1.624      2.228
REMARK SMILES O=C(Cn1c(-c2nc(-c3ccc(C(F)(F)F)cc3)no2)cc2ccccc21)OCCOCCOC(=O)c1ccc(-c2c3nc(c(-c4ccc(S(=O)(=O)[O-])cc4)c4ccc([nH]4)c(-c4ccc(S(=O)(=O)[O-])cc4)c4nc(c(-c5ccc(S(=O)(=O)[O-])cc5)c5ccc2[nH]5)C=C4)C=C3)cc1
REMARK SMILES IDX 30 1 29 2 28 3 2 4 1 5 3 6 4 7 5 8 27 9 21 10 22 11 26 12
REMARK SMILES IDX 23 13 25 14 24 15 6 16 7 17 20 18 8 19 19 20 9 21 10 22
REMARK SMILES IDX 18 23 11 24 17 25 12 26 13 27 14 28 15 29 16 30 31 31 32 32
REMARK SMILES IDX 33 33 34 34 35 35 36 36 37 37 38 38 96 39 39 40 95 41 40 42
REMARK SMILES IDX 41 43 42 44 89 45 43 46 94 47 88 48 90 49 44 50 93 51 87 52
REMARK SMILES IDX 86 53 45 55 75 56 56 57 74 58 57 59 60 60 73 61 91 62 58 63
REMARK SMILES IDX 59 64 72 66 92 67 61 68 46 69 47 70 55 71 48 72 54 73 49 74
REMARK SMILES IDX 50 75 51 76 52 77 53 78 76 79 77 80 85 81 78 82 84 83 79 84
REMARK SMILES IDX 80 85 81 86 82 87 83 88 62 89 63 90 71 91 64 92 70 93 65 94
REMARK SMILES IDX 66 95 67 96 68 97 69 98
REMARK H PARENT 90 54 60 65
REMARK Flexibility Score: inf
ROOT
ATOM      1  C   UNL A   1      32.186  30.479  26.585  1.00  0.00     0.202 C 
ENDROOT
BRANCH   1   2
ATOM      2  C   UNL A   1      33.136  29.584  25.780  1.00  0.00     0.261 C 
BRANCH   2   3
ATOM      3  O   UNL A   1      32.530  28.558  25.014  1.00  0.00    -0.462 OA
BRANCH   3   4
ATOM      4  C   UNL A   1      33.115  28.167  23.875  1.00  0.00     0.326 C 
ATOM      5  O   UNL A   1      34.340  28.150  23.809  1.00  0.00    -0.250 OA
BRANCH   4   6
ATOM      6  C   UNL A   1      32.195  27.887  22.706  1.00  0.00     0.245 C 
BRANCH   6   7
ATOM      7  N   UNL A   1      30.971  27.194  23.061  1.00  0.00    -0.325 N 
ATOM      8  C   UNL A   1      30.720  25.921  23.630  1.00  0.00     0.109 A 
ATOM      9  C   UNL A   1      29.811  27.987  23.030  1.00  0.00     0.049 A 
ATOM     10  C   UNL A   1      29.365  26.014  23.982  1.00  0.00     0.042 A 
ATOM     11  C   UNL A   1      28.775  27.225  23.527  1.00  0.00     0.000 A 
ATOM     12  C   UNL A   1      29.610  29.331  22.620  1.00  0.00     0.027 A 
ATOM     13  C   UNL A   1      27.475  27.781  23.532  1.00  0.00     0.010 A 
ATOM     14  C   UNL A   1      28.331  29.878  22.670  1.00  0.00     0.002 A 
ATOM     15  C   UNL A   1      27.267  29.103  23.099  1.00  0.00     0.001 A 
BRANCH   8  16
ATOM     16  C   UNL A   1      31.556  24.709  23.988  1.00  0.00     0.274 A 
ATOM     17  N   UNL A   1      31.857  23.614  23.270  1.00  0.00    -0.185 NA
ATOM     18  O   UNL A   1      31.873  24.464  25.315  1.00  0.00    -0.332 OA
ATOM     19  C   UNL A   1      32.346  22.645  24.223  1.00  0.00     0.202 A 
ATOM     20  N   UNL A   1      32.411  23.181  25.447  1.00  0.00    -0.057 NA
BRANCH  19  21
ATOM     21  C   UNL A   1      32.778  21.208  23.945  1.00  0.00     0.023 A 
ATOM     22  C   UNL A   1      32.171  20.258  23.110  1.00  0.00     0.013 A 
ATOM     23  C   UNL A   1      33.916  20.702  24.525  1.00  0.00     0.013 A 
ATOM     24  C   UNL A   1      32.547  18.855  23.098  1.00  0.00     0.014 A 
ATOM     25  C   UNL A   1      34.251  19.307  24.607  1.00  0.00     0.014 A 
ATOM     26  C   UNL A   1      33.528  18.342  23.946  1.00  0.00     0.056 A 
BRANCH  26  27
ATOM     27  C   UNL A   1      33.858  16.874  24.176  1.00  0.00     0.416 C 
ATOM     28  F   UNL A   1      34.231  16.213  23.044  1.00  0.00    -0.166 F 
ATOM     29  F   UNL A   1      34.863  16.678  25.075  1.00  0.00    -0.166 F 
ATOM     30  F   UNL A   1      32.796  16.164  24.667  1.00  0.00    -0.166 F 
ENDBRANCH  26  27
ENDBRANCH  19  21
ENDBRANCH   8  16
ENDBRANCH   6   7
ENDBRANCH   4   6
ENDBRANCH   3   4
ENDBRANCH   2   3
ENDBRANCH   1   2
BRANCH   1  31
ATOM     31  O   UNL A   1      32.808  31.525  27.331  1.00  0.00    -0.374 OA
BRANCH  31  32
ATOM     32  C   UNL A   1      34.085  31.230  27.911  1.00  0.00     0.202 C 
BRANCH  32  33
ATOM     33  C   UNL A   1      35.074  32.405  27.919  1.00  0.00     0.261 C 
BRANCH  33  34
ATOM     34  O   UNL A   1      34.735  33.298  29.015  1.00  0.00    -0.460 OA
BRANCH  34  35
ATOM     35  C   UNL A   1      35.056  32.851  30.277  1.00  0.00     0.338 C 
ATOM     36  O   UNL A   1      34.282  32.541  31.115  1.00  0.00    -0.246 OA
BRANCH  35  37
ATOM     37  C   UNL A   1      36.507  32.410  30.255  1.00  0.00     0.060 A 
ATOM     38  C   UNL A   1      37.667  33.111  29.861  1.00  0.00     0.016 A 
ATOM     39  C   UNL A   1      36.677  31.081  30.526  1.00  0.00     0.016 A 
ATOM     40  C   UNL A   1      38.935  32.427  29.575  1.00  0.00     0.010 A 
ATOM     41  C   UNL A   1      37.963  30.550  30.378  1.00  0.00     0.010 A 
ATOM     42  C   UNL A   1      39.084  31.046  29.723  1.00  0.00    -0.014 A 
BRANCH  42  43
ATOM     43  C   UNL A   1      40.309  30.089  29.617  1.00  0.00     0.031 A 
ATOM     44  C   UNL A   1      40.844  29.566  30.938  1.00  0.00     0.074 A 
ATOM     45  C   UNL A   1      40.781  29.281  28.602  1.00  0.00     0.049 A 
ATOM     46  N   UNL A   1      41.334  30.250  31.926  1.00  0.00    -0.248 NA
ATOM     47  C   UNL A   1      40.686  28.123  31.280  1.00  0.00     0.031 C 
ATOM     48  C   UNL A   1      40.342  29.096  27.223  1.00  0.00     0.029 A 
ATOM     49  N   UNL A   1      41.791  28.316  28.666  1.00  0.00    -0.354 N 
ATOM     50  C   UNL A   1      41.721  29.285  32.857  1.00  0.00     0.074 A 
ATOM     51  C   UNL A   1      40.885  28.151  32.596  1.00  0.00     0.031 C 
ATOM     52  C   UNL A   1      40.896  27.967  26.687  1.00  0.00     0.029 A 
ATOM     53  C   UNL A   1      41.872  27.415  27.598  1.00  0.00     0.049 A 
ATOM     54  H   UNL A   1      42.415  28.273  29.426  1.00  0.00     0.167 HD
ATOM     55  C   UNL A   1      42.988  29.155  33.362  1.00  0.00     0.031 A 
ATOM     56  C   UNL A   1      42.750  26.381  27.417  1.00  0.00     0.031 A 
ATOM     57  C   UNL A   1      43.912  30.042  32.694  1.00  0.00     0.049 A 
ATOM     58  C   UNL A   1      43.959  26.775  28.176  1.00  0.00     0.074 A 
ATOM     59  C   UNL A   1      43.933  31.387  32.381  1.00  0.00     0.029 A 
ATOM     60  N   UNL A   1      44.823  29.441  31.851  1.00  0.00    -0.354 N 
ATOM     61  N   UNL A   1      44.665  27.831  27.885  1.00  0.00    -0.248 NA
ATOM     62  C   UNL A   1      44.269  26.147  29.448  1.00  0.00     0.031 C 
ATOM     63  C   UNL A   1      44.510  31.462  31.082  1.00  0.00     0.029 A 
ATOM     64  C   UNL A   1      44.902  30.179  30.694  1.00  0.00     0.049 A 
ATOM     65  H   UNL A   1      45.333  28.621  32.046  1.00  0.00     0.167 HD
ATOM     66  C   UNL A   1      45.105  28.280  29.110  1.00  0.00     0.074 A 
ATOM     67  C   UNL A   1      45.020  27.114  29.982  1.00  0.00     0.031 C 
ATOM     68  C   UNL A   1      45.150  29.619  29.373  1.00  0.00     0.031 A 
BRANCH  55  69
ATOM     69  C   UNL A   1      43.493  27.985  34.191  1.00  0.00    -0.014 A 
ATOM     70  C   UNL A   1      43.330  27.815  35.581  1.00  0.00     0.010 A 
ATOM     71  C   UNL A   1      44.135  26.933  33.508  1.00  0.00     0.010 A 
ATOM     72  C   UNL A   1      43.894  26.742  36.278  1.00  0.00     0.020 A 
ATOM     73  C   UNL A   1      44.651  25.817  34.187  1.00  0.00     0.020 A 
ATOM     74  C   UNL A   1      44.565  25.752  35.574  1.00  0.00     0.054 A 
BRANCH  74  75
ATOM     75  S   UNL A   1      45.268  24.365  36.500  1.00  0.00     0.124 S 
ATOM     76  O   UNL A   1      46.607  24.268  35.925  1.00  0.00    -0.237 OA
ATOM     77  O   UNL A   1      45.207  24.840  37.879  1.00  0.00    -0.237 OA
ATOM     78  O   UNL A   1      44.370  23.257  36.184  1.00  0.00    -0.744 OA
ENDBRANCH  74  75
ENDBRANCH  55  69
BRANCH  56  79
ATOM     79  C   UNL A   1      42.798  25.080  26.667  1.00  0.00    -0.014 A 
ATOM     80  C   UNL A   1      42.670  23.855  27.350  1.00  0.00     0.010 A 
ATOM     81  C   UNL A   1      43.359  25.026  25.365  1.00  0.00     0.010 A 
ATOM     82  C   UNL A   1      43.180  22.653  26.806  1.00  0.00     0.020 A 
ATOM     83  C   UNL A   1      43.870  23.830  24.816  1.00  0.00     0.020 A 
ATOM     84  C   UNL A   1      43.819  22.656  25.563  1.00  0.00     0.054 A 
BRANCH  84  85
ATOM     85  S   UNL A   1      44.673  21.146  24.992  1.00  0.00     0.124 S 
ATOM     86  O   UNL A   1      44.677  21.327  23.543  1.00  0.00    -0.237 OA
ATOM     87  O   UNL A   1      45.979  21.253  25.640  1.00  0.00    -0.237 OA
ATOM     88  O   UNL A   1      43.829  20.059  25.481  1.00  0.00    -0.744 OA
ENDBRANCH  84  85
ENDBRANCH  56  79
BRANCH  68  89
ATOM     89  C   UNL A   1      45.146  30.603  28.208  1.00  0.00    -0.014 A 
ATOM     90  C   UNL A   1      46.302  31.379  28.015  1.00  0.00     0.010 A 
ATOM     91  C   UNL A   1      44.012  30.915  27.430  1.00  0.00     0.010 A 
ATOM     92  C   UNL A   1      46.308  32.465  27.134  1.00  0.00     0.020 A 
ATOM     93  C   UNL A   1      44.017  31.986  26.521  1.00  0.00     0.020 A 
ATOM     94  C   UNL A   1      45.158  32.776  26.408  1.00  0.00     0.054 A 
BRANCH  94  95
ATOM     95  S   UNL A   1      45.180  34.246  25.345  1.00  0.00     0.124 S 
ATOM     96  O   UNL A   1      46.613  34.482  25.180  1.00  0.00    -0.237 OA
ATOM     97  O   UNL A   1      44.483  33.787  24.145  1.00  0.00    -0.237 OA
ATOM     98  O   UNL A   1      44.467  35.256  26.122  1.00  0.00    -0.744 OA
ENDBRANCH  94  95
ENDBRANCH  68  89
ENDBRANCH  42  43
ENDBRANCH  35  37
ENDBRANCH  34  35
ENDBRANCH  33  34
ENDBRANCH  32  33
ENDBRANCH  31  32
ENDBRANCH   1  31
TORSDOF 21
ENDMDL
