MODEL 1
REMARK VINA RESULT:     -11.0      0.000      0.000
REMARK SMILES Cc1cccc(CC(=O)N2CCCC[C@@H]2C(=O)OCCOCCOC(=O)c2ccc(-c3c4nc(c(-c5ccc(S(=O)(=O)[O-])cc5)c5ccc([nH]5)c(-c5ccc(S(=O)(=O)[O-])cc5)c5nc(c(-c6ccc(S(=O)(=O)[O-])cc6)c6ccc3[nH]6)C=C5)C=C4)cc2)c1
REMARK SMILES IDX 21 1 20 2 19 3 18 4 16 5 17 6 15 7 10 8 11 9 12 10 14 11
REMARK SMILES IDX 13 12 8 13 9 14 7 15 6 16 1 17 2 18 3 19 87 20 4 21 5 22
REMARK SMILES IDX 22 23 23 24 24 25 25 26 26 27 27 28 28 29 86 30 29 31 85 32
REMARK SMILES IDX 30 33 31 34 32 35 79 36 33 37 84 38 78 39 80 40 34 41 83 42
REMARK SMILES IDX 77 43 76 44 35 46 65 47 46 48 64 49 47 50 50 51 63 52 81 53
REMARK SMILES IDX 48 54 49 55 62 57 82 58 51 59 36 60 37 61 45 62 38 63 44 64
REMARK SMILES IDX 39 65 40 66 41 67 42 68 43 69 66 70 67 71 75 72 68 73 74 74
REMARK SMILES IDX 69 75 70 76 71 77 72 78 73 79 52 80 53 81 61 82 54 83 60 84
REMARK SMILES IDX 55 85 56 86 57 87 58 88 59 89
REMARK H PARENT 80 45 50 56
REMARK Flexibility Score: inf
ROOT
ATOM      1  O   UNL A   1      39.148  20.590  25.783  1.00  0.00    -0.374 OA
ENDROOT
BRANCH   1   2
ATOM      2  C   UNL A   1      38.258  21.663  25.586  1.00  0.00     0.202 C 
BRANCH   2   3
ATOM      3  C   UNL A   1      36.706  21.232  25.428  1.00  0.00     0.261 C 
BRANCH   3   4
ATOM      4  O   UNL A   1      35.824  22.057  24.708  1.00  0.00    -0.462 OA
BRANCH   4   5
ATOM      5  C   UNL A   1      35.400  23.261  25.097  1.00  0.00     0.328 C 
ATOM      6  O   UNL A   1      36.064  24.239  25.392  1.00  0.00    -0.250 OA
BRANCH   5   7
ATOM      7  C   UNL A   1      33.889  23.204  25.066  1.00  0.00     0.195 C 
ATOM      8  N   UNL A   1      33.077  23.885  24.044  1.00  0.00    -0.329 N 
ATOM      9  C   UNL A   1      31.629  23.738  24.256  1.00  0.00     0.120 C 
ATOM     10  C   UNL A   1      31.148  24.032  25.677  1.00  0.00     0.022 C 
ATOM     11  C   UNL A   1      33.460  23.763  26.452  1.00  0.00     0.037 C 
ATOM     12  C   UNL A   1      32.030  23.403  26.742  1.00  0.00     0.005 C 
BRANCH   8  13
ATOM     13  C   UNL A   1      33.472  24.268  22.767  1.00  0.00     0.227 C 
ATOM     14  O   UNL A   1      34.014  23.434  22.027  1.00  0.00    -0.275 OA
BRANCH  13  15
ATOM     15  C   UNL A   1      33.439  25.717  22.315  1.00  0.00     0.135 C 
BRANCH  15  16
ATOM     16  C   UNL A   1      33.218  26.886  23.278  1.00  0.00    -0.038 A 
ATOM     17  C   UNL A   1      29.886  29.786  23.615  1.00  0.00     0.044 C 
ATOM     18  C   UNL A   1      30.907  28.836  24.128  1.00  0.00    -0.051 A 
ATOM     19  C   UNL A   1      31.584  28.925  25.813  1.00  0.00     0.003 A 
ATOM     20  C   UNL A   1      31.737  27.822  22.931  1.00  0.00     0.007 A 
ATOM     21  C   UNL A   1      33.303  27.917  26.165  1.00  0.00     0.001 A 
ATOM     22  C   UNL A   1      34.038  26.953  24.824  1.00  0.00     0.004 A 
ENDBRANCH  15  16
ENDBRANCH  13  15
ENDBRANCH   8  13
ENDBRANCH   5   7
ENDBRANCH   4   5
ENDBRANCH   3   4
ENDBRANCH   2   3
ENDBRANCH   1   2
BRANCH   1  23
ATOM     23  C   UNL A   1      40.395  21.126  26.128  1.00  0.00     0.202 C 
BRANCH  23  24
ATOM     24  C   UNL A   1      40.384  22.124  27.343  1.00  0.00     0.261 C 
BRANCH  24  25
ATOM     25  O   UNL A   1      40.468  23.698  27.233  1.00  0.00    -0.460 OA
BRANCH  25  26
ATOM     26  C   UNL A   1      40.432  25.052  27.192  1.00  0.00     0.338 C 
ATOM     27  O   UNL A   1      40.063  25.535  26.114  1.00  0.00    -0.246 OA
BRANCH  26  28
ATOM     28  C   UNL A   1      40.734  26.146  28.268  1.00  0.00     0.060 A 
ATOM     29  C   UNL A   1      39.317  26.499  29.310  1.00  0.00     0.016 A 
ATOM     30  C   UNL A   1      42.204  27.177  28.589  1.00  0.00     0.016 A 
ATOM     31  C   UNL A   1      39.252  27.782  30.556  1.00  0.00     0.010 A 
ATOM     32  C   UNL A   1      42.100  28.581  30.016  1.00  0.00     0.010 A 
ATOM     33  C   UNL A   1      40.590  28.809  30.904  1.00  0.00    -0.014 A 
BRANCH  33  34
ATOM     34  C   UNL A   1      40.862  30.035  31.627  1.00  0.00     0.031 A 
ATOM     35  C   UNL A   1      39.991  31.153  31.184  1.00  0.00     0.074 A 
ATOM     36  C   UNL A   1      41.008  29.677  32.941  1.00  0.00     0.049 A 
ATOM     37  N   UNL A   1      39.787  32.229  31.842  1.00  0.00    -0.248 NA
ATOM     38  C   UNL A   1      39.133  31.089  29.990  1.00  0.00     0.031 C 
ATOM     39  C   UNL A   1      40.356  30.113  34.185  1.00  0.00     0.029 A 
ATOM     40  N   UNL A   1      41.704  28.584  33.411  1.00  0.00    -0.354 N 
ATOM     41  C   UNL A   1      38.521  32.670  31.500  1.00  0.00     0.074 A 
ATOM     42  C   UNL A   1      38.247  32.067  30.222  1.00  0.00     0.031 C 
ATOM     43  C   UNL A   1      40.937  29.526  35.259  1.00  0.00     0.029 A 
ATOM     44  C   UNL A   1      41.972  28.630  34.773  1.00  0.00     0.049 A 
ATOM     45  H   UNL A   1      41.985  27.838  32.833  1.00  0.00     0.167 HD
ATOM     46  C   UNL A   1      37.782  33.328  32.446  1.00  0.00     0.031 A 
ATOM     47  C   UNL A   1      43.309  28.671  35.040  1.00  0.00     0.031 A 
ATOM     48  C   UNL A   1      38.497  33.319  33.752  1.00  0.00     0.049 A 
ATOM     49  C   UNL A   1      43.616  30.178  35.021  1.00  0.00     0.074 A 
ATOM     50  C   UNL A   1      38.222  32.860  35.030  1.00  0.00     0.029 A 
ATOM     51  N   UNL A   1      39.867  33.591  33.762  1.00  0.00    -0.354 N 
ATOM     52  N   UNL A   1      42.913  31.065  34.345  1.00  0.00    -0.248 NA
ATOM     53  C   UNL A   1      44.433  30.819  36.050  1.00  0.00     0.031 C 
ATOM     54  C   UNL A   1      39.477  32.753  35.740  1.00  0.00     0.029 A 
ATOM     55  C   UNL A   1      40.520  33.105  34.883  1.00  0.00     0.049 A 
ATOM     56  H   UNL A   1      40.325  34.080  33.041  1.00  0.00     0.167 HD
ATOM     57  C   UNL A   1      42.899  32.247  35.032  1.00  0.00     0.074 A 
ATOM     58  C   UNL A   1      43.957  32.078  36.023  1.00  0.00     0.031 C 
ATOM     59  C   UNL A   1      41.983  33.269  34.976  1.00  0.00     0.031 A 
BRANCH  46  60
ATOM     60  C   UNL A   1      36.364  33.870  32.277  1.00  0.00    -0.014 A 
ATOM     61  C   UNL A   1      35.931  34.877  33.166  1.00  0.00     0.010 A 
ATOM     62  C   UNL A   1      35.439  33.528  31.263  1.00  0.00     0.010 A 
ATOM     63  C   UNL A   1      34.696  35.535  33.033  1.00  0.00     0.020 A 
ATOM     64  C   UNL A   1      34.195  34.185  31.110  1.00  0.00     0.020 A 
ATOM     65  C   UNL A   1      33.840  35.202  31.989  1.00  0.00     0.054 A 
BRANCH  65  66
ATOM     66  S   UNL A   1      32.312  36.162  31.778  1.00  0.00     0.124 S 
ATOM     67  O   UNL A   1      32.204  36.269  30.325  1.00  0.00    -0.237 OA
ATOM     68  O   UNL A   1      31.315  35.311  32.419  1.00  0.00    -0.237 OA
ATOM     69  O   UNL A   1      32.589  37.419  32.470  1.00  0.00    -0.744 OA
ENDBRANCH  65  66
ENDBRANCH  46  60
BRANCH  47  70
ATOM     70  C   UNL A   1      43.896  27.421  34.366  1.00  0.00    -0.014 A 
ATOM     71  C   UNL A   1      45.319  27.446  34.239  1.00  0.00     0.010 A 
ATOM     72  C   UNL A   1      43.302  26.136  34.437  1.00  0.00     0.010 A 
ATOM     73  C   UNL A   1      46.111  26.285  34.350  1.00  0.00     0.020 A 
ATOM     74  C   UNL A   1      44.101  24.964  34.546  1.00  0.00     0.020 A 
ATOM     75  C   UNL A   1      45.500  25.050  34.538  1.00  0.00     0.054 A 
BRANCH  75  76
ATOM     76  S   UNL A   1      46.547  23.613  34.981  1.00  0.00     0.124 S 
ATOM     77  O   UNL A   1      45.825  22.502  34.370  1.00  0.00    -0.237 OA
ATOM     78  O   UNL A   1      47.832  23.944  34.364  1.00  0.00    -0.237 OA
ATOM     79  O   UNL A   1      46.548  23.636  36.439  1.00  0.00    -0.744 OA
ENDBRANCH  75  76
ENDBRANCH  47  70
BRANCH  59  80
ATOM     80  C   UNL A   1      42.550  34.652  34.766  1.00  0.00    -0.014 A 
ATOM     81  C   UNL A   1      43.023  35.088  33.519  1.00  0.00     0.010 A 
ATOM     82  C   UNL A   1      42.470  35.609  35.803  1.00  0.00     0.010 A 
ATOM     83  C   UNL A   1      43.506  36.377  33.349  1.00  0.00     0.020 A 
ATOM     84  C   UNL A   1      42.862  36.927  35.617  1.00  0.00     0.020 A 
ATOM     85  C   UNL A   1      43.435  37.282  34.405  1.00  0.00     0.054 A 
BRANCH  85  86
ATOM     86  S   UNL A   1      44.151  38.915  34.188  1.00  0.00     0.124 S 
ATOM     87  O   UNL A   1      43.123  39.576  33.388  1.00  0.00    -0.237 OA
ATOM     88  O   UNL A   1      44.282  39.393  35.562  1.00  0.00    -0.237 OA
ATOM     89  O   UNL A   1      45.411  38.654  33.498  1.00  0.00    -0.744 OA
ENDBRANCH  85  86
ENDBRANCH  59  80
ENDBRANCH  33  34
ENDBRANCH  26  28
ENDBRANCH  25  26
ENDBRANCH  24  25
ENDBRANCH  23  24
ENDBRANCH   1  23
TORSDOF 20
ENDMDL
MODEL 2
REMARK VINA RESULT:     -10.7      5.752     11.984
REMARK SMILES Cc1cccc(CC(=O)N2CCCC[C@@H]2C(=O)OCCOCCOC(=O)c2ccc(-c3c4nc(c(-c5ccc(S(=O)(=O)[O-])cc5)c5ccc([nH]5)c(-c5ccc(S(=O)(=O)[O-])cc5)c5nc(c(-c6ccc(S(=O)(=O)[O-])cc6)c6ccc3[nH]6)C=C5)C=C4)cc2)c1
REMARK SMILES IDX 21 1 20 2 19 3 18 4 16 5 17 6 15 7 10 8 11 9 12 10 14 11
REMARK SMILES IDX 13 12 8 13 9 14 7 15 6 16 1 17 2 18 3 19 87 20 4 21 5 22
REMARK SMILES IDX 22 23 23 24 24 25 25 26 26 27 27 28 28 29 86 30 29 31 85 32
REMARK SMILES IDX 30 33 31 34 32 35 79 36 33 37 84 38 78 39 80 40 34 41 83 42
REMARK SMILES IDX 77 43 76 44 35 46 65 47 46 48 64 49 47 50 50 51 63 52 81 53
REMARK SMILES IDX 48 54 49 55 62 57 82 58 51 59 36 60 37 61 45 62 38 63 44 64
REMARK SMILES IDX 39 65 40 66 41 67 42 68 43 69 66 70 67 71 75 72 68 73 74 74
REMARK SMILES IDX 69 75 70 76 71 77 72 78 73 79 52 80 53 81 61 82 54 83 60 84
REMARK SMILES IDX 55 85 56 86 57 87 58 88 59 89
REMARK H PARENT 80 45 50 56
REMARK Flexibility Score: inf
ROOT
ATOM      1  O   UNL A   1      39.006  30.068  36.185  1.00  0.00    -0.374 OA
ENDROOT
BRANCH   1   2
ATOM      2  C   UNL A   1      40.156  30.458  35.473  1.00  0.00     0.202 C 
BRANCH   2   3
ATOM      3  C   UNL A   1      40.206  29.949  33.938  1.00  0.00     0.261 C 
BRANCH   3   4
ATOM      4  O   UNL A   1      39.063  30.063  33.129  1.00  0.00    -0.462 OA
BRANCH   4   5
ATOM      5  C   UNL A   1      38.404  29.045  32.573  1.00  0.00     0.328 C 
ATOM      6  O   UNL A   1      37.534  28.346  33.064  1.00  0.00    -0.250 OA
BRANCH   5   7
ATOM      7  C   UNL A   1      38.922  28.933  31.156  1.00  0.00     0.195 C 
ATOM      8  N   UNL A   1      38.477  29.814  30.064  1.00  0.00    -0.329 N 
ATOM      9  C   UNL A   1      39.072  29.476  28.762  1.00  0.00     0.120 C 
ATOM     10  C   UNL A   1      39.007  27.995  28.384  1.00  0.00     0.022 C 
ATOM     11  C   UNL A   1      38.587  27.472  30.744  1.00  0.00     0.037 C 
ATOM     12  C   UNL A   1      39.383  27.075  29.532  1.00  0.00     0.005 C 
BRANCH   8  13
ATOM     13  C   UNL A   1      37.931  31.089  30.173  1.00  0.00     0.227 C 
ATOM     14  O   UNL A   1      38.606  32.066  29.818  1.00  0.00    -0.275 OA
BRANCH  13  15
ATOM     15  C   UNL A   1      36.616  31.343  30.887  1.00  0.00     0.135 C 
BRANCH  15  16
ATOM     16  C   UNL A   1      36.319  32.635  31.651  1.00  0.00    -0.038 A 
ATOM     17  C   UNL A   1      33.350  35.838  30.908  1.00  0.00     0.044 C 
ATOM     18  C   UNL A   1      34.115  34.871  31.738  1.00  0.00    -0.051 A 
ATOM     19  C   UNL A   1      34.402  35.104  33.518  1.00  0.00     0.003 A 
ATOM     20  C   UNL A   1      35.071  33.650  30.875  1.00  0.00     0.007 A 
ATOM     21  C   UNL A   1      35.872  33.998  34.362  1.00  0.00     0.001 A 
ATOM     22  C   UNL A   1      36.774  32.818  33.333  1.00  0.00     0.004 A 
ENDBRANCH  15  16
ENDBRANCH  13  15
ENDBRANCH   8  13
ENDBRANCH   5   7
ENDBRANCH   4   5
ENDBRANCH   3   4
ENDBRANCH   2   3
ENDBRANCH   1   2
BRANCH   1  23
ATOM     23  C   UNL A   1      38.127  31.157  36.211  1.00  0.00     0.202 C 
BRANCH  23  24
ATOM     24  C   UNL A   1      38.674  32.444  36.932  1.00  0.00     0.261 C 
BRANCH  24  25
ATOM     25  O   UNL A   1      39.292  33.704  36.207  1.00  0.00    -0.460 OA
BRANCH  25  26
ATOM     26  C   UNL A   1      39.712  34.807  35.541  1.00  0.00     0.338 C 
ATOM     27  O   UNL A   1      39.284  35.881  35.983  1.00  0.00    -0.246 OA
BRANCH  26  28
ATOM     28  C   UNL A   1      40.679  35.000  34.327  1.00  0.00     0.060 A 
ATOM     29  C   UNL A   1      40.041  34.275  32.815  1.00  0.00     0.016 A 
ATOM     30  C   UNL A   1      42.344  35.730  34.191  1.00  0.00     0.016 A 
ATOM     31  C   UNL A   1      40.929  34.187  31.264  1.00  0.00     0.010 A 
ATOM     32  C   UNL A   1      43.292  35.639  32.427  1.00  0.00     0.010 A 
ATOM     33  C   UNL A   1      42.513  34.834  31.060  1.00  0.00    -0.014 A 
BRANCH  33  34
ATOM     34  C   UNL A   1      43.597  34.776  30.102  1.00  0.00     0.031 A 
ATOM     35  C   UNL A   1      44.043  33.383  29.842  1.00  0.00     0.074 A 
ATOM     36  C   UNL A   1      43.270  35.654  29.103  1.00  0.00     0.049 A 
ATOM     37  N   UNL A   1      44.738  33.011  28.836  1.00  0.00    -0.248 NA
ATOM     38  C   UNL A   1      43.606  32.229  30.644  1.00  0.00     0.031 C 
ATOM     39  C   UNL A   1      43.132  35.520  27.646  1.00  0.00     0.029 A 
ATOM     40  N   UNL A   1      42.741  36.915  29.274  1.00  0.00    -0.354 N 
ATOM     41  C   UNL A   1      44.397  31.693  28.584  1.00  0.00     0.074 A 
ATOM     42  C   UNL A   1      43.868  31.199  29.828  1.00  0.00     0.031 C 
ATOM     43  C   UNL A   1      42.892  36.725  27.076  1.00  0.00     0.029 A 
ATOM     44  C   UNL A   1      42.807  37.712  28.139  1.00  0.00     0.049 A 
ATOM     45  H   UNL A   1      42.351  37.223  30.124  1.00  0.00     0.167 HD
ATOM     46  C   UNL A   1      44.416  31.252  27.289  1.00  0.00     0.031 A 
ATOM     47  C   UNL A   1      43.586  38.816  28.321  1.00  0.00     0.031 A 
ATOM     48  C   UNL A   1      44.701  32.385  26.365  1.00  0.00     0.049 A 
ATOM     49  C   UNL A   1      44.988  38.312  27.938  1.00  0.00     0.074 A 
ATOM     50  C   UNL A   1      44.052  32.980  25.296  1.00  0.00     0.029 A 
ATOM     51  N   UNL A   1      45.711  33.286  26.710  1.00  0.00    -0.354 N 
ATOM     52  N   UNL A   1      45.365  37.051  28.015  1.00  0.00    -0.248 NA
ATOM     53  C   UNL A   1      45.885  39.083  27.078  1.00  0.00     0.031 C 
ATOM     54  C   UNL A   1      44.624  34.294  25.108  1.00  0.00     0.029 A 
ATOM     55  C   UNL A   1      45.590  34.519  26.089  1.00  0.00     0.049 A 
ATOM     56  H   UNL A   1      46.439  33.067  27.335  1.00  0.00     0.167 HD
ATOM     57  C   UNL A   1      46.253  36.783  27.011  1.00  0.00     0.074 A 
ATOM     58  C   UNL A   1      46.635  38.108  26.531  1.00  0.00     0.031 C 
ATOM     59  C   UNL A   1      46.558  35.579  26.425  1.00  0.00     0.031 A 
BRANCH  46  60
ATOM     60  C   UNL A   1      44.054  29.851  26.800  1.00  0.00    -0.014 A 
ATOM     61  C   UNL A   1      45.104  28.930  26.594  1.00  0.00     0.010 A 
ATOM     62  C   UNL A   1      42.753  29.332  26.599  1.00  0.00     0.010 A 
ATOM     63  C   UNL A   1      44.885  27.582  26.264  1.00  0.00     0.020 A 
ATOM     64  C   UNL A   1      42.515  27.976  26.273  1.00  0.00     0.020 A 
ATOM     65  C   UNL A   1      43.587  27.102  26.127  1.00  0.00     0.054 A 
BRANCH  65  66
ATOM     66  S   UNL A   1      43.344  25.328  25.824  1.00  0.00     0.124 S 
ATOM     67  O   UNL A   1      44.248  25.070  24.706  1.00  0.00    -0.237 OA
ATOM     68  O   UNL A   1      43.738  24.734  27.098  1.00  0.00    -0.237 OA
ATOM     69  O   UNL A   1      41.922  25.218  25.505  1.00  0.00    -0.744 OA
ENDBRANCH  65  66
ENDBRANCH  46  60
BRANCH  47  70
ATOM     70  C   UNL A   1      42.973  39.552  29.522  1.00  0.00    -0.014 A 
ATOM     71  C   UNL A   1      43.784  39.519  30.698  1.00  0.00     0.010 A 
ATOM     72  C   UNL A   1      42.099  40.661  29.403  1.00  0.00     0.010 A 
ATOM     73  C   UNL A   1      43.851  40.596  31.605  1.00  0.00     0.020 A 
ATOM     74  C   UNL A   1      42.163  41.747  30.319  1.00  0.00     0.020 A 
ATOM     75  C   UNL A   1      43.064  41.723  31.393  1.00  0.00     0.054 A 
BRANCH  75  76
ATOM     76  S   UNL A   1      43.388  43.219  32.400  1.00  0.00     0.124 S 
ATOM     77  O   UNL A   1      44.745  43.577  31.998  1.00  0.00    -0.237 OA
ATOM     78  O   UNL A   1      42.339  44.140  31.963  1.00  0.00    -0.237 OA
ATOM     79  O   UNL A   1      43.246  42.738  33.769  1.00  0.00    -0.744 OA
ENDBRANCH  75  76
ENDBRANCH  47  70
BRANCH  59  80
ATOM     80  C   UNL A   1      48.027  35.243  26.337  1.00  0.00    -0.014 A 
ATOM     81  C   UNL A   1      48.722  35.229  25.118  1.00  0.00     0.010 A 
ATOM     82  C   UNL A   1      48.785  35.087  27.520  1.00  0.00     0.010 A 
ATOM     83  C   UNL A   1      50.081  34.950  25.073  1.00  0.00     0.020 A 
ATOM     84  C   UNL A   1      50.160  34.903  27.491  1.00  0.00     0.020 A 
ATOM     85  C   UNL A   1      50.786  34.775  26.260  1.00  0.00     0.054 A 
BRANCH  85  86
ATOM     86  S   UNL A   1      52.522  34.326  26.171  1.00  0.00     0.124 S 
ATOM     87  O   UNL A   1      52.504  33.315  25.117  1.00  0.00    -0.237 OA
ATOM     88  O   UNL A   1      53.163  35.590  25.818  1.00  0.00    -0.237 OA
ATOM     89  O   UNL A   1      52.823  33.830  27.511  1.00  0.00    -0.744 OA
ENDBRANCH  85  86
ENDBRANCH  59  80
ENDBRANCH  33  34
ENDBRANCH  26  28
ENDBRANCH  25  26
ENDBRANCH  24  25
ENDBRANCH  23  24
ENDBRANCH   1  23
TORSDOF 20
ENDMDL
MODEL 3
REMARK VINA RESULT:     -10.7      3.725      8.966
REMARK SMILES Cc1cccc(CC(=O)N2CCCC[C@@H]2C(=O)OCCOCCOC(=O)c2ccc(-c3c4nc(c(-c5ccc(S(=O)(=O)[O-])cc5)c5ccc([nH]5)c(-c5ccc(S(=O)(=O)[O-])cc5)c5nc(c(-c6ccc(S(=O)(=O)[O-])cc6)c6ccc3[nH]6)C=C5)C=C4)cc2)c1
REMARK SMILES IDX 21 1 20 2 19 3 18 4 16 5 17 6 15 7 10 8 11 9 12 10 14 11
REMARK SMILES IDX 13 12 8 13 9 14 7 15 6 16 1 17 2 18 3 19 87 20 4 21 5 22
REMARK SMILES IDX 22 23 23 24 24 25 25 26 26 27 27 28 28 29 86 30 29 31 85 32
REMARK SMILES IDX 30 33 31 34 32 35 79 36 33 37 84 38 78 39 80 40 34 41 83 42
REMARK SMILES IDX 77 43 76 44 35 46 65 47 46 48 64 49 47 50 50 51 63 52 81 53
REMARK SMILES IDX 48 54 49 55 62 57 82 58 51 59 36 60 37 61 45 62 38 63 44 64
REMARK SMILES IDX 39 65 40 66 41 67 42 68 43 69 66 70 67 71 75 72 68 73 74 74
REMARK SMILES IDX 69 75 70 76 71 77 72 78 73 79 52 80 53 81 61 82 54 83 60 84
REMARK SMILES IDX 55 85 56 86 57 87 58 88 59 89
REMARK H PARENT 80 45 50 56
REMARK Flexibility Score: inf
ROOT
ATOM      1  O   UNL A   1      40.415  22.009  26.362  1.00  0.00    -0.374 OA
ENDROOT
BRANCH   1   2
ATOM      2  C   UNL A   1      39.062  22.390  26.440  1.00  0.00     0.202 C 
BRANCH   2   3
ATOM      3  C   UNL A   1      38.116  21.764  25.287  1.00  0.00     0.261 C 
BRANCH   3   4
ATOM      4  O   UNL A   1      37.110  22.555  24.706  1.00  0.00    -0.462 OA
BRANCH   4   5
ATOM      5  C   UNL A   1      36.051  23.052  25.347  1.00  0.00     0.328 C 
ATOM      6  O   UNL A   1      35.995  24.026  26.078  1.00  0.00    -0.250 OA
BRANCH   5   7
ATOM      7  C   UNL A   1      34.878  22.180  24.958  1.00  0.00     0.195 C 
ATOM      8  N   UNL A   1      33.821  22.615  24.031  1.00  0.00    -0.329 N 
ATOM      9  C   UNL A   1      32.753  21.621  23.854  1.00  0.00     0.120 C 
ATOM     10  C   UNL A   1      32.190  21.036  25.150  1.00  0.00     0.022 C 
ATOM     11  C   UNL A   1      34.197  21.833  26.313  1.00  0.00     0.037 C 
ATOM     12  C   UNL A   1      33.271  20.661  26.148  1.00  0.00     0.005 C 
BRANCH   8  13
ATOM     13  C   UNL A   1      33.907  23.600  23.052  1.00  0.00     0.227 C 
ATOM     14  O   UNL A   1      34.324  23.295  21.925  1.00  0.00    -0.275 OA
BRANCH  13  15
ATOM     15  C   UNL A   1      33.691  25.069  23.366  1.00  0.00     0.135 C 
BRANCH  15  16
ATOM     16  C   UNL A   1      33.105  25.560  24.692  1.00  0.00    -0.038 A 
ATOM     17  C   UNL A   1      34.293  28.911  27.335  1.00  0.00     0.044 C 
ATOM     18  C   UNL A   1      33.335  28.048  26.595  1.00  0.00    -0.051 A 
ATOM     19  C   UNL A   1      31.596  27.848  27.089  1.00  0.00     0.003 A 
ATOM     20  C   UNL A   1      34.020  26.911  25.418  1.00  0.00     0.007 A 
ATOM     21  C   UNL A   1      30.598  26.268  26.312  1.00  0.00     0.001 A 
ATOM     22  C   UNL A   1      31.455  25.185  25.147  1.00  0.00     0.004 A 
ENDBRANCH  15  16
ENDBRANCH  13  15
ENDBRANCH   8  13
ENDBRANCH   5   7
ENDBRANCH   4   5
ENDBRANCH   3   4
ENDBRANCH   2   3
ENDBRANCH   1   2
BRANCH   1  23
ATOM     23  C   UNL A   1      40.931  21.985  27.663  1.00  0.00     0.202 C 
BRANCH  23  24
ATOM     24  C   UNL A   1      41.642  23.309  28.128  1.00  0.00     0.261 C 
BRANCH  24  25
ATOM     25  O   UNL A   1      40.980  24.744  28.144  1.00  0.00    -0.460 OA
BRANCH  25  26
ATOM     26  C   UNL A   1      40.331  25.930  28.236  1.00  0.00     0.338 C 
ATOM     27  O   UNL A   1      39.825  26.334  27.180  1.00  0.00    -0.246 OA
BRANCH  26  28
ATOM     28  C   UNL A   1      40.056  26.890  29.439  1.00  0.00     0.060 A 
ATOM     29  C   UNL A   1      41.459  27.943  29.816  1.00  0.00     0.016 A 
ATOM     30  C   UNL A   1      38.633  27.066  30.566  1.00  0.00     0.016 A 
ATOM     31  C   UNL A   1      41.554  29.069  31.204  1.00  0.00     0.010 A 
ATOM     32  C   UNL A   1      38.769  28.362  32.090  1.00  0.00     0.010 A 
ATOM     33  C   UNL A   1      40.263  29.276  32.325  1.00  0.00    -0.014 A 
BRANCH  33  34
ATOM     34  C   UNL A   1      40.034  29.875  33.623  1.00  0.00     0.031 A 
ATOM     35  C   UNL A   1      40.910  29.292  34.672  1.00  0.00     0.074 A 
ATOM     36  C   UNL A   1      39.923  31.223  33.408  1.00  0.00     0.049 A 
ATOM     37  N   UNL A   1      41.152  29.828  35.807  1.00  0.00    -0.248 NA
ATOM     38  C   UNL A   1      41.729  28.086  34.467  1.00  0.00     0.031 C 
ATOM     39  C   UNL A   1      40.621  32.394  33.957  1.00  0.00     0.029 A 
ATOM     40  N   UNL A   1      39.224  31.824  32.383  1.00  0.00    -0.354 N 
ATOM     41  C   UNL A   1      42.415  29.404  36.184  1.00  0.00     0.074 A 
ATOM     42  C   UNL A   1      42.638  28.189  35.446  1.00  0.00     0.031 C 
ATOM     43  C   UNL A   1      40.064  33.541  33.497  1.00  0.00     0.029 A 
ATOM     44  C   UNL A   1      38.999  33.181  32.576  1.00  0.00     0.049 A 
ATOM     45  H   UNL A   1      38.912  31.336  31.587  1.00  0.00     0.167 HD
ATOM     46  C   UNL A   1      43.194  30.254  36.921  1.00  0.00     0.031 A 
ATOM     47  C   UNL A   1      37.672  33.481  32.671  1.00  0.00     0.031 A 
ATOM     48  C   UNL A   1      42.520  31.575  37.063  1.00  0.00     0.049 A 
ATOM     49  C   UNL A   1      37.390  33.314  34.174  1.00  0.00     0.074 A 
ATOM     50  C   UNL A   1      42.827  32.884  36.734  1.00  0.00     0.029 A 
ATOM     51  N   UNL A   1      41.155  31.596  37.362  1.00  0.00    -0.354 N 
ATOM     52  N   UNL A   1      38.087  32.529  34.972  1.00  0.00    -0.248 NA
ATOM     53  C   UNL A   1      36.617  34.294  34.935  1.00  0.00     0.031 C 
ATOM     54  C   UNL A   1      41.593  33.638  36.727  1.00  0.00     0.029 A 
ATOM     55  C   UNL A   1      40.529  32.780  37.008  1.00  0.00     0.049 A 
ATOM     56  H   UNL A   1      40.684  30.842  37.782  1.00  0.00     0.167 HD
ATOM     57  C   UNL A   1      38.143  33.088  36.219  1.00  0.00     0.074 A 
ATOM     58  C   UNL A   1      37.113  34.122  36.175  1.00  0.00     0.031 C 
ATOM     59  C   UNL A   1      39.074  32.899  37.210  1.00  0.00     0.031 A 
BRANCH  46  60
ATOM     60  C   UNL A   1      44.615  29.988  37.414  1.00  0.00    -0.014 A 
ATOM     61  C   UNL A   1      44.857  30.058  38.803  1.00  0.00     0.010 A 
ATOM     62  C   UNL A   1      45.725  29.594  36.631  1.00  0.00     0.010 A 
ATOM     63  C   UNL A   1      46.091  29.716  39.383  1.00  0.00     0.020 A 
ATOM     64  C   UNL A   1      46.972  29.240  37.199  1.00  0.00     0.020 A 
ATOM     65  C   UNL A   1      47.140  29.284  38.579  1.00  0.00     0.054 A 
BRANCH  65  66
ATOM     66  S   UNL A   1      48.675  28.731  39.376  1.00  0.00     0.124 S 
ATOM     67  O   UNL A   1      48.773  27.339  38.944  1.00  0.00    -0.237 OA
ATOM     68  O   UNL A   1      49.670  29.635  38.806  1.00  0.00    -0.237 OA
ATOM     69  O   UNL A   1      48.417  28.917  40.802  1.00  0.00    -0.744 OA
ENDBRANCH  65  66
ENDBRANCH  46  60
BRANCH  47  70
ATOM     70  C   UNL A   1      37.044  32.960  31.370  1.00  0.00    -0.014 A 
ATOM     71  C   UNL A   1      35.707  32.477  31.526  1.00  0.00     0.010 A 
ATOM     72  C   UNL A   1      37.381  33.445  30.083  1.00  0.00     0.010 A 
ATOM     73  C   UNL A   1      34.725  32.626  30.525  1.00  0.00     0.020 A 
ATOM     74  C   UNL A   1      36.392  33.593  29.072  1.00  0.00     0.020 A 
ATOM     75  C   UNL A   1      35.063  33.216  29.312  1.00  0.00     0.054 A 
BRANCH  75  76
ATOM     76  S   UNL A   1      33.717  33.674  28.156  1.00  0.00     0.124 S 
ATOM     77  O   UNL A   1      32.763  34.338  29.037  1.00  0.00    -0.237 OA
ATOM     78  O   UNL A   1      34.396  34.542  27.193  1.00  0.00    -0.237 OA
ATOM     79  O   UNL A   1      33.287  32.388  27.619  1.00  0.00    -0.744 OA
ENDBRANCH  75  76
ENDBRANCH  47  70
BRANCH  59  80
ATOM     80  C   UNL A   1      38.524  32.562  38.575  1.00  0.00    -0.014 A 
ATOM     81  C   UNL A   1      37.402  31.738  38.750  1.00  0.00     0.010 A 
ATOM     82  C   UNL A   1      39.235  32.948  39.735  1.00  0.00     0.010 A 
ATOM     83  C   UNL A   1      36.941  31.418  40.019  1.00  0.00     0.020 A 
ATOM     84  C   UNL A   1      38.837  32.554  41.004  1.00  0.00     0.020 A 
ATOM     85  C   UNL A   1      37.655  31.842  41.136  1.00  0.00     0.054 A 
BRANCH  85  86
ATOM     86  S   UNL A   1      36.987  31.493  42.767  1.00  0.00     0.124 S 
ATOM     87  O   UNL A   1      35.578  31.267  42.459  1.00  0.00    -0.237 OA
ATOM     88  O   UNL A   1      37.740  30.309  43.175  1.00  0.00    -0.237 OA
ATOM     89  O   UNL A   1      37.276  32.705  43.528  1.00  0.00    -0.744 OA
ENDBRANCH  85  86
ENDBRANCH  59  80
ENDBRANCH  33  34
ENDBRANCH  26  28
ENDBRANCH  25  26
ENDBRANCH  24  25
ENDBRANCH  23  24
ENDBRANCH   1  23
TORSDOF 20
ENDMDL
