MODEL 1
REMARK VINA RESULT:     -10.2      0.000      0.000
REMARK SMILES CCn1cc(CC(=O)OCCOCCOC(=O)c2ccc(-c3c4nc(c(-c5ccc(S(=O)(=O)[O-])cc5)c5ccc([nH]5)c(-c5ccc(S(=O)(=O)[O-])cc5)c5nc(c(-c6ccc(S(=O)(=O)[O-])cc6)c6ccc3[nH]6)C=C5)C=C4)cc2)c2ccccc21
REMARK SMILES IDX 13 1 12 2 11 3 10 4 9 5 7 6 8 7 6 8 5 9 3 10 4 11 83 12
REMARK SMILES IDX 78 13 82 14 79 15 81 16 80 17 2 18 1 19 14 20 15 21 16 22
REMARK SMILES IDX 17 23 18 24 19 25 77 26 20 27 76 28 21 29 22 30 23 31 70 32
REMARK SMILES IDX 24 33 75 34 69 35 71 36 25 37 74 38 68 39 67 40 26 42 56 43
REMARK SMILES IDX 37 44 55 45 38 46 41 47 54 48 72 49 39 50 40 51 53 53 73 54
REMARK SMILES IDX 42 55 27 56 28 57 36 58 29 59 35 60 30 61 31 62 32 63 33 64
REMARK SMILES IDX 34 65 57 66 58 67 66 68 59 69 65 70 60 71 61 72 62 73 63 74
REMARK SMILES IDX 64 75 43 76 44 77 52 78 45 79 51 80 46 81 47 82 48 83 49 84
REMARK SMILES IDX 50 85
REMARK H PARENT 71 41 41 52
REMARK Flexibility Score: inf
ROOT
ATOM      1  C   UNL A   1      33.932  34.433  28.926  1.00  0.00     0.202 C 
ENDROOT
BRANCH   1   2
ATOM      2  O   UNL A   1      33.789  33.156  28.321  1.00  0.00    -0.374 OA
BRANCH   2   3
ATOM      3  C   UNL A   1      34.949  32.562  27.755  1.00  0.00     0.202 C 
BRANCH   3   4
ATOM      4  C   UNL A   1      35.111  31.038  27.650  1.00  0.00     0.261 C 
BRANCH   4   5
ATOM      5  O   UNL A   1      33.892  30.287  27.770  1.00  0.00    -0.463 OA
BRANCH   5   6
ATOM      6  C   UNL A   1      33.434  29.780  26.593  1.00  0.00     0.310 C 
ATOM      7  O   UNL A   1      32.597  30.332  25.881  1.00  0.00    -0.252 OA
BRANCH   6   8
ATOM      8  C   UNL A   1      34.019  28.445  26.200  1.00  0.00     0.160 C 
BRANCH   8   9
ATOM      9  C   UNL A   1      33.126  27.239  26.157  1.00  0.00    -0.011 A 
ATOM     10  N   UNL A   1      31.258  26.006  26.038  1.00  0.00    -0.347 N 
ATOM     11  C   UNL A   1      31.749  27.263  26.288  1.00  0.00     0.091 A 
ATOM     12  C   UNL A   1      32.301  25.116  25.895  1.00  0.00     0.048 A 
ATOM     13  C   UNL A   1      33.475  25.877  25.854  1.00  0.00     0.003 A 
ATOM     14  C   UNL A   1      32.314  23.716  25.764  1.00  0.00     0.027 A 
ATOM     15  C   UNL A   1      34.687  25.211  25.554  1.00  0.00     0.010 A 
ATOM     16  C   UNL A   1      33.542  23.076  25.589  1.00  0.00     0.002 A 
ATOM     17  C   UNL A   1      34.712  23.812  25.457  1.00  0.00     0.001 A 
BRANCH  10  18
ATOM     18  C   UNL A   1      29.861  25.732  25.749  1.00  0.00     0.119 C 
ATOM     19  C   UNL A   1      29.370  26.256  24.413  1.00  0.00     0.027 C 
ENDBRANCH  10  18
ENDBRANCH   8   9
ENDBRANCH   6   8
ENDBRANCH   5   6
ENDBRANCH   4   5
ENDBRANCH   3   4
ENDBRANCH   2   3
ENDBRANCH   1   2
BRANCH   1  20
ATOM     20  C   UNL A   1      33.785  34.573  30.451  1.00  0.00     0.261 C 
BRANCH  20  21
ATOM     21  O   UNL A   1      34.975  34.258  31.164  1.00  0.00    -0.460 OA
BRANCH  21  22
ATOM     22  C   UNL A   1      34.961  33.042  31.779  1.00  0.00     0.338 C 
ATOM     23  O   UNL A   1      34.111  32.573  32.496  1.00  0.00    -0.246 OA
BRANCH  22  24
ATOM     24  C   UNL A   1      35.978  32.276  31.038  1.00  0.00     0.060 A 
ATOM     25  C   UNL A   1      36.034  30.885  31.169  1.00  0.00     0.016 A 
ATOM     26  C   UNL A   1      37.073  33.025  30.584  1.00  0.00     0.016 A 
ATOM     27  C   UNL A   1      37.252  30.254  30.972  1.00  0.00     0.010 A 
ATOM     28  C   UNL A   1      38.291  32.391  30.405  1.00  0.00     0.010 A 
ATOM     29  C   UNL A   1      38.388  31.021  30.659  1.00  0.00    -0.014 A 
BRANCH  29  30
ATOM     30  C   UNL A   1      39.646  30.320  30.431  1.00  0.00     0.031 A 
ATOM     31  C   UNL A   1      40.358  30.001  31.698  1.00  0.00     0.074 A 
ATOM     32  C   UNL A   1      40.062  29.840  29.241  1.00  0.00     0.049 A 
ATOM     33  N   UNL A   1      41.537  30.371  32.073  1.00  0.00    -0.248 NA
ATOM     34  C   UNL A   1      39.588  29.296  32.738  1.00  0.00     0.031 C 
ATOM     35  C   UNL A   1      39.346  29.779  27.968  1.00  0.00     0.029 A 
ATOM     36  N   UNL A   1      41.213  29.172  28.959  1.00  0.00    -0.354 N 
ATOM     37  C   UNL A   1      41.723  29.820  33.338  1.00  0.00     0.074 A 
ATOM     38  C   UNL A   1      40.444  29.305  33.755  1.00  0.00     0.031 C 
ATOM     39  C   UNL A   1      39.963  28.906  27.141  1.00  0.00     0.029 A 
ATOM     40  C   UNL A   1      41.172  28.430  27.785  1.00  0.00     0.049 A 
ATOM     41  H   UNL A   1      42.007  29.211  29.539  1.00  0.00     0.167 HD
ATOM     42  C   UNL A   1      42.953  29.661  33.900  1.00  0.00     0.031 A 
ATOM     43  C   UNL A   1      42.001  27.408  27.439  1.00  0.00     0.031 A 
ATOM     44  C   UNL A   1      43.956  30.451  33.247  1.00  0.00     0.049 A 
ATOM     45  C   UNL A   1      43.235  27.580  28.253  1.00  0.00     0.074 A 
ATOM     46  C   UNL A   1      44.146  31.810  33.083  1.00  0.00     0.029 A 
ATOM     47  N   UNL A   1      44.734  29.847  32.287  1.00  0.00    -0.354 N 
ATOM     48  N   UNL A   1      44.028  28.614  28.140  1.00  0.00    -0.248 NA
ATOM     49  C   UNL A   1      43.304  26.870  29.523  1.00  0.00     0.031 C 
ATOM     50  C   UNL A   1      44.585  31.952  31.735  1.00  0.00     0.029 A 
ATOM     51  C   UNL A   1      44.713  30.672  31.189  1.00  0.00     0.049 A 
ATOM     52  H   UNL A   1      45.213  28.990  32.371  1.00  0.00     0.167 HD
ATOM     53  C   UNL A   1      44.377  28.936  29.444  1.00  0.00     0.074 A 
ATOM     54  C   UNL A   1      43.944  27.791  30.249  1.00  0.00     0.031 C 
ATOM     55  C   UNL A   1      44.721  30.206  29.815  1.00  0.00     0.031 A 
BRANCH  42  56
ATOM     56  C   UNL A   1      43.275  28.560  34.872  1.00  0.00    -0.014 A 
ATOM     57  C   UNL A   1      43.577  27.246  34.456  1.00  0.00     0.010 A 
ATOM     58  C   UNL A   1      43.506  28.872  36.225  1.00  0.00     0.010 A 
ATOM     59  C   UNL A   1      44.042  26.275  35.341  1.00  0.00     0.020 A 
ATOM     60  C   UNL A   1      44.018  27.916  37.115  1.00  0.00     0.020 A 
ATOM     61  C   UNL A   1      44.271  26.620  36.666  1.00  0.00     0.054 A 
BRANCH  61  62
ATOM     62  S   UNL A   1      44.972  25.361  37.759  1.00  0.00     0.124 S 
ATOM     63  O   UNL A   1      44.356  24.141  37.245  1.00  0.00    -0.237 OA
ATOM     64  O   UNL A   1      46.405  25.496  37.514  1.00  0.00    -0.237 OA
ATOM     65  O   UNL A   1      44.526  25.774  39.088  1.00  0.00    -0.744 OA
ENDBRANCH  61  62
ENDBRANCH  42  56
BRANCH  43  66
ATOM     66  C   UNL A   1      41.532  26.072  26.956  1.00  0.00    -0.014 A 
ATOM     67  C   UNL A   1      40.389  25.479  27.535  1.00  0.00     0.010 A 
ATOM     68  C   UNL A   1      42.343  25.252  26.146  1.00  0.00     0.010 A 
ATOM     69  C   UNL A   1      40.101  24.119  27.379  1.00  0.00     0.020 A 
ATOM     70  C   UNL A   1      42.061  23.880  25.983  1.00  0.00     0.020 A 
ATOM     71  C   UNL A   1      40.961  23.317  26.635  1.00  0.00     0.054 A 
BRANCH  71  72
ATOM     72  S   UNL A   1      40.655  21.525  26.625  1.00  0.00     0.124 S 
ATOM     73  O   UNL A   1      40.715  21.201  28.048  1.00  0.00    -0.237 OA
ATOM     74  O   UNL A   1      39.329  21.435  26.018  1.00  0.00    -0.237 OA
ATOM     75  O   UNL A   1      41.746  20.991  25.814  1.00  0.00    -0.744 OA
ENDBRANCH  71  72
ENDBRANCH  43  66
BRANCH  55  76
ATOM     76  C   UNL A   1      44.863  31.292  28.763  1.00  0.00    -0.014 A 
ATOM     77  C   UNL A   1      43.816  32.226  28.656  1.00  0.00     0.010 A 
ATOM     78  C   UNL A   1      45.822  31.248  27.729  1.00  0.00     0.010 A 
ATOM     79  C   UNL A   1      43.687  33.042  27.530  1.00  0.00     0.020 A 
ATOM     80  C   UNL A   1      45.712  32.084  26.602  1.00  0.00     0.020 A 
ATOM     81  C   UNL A   1      44.623  32.952  26.498  1.00  0.00     0.054 A 
BRANCH  81  82
ATOM     82  S   UNL A   1      44.346  33.954  25.008  1.00  0.00     0.124 S 
ATOM     83  O   UNL A   1      44.027  32.937  24.007  1.00  0.00    -0.237 OA
ATOM     84  O   UNL A   1      43.230  34.811  25.399  1.00  0.00    -0.237 OA
ATOM     85  O   UNL A   1      45.615  34.646  24.802  1.00  0.00    -0.744 OA
ENDBRANCH  81  82
ENDBRANCH  55  76
ENDBRANCH  29  30
ENDBRANCH  22  24
ENDBRANCH  21  22
ENDBRANCH  20  21
ENDBRANCH   1  20
TORSDOF 19
ENDMDL
MODEL 2
REMARK VINA RESULT:     -10.2      1.834      3.029
REMARK SMILES CCn1cc(CC(=O)OCCOCCOC(=O)c2ccc(-c3c4nc(c(-c5ccc(S(=O)(=O)[O-])cc5)c5ccc([nH]5)c(-c5ccc(S(=O)(=O)[O-])cc5)c5nc(c(-c6ccc(S(=O)(=O)[O-])cc6)c6ccc3[nH]6)C=C5)C=C4)cc2)c2ccccc21
REMARK SMILES IDX 13 1 12 2 11 3 10 4 9 5 7 6 8 7 6 8 5 9 3 10 4 11 83 12
REMARK SMILES IDX 78 13 82 14 79 15 81 16 80 17 2 18 1 19 14 20 15 21 16 22
REMARK SMILES IDX 17 23 18 24 19 25 77 26 20 27 76 28 21 29 22 30 23 31 70 32
REMARK SMILES IDX 24 33 75 34 69 35 71 36 25 37 74 38 68 39 67 40 26 42 56 43
REMARK SMILES IDX 37 44 55 45 38 46 41 47 54 48 72 49 39 50 40 51 53 53 73 54
REMARK SMILES IDX 42 55 27 56 28 57 36 58 29 59 35 60 30 61 31 62 32 63 33 64
REMARK SMILES IDX 34 65 57 66 58 67 66 68 59 69 65 70 60 71 61 72 62 73 63 74
REMARK SMILES IDX 64 75 43 76 44 77 52 78 45 79 51 80 46 81 47 82 48 83 49 84
REMARK SMILES IDX 50 85
REMARK H PARENT 71 41 41 52
REMARK Flexibility Score: inf
ROOT
ATOM      1  C   UNL A   1      32.916  29.604  26.419  1.00  0.00     0.202 C 
ENDROOT
BRANCH   1   2
ATOM      2  O   UNL A   1      32.496  29.795  25.077  1.00  0.00    -0.374 OA
BRANCH   2   3
ATOM      3  C   UNL A   1      31.540  28.885  24.550  1.00  0.00     0.202 C 
BRANCH   3   4
ATOM      4  C   UNL A   1      31.918  27.451  24.151  1.00  0.00     0.261 C 
BRANCH   4   5
ATOM      5  O   UNL A   1      33.278  27.278  23.720  1.00  0.00    -0.463 OA
BRANCH   5   6
ATOM      6  C   UNL A   1      33.418  26.468  22.635  1.00  0.00     0.310 C 
ATOM      7  O   UNL A   1      33.823  26.847  21.538  1.00  0.00    -0.252 OA
BRANCH   6   8
ATOM      8  C   UNL A   1      33.022  25.028  22.855  1.00  0.00     0.160 C 
BRANCH   8   9
ATOM      9  C   UNL A   1      33.641  24.264  23.989  1.00  0.00    -0.011 A 
ATOM     10  N   UNL A   1      33.838  23.207  25.956  1.00  0.00    -0.347 N 
ATOM     11  C   UNL A   1      33.069  24.087  25.236  1.00  0.00     0.091 A 
ATOM     12  C   UNL A   1      34.993  22.918  25.261  1.00  0.00     0.048 A 
ATOM     13  C   UNL A   1      34.844  23.475  23.985  1.00  0.00     0.003 A 
ATOM     14  C   UNL A   1      36.138  22.189  25.629  1.00  0.00     0.027 A 
ATOM     15  C   UNL A   1      35.833  23.185  23.016  1.00  0.00     0.010 A 
ATOM     16  C   UNL A   1      37.152  22.023  24.684  1.00  0.00     0.002 A 
ATOM     17  C   UNL A   1      36.993  22.489  23.385  1.00  0.00     0.001 A 
BRANCH  10  18
ATOM     18  C   UNL A   1      33.374  22.528  27.154  1.00  0.00     0.119 C 
ATOM     19  C   UNL A   1      31.960  22.876  27.579  1.00  0.00     0.027 C 
ENDBRANCH  10  18
ENDBRANCH   8   9
ENDBRANCH   6   8
ENDBRANCH   5   6
ENDBRANCH   4   5
ENDBRANCH   3   4
ENDBRANCH   2   3
ENDBRANCH   1   2
BRANCH   1  20
ATOM     20  C   UNL A   1      32.877  30.785  27.404  1.00  0.00     0.261 C 
BRANCH  20  21
ATOM     21  O   UNL A   1      33.965  31.689  27.245  1.00  0.00    -0.460 OA
BRANCH  21  22
ATOM     22  C   UNL A   1      34.653  31.950  28.391  1.00  0.00     0.338 C 
ATOM     23  O   UNL A   1      34.221  32.121  29.505  1.00  0.00    -0.246 OA
BRANCH  22  24
ATOM     24  C   UNL A   1      36.032  31.551  28.056  1.00  0.00     0.060 A 
ATOM     25  C   UNL A   1      36.273  30.301  27.477  1.00  0.00     0.016 A 
ATOM     26  C   UNL A   1      37.037  32.271  28.718  1.00  0.00     0.016 A 
ATOM     27  C   UNL A   1      37.507  29.707  27.686  1.00  0.00     0.010 A 
ATOM     28  C   UNL A   1      38.262  31.665  28.936  1.00  0.00     0.010 A 
ATOM     29  C   UNL A   1      38.469  30.364  28.473  1.00  0.00    -0.014 A 
BRANCH  29  30
ATOM     30  C   UNL A   1      39.766  29.720  28.647  1.00  0.00     0.031 A 
ATOM     31  C   UNL A   1      40.162  29.613  30.078  1.00  0.00     0.074 A 
ATOM     32  C   UNL A   1      40.471  29.119  27.667  1.00  0.00     0.049 A 
ATOM     33  N   UNL A   1      41.204  30.103  30.662  1.00  0.00    -0.248 NA
ATOM     34  C   UNL A   1      39.186  29.001  30.996  1.00  0.00     0.031 C 
ATOM     35  C   UNL A   1      40.085  28.849  26.284  1.00  0.00     0.029 A 
ATOM     36  N   UNL A   1      41.676  28.494  27.760  1.00  0.00    -0.354 N 
ATOM     37  C   UNL A   1      41.097  29.733  32.001  1.00  0.00     0.074 A 
ATOM     38  C   UNL A   1      39.772  29.195  32.174  1.00  0.00     0.031 C 
ATOM     39  C   UNL A   1      40.910  27.917  25.755  1.00  0.00     0.029 A 
ATOM     40  C   UNL A   1      41.942  27.606  26.725  1.00  0.00     0.049 A 
ATOM     41  H   UNL A   1      42.306  28.658  28.498  1.00  0.00     0.167 HD
ATOM     42  C   UNL A   1      42.160  29.725  32.851  1.00  0.00     0.031 A 
ATOM     43  C   UNL A   1      42.861  26.603  26.729  1.00  0.00     0.031 A 
ATOM     44  C   UNL A   1      43.266  30.488  32.347  1.00  0.00     0.049 A 
ATOM     45  C   UNL A   1      43.857  26.957  27.777  1.00  0.00     0.074 A 
ATOM     46  C   UNL A   1      43.447  31.823  32.043  1.00  0.00     0.029 A 
ATOM     47  N   UNL A   1      44.270  29.815  31.691  1.00  0.00    -0.354 N 
ATOM     48  N   UNL A   1      44.622  28.015  27.709  1.00  0.00    -0.248 NA
ATOM     49  C   UNL A   1      43.641  26.422  29.115  1.00  0.00     0.031 C 
ATOM     50  C   UNL A   1      44.193  31.818  30.830  1.00  0.00     0.029 A 
ATOM     51  C   UNL A   1      44.489  30.488  30.514  1.00  0.00     0.049 A 
ATOM     52  H   UNL A   1      44.741  29.009  32.004  1.00  0.00     0.167 HD
ATOM     53  C   UNL A   1      44.637  28.525  29.000  1.00  0.00     0.074 A 
ATOM     54  C   UNL A   1      44.058  27.468  29.833  1.00  0.00     0.031 C 
ATOM     55  C   UNL A   1      44.842  29.851  29.260  1.00  0.00     0.031 A 
BRANCH  42  56
ATOM     56  C   UNL A   1      42.273  28.782  34.016  1.00  0.00    -0.014 A 
ATOM     57  C   UNL A   1      41.806  29.112  35.306  1.00  0.00     0.010 A 
ATOM     58  C   UNL A   1      42.648  27.444  33.794  1.00  0.00     0.010 A 
ATOM     59  C   UNL A   1      41.755  28.178  36.339  1.00  0.00     0.020 A 
ATOM     60  C   UNL A   1      42.557  26.484  34.813  1.00  0.00     0.020 A 
ATOM     61  C   UNL A   1      42.120  26.863  36.083  1.00  0.00     0.054 A 
BRANCH  61  62
ATOM     62  S   UNL A   1      41.942  25.658  37.420  1.00  0.00     0.124 S 
ATOM     63  O   UNL A   1      40.541  25.834  37.796  1.00  0.00    -0.237 OA
ATOM     64  O   UNL A   1      42.263  24.401  36.752  1.00  0.00    -0.237 OA
ATOM     65  O   UNL A   1      42.917  26.102  38.414  1.00  0.00    -0.744 OA
ENDBRANCH  61  62
ENDBRANCH  42  56
BRANCH  43  66
ATOM     66  C   UNL A   1      42.564  25.189  26.342  1.00  0.00    -0.014 A 
ATOM     67  C   UNL A   1      41.363  24.582  26.770  1.00  0.00     0.010 A 
ATOM     68  C   UNL A   1      43.557  24.344  25.807  1.00  0.00     0.010 A 
ATOM     69  C   UNL A   1      41.182  23.196  26.739  1.00  0.00     0.020 A 
ATOM     70  C   UNL A   1      43.383  22.945  25.772  1.00  0.00     0.020 A 
ATOM     71  C   UNL A   1      42.209  22.380  26.275  1.00  0.00     0.054 A 
BRANCH  71  72
ATOM     72  S   UNL A   1      42.004  20.581  26.437  1.00  0.00     0.124 S 
ATOM     73  O   UNL A   1      42.928  20.079  25.423  1.00  0.00    -0.237 OA
ATOM     74  O   UNL A   1      42.405  20.341  27.822  1.00  0.00    -0.237 OA
ATOM     75  O   UNL A   1      40.587  20.366  26.155  1.00  0.00    -0.744 OA
ENDBRANCH  71  72
ENDBRANCH  43  66
BRANCH  55  76
ATOM     76  C   UNL A   1      45.199  30.799  28.128  1.00  0.00    -0.014 A 
ATOM     77  C   UNL A   1      46.486  31.368  28.145  1.00  0.00     0.010 A 
ATOM     78  C   UNL A   1      44.243  31.344  27.244  1.00  0.00     0.010 A 
ATOM     79  C   UNL A   1      46.794  32.483  27.362  1.00  0.00     0.020 A 
ATOM     80  C   UNL A   1      44.555  32.452  26.434  1.00  0.00     0.020 A 
ATOM     81  C   UNL A   1      45.821  33.033  26.526  1.00  0.00     0.054 A 
BRANCH  81  82
ATOM     82  S   UNL A   1      46.240  34.548  25.615  1.00  0.00     0.124 S 
ATOM     83  O   UNL A   1      47.693  34.443  25.491  1.00  0.00    -0.237 OA
ATOM     84  O   UNL A   1      45.497  34.389  24.368  1.00  0.00    -0.237 OA
ATOM     85  O   UNL A   1      45.771  35.627  26.481  1.00  0.00    -0.744 OA
ENDBRANCH  81  82
ENDBRANCH  55  76
ENDBRANCH  29  30
ENDBRANCH  22  24
ENDBRANCH  21  22
ENDBRANCH  20  21
ENDBRANCH   1  20
TORSDOF 19
ENDMDL
MODEL 3
REMARK VINA RESULT:     -10.1      3.587      7.813
REMARK SMILES CCn1cc(CC(=O)OCCOCCOC(=O)c2ccc(-c3c4nc(c(-c5ccc(S(=O)(=O)[O-])cc5)c5ccc([nH]5)c(-c5ccc(S(=O)(=O)[O-])cc5)c5nc(c(-c6ccc(S(=O)(=O)[O-])cc6)c6ccc3[nH]6)C=C5)C=C4)cc2)c2ccccc21
REMARK SMILES IDX 13 1 12 2 11 3 10 4 9 5 7 6 8 7 6 8 5 9 3 10 4 11 83 12
REMARK SMILES IDX 78 13 82 14 79 15 81 16 80 17 2 18 1 19 14 20 15 21 16 22
REMARK SMILES IDX 17 23 18 24 19 25 77 26 20 27 76 28 21 29 22 30 23 31 70 32
REMARK SMILES IDX 24 33 75 34 69 35 71 36 25 37 74 38 68 39 67 40 26 42 56 43
REMARK SMILES IDX 37 44 55 45 38 46 41 47 54 48 72 49 39 50 40 51 53 53 73 54
REMARK SMILES IDX 42 55 27 56 28 57 36 58 29 59 35 60 30 61 31 62 32 63 33 64
REMARK SMILES IDX 34 65 57 66 58 67 66 68 59 69 65 70 60 71 61 72 62 73 63 74
REMARK SMILES IDX 64 75 43 76 44 77 52 78 45 79 51 80 46 81 47 82 48 83 49 84
REMARK SMILES IDX 50 85
REMARK H PARENT 71 41 41 52
REMARK Flexibility Score: inf
ROOT
ATOM      1  C   UNL A   1      34.815  21.513  25.860  1.00  0.00     0.202 C 
ENDROOT
BRANCH   1   2
ATOM      2  O   UNL A   1      33.598  21.853  25.211  1.00  0.00    -0.374 OA
BRANCH   2   3
ATOM      3  C   UNL A   1      33.589  21.861  23.791  1.00  0.00     0.202 C 
BRANCH   3   4
ATOM      4  C   UNL A   1      32.974  23.019  22.990  1.00  0.00     0.261 C 
BRANCH   4   5
ATOM      5  O   UNL A   1      33.896  24.056  22.616  1.00  0.00    -0.463 OA
BRANCH   5   6
ATOM      6  C   UNL A   1      33.304  25.242  22.312  1.00  0.00     0.310 C 
ATOM      7  O   UNL A   1      33.779  26.076  21.543  1.00  0.00    -0.252 OA
BRANCH   6   8
ATOM      8  C   UNL A   1      31.988  25.498  23.007  1.00  0.00     0.160 C 
BRANCH   8   9
ATOM      9  C   UNL A   1      31.606  26.909  23.354  1.00  0.00    -0.011 A 
ATOM     10  N   UNL A   1      30.556  28.887  23.267  1.00  0.00    -0.347 N 
ATOM     11  C   UNL A   1      30.833  27.741  22.564  1.00  0.00     0.091 A 
ATOM     12  C   UNL A   1      31.263  28.892  24.451  1.00  0.00     0.048 A 
ATOM     13  C   UNL A   1      31.837  27.622  24.581  1.00  0.00     0.003 A 
ATOM     14  C   UNL A   1      31.418  29.887  25.433  1.00  0.00     0.027 A 
ATOM     15  C   UNL A   1      32.492  27.313  25.796  1.00  0.00     0.010 A 
ATOM     16  C   UNL A   1      32.174  29.588  26.568  1.00  0.00     0.002 A 
ATOM     17  C   UNL A   1      32.682  28.310  26.764  1.00  0.00     0.001 A 
BRANCH  10  18
ATOM     18  C   UNL A   1      29.505  29.820  22.900  1.00  0.00     0.119 C 
ATOM     19  C   UNL A   1      28.110  29.226  22.854  1.00  0.00     0.027 C 
ENDBRANCH  10  18
ENDBRANCH   8   9
ENDBRANCH   6   8
ENDBRANCH   5   6
ENDBRANCH   4   5
ENDBRANCH   3   4
ENDBRANCH   2   3
ENDBRANCH   1   2
BRANCH   1  20
ATOM     20  C   UNL A   1      35.862  20.667  25.117  1.00  0.00     0.261 C 
BRANCH  20  21
ATOM     21  O   UNL A   1      37.200  20.951  25.510  1.00  0.00    -0.460 OA
BRANCH  21  22
ATOM     22  C   UNL A   1      37.700  22.117  25.014  1.00  0.00     0.338 C 
ATOM     23  O   UNL A   1      37.414  22.679  23.985  1.00  0.00    -0.246 OA
BRANCH  22  24
ATOM     24  C   UNL A   1      38.326  22.745  26.191  1.00  0.00     0.060 A 
ATOM     25  C   UNL A   1      38.048  24.081  26.497  1.00  0.00     0.016 A 
ATOM     26  C   UNL A   1      39.468  22.093  26.676  1.00  0.00     0.016 A 
ATOM     27  C   UNL A   1      39.002  24.810  27.187  1.00  0.00     0.010 A 
ATOM     28  C   UNL A   1      40.425  22.831  27.352  1.00  0.00     0.010 A 
ATOM     29  C   UNL A   1      40.215  24.197  27.550  1.00  0.00    -0.014 A 
BRANCH  29  30
ATOM     30  C   UNL A   1      41.183  24.987  28.300  1.00  0.00     0.031 A 
ATOM     31  C   UNL A   1      40.672  26.344  28.640  1.00  0.00     0.074 A 
ATOM     32  C   UNL A   1      42.345  24.520  28.801  1.00  0.00     0.049 A 
ATOM     33  N   UNL A   1      41.163  27.493  28.313  1.00  0.00    -0.248 NA
ATOM     34  C   UNL A   1      39.361  26.414  29.309  1.00  0.00     0.031 C 
ATOM     35  C   UNL A   1      42.847  23.148  28.841  1.00  0.00     0.029 A 
ATOM     36  N   UNL A   1      43.286  25.195  29.515  1.00  0.00    -0.354 N 
ATOM     37  C   UNL A   1      40.304  28.441  28.864  1.00  0.00     0.074 A 
ATOM     38  C   UNL A   1      39.143  27.726  29.328  1.00  0.00     0.031 C 
ATOM     39  C   UNL A   1      43.852  23.057  29.743  1.00  0.00     0.029 A 
ATOM     40  C   UNL A   1      44.131  24.382  30.261  1.00  0.00     0.049 A 
ATOM     41  H   UNL A   1      43.361  26.176  29.503  1.00  0.00     0.167 HD
ATOM     42  C   UNL A   1      40.669  29.736  29.068  1.00  0.00     0.031 A 
ATOM     43  C   UNL A   1      44.902  24.761  31.315  1.00  0.00     0.031 A 
ATOM     44  C   UNL A   1      41.840  30.096  28.320  1.00  0.00     0.049 A 
ATOM     45  C   UNL A   1      45.089  26.232  31.187  1.00  0.00     0.074 A 
ATOM     46  C   UNL A   1      42.127  30.169  26.971  1.00  0.00     0.029 A 
ATOM     47  N   UNL A   1      43.057  30.049  28.959  1.00  0.00    -0.354 N 
ATOM     48  N   UNL A   1      45.718  26.789  30.185  1.00  0.00    -0.248 NA
ATOM     49  C   UNL A   1      44.147  27.091  31.893  1.00  0.00     0.031 C 
ATOM     50  C   UNL A   1      43.441  29.632  26.852  1.00  0.00     0.029 A 
ATOM     51  C   UNL A   1      43.902  29.342  28.140  1.00  0.00     0.049 A 
ATOM     52  H   UNL A   1      43.279  30.446  29.833  1.00  0.00     0.167 HD
ATOM     53  C   UNL A   1      44.962  27.909  29.870  1.00  0.00     0.074 A 
ATOM     54  C   UNL A   1      44.036  28.072  30.993  1.00  0.00     0.031 C 
ATOM     55  C   UNL A   1      44.939  28.444  28.612  1.00  0.00     0.031 A 
BRANCH  42  56
ATOM     56  C   UNL A   1      40.107  30.584  30.175  1.00  0.00    -0.014 A 
ATOM     57  C   UNL A   1      39.030  31.473  29.976  1.00  0.00     0.010 A 
ATOM     58  C   UNL A   1      40.501  30.342  31.505  1.00  0.00     0.010 A 
ATOM     59  C   UNL A   1      38.401  32.126  31.034  1.00  0.00     0.020 A 
ATOM     60  C   UNL A   1      39.845  30.958  32.581  1.00  0.00     0.020 A 
ATOM     61  C   UNL A   1      38.805  31.856  32.335  1.00  0.00     0.054 A 
BRANCH  61  62
ATOM     62  S   UNL A   1      37.897  32.644  33.686  1.00  0.00     0.124 S 
ATOM     63  O   UNL A   1      38.007  34.058  33.335  1.00  0.00    -0.237 OA
ATOM     64  O   UNL A   1      36.566  32.061  33.548  1.00  0.00    -0.237 OA
ATOM     65  O   UNL A   1      38.635  32.236  34.879  1.00  0.00    -0.744 OA
ENDBRANCH  61  62
ENDBRANCH  42  56
BRANCH  43  66
ATOM     66  C   UNL A   1      44.927  24.057  32.635  1.00  0.00    -0.014 A 
ATOM     67  C   UNL A   1      45.925  24.376  33.582  1.00  0.00     0.010 A 
ATOM     68  C   UNL A   1      44.171  22.890  32.865  1.00  0.00     0.010 A 
ATOM     69  C   UNL A   1      46.211  23.540  34.666  1.00  0.00     0.020 A 
ATOM     70  C   UNL A   1      44.452  22.041  33.955  1.00  0.00     0.020 A 
ATOM     71  C   UNL A   1      45.498  22.356  34.826  1.00  0.00     0.054 A 
BRANCH  71  72
ATOM     72  S   UNL A   1      46.036  21.211  36.131  1.00  0.00     0.124 S 
ATOM     73  O   UNL A   1      47.481  21.176  35.926  1.00  0.00    -0.237 OA
ATOM     74  O   UNL A   1      45.594  21.888  37.348  1.00  0.00    -0.237 OA
ATOM     75  O   UNL A   1      45.329  19.971  35.819  1.00  0.00    -0.744 OA
ENDBRANCH  71  72
ENDBRANCH  43  66
BRANCH  55  76
ATOM     76  C   UNL A   1      45.863  27.897  27.538  1.00  0.00    -0.014 A 
ATOM     77  C   UNL A   1      46.996  28.664  27.210  1.00  0.00     0.010 A 
ATOM     78  C   UNL A   1      45.507  26.836  26.678  1.00  0.00     0.010 A 
ATOM     79  C   UNL A   1      47.712  28.430  26.034  1.00  0.00     0.020 A 
ATOM     80  C   UNL A   1      46.240  26.579  25.504  1.00  0.00     0.020 A 
ATOM     81  C   UNL A   1      47.318  27.403  25.175  1.00  0.00     0.054 A 
BRANCH  81  82
ATOM     82  S   UNL A   1      48.215  27.214  23.606  1.00  0.00     0.124 S 
ATOM     83  O   UNL A   1      48.222  25.764  23.428  1.00  0.00    -0.237 OA
ATOM     84  O   UNL A   1      47.375  27.952  22.665  1.00  0.00    -0.237 OA
ATOM     85  O   UNL A   1      49.522  27.811  23.868  1.00  0.00    -0.744 OA
ENDBRANCH  81  82
ENDBRANCH  55  76
ENDBRANCH  29  30
ENDBRANCH  22  24
ENDBRANCH  21  22
ENDBRANCH  20  21
ENDBRANCH   1  20
TORSDOF 19
ENDMDL
