MODEL 1
REMARK VINA RESULT:     -10.5      0.000      0.000
REMARK SMILES Cc1nsc(Nc2ccccc2C(C)C)c1C(=O)OCCOCCOC(=O)c1ccc(-c2c3nc(c(-c4ccc(S(=O)(=O)[O-])cc4)c4ccc([nH]4)c(-c4ccc(S(=O)(=O)[O-])cc4)c4nc(c(-c5ccc(S(=O)(=O)[O-])cc5)c5ccc2[nH]5)C=C4)C=C3)cc1
REMARK SMILES IDX 22 1 21 2 20 3 19 4 17 5 18 6 16 7 1 8 2 9 3 10 4 11 5 12
REMARK SMILES IDX 6 13 7 15 8 16 12 17 9 18 11 19 10 20 13 21 14 22 15 23
REMARK SMILES IDX 23 24 24 25 25 26 26 27 27 28 28 29 29 30 87 31 30 32 86 33
REMARK SMILES IDX 31 34 32 35 33 36 80 37 34 38 85 39 79 40 81 41 35 42 84 43
REMARK SMILES IDX 78 44 77 45 36 47 66 48 47 49 65 50 48 51 51 52 64 53 82 54
REMARK SMILES IDX 49 55 50 56 63 58 83 59 52 60 37 61 38 62 46 63 39 64 45 65
REMARK SMILES IDX 40 66 41 67 42 68 43 69 44 70 67 71 68 72 76 73 69 74 75 75
REMARK SMILES IDX 70 76 71 77 72 78 73 79 74 80 53 81 54 82 62 83 55 84 61 85
REMARK SMILES IDX 56 86 57 87 58 88 59 89 60 90
REMARK H PARENT 6 14 81 46 51 57
REMARK Flexibility Score: inf
ROOT
ATOM      1  O   UNL A   1      36.667  21.367  25.115  1.00  0.00    -0.374 OA
ENDROOT
BRANCH   1   2
ATOM      2  C   UNL A   1      36.639  22.349  24.078  1.00  0.00     0.202 C 
BRANCH   2   3
ATOM      3  C   UNL A   1      35.537  23.413  24.138  1.00  0.00     0.261 C 
BRANCH   3   4
ATOM      4  O   UNL A   1      34.900  23.456  25.427  1.00  0.00    -0.460 OA
BRANCH   4   5
ATOM      5  C   UNL A   1      34.231  24.607  25.713  1.00  0.00     0.343 C 
ATOM      6  O   UNL A   1      34.667  25.732  25.496  1.00  0.00    -0.246 OA
BRANCH   5   7
ATOM      7  C   UNL A   1      32.845  24.368  26.089  1.00  0.00     0.117 A 
ATOM      8  C   UNL A   1      33.128  22.416  27.806  1.00  0.00     0.069 C 
ATOM      9  C   UNL A   1      32.331  23.390  27.008  1.00  0.00     0.068 A 
ATOM     10  N   UNL A   1      31.007  23.389  27.171  1.00  0.00    -0.195 NA
ATOM     11  S   UNL A   1      30.332  24.504  26.156  1.00  0.00    -0.017 S 
ATOM     12  C   UNL A   1      31.805  25.080  25.492  1.00  0.00     0.128 A 
BRANCH  12  13
ATOM     13  N   UNL A   1      31.937  26.021  24.513  1.00  0.00    -0.345 N 
ATOM     14  H   UNL A   1      32.631  25.849  23.837  1.00  0.00     0.167 HD
BRANCH  13  15
ATOM     15  C   UNL A   1      31.195  27.211  24.353  1.00  0.00     0.043 A 
ATOM     16  C   UNL A   1      30.274  27.258  23.292  1.00  0.00     0.026 A 
ATOM     17  C   UNL A   1      31.518  28.402  25.038  1.00  0.00    -0.022 A 
ATOM     18  C   UNL A   1      29.639  28.447  22.934  1.00  0.00     0.002 A 
ATOM     19  C   UNL A   1      30.870  29.595  24.657  1.00  0.00     0.006 A 
ATOM     20  C   UNL A   1      29.939  29.618  23.617  1.00  0.00     0.000 A 
BRANCH  17  21
ATOM     21  C   UNL A   1      32.557  28.443  26.153  1.00  0.00     0.015 C 
ATOM     22  C   UNL A   1      33.360  29.744  26.141  1.00  0.00     0.012 C 
ATOM     23  C   UNL A   1      31.912  28.188  27.517  1.00  0.00     0.012 C 
ENDBRANCH  17  21
ENDBRANCH  13  15
ENDBRANCH  12  13
ENDBRANCH   5   7
ENDBRANCH   4   5
ENDBRANCH   3   4
ENDBRANCH   2   3
ENDBRANCH   1   2
BRANCH   1  24
ATOM     24  C   UNL A   1      36.985  20.018  24.796  1.00  0.00     0.202 C 
BRANCH  24  25
ATOM     25  C   UNL A   1      38.319  19.443  25.242  1.00  0.00     0.261 C 
BRANCH  25  26
ATOM     26  O   UNL A   1      39.269  20.450  25.553  1.00  0.00    -0.460 OA
BRANCH  26  27
ATOM     27  C   UNL A   1      40.503  19.953  25.819  1.00  0.00     0.338 C 
ATOM     28  O   UNL A   1      40.878  18.809  25.665  1.00  0.00    -0.246 OA
BRANCH  27  29
ATOM     29  C   UNL A   1      41.281  20.995  26.499  1.00  0.00     0.060 A 
ATOM     30  C   UNL A   1      41.226  20.999  27.893  1.00  0.00     0.016 A 
ATOM     31  C   UNL A   1      41.806  22.075  25.771  1.00  0.00     0.016 A 
ATOM     32  C   UNL A   1      41.522  22.172  28.551  1.00  0.00     0.010 A 
ATOM     33  C   UNL A   1      42.093  23.247  26.430  1.00  0.00     0.010 A 
ATOM     34  C   UNL A   1      41.870  23.304  27.801  1.00  0.00    -0.014 A 
BRANCH  34  35
ATOM     35  C   UNL A   1      42.126  24.534  28.513  1.00  0.00     0.031 A 
ATOM     36  C   UNL A   1      41.076  25.544  28.279  1.00  0.00     0.074 A 
ATOM     37  C   UNL A   1      43.167  24.722  29.345  1.00  0.00     0.049 A 
ATOM     38  N   UNL A   1      41.160  26.572  27.504  1.00  0.00    -0.248 NA
ATOM     39  C   UNL A   1      39.721  25.273  28.783  1.00  0.00     0.031 C 
ATOM     40  C   UNL A   1      44.131  23.745  29.855  1.00  0.00     0.029 A 
ATOM     41  N   UNL A   1      43.525  25.864  29.986  1.00  0.00    -0.354 N 
ATOM     42  C   UNL A   1      39.934  27.212  27.602  1.00  0.00     0.074 A 
ATOM     43  C   UNL A   1      39.037  26.275  28.231  1.00  0.00     0.031 C 
ATOM     44  C   UNL A   1      44.806  24.289  30.897  1.00  0.00     0.029 A 
ATOM     45  C   UNL A   1      44.430  25.688  31.024  1.00  0.00     0.049 A 
ATOM     46  H   UNL A   1      43.171  26.748  29.735  1.00  0.00     0.167 HD
ATOM     47  C   UNL A   1      39.824  28.551  27.392  1.00  0.00     0.031 A 
ATOM     48  C   UNL A   1      44.794  26.626  31.939  1.00  0.00     0.031 A 
ATOM     49  C   UNL A   1      41.004  29.092  26.769  1.00  0.00     0.049 A 
ATOM     50  C   UNL A   1      44.498  27.952  31.337  1.00  0.00     0.074 A 
ATOM     51  C   UNL A   1      41.650  28.883  25.567  1.00  0.00     0.029 A 
ATOM     52  N   UNL A   1      41.924  29.692  27.600  1.00  0.00    -0.354 N 
ATOM     53  N   UNL A   1      45.133  28.417  30.298  1.00  0.00    -0.248 NA
ATOM     54  C   UNL A   1      43.192  28.544  31.583  1.00  0.00     0.031 C 
ATOM     55  C   UNL A   1      43.039  28.936  25.882  1.00  0.00     0.029 A 
ATOM     56  C   UNL A   1      43.170  29.248  27.237  1.00  0.00     0.049 A 
ATOM     57  H   UNL A   1      41.723  30.325  28.326  1.00  0.00     0.167 HD
ATOM     58  C   UNL A   1      44.151  29.010  29.518  1.00  0.00     0.074 A 
ATOM     59  C   UNL A   1      42.994  29.140  30.403  1.00  0.00     0.031 C 
ATOM     60  C   UNL A   1      44.276  29.083  28.159  1.00  0.00     0.031 A 
BRANCH  47  61
ATOM     61  C   UNL A   1      38.838  29.415  28.127  1.00  0.00    -0.014 A 
ATOM     62  C   UNL A   1      37.576  29.644  27.549  1.00  0.00     0.010 A 
ATOM     63  C   UNL A   1      39.203  30.225  29.223  1.00  0.00     0.010 A 
ATOM     64  C   UNL A   1      36.745  30.669  28.014  1.00  0.00     0.020 A 
ATOM     65  C   UNL A   1      38.365  31.220  29.721  1.00  0.00     0.020 A 
ATOM     66  C   UNL A   1      37.150  31.455  29.094  1.00  0.00     0.054 A 
BRANCH  66  67
ATOM     67  S   UNL A   1      36.102  32.825  29.634  1.00  0.00     0.124 S 
ATOM     68  O   UNL A   1      34.836  32.150  29.898  1.00  0.00    -0.237 OA
ATOM     69  O   UNL A   1      36.819  33.314  30.809  1.00  0.00    -0.237 OA
ATOM     70  O   UNL A   1      36.105  33.730  28.487  1.00  0.00    -0.744 OA
ENDBRANCH  66  67
ENDBRANCH  47  61
BRANCH  48  71
ATOM     71  C   UNL A   1      45.037  26.449  33.394  1.00  0.00    -0.014 A 
ATOM     72  C   UNL A   1      46.106  27.102  34.039  1.00  0.00     0.010 A 
ATOM     73  C   UNL A   1      44.036  25.880  34.209  1.00  0.00     0.010 A 
ATOM     74  C   UNL A   1      46.136  27.242  35.439  1.00  0.00     0.020 A 
ATOM     75  C   UNL A   1      44.061  26.013  35.603  1.00  0.00     0.020 A 
ATOM     76  C   UNL A   1      45.098  26.715  36.212  1.00  0.00     0.054 A 
BRANCH  76  77
ATOM     77  S   UNL A   1      45.042  27.062  37.997  1.00  0.00     0.124 S 
ATOM     78  O   UNL A   1      44.344  28.344  38.044  1.00  0.00    -0.237 OA
ATOM     79  O   UNL A   1      44.300  25.919  38.521  1.00  0.00    -0.237 OA
ATOM     80  O   UNL A   1      46.452  27.110  38.383  1.00  0.00    -0.744 OA
ENDBRANCH  76  77
ENDBRANCH  48  71
BRANCH  60  81
ATOM     81  C   UNL A   1      45.622  28.767  27.544  1.00  0.00    -0.014 A 
ATOM     82  C   UNL A   1      46.642  29.718  27.335  1.00  0.00     0.010 A 
ATOM     83  C   UNL A   1      45.911  27.414  27.295  1.00  0.00     0.010 A 
ATOM     84  C   UNL A   1      47.905  29.323  26.860  1.00  0.00     0.020 A 
ATOM     85  C   UNL A   1      47.169  27.012  26.841  1.00  0.00     0.020 A 
ATOM     86  C   UNL A   1      48.158  27.969  26.614  1.00  0.00     0.054 A 
BRANCH  86  87
ATOM     87  S   UNL A   1      49.795  27.453  26.025  1.00  0.00     0.124 S 
ATOM     88  O   UNL A   1      49.934  28.198  24.778  1.00  0.00    -0.237 OA
ATOM     89  O   UNL A   1      50.679  27.874  27.111  1.00  0.00    -0.237 OA
ATOM     90  O   UNL A   1      49.669  26.005  25.868  1.00  0.00    -0.744 OA
ENDBRANCH  86  87
ENDBRANCH  60  81
ENDBRANCH  34  35
ENDBRANCH  27  29
ENDBRANCH  26  27
ENDBRANCH  25  26
ENDBRANCH  24  25
ENDBRANCH   1  24
TORSDOF 20
ENDMDL
MODEL 2
REMARK VINA RESULT:     -10.2      3.195      7.813
REMARK SMILES Cc1nsc(Nc2ccccc2C(C)C)c1C(=O)OCCOCCOC(=O)c1ccc(-c2c3nc(c(-c4ccc(S(=O)(=O)[O-])cc4)c4ccc([nH]4)c(-c4ccc(S(=O)(=O)[O-])cc4)c4nc(c(-c5ccc(S(=O)(=O)[O-])cc5)c5ccc2[nH]5)C=C4)C=C3)cc1
REMARK SMILES IDX 22 1 21 2 20 3 19 4 17 5 18 6 16 7 1 8 2 9 3 10 4 11 5 12
REMARK SMILES IDX 6 13 7 15 8 16 12 17 9 18 11 19 10 20 13 21 14 22 15 23
REMARK SMILES IDX 23 24 24 25 25 26 26 27 27 28 28 29 29 30 87 31 30 32 86 33
REMARK SMILES IDX 31 34 32 35 33 36 80 37 34 38 85 39 79 40 81 41 35 42 84 43
REMARK SMILES IDX 78 44 77 45 36 47 66 48 47 49 65 50 48 51 51 52 64 53 82 54
REMARK SMILES IDX 49 55 50 56 63 58 83 59 52 60 37 61 38 62 46 63 39 64 45 65
REMARK SMILES IDX 40 66 41 67 42 68 43 69 44 70 67 71 68 72 76 73 69 74 75 75
REMARK SMILES IDX 70 76 71 77 72 78 73 79 74 80 53 81 54 82 62 83 55 84 61 85
REMARK SMILES IDX 56 86 57 87 58 88 59 89 60 90
REMARK H PARENT 6 14 81 46 51 57
REMARK Flexibility Score: inf
ROOT
ATOM      1  O   UNL A   1      39.506  23.875  26.785  1.00  0.00    -0.374 OA
ENDROOT
BRANCH   1   2
ATOM      2  C   UNL A   1      38.194  24.407  26.593  1.00  0.00     0.202 C 
BRANCH   2   3
ATOM      3  C   UNL A   1      37.155  23.509  25.914  1.00  0.00     0.261 C 
BRANCH   3   4
ATOM      4  O   UNL A   1      35.981  24.244  25.525  1.00  0.00    -0.460 OA
BRANCH   4   5
ATOM      5  C   UNL A   1      35.038  23.530  24.850  1.00  0.00     0.343 C 
ATOM      6  O   UNL A   1      35.275  22.804  23.891  1.00  0.00    -0.246 OA
BRANCH   5   7
ATOM      7  C   UNL A   1      33.749  23.530  25.526  1.00  0.00     0.117 A 
ATOM      8  C   UNL A   1      33.669  21.080  26.439  1.00  0.00     0.069 C 
ATOM      9  C   UNL A   1      33.115  22.448  26.229  1.00  0.00     0.068 A 
ATOM     10  N   UNL A   1      31.925  22.724  26.763  1.00  0.00    -0.195 NA
ATOM     11  S   UNL A   1      31.490  24.266  26.361  1.00  0.00    -0.017 S 
ATOM     12  C   UNL A   1      32.920  24.651  25.494  1.00  0.00     0.128 A 
BRANCH  12  13
ATOM     13  N   UNL A   1      33.177  25.819  24.838  1.00  0.00    -0.345 N 
ATOM     14  H   UNL A   1      33.605  25.736  23.956  1.00  0.00     0.167 HD
BRANCH  13  15
ATOM     15  C   UNL A   1      32.901  27.133  25.273  1.00  0.00     0.043 A 
ATOM     16  C   UNL A   1      33.637  27.616  26.370  1.00  0.00     0.026 A 
ATOM     17  C   UNL A   1      31.776  27.858  24.826  1.00  0.00    -0.022 A 
ATOM     18  C   UNL A   1      33.306  28.819  26.992  1.00  0.00     0.002 A 
ATOM     19  C   UNL A   1      31.454  29.069  25.473  1.00  0.00     0.006 A 
ATOM     20  C   UNL A   1      32.211  29.546  26.544  1.00  0.00     0.000 A 
BRANCH  17  21
ATOM     21  C   UNL A   1      30.889  27.363  23.689  1.00  0.00     0.015 C 
ATOM     22  C   UNL A   1      29.650  26.632  24.204  1.00  0.00     0.012 C 
ATOM     23  C   UNL A   1      30.518  28.507  22.741  1.00  0.00     0.012 C 
ENDBRANCH  17  21
ENDBRANCH  13  15
ENDBRANCH  12  13
ENDBRANCH   5   7
ENDBRANCH   4   5
ENDBRANCH   3   4
ENDBRANCH   2   3
ENDBRANCH   1   2
BRANCH   1  24
ATOM     24  C   UNL A   1      39.671  22.482  27.018  1.00  0.00     0.202 C 
BRANCH  24  25
ATOM     25  C   UNL A   1      41.045  21.856  26.846  1.00  0.00     0.261 C 
BRANCH  25  26
ATOM     26  O   UNL A   1      41.755  22.398  25.744  1.00  0.00    -0.460 OA
BRANCH  26  27
ATOM     27  C   UNL A   1      43.048  22.684  26.033  1.00  0.00     0.338 C 
ATOM     28  O   UNL A   1      43.967  21.897  26.124  1.00  0.00    -0.246 OA
BRANCH  27  29
ATOM     29  C   UNL A   1      43.135  24.103  26.399  1.00  0.00     0.060 A 
ATOM     30  C   UNL A   1      43.702  24.388  27.641  1.00  0.00     0.016 A 
ATOM     31  C   UNL A   1      42.431  25.068  25.662  1.00  0.00     0.016 A 
ATOM     32  C   UNL A   1      43.396  25.593  28.233  1.00  0.00     0.010 A 
ATOM     33  C   UNL A   1      42.120  26.267  26.258  1.00  0.00     0.010 A 
ATOM     34  C   UNL A   1      42.539  26.481  27.566  1.00  0.00    -0.014 A 
BRANCH  34  35
ATOM     35  C   UNL A   1      42.194  27.716  28.232  1.00  0.00     0.031 A 
ATOM     36  C   UNL A   1      43.244  28.743  28.082  1.00  0.00     0.074 A 
ATOM     37  C   UNL A   1      41.027  27.933  28.863  1.00  0.00     0.049 A 
ATOM     38  N   UNL A   1      44.104  29.096  28.976  1.00  0.00    -0.248 NA
ATOM     39  C   UNL A   1      43.508  29.281  26.738  1.00  0.00     0.031 C 
ATOM     40  C   UNL A   1      39.818  27.108  28.878  1.00  0.00     0.029 A 
ATOM     41  N   UNL A   1      40.657  29.025  29.579  1.00  0.00    -0.354 N 
ATOM     42  C   UNL A   1      44.881  30.075  28.376  1.00  0.00     0.074 A 
ATOM     43  C   UNL A   1      44.606  30.004  26.963  1.00  0.00     0.031 C 
ATOM     44  C   UNL A   1      38.786  27.839  29.368  1.00  0.00     0.029 A 
ATOM     45  C   UNL A   1      39.295  29.119  29.836  1.00  0.00     0.049 A 
ATOM     46  H   UNL A   1      41.303  29.699  29.892  1.00  0.00     0.167 HD
ATOM     47  C   UNL A   1      45.493  31.036  29.120  1.00  0.00     0.031 A 
ATOM     48  C   UNL A   1      38.649  30.197  30.353  1.00  0.00     0.031 A 
ATOM     49  C   UNL A   1      45.496  30.705  30.521  1.00  0.00     0.049 A 
ATOM     50  C   UNL A   1      39.667  31.006  31.072  1.00  0.00     0.074 A 
ATOM     51  C   UNL A   1      46.028  29.679  31.276  1.00  0.00     0.029 A 
ATOM     52  N   UNL A   1      44.513  31.282  31.295  1.00  0.00    -0.354 N 
ATOM     53  N   UNL A   1      40.272  30.589  32.149  1.00  0.00    -0.248 NA
ATOM     54  C   UNL A   1      40.357  32.055  30.338  1.00  0.00     0.031 C 
ATOM     55  C   UNL A   1      45.038  29.394  32.260  1.00  0.00     0.029 A 
ATOM     56  C   UNL A   1      43.991  30.306  32.105  1.00  0.00     0.049 A 
ATOM     57  H   UNL A   1      44.235  32.225  31.271  1.00  0.00     0.167 HD
ATOM     58  C   UNL A   1      41.593  30.982  31.988  1.00  0.00     0.074 A 
ATOM     59  C   UNL A   1      41.566  31.960  30.901  1.00  0.00     0.031 C 
ATOM     60  C   UNL A   1      42.614  30.275  32.557  1.00  0.00     0.031 A 
BRANCH  47  61
ATOM     61  C   UNL A   1      45.703  32.440  28.626  1.00  0.00    -0.014 A 
ATOM     62  C   UNL A   1      47.016  32.940  28.545  1.00  0.00     0.010 A 
ATOM     63  C   UNL A   1      44.649  33.370  28.504  1.00  0.00     0.010 A 
ATOM     64  C   UNL A   1      47.258  34.310  28.399  1.00  0.00     0.020 A 
ATOM     65  C   UNL A   1      44.879  34.731  28.315  1.00  0.00     0.020 A 
ATOM     66  C   UNL A   1      46.186  35.197  28.293  1.00  0.00     0.054 A 
BRANCH  66  67
ATOM     67  S   UNL A   1      46.512  36.972  28.184  1.00  0.00     0.124 S 
ATOM     68  O   UNL A   1      46.973  37.276  29.534  1.00  0.00    -0.237 OA
ATOM     69  O   UNL A   1      47.528  37.032  27.136  1.00  0.00    -0.237 OA
ATOM     70  O   UNL A   1      45.214  37.536  27.820  1.00  0.00    -0.744 OA
ENDBRANCH  66  67
ENDBRANCH  47  61
BRANCH  48  71
ATOM     71  C   UNL A   1      37.320  30.744  29.973  1.00  0.00    -0.014 A 
ATOM     72  C   UNL A   1      36.599  31.579  30.850  1.00  0.00     0.010 A 
ATOM     73  C   UNL A   1      36.899  30.695  28.628  1.00  0.00     0.010 A 
ATOM     74  C   UNL A   1      35.544  32.385  30.385  1.00  0.00     0.020 A 
ATOM     75  C   UNL A   1      35.847  31.493  28.159  1.00  0.00     0.020 A 
ATOM     76  C   UNL A   1      35.189  32.353  29.033  1.00  0.00     0.054 A 
BRANCH  76  77
ATOM     77  S   UNL A   1      33.957  33.534  28.399  1.00  0.00     0.124 S 
ATOM     78  O   UNL A   1      34.779  34.454  27.620  1.00  0.00    -0.237 OA
ATOM     79  O   UNL A   1      33.062  32.676  27.628  1.00  0.00    -0.237 OA
ATOM     80  O   UNL A   1      33.370  34.102  29.612  1.00  0.00    -0.744 OA
ENDBRANCH  76  77
ENDBRANCH  48  71
BRANCH  60  81
ATOM     81  C   UNL A   1      42.272  29.229  33.596  1.00  0.00    -0.014 A 
ATOM     82  C   UNL A   1      41.908  27.900  33.295  1.00  0.00     0.010 A 
ATOM     83  C   UNL A   1      42.466  29.577  34.944  1.00  0.00     0.010 A 
ATOM     84  C   UNL A   1      41.713  26.959  34.320  1.00  0.00     0.020 A 
ATOM     85  C   UNL A   1      42.293  28.643  35.967  1.00  0.00     0.020 A 
ATOM     86  C   UNL A   1      41.905  27.340  35.653  1.00  0.00     0.054 A 
BRANCH  86  87
ATOM     87  S   UNL A   1      41.680  26.121  36.978  1.00  0.00     0.124 S 
ATOM     88  O   UNL A   1      40.326  26.405  37.445  1.00  0.00    -0.237 OA
ATOM     89  O   UNL A   1      41.851  24.848  36.281  1.00  0.00    -0.237 OA
ATOM     90  O   UNL A   1      42.741  26.442  37.931  1.00  0.00    -0.744 OA
ENDBRANCH  86  87
ENDBRANCH  60  81
ENDBRANCH  34  35
ENDBRANCH  27  29
ENDBRANCH  26  27
ENDBRANCH  25  26
ENDBRANCH  24  25
ENDBRANCH   1  24
TORSDOF 20
ENDMDL
MODEL 3
REMARK VINA RESULT:     -10.2      2.900      7.297
REMARK SMILES Cc1nsc(Nc2ccccc2C(C)C)c1C(=O)OCCOCCOC(=O)c1ccc(-c2c3nc(c(-c4ccc(S(=O)(=O)[O-])cc4)c4ccc([nH]4)c(-c4ccc(S(=O)(=O)[O-])cc4)c4nc(c(-c5ccc(S(=O)(=O)[O-])cc5)c5ccc2[nH]5)C=C4)C=C3)cc1
REMARK SMILES IDX 22 1 21 2 20 3 19 4 17 5 18 6 16 7 1 8 2 9 3 10 4 11 5 12
REMARK SMILES IDX 6 13 7 15 8 16 12 17 9 18 11 19 10 20 13 21 14 22 15 23
REMARK SMILES IDX 23 24 24 25 25 26 26 27 27 28 28 29 29 30 87 31 30 32 86 33
REMARK SMILES IDX 31 34 32 35 33 36 80 37 34 38 85 39 79 40 81 41 35 42 84 43
REMARK SMILES IDX 78 44 77 45 36 47 66 48 47 49 65 50 48 51 51 52 64 53 82 54
REMARK SMILES IDX 49 55 50 56 63 58 83 59 52 60 37 61 38 62 46 63 39 64 45 65
REMARK SMILES IDX 40 66 41 67 42 68 43 69 44 70 67 71 68 72 76 73 69 74 75 75
REMARK SMILES IDX 70 76 71 77 72 78 73 79 74 80 53 81 54 82 62 83 55 84 61 85
REMARK SMILES IDX 56 86 57 87 58 88 59 89 60 90
REMARK H PARENT 6 14 81 46 51 57
REMARK Flexibility Score: inf
ROOT
ATOM      1  O   UNL A   1      36.475  21.778  24.706  1.00  0.00    -0.374 OA
ENDROOT
BRANCH   1   2
ATOM      2  C   UNL A   1      36.495  23.070  24.096  1.00  0.00     0.202 C 
BRANCH   2   3
ATOM      3  C   UNL A   1      35.236  23.936  24.224  1.00  0.00     0.261 C 
BRANCH   3   4
ATOM      4  O   UNL A   1      34.487  23.979  22.996  1.00  0.00    -0.460 OA
BRANCH   4   5
ATOM      5  C   UNL A   1      33.226  24.484  23.096  1.00  0.00     0.343 C 
ATOM      6  O   UNL A   1      32.722  25.251  22.284  1.00  0.00    -0.246 OA
BRANCH   5   7
ATOM      7  C   UNL A   1      32.448  23.837  24.143  1.00  0.00     0.117 A 
ATOM      8  C   UNL A   1      32.512  21.349  23.340  1.00  0.00     0.069 C 
ATOM      9  C   UNL A   1      32.108  22.445  24.265  1.00  0.00     0.068 A 
ATOM     10  N   UNL A   1      31.381  22.119  25.334  1.00  0.00    -0.195 NA
ATOM     11  S   UNL A   1      31.008  23.489  26.179  1.00  0.00    -0.017 S 
ATOM     12  C   UNL A   1      31.863  24.580  25.167  1.00  0.00     0.128 A 
BRANCH  12  13
ATOM     13  N   UNL A   1      31.912  25.937  25.303  1.00  0.00    -0.345 N 
ATOM     14  H   UNL A   1      32.654  26.291  25.843  1.00  0.00     0.167 HD
BRANCH  13  15
ATOM     15  C   UNL A   1      31.028  26.893  24.759  1.00  0.00     0.043 A 
ATOM     16  C   UNL A   1      29.811  26.420  24.237  1.00  0.00     0.026 A 
ATOM     17  C   UNL A   1      31.418  28.224  24.499  1.00  0.00    -0.022 A 
ATOM     18  C   UNL A   1      28.961  27.253  23.509  1.00  0.00     0.002 A 
ATOM     19  C   UNL A   1      30.547  29.048  23.756  1.00  0.00     0.006 A 
ATOM     20  C   UNL A   1      29.332  28.568  23.267  1.00  0.00     0.000 A 
BRANCH  17  21
ATOM     21  C   UNL A   1      32.752  28.787  24.974  1.00  0.00     0.015 C 
ATOM     22  C   UNL A   1      32.845  28.837  26.499  1.00  0.00     0.012 C 
ATOM     23  C   UNL A   1      33.925  28.018  24.361  1.00  0.00     0.012 C 
ENDBRANCH  17  21
ENDBRANCH  13  15
ENDBRANCH  12  13
ENDBRANCH   5   7
ENDBRANCH   4   5
ENDBRANCH   3   4
ENDBRANCH   2   3
ENDBRANCH   1   2
BRANCH   1  24
ATOM     24  C   UNL A   1      37.686  21.210  25.187  1.00  0.00     0.202 C 
BRANCH  24  25
ATOM     25  C   UNL A   1      38.612  22.051  26.049  1.00  0.00     0.261 C 
BRANCH  25  26
ATOM     26  O   UNL A   1      39.895  21.464  26.202  1.00  0.00    -0.460 OA
BRANCH  26  27
ATOM     27  C   UNL A   1      40.907  22.357  26.075  1.00  0.00     0.338 C 
ATOM     28  O   UNL A   1      41.928  22.217  25.434  1.00  0.00    -0.246 OA
BRANCH  27  29
ATOM     29  C   UNL A   1      40.653  23.474  26.992  1.00  0.00     0.060 A 
ATOM     30  C   UNL A   1      39.883  24.524  26.491  1.00  0.00     0.016 A 
ATOM     31  C   UNL A   1      41.382  23.590  28.187  1.00  0.00     0.016 A 
ATOM     32  C   UNL A   1      39.999  25.759  27.091  1.00  0.00     0.010 A 
ATOM     33  C   UNL A   1      41.502  24.825  28.779  1.00  0.00     0.010 A 
ATOM     34  C   UNL A   1      40.873  25.908  28.177  1.00  0.00    -0.014 A 
BRANCH  34  35
ATOM     35  C   UNL A   1      41.014  27.225  28.755  1.00  0.00     0.031 A 
ATOM     36  C   UNL A   1      42.146  27.972  28.174  1.00  0.00     0.074 A 
ATOM     37  C   UNL A   1      40.175  27.739  29.673  1.00  0.00     0.049 A 
ATOM     38  N   UNL A   1      43.297  28.167  28.721  1.00  0.00    -0.248 NA
ATOM     39  C   UNL A   1      42.072  28.359  26.757  1.00  0.00     0.031 C 
ATOM     40  C   UNL A   1      38.893  27.216  30.149  1.00  0.00     0.029 A 
ATOM     41  N   UNL A   1      40.280  28.925  30.324  1.00  0.00    -0.354 N 
ATOM     42  C   UNL A   1      44.025  28.906  27.800  1.00  0.00     0.074 A 
ATOM     43  C   UNL A   1      43.307  28.821  26.553  1.00  0.00     0.031 C 
ATOM     44  C   UNL A   1      38.240  28.192  30.828  1.00  0.00     0.029 A 
ATOM     45  C   UNL A   1      39.118  29.344  30.960  1.00  0.00     0.049 A 
ATOM     46  H   UNL A   1      41.113  29.449  30.345  1.00  0.00     0.167 HD
ATOM     47  C   UNL A   1      45.021  29.740  28.203  1.00  0.00     0.031 A 
ATOM     48  C   UNL A   1      38.900  30.569  31.507  1.00  0.00     0.031 A 
ATOM     49  C   UNL A   1      45.401  29.497  29.570  1.00  0.00     0.049 A 
ATOM     50  C   UNL A   1      40.234  31.161  31.785  1.00  0.00     0.074 A 
ATOM     51  C   UNL A   1      45.928  28.420  30.254  1.00  0.00     0.029 A 
ATOM     52  N   UNL A   1      44.852  30.326  30.522  1.00  0.00    -0.354 N 
ATOM     53  N   UNL A   1      41.052  30.677  32.677  1.00  0.00    -0.248 NA
ATOM     54  C   UNL A   1      40.852  31.981  30.754  1.00  0.00     0.031 C 
ATOM     55  C   UNL A   1      45.264  28.426  31.516  1.00  0.00     0.029 A 
ATOM     56  C   UNL A   1      44.428  29.544  31.566  1.00  0.00     0.049 A 
ATOM     57  H   UNL A   1      44.777  31.306  30.464  1.00  0.00     0.167 HD
ATOM     58  C   UNL A   1      42.305  30.746  32.083  1.00  0.00     0.074 A 
ATOM     59  C   UNL A   1      42.132  31.641  30.940  1.00  0.00     0.031 C 
ATOM     60  C   UNL A   1      43.290  29.855  32.407  1.00  0.00     0.031 A 
BRANCH  47  61
ATOM     61  C   UNL A   1      45.342  31.029  27.498  1.00  0.00    -0.014 A 
ATOM     62  C   UNL A   1      46.638  31.215  26.984  1.00  0.00     0.010 A 
ATOM     63  C   UNL A   1      44.505  32.162  27.566  1.00  0.00     0.010 A 
ATOM     64  C   UNL A   1      47.088  32.484  26.604  1.00  0.00     0.020 A 
ATOM     65  C   UNL A   1      44.929  33.423  27.151  1.00  0.00     0.020 A 
ATOM     66  C   UNL A   1      46.231  33.581  26.698  1.00  0.00     0.054 A 
BRANCH  66  67
ATOM     67  S   UNL A   1      46.850  35.227  26.279  1.00  0.00     0.124 S 
ATOM     68  O   UNL A   1      47.664  34.951  25.100  1.00  0.00    -0.237 OA
ATOM     69  O   UNL A   1      45.614  35.967  26.040  1.00  0.00    -0.237 OA
ATOM     70  O   UNL A   1      47.590  35.628  27.474  1.00  0.00    -0.744 OA
ENDBRANCH  66  67
ENDBRANCH  47  61
BRANCH  48  71
ATOM     71  C   UNL A   1      37.658  31.385  31.474  1.00  0.00    -0.014 A 
ATOM     72  C   UNL A   1      36.714  31.317  32.518  1.00  0.00     0.010 A 
ATOM     73  C   UNL A   1      37.547  32.458  30.566  1.00  0.00     0.010 A 
ATOM     74  C   UNL A   1      35.742  32.321  32.687  1.00  0.00     0.020 A 
ATOM     75  C   UNL A   1      36.580  33.459  30.726  1.00  0.00     0.020 A 
ATOM     76  C   UNL A   1      35.697  33.400  31.801  1.00  0.00     0.054 A 
BRANCH  76  77
ATOM     77  S   UNL A   1      34.568  34.789  32.133  1.00  0.00     0.124 S 
ATOM     78  O   UNL A   1      34.315  35.312  30.794  1.00  0.00    -0.237 OA
ATOM     79  O   UNL A   1      33.437  34.132  32.780  1.00  0.00    -0.237 OA
ATOM     80  O   UNL A   1      35.350  35.666  33.003  1.00  0.00    -0.744 OA
ENDBRANCH  76  77
ENDBRANCH  48  71
BRANCH  60  81
ATOM     81  C   UNL A   1      43.092  28.976  33.622  1.00  0.00    -0.014 A 
ATOM     82  C   UNL A   1      43.372  29.375  34.946  1.00  0.00     0.010 A 
ATOM     83  C   UNL A   1      42.460  27.736  33.420  1.00  0.00     0.010 A 
ATOM     84  C   UNL A   1      43.057  28.538  36.030  1.00  0.00     0.020 A 
ATOM     85  C   UNL A   1      42.127  26.908  34.494  1.00  0.00     0.020 A 
ATOM     86  C   UNL A   1      42.437  27.307  35.794  1.00  0.00     0.054 A 
BRANCH  86  87
ATOM     87  S   UNL A   1      42.004  26.236  37.194  1.00  0.00     0.124 S 
ATOM     88  O   UNL A   1      43.081  26.502  38.143  1.00  0.00    -0.237 OA
ATOM     89  O   UNL A   1      40.684  26.727  37.584  1.00  0.00    -0.237 OA
ATOM     90  O   UNL A   1      42.008  24.891  36.618  1.00  0.00    -0.744 OA
ENDBRANCH  86  87
ENDBRANCH  60  81
ENDBRANCH  34  35
ENDBRANCH  27  29
ENDBRANCH  26  27
ENDBRANCH  25  26
ENDBRANCH  24  25
ENDBRANCH   1  24
TORSDOF 20
ENDMDL
