MODEL 1
REMARK VINA RESULT:     -10.1      0.000      0.000
REMARK SMILES Cc1cccc(C[N@H+]2CC[C@@](C)(C(=O)OCCOCCOC(=O)c3ccc(-c4c5nc(c(-c6ccc(S(=O)(=O)[O-])cc6)c6ccc([nH]6)c(-c6ccc(S(=O)(=O)[O-])cc6)c6nc(c(-c7ccc(S(=O)(=O)[O-])cc7)c7ccc4[nH]7)C=C6)C=C5)cc3)C2)n1
REMARK SMILES IDX 19 1 18 2 17 3 16 4 15 5 13 6 14 7 11 8 8 9 9 10 84 11 10 13
REMARK SMILES IDX 12 14 7 15 6 16 1 17 2 18 3 19 85 20 4 21 5 22 20 23 21 24
REMARK SMILES IDX 22 25 23 26 24 27 25 28 83 29 26 30 82 31 27 32 28 33 29 34
REMARK SMILES IDX 76 35 30 36 81 37 75 38 77 39 31 40 80 41 74 42 73 43 32 45
REMARK SMILES IDX 62 46 43 47 61 48 44 49 47 50 60 51 78 52 45 53 46 54 59 56
REMARK SMILES IDX 79 57 48 58 33 59 34 60 42 61 35 62 41 63 36 64 37 65 38 66
REMARK SMILES IDX 39 67 40 68 63 69 64 70 72 71 65 72 71 73 66 74 67 75 68 76
REMARK SMILES IDX 69 77 70 78 49 79 50 80 58 81 51 82 57 83 52 84 53 85 54 86
REMARK SMILES IDX 55 87 56 88
REMARK H PARENT 8 12 77 44 47 55
REMARK Flexibility Score: inf
ROOT
ATOM      1  C   UNL A   1      34.200  31.702  28.280  1.00  0.00     0.202 C 
ENDROOT
BRANCH   1   2
ATOM      2  O   UNL A   1      34.355  30.766  27.208  1.00  0.00    -0.374 OA
BRANCH   2   3
ATOM      3  C   UNL A   1      33.284  29.829  27.079  1.00  0.00     0.202 C 
BRANCH   3   4
ATOM      4  C   UNL A   1      32.207  30.285  26.085  1.00  0.00     0.261 C 
BRANCH   4   5
ATOM      5  O   UNL A   1      32.180  29.440  24.916  1.00  0.00    -0.463 OA
BRANCH   5   6
ATOM      6  C   UNL A   1      30.991  29.311  24.277  1.00  0.00     0.317 C 
ATOM      7  O   UNL A   1      30.214  30.244  24.083  1.00  0.00    -0.251 OA
BRANCH   6   8
ATOM      8  C   UNL A   1      30.666  27.882  23.822  1.00  0.00     0.119 C 
ATOM      9  N   UNL A   1      31.959  25.998  23.117  1.00  0.00    -0.329 N 
ATOM     10  C   UNL A   1      32.243  26.193  24.535  1.00  0.00     0.263 C 
ATOM     11  C   UNL A   1      31.486  27.314  22.642  1.00  0.00     0.281 C 
ATOM     12  H   UNL A   1      31.242  25.290  22.964  1.00  0.00     0.348 HD
ATOM     13  C   UNL A   1      30.988  26.922  24.985  1.00  0.00     0.086 C 
ATOM     14  C   UNL A   1      29.170  27.856  23.473  1.00  0.00     0.030 C 
BRANCH   9  15
ATOM     15  C   UNL A   1      33.086  25.410  22.357  1.00  0.00     0.319 C 
BRANCH  15  16
ATOM     16  C   UNL A   1      33.545  24.037  22.801  1.00  0.00     0.095 A 
ATOM     17  C   UNL A   1      36.766  22.966  24.015  1.00  0.00     0.067 C 
ATOM     18  C   UNL A   1      35.340  22.845  23.642  1.00  0.00     0.038 A 
ATOM     19  C   UNL A   1      34.534  21.807  24.064  1.00  0.00     0.023 A 
ATOM     20  N   UNL A   1      34.874  23.905  22.960  1.00  0.00    -0.252 NA
ATOM     21  C   UNL A   1      33.175  21.889  23.796  1.00  0.00     0.004 A 
ATOM     22  C   UNL A   1      32.663  23.031  23.177  1.00  0.00     0.030 A 
ENDBRANCH  15  16
ENDBRANCH   9  15
ENDBRANCH   6   8
ENDBRANCH   5   6
ENDBRANCH   4   5
ENDBRANCH   3   4
ENDBRANCH   2   3
ENDBRANCH   1   2
BRANCH   1  23
ATOM     23  C   UNL A   1      35.354  31.654  29.288  1.00  0.00     0.261 C 
BRANCH  23  24
ATOM     24  O   UNL A   1      36.470  30.916  28.753  1.00  0.00    -0.460 OA
BRANCH  24  25
ATOM     25  C   UNL A   1      36.955  29.903  29.513  1.00  0.00     0.338 C 
ATOM     26  O   UNL A   1      36.346  29.246  30.342  1.00  0.00    -0.246 OA
BRANCH  25  27
ATOM     27  C   UNL A   1      38.329  29.587  29.061  1.00  0.00     0.060 A 
ATOM     28  C   UNL A   1      39.281  29.228  30.023  1.00  0.00     0.016 A 
ATOM     29  C   UNL A   1      38.671  29.573  27.704  1.00  0.00     0.016 A 
ATOM     30  C   UNL A   1      40.568  28.841  29.632  1.00  0.00     0.010 A 
ATOM     31  C   UNL A   1      39.942  29.134  27.313  1.00  0.00     0.010 A 
ATOM     32  C   UNL A   1      40.913  28.790  28.273  1.00  0.00    -0.014 A 
BRANCH  32  33
ATOM     33  C   UNL A   1      42.325  28.565  27.853  1.00  0.00     0.031 A 
ATOM     34  C   UNL A   1      43.293  29.712  28.002  1.00  0.00     0.074 A 
ATOM     35  C   UNL A   1      42.766  27.384  27.373  1.00  0.00     0.049 A 
ATOM     36  N   UNL A   1      44.568  29.764  27.712  1.00  0.00    -0.248 NA
ATOM     37  C   UNL A   1      42.748  30.968  28.546  1.00  0.00     0.031 C 
ATOM     38  C   UNL A   1      41.962  26.175  27.193  1.00  0.00     0.029 A 
ATOM     39  N   UNL A   1      44.020  27.010  26.945  1.00  0.00    -0.354 N 
ATOM     40  C   UNL A   1      44.973  31.047  28.055  1.00  0.00     0.074 A 
ATOM     41  C   UNL A   1      43.800  31.768  28.490  1.00  0.00     0.031 C 
ATOM     42  C   UNL A   1      42.737  25.200  26.681  1.00  0.00     0.029 A 
ATOM     43  C   UNL A   1      44.095  25.710  26.497  1.00  0.00     0.049 A 
ATOM     44  H   UNL A   1      44.793  27.618  26.958  1.00  0.00     0.167 HD
ATOM     45  C   UNL A   1      46.218  31.579  28.061  1.00  0.00     0.031 A 
ATOM     46  C   UNL A   1      45.138  25.011  26.004  1.00  0.00     0.031 A 
ATOM     47  C   UNL A   1      47.399  30.885  27.641  1.00  0.00     0.049 A 
ATOM     48  C   UNL A   1      46.504  25.654  25.931  1.00  0.00     0.074 A 
ATOM     49  C   UNL A   1      48.704  31.344  27.620  1.00  0.00     0.029 A 
ATOM     50  N   UNL A   1      47.421  29.583  27.172  1.00  0.00    -0.354 N 
ATOM     51  N   UNL A   1      46.872  26.854  26.310  1.00  0.00    -0.248 NA
ATOM     52  C   UNL A   1      47.599  24.835  25.385  1.00  0.00     0.031 C 
ATOM     53  C   UNL A   1      49.514  30.326  27.106  1.00  0.00     0.029 A 
ATOM     54  C   UNL A   1      48.716  29.222  26.850  1.00  0.00     0.049 A 
ATOM     55  H   UNL A   1      46.632  29.000  27.083  1.00  0.00     0.167 HD
ATOM     56  C   UNL A   1      48.247  26.913  26.097  1.00  0.00     0.074 A 
ATOM     57  C   UNL A   1      48.646  25.632  25.554  1.00  0.00     0.031 C 
ATOM     58  C   UNL A   1      49.105  27.934  26.339  1.00  0.00     0.031 A 
BRANCH  45  59
ATOM     59  C   UNL A   1      46.347  32.984  28.572  1.00  0.00    -0.014 A 
ATOM     60  C   UNL A   1      46.606  33.224  29.935  1.00  0.00     0.010 A 
ATOM     61  C   UNL A   1      46.207  34.072  27.694  1.00  0.00     0.010 A 
ATOM     62  C   UNL A   1      46.677  34.529  30.420  1.00  0.00     0.020 A 
ATOM     63  C   UNL A   1      46.303  35.381  28.172  1.00  0.00     0.020 A 
ATOM     64  C   UNL A   1      46.519  35.600  29.537  1.00  0.00     0.054 A 
BRANCH  64  65
ATOM     65  S   UNL A   1      46.627  37.286  30.192  1.00  0.00     0.124 S 
ATOM     66  O   UNL A   1      45.339  37.847  29.790  1.00  0.00    -0.237 OA
ATOM     67  O   UNL A   1      46.795  37.064  31.625  1.00  0.00    -0.237 OA
ATOM     68  O   UNL A   1      47.791  37.848  29.511  1.00  0.00    -0.744 OA
ENDBRANCH  64  65
ENDBRANCH  45  59
BRANCH  46  69
ATOM     69  C   UNL A   1      44.969  23.601  25.548  1.00  0.00    -0.014 A 
ATOM     70  C   UNL A   1      45.195  22.531  26.433  1.00  0.00     0.010 A 
ATOM     71  C   UNL A   1      44.665  23.321  24.204  1.00  0.00     0.010 A 
ATOM     72  C   UNL A   1      45.163  21.210  25.975  1.00  0.00     0.020 A 
ATOM     73  C   UNL A   1      44.610  22.000  23.746  1.00  0.00     0.020 A 
ATOM     74  C   UNL A   1      44.881  20.954  24.631  1.00  0.00     0.054 A 
BRANCH  74  75
ATOM     75  S   UNL A   1      44.849  19.233  24.051  1.00  0.00     0.124 S 
ATOM     76  O   UNL A   1      43.814  18.649  24.897  1.00  0.00    -0.237 OA
ATOM     77  O   UNL A   1      44.505  19.381  22.639  1.00  0.00    -0.237 OA
ATOM     78  O   UNL A   1      46.209  18.765  24.307  1.00  0.00    -0.744 OA
ENDBRANCH  74  75
ENDBRANCH  46  69
BRANCH  58  79
ATOM     79  C   UNL A   1      50.571  27.702  26.089  1.00  0.00    -0.014 A 
ATOM     80  C   UNL A   1      51.403  27.148  27.077  1.00  0.00     0.010 A 
ATOM     81  C   UNL A   1      51.101  27.967  24.812  1.00  0.00     0.010 A 
ATOM     82  C   UNL A   1      52.747  26.881  26.797  1.00  0.00     0.020 A 
ATOM     83  C   UNL A   1      52.437  27.678  24.523  1.00  0.00     0.020 A 
ATOM     84  C   UNL A   1      53.255  27.146  25.522  1.00  0.00     0.054 A 
BRANCH  84  85
ATOM     85  S   UNL A   1      54.983  26.728  25.163  1.00  0.00     0.124 S 
ATOM     86  O   UNL A   1      54.882  25.326  24.768  1.00  0.00    -0.237 OA
ATOM     87  O   UNL A   1      55.325  27.661  24.092  1.00  0.00    -0.237 OA
ATOM     88  O   UNL A   1      55.668  26.971  26.432  1.00  0.00    -0.744 OA
ENDBRANCH  84  85
ENDBRANCH  58  79
ENDBRANCH  32  33
ENDBRANCH  25  27
ENDBRANCH  24  25
ENDBRANCH  23  24
ENDBRANCH   1  23
TORSDOF 19
ENDMDL
MODEL 2
REMARK VINA RESULT:     -10.1      1.655      2.365
REMARK SMILES Cc1cccc(C[N@H+]2CC[C@@](C)(C(=O)OCCOCCOC(=O)c3ccc(-c4c5nc(c(-c6ccc(S(=O)(=O)[O-])cc6)c6ccc([nH]6)c(-c6ccc(S(=O)(=O)[O-])cc6)c6nc(c(-c7ccc(S(=O)(=O)[O-])cc7)c7ccc4[nH]7)C=C6)C=C5)cc3)C2)n1
REMARK SMILES IDX 19 1 18 2 17 3 16 4 15 5 13 6 14 7 11 8 8 9 9 10 84 11 10 13
REMARK SMILES IDX 12 14 7 15 6 16 1 17 2 18 3 19 85 20 4 21 5 22 20 23 21 24
REMARK SMILES IDX 22 25 23 26 24 27 25 28 83 29 26 30 82 31 27 32 28 33 29 34
REMARK SMILES IDX 76 35 30 36 81 37 75 38 77 39 31 40 80 41 74 42 73 43 32 45
REMARK SMILES IDX 62 46 43 47 61 48 44 49 47 50 60 51 78 52 45 53 46 54 59 56
REMARK SMILES IDX 79 57 48 58 33 59 34 60 42 61 35 62 41 63 36 64 37 65 38 66
REMARK SMILES IDX 39 67 40 68 63 69 64 70 72 71 65 72 71 73 66 74 67 75 68 76
REMARK SMILES IDX 69 77 70 78 49 79 50 80 58 81 51 82 57 83 52 84 53 85 54 86
REMARK SMILES IDX 55 87 56 88
REMARK H PARENT 8 12 77 44 47 55
REMARK Flexibility Score: inf
ROOT
ATOM      1  C   UNL A   1      34.481  31.829  27.894  1.00  0.00     0.202 C 
ENDROOT
BRANCH   1   2
ATOM      2  O   UNL A   1      34.061  30.482  27.654  1.00  0.00    -0.374 OA
BRANCH   2   3
ATOM      3  C   UNL A   1      33.049  30.343  26.655  1.00  0.00     0.202 C 
BRANCH   3   4
ATOM      4  C   UNL A   1      31.858  29.497  27.123  1.00  0.00     0.261 C 
BRANCH   4   5
ATOM      5  O   UNL A   1      31.761  28.267  26.375  1.00  0.00    -0.463 OA
BRANCH   5   6
ATOM      6  C   UNL A   1      31.911  28.351  25.030  1.00  0.00     0.317 C 
ATOM      7  O   UNL A   1      31.216  29.064  24.308  1.00  0.00    -0.251 OA
BRANCH   6   8
ATOM      8  C   UNL A   1      33.019  27.456  24.458  1.00  0.00     0.119 C 
ATOM      9  N   UNL A   1      33.843  25.266  24.948  1.00  0.00    -0.329 N 
ATOM     10  C   UNL A   1      32.503  25.094  24.397  1.00  0.00     0.263 C 
ATOM     11  C   UNL A   1      33.864  26.648  25.467  1.00  0.00     0.281 C 
ATOM     12  H   UNL A   1      34.567  25.145  24.240  1.00  0.00     0.348 HD
ATOM     13  C   UNL A   1      32.356  26.370  23.585  1.00  0.00     0.086 C 
ATOM     14  C   UNL A   1      33.935  28.363  23.624  1.00  0.00     0.030 C 
BRANCH   9  15
ATOM     15  C   UNL A   1      34.233  24.213  25.914  1.00  0.00     0.319 C 
BRANCH  15  16
ATOM     16  C   UNL A   1      35.424  23.361  25.527  1.00  0.00     0.095 A 
ATOM     17  C   UNL A   1      38.888  23.680  26.470  1.00  0.00     0.067 C 
ATOM     18  C   UNL A   1      37.700  23.082  25.823  1.00  0.00     0.038 A 
ATOM     19  C   UNL A   1      37.665  21.781  25.366  1.00  0.00     0.023 A 
ATOM     20  N   UNL A   1      36.623  23.885  25.837  1.00  0.00    -0.252 NA
ATOM     21  C   UNL A   1      36.445  21.277  24.935  1.00  0.00     0.004 A 
ATOM     22  C   UNL A   1      35.299  22.067  25.038  1.00  0.00     0.030 A 
ENDBRANCH  15  16
ENDBRANCH   9  15
ENDBRANCH   6   8
ENDBRANCH   5   6
ENDBRANCH   4   5
ENDBRANCH   3   4
ENDBRANCH   2   3
ENDBRANCH   1   2
BRANCH   1  23
ATOM     23  C   UNL A   1      35.090  32.027  29.287  1.00  0.00     0.261 C 
BRANCH  23  24
ATOM     24  O   UNL A   1      35.695  30.807  29.759  1.00  0.00    -0.460 OA
BRANCH  24  25
ATOM     25  C   UNL A   1      36.582  30.918  30.778  1.00  0.00     0.338 C 
ATOM     26  O   UNL A   1      36.339  31.200  31.940  1.00  0.00    -0.246 OA
BRANCH  25  27
ATOM     27  C   UNL A   1      37.910  30.468  30.302  1.00  0.00     0.060 A 
ATOM     28  C   UNL A   1      38.148  30.439  28.923  1.00  0.00     0.016 A 
ATOM     29  C   UNL A   1      38.939  30.144  31.194  1.00  0.00     0.016 A 
ATOM     30  C   UNL A   1      39.416  30.101  28.433  1.00  0.00     0.010 A 
ATOM     31  C   UNL A   1      40.219  29.858  30.703  1.00  0.00     0.010 A 
ATOM     32  C   UNL A   1      40.464  29.807  29.317  1.00  0.00    -0.014 A 
BRANCH  32  33
ATOM     33  C   UNL A   1      41.757  29.264  28.812  1.00  0.00     0.031 A 
ATOM     34  C   UNL A   1      42.932  30.207  28.735  1.00  0.00     0.074 A 
ATOM     35  C   UNL A   1      41.917  27.975  28.447  1.00  0.00     0.049 A 
ATOM     36  N   UNL A   1      44.156  29.975  28.336  1.00  0.00    -0.248 NA
ATOM     37  C   UNL A   1      42.692  31.596  29.162  1.00  0.00     0.031 C 
ATOM     38  C   UNL A   1      40.887  26.936  28.486  1.00  0.00     0.029 A 
ATOM     39  N   UNL A   1      43.027  27.318  27.966  1.00  0.00    -0.354 N 
ATOM     40  C   UNL A   1      44.828  31.182  28.481  1.00  0.00     0.074 A 
ATOM     41  C   UNL A   1      43.862  32.162  28.920  1.00  0.00     0.031 C 
ATOM     42  C   UNL A   1      41.409  25.779  28.038  1.00  0.00     0.029 A 
ATOM     43  C   UNL A   1      42.811  25.989  27.679  1.00  0.00     0.049 A 
ATOM     44  H   UNL A   1      43.897  27.759  27.838  1.00  0.00     0.167 HD
ATOM     45  C   UNL A   1      46.143  31.455  28.317  1.00  0.00     0.031 A 
ATOM     46  C   UNL A   1      43.647  25.049  27.191  1.00  0.00     0.031 A 
ATOM     47  C   UNL A   1      47.123  30.501  27.890  1.00  0.00     0.049 A 
ATOM     48  C   UNL A   1      45.093  25.399  26.925  1.00  0.00     0.074 A 
ATOM     49  C   UNL A   1      48.481  30.688  27.703  1.00  0.00     0.029 A 
ATOM     50  N   UNL A   1      46.852  29.178  27.586  1.00  0.00    -0.354 N 
ATOM     51  N   UNL A   1      45.717  26.536  27.119  1.00  0.00    -0.248 NA
ATOM     52  C   UNL A   1      45.952  24.327  26.396  1.00  0.00     0.031 C 
ATOM     53  C   UNL A   1      49.028  29.482  27.254  1.00  0.00     0.029 A 
ATOM     54  C   UNL A   1      48.016  28.537  27.205  1.00  0.00     0.049 A 
ATOM     55  H   UNL A   1      45.964  28.756  27.636  1.00  0.00     0.167 HD
ATOM     56  C   UNL A   1      47.048  26.298  26.787  1.00  0.00     0.074 A 
ATOM     57  C   UNL A   1      47.141  24.914  26.376  1.00  0.00     0.031 C 
ATOM     58  C   UNL A   1      48.102  27.150  26.828  1.00  0.00     0.031 A 
BRANCH  45  59
ATOM     59  C   UNL A   1      46.586  32.853  28.636  1.00  0.00    -0.014 A 
ATOM     60  C   UNL A   1      46.993  33.188  29.942  1.00  0.00     0.010 A 
ATOM     61  C   UNL A   1      46.592  33.839  27.636  1.00  0.00     0.010 A 
ATOM     62  C   UNL A   1      47.356  34.499  30.251  1.00  0.00     0.020 A 
ATOM     63  C   UNL A   1      46.981  35.146  27.937  1.00  0.00     0.020 A 
ATOM     64  C   UNL A   1      47.342  35.471  29.249  1.00  0.00     0.054 A 
BRANCH  64  65
ATOM     65  S   UNL A   1      47.830  37.164  29.676  1.00  0.00     0.124 S 
ATOM     66  O   UNL A   1      49.106  36.945  30.353  1.00  0.00    -0.237 OA
ATOM     67  O   UNL A   1      47.913  37.813  28.372  1.00  0.00    -0.237 OA
ATOM     68  O   UNL A   1      46.742  37.631  30.533  1.00  0.00    -0.744 OA
ENDBRANCH  64  65
ENDBRANCH  45  59
BRANCH  46  69
ATOM     69  C   UNL A   1      43.171  23.660  26.929  1.00  0.00    -0.014 A 
ATOM     70  C   UNL A   1      43.009  22.748  27.989  1.00  0.00     0.010 A 
ATOM     71  C   UNL A   1      42.960  23.217  25.612  1.00  0.00     0.010 A 
ATOM     72  C   UNL A   1      42.688  21.411  27.733  1.00  0.00     0.020 A 
ATOM     73  C   UNL A   1      42.617  21.886  25.353  1.00  0.00     0.020 A 
ATOM     74  C   UNL A   1      42.503  20.986  26.415  1.00  0.00     0.054 A 
BRANCH  74  75
ATOM     75  S   UNL A   1      42.092  19.246  26.101  1.00  0.00     0.124 S 
ATOM     76  O   UNL A   1      42.856  18.970  24.889  1.00  0.00    -0.237 OA
ATOM     77  O   UNL A   1      42.565  18.584  27.314  1.00  0.00    -0.237 OA
ATOM     78  O   UNL A   1      40.640  19.266  25.937  1.00  0.00    -0.744 OA
ENDBRANCH  74  75
ENDBRANCH  46  69
BRANCH  58  79
ATOM     79  C   UNL A   1      49.464  26.608  26.486  1.00  0.00    -0.014 A 
ATOM     80  C   UNL A   1      49.981  26.700  25.183  1.00  0.00     0.010 A 
ATOM     81  C   UNL A   1      50.269  26.076  27.510  1.00  0.00     0.010 A 
ATOM     82  C   UNL A   1      51.276  26.249  24.906  1.00  0.00     0.020 A 
ATOM     83  C   UNL A   1      51.571  25.647  27.242  1.00  0.00     0.020 A 
ATOM     84  C   UNL A   1      52.063  25.727  25.937  1.00  0.00     0.054 A 
BRANCH  84  85
ATOM     85  S   UNL A   1      53.763  25.211  25.567  1.00  0.00     0.124 S 
ATOM     86  O   UNL A   1      54.307  24.978  26.902  1.00  0.00    -0.237 OA
ATOM     87  O   UNL A   1      53.566  24.017  24.750  1.00  0.00    -0.237 OA
ATOM     88  O   UNL A   1      54.325  26.358  24.856  1.00  0.00    -0.744 OA
ENDBRANCH  84  85
ENDBRANCH  58  79
ENDBRANCH  32  33
ENDBRANCH  25  27
ENDBRANCH  24  25
ENDBRANCH  23  24
ENDBRANCH   1  23
TORSDOF 19
ENDMDL
MODEL 3
REMARK VINA RESULT:      -9.9      4.237     10.512
REMARK SMILES Cc1cccc(C[N@H+]2CC[C@@](C)(C(=O)OCCOCCOC(=O)c3ccc(-c4c5nc(c(-c6ccc(S(=O)(=O)[O-])cc6)c6ccc([nH]6)c(-c6ccc(S(=O)(=O)[O-])cc6)c6nc(c(-c7ccc(S(=O)(=O)[O-])cc7)c7ccc4[nH]7)C=C6)C=C5)cc3)C2)n1
REMARK SMILES IDX 19 1 18 2 17 3 16 4 15 5 13 6 14 7 11 8 8 9 9 10 84 11 10 13
REMARK SMILES IDX 12 14 7 15 6 16 1 17 2 18 3 19 85 20 4 21 5 22 20 23 21 24
REMARK SMILES IDX 22 25 23 26 24 27 25 28 83 29 26 30 82 31 27 32 28 33 29 34
REMARK SMILES IDX 76 35 30 36 81 37 75 38 77 39 31 40 80 41 74 42 73 43 32 45
REMARK SMILES IDX 62 46 43 47 61 48 44 49 47 50 60 51 78 52 45 53 46 54 59 56
REMARK SMILES IDX 79 57 48 58 33 59 34 60 42 61 35 62 41 63 36 64 37 65 38 66
REMARK SMILES IDX 39 67 40 68 63 69 64 70 72 71 65 72 71 73 66 74 67 75 68 76
REMARK SMILES IDX 69 77 70 78 49 79 50 80 58 81 51 82 57 83 52 84 53 85 54 86
REMARK SMILES IDX 55 87 56 88
REMARK H PARENT 8 12 77 44 47 55
REMARK Flexibility Score: inf
ROOT
ATOM      1  C   UNL A   1      36.267  21.233  25.524  1.00  0.00     0.202 C 
ENDROOT
BRANCH   1   2
ATOM      2  O   UNL A   1      35.594  21.344  24.265  1.00  0.00    -0.374 OA
BRANCH   2   3
ATOM      3  C   UNL A   1      34.566  22.335  24.225  1.00  0.00     0.202 C 
BRANCH   3   4
ATOM      4  C   UNL A   1      34.773  23.452  25.257  1.00  0.00     0.261 C 
BRANCH   4   5
ATOM      5  O   UNL A   1      33.534  24.134  25.547  1.00  0.00    -0.463 OA
BRANCH   5   6
ATOM      6  C   UNL A   1      32.605  23.447  26.257  1.00  0.00     0.317 C 
ATOM      7  O   UNL A   1      32.873  22.719  27.210  1.00  0.00    -0.251 OA
BRANCH   6   8
ATOM      8  C   UNL A   1      31.164  23.629  25.760  1.00  0.00     0.119 C 
ATOM      9  N   UNL A   1      30.072  25.140  24.263  1.00  0.00    -0.329 N 
ATOM     10  C   UNL A   1      30.952  24.309  23.449  1.00  0.00     0.263 C 
ATOM     11  C   UNL A   1      30.644  25.077  25.623  1.00  0.00     0.281 C 
ATOM     12  H   UNL A   1      29.113  24.792  24.268  1.00  0.00     0.348 HD
ATOM     13  C   UNL A   1      31.077  23.073  24.324  1.00  0.00     0.086 C 
ATOM     14  C   UNL A   1      30.261  22.842  26.721  1.00  0.00     0.030 C 
BRANCH   9  15
ATOM     15  C   UNL A   1      29.861  26.502  23.719  1.00  0.00     0.319 C 
BRANCH  15  16
ATOM     16  C   UNL A   1      31.022  27.463  23.862  1.00  0.00     0.095 A 
ATOM     17  C   UNL A   1      32.143  29.313  26.746  1.00  0.00     0.067 C 
ATOM     18  C   UNL A   1      32.159  28.819  25.352  1.00  0.00     0.038 A 
ATOM     19  C   UNL A   1      33.272  28.887  24.539  1.00  0.00     0.023 A 
ATOM     20  N   UNL A   1      31.028  28.185  24.997  1.00  0.00    -0.252 NA
ATOM     21  C   UNL A   1      33.222  28.237  23.313  1.00  0.00     0.004 A 
ATOM     22  C   UNL A   1      32.091  27.492  22.974  1.00  0.00     0.030 A 
ENDBRANCH  15  16
ENDBRANCH   9  15
ENDBRANCH   6   8
ENDBRANCH   5   6
ENDBRANCH   4   5
ENDBRANCH   3   4
ENDBRANCH   2   3
ENDBRANCH   1   2
BRANCH   1  23
ATOM     23  C   UNL A   1      37.792  21.322  25.398  1.00  0.00     0.261 C 
BRANCH  23  24
ATOM     24  O   UNL A   1      38.267  22.610  25.836  1.00  0.00    -0.460 OA
BRANCH  24  25
ATOM     25  C   UNL A   1      39.569  22.690  26.204  1.00  0.00     0.338 C 
ATOM     26  O   UNL A   1      40.461  21.903  25.935  1.00  0.00    -0.246 OA
BRANCH  25  27
ATOM     27  C   UNL A   1      39.797  23.999  26.859  1.00  0.00     0.060 A 
ATOM     28  C   UNL A   1      40.562  24.957  26.185  1.00  0.00     0.016 A 
ATOM     29  C   UNL A   1      39.213  24.315  28.091  1.00  0.00     0.016 A 
ATOM     30  C   UNL A   1      40.733  26.236  26.729  1.00  0.00     0.010 A 
ATOM     31  C   UNL A   1      39.340  25.610  28.608  1.00  0.00     0.010 A 
ATOM     32  C   UNL A   1      40.124  26.576  27.947  1.00  0.00    -0.014 A 
BRANCH  32  33
ATOM     33  C   UNL A   1      40.450  27.861  28.628  1.00  0.00     0.031 A 
ATOM     34  C   UNL A   1      41.837  28.021  29.200  1.00  0.00     0.074 A 
ATOM     35  C   UNL A   1      39.569  28.877  28.732  1.00  0.00     0.049 A 
ATOM     36  N   UNL A   1      42.360  29.039  29.832  1.00  0.00    -0.248 NA
ATOM     37  C   UNL A   1      42.752  26.878  29.040  1.00  0.00     0.031 C 
ATOM     38  C   UNL A   1      38.202  28.887  28.211  1.00  0.00     0.029 A 
ATOM     39  N   UNL A   1      39.704  30.115  29.320  1.00  0.00    -0.354 N 
ATOM     40  C   UNL A   1      43.664  28.662  30.126  1.00  0.00     0.074 A 
ATOM     41  C   UNL A   1      43.827  27.297  29.684  1.00  0.00     0.031 C 
ATOM     42  C   UNL A   1      37.622  30.064  28.513  1.00  0.00     0.029 A 
ATOM     43  C   UNL A   1      38.573  30.897  29.248  1.00  0.00     0.049 A 
ATOM     44  H   UNL A   1      40.535  30.413  29.754  1.00  0.00     0.167 HD
ATOM     45  C   UNL A   1      44.665  29.393  30.669  1.00  0.00     0.031 A 
ATOM     46  C   UNL A   1      38.335  32.141  29.712  1.00  0.00     0.031 A 
ATOM     47  C   UNL A   1      44.532  30.751  31.109  1.00  0.00     0.049 A 
ATOM     48  C   UNL A   1      39.440  32.907  30.401  1.00  0.00     0.074 A 
ATOM     49  C   UNL A   1      45.497  31.572  31.666  1.00  0.00     0.029 A 
ATOM     50  N   UNL A   1      43.363  31.489  31.040  1.00  0.00    -0.354 N 
ATOM     51  N   UNL A   1      40.682  32.547  30.621  1.00  0.00    -0.248 NA
ATOM     52  C   UNL A   1      39.114  34.260  30.881  1.00  0.00     0.031 C 
ATOM     53  C   UNL A   1      44.900  32.801  31.963  1.00  0.00     0.029 A 
ATOM     54  C   UNL A   1      43.578  32.756  31.551  1.00  0.00     0.049 A 
ATOM     55  H   UNL A   1      42.508  31.162  30.679  1.00  0.00     0.167 HD
ATOM     56  C   UNL A   1      41.294  33.647  31.216  1.00  0.00     0.074 A 
ATOM     57  C   UNL A   1      40.291  34.683  31.325  1.00  0.00     0.031 C 
ATOM     58  C   UNL A   1      42.578  33.789  31.626  1.00  0.00     0.031 A 
BRANCH  45  59
ATOM     59  C   UNL A   1      46.003  28.723  30.783  1.00  0.00    -0.014 A 
ATOM     60  C   UNL A   1      46.927  28.796  29.722  1.00  0.00     0.010 A 
ATOM     61  C   UNL A   1      46.343  28.014  31.947  1.00  0.00     0.010 A 
ATOM     62  C   UNL A   1      48.150  28.132  29.807  1.00  0.00     0.020 A 
ATOM     63  C   UNL A   1      47.578  27.370  32.045  1.00  0.00     0.020 A 
ATOM     64  C   UNL A   1      48.465  27.418  30.965  1.00  0.00     0.054 A 
BRANCH  64  65
ATOM     65  S   UNL A   1      50.067  26.574  31.052  1.00  0.00     0.124 S 
ATOM     66  O   UNL A   1      49.701  25.201  30.713  1.00  0.00    -0.237 OA
ATOM     67  O   UNL A   1      50.858  27.280  30.049  1.00  0.00    -0.237 OA
ATOM     68  O   UNL A   1      50.492  26.782  32.435  1.00  0.00    -0.744 OA
ENDBRANCH  64  65
ENDBRANCH  45  59
BRANCH  46  69
ATOM     69  C   UNL A   1      36.999  32.782  29.537  1.00  0.00    -0.014 A 
ATOM     70  C   UNL A   1      36.679  33.451  28.342  1.00  0.00     0.010 A 
ATOM     71  C   UNL A   1      36.076  32.800  30.597  1.00  0.00     0.010 A 
ATOM     72  C   UNL A   1      35.479  34.162  28.224  1.00  0.00     0.020 A 
ATOM     73  C   UNL A   1      34.866  33.491  30.476  1.00  0.00     0.020 A 
ATOM     74  C   UNL A   1      34.585  34.185  29.297  1.00  0.00     0.054 A 
BRANCH  74  75
ATOM     75  S   UNL A   1      33.035  35.117  29.130  1.00  0.00     0.124 S 
ATOM     76  O   UNL A   1      32.483  35.027  30.477  1.00  0.00    -0.237 OA
ATOM     77  O   UNL A   1      33.503  36.440  28.724  1.00  0.00    -0.237 OA
ATOM     78  O   UNL A   1      32.306  34.380  28.101  1.00  0.00    -0.744 OA
ENDBRANCH  74  75
ENDBRANCH  46  69
BRANCH  58  79
ATOM     79  C   UNL A   1      43.005  35.126  32.170  1.00  0.00    -0.014 A 
ATOM     80  C   UNL A   1      42.874  35.434  33.535  1.00  0.00     0.010 A 
ATOM     81  C   UNL A   1      43.624  36.053  31.312  1.00  0.00     0.010 A 
ATOM     82  C   UNL A   1      43.338  36.658  34.028  1.00  0.00     0.020 A 
ATOM     83  C   UNL A   1      44.111  37.266  31.805  1.00  0.00     0.020 A 
ATOM     84  C   UNL A   1      43.955  37.565  33.160  1.00  0.00     0.054 A 
BRANCH  84  85
ATOM     85  S   UNL A   1      44.610  39.116  33.835  1.00  0.00     0.124 S 
ATOM     86  O   UNL A   1      45.096  38.697  35.146  1.00  0.00    -0.237 OA
ATOM     87  O   UNL A   1      45.642  39.479  32.867  1.00  0.00    -0.237 OA
ATOM     88  O   UNL A   1      43.447  40.002  33.856  1.00  0.00    -0.744 OA
ENDBRANCH  84  85
ENDBRANCH  58  79
ENDBRANCH  32  33
ENDBRANCH  25  27
ENDBRANCH  24  25
ENDBRANCH  23  24
ENDBRANCH   1  23
TORSDOF 19
ENDMDL
