MODEL 1
REMARK VINA RESULT:     -11.0      0.000      0.000
REMARK SMILES Nc1cc(C(=O)OCCOCCOC(=O)c2ccc(-c3c4nc(c(-c5ccc(S(=O)(=O)[O-])cc5)c5ccc([nH]5)c(-c5ccc(S(=O)(=O)[O-])cc5)c5nc(c(-c6ccc(S(=O)(=O)[O-])cc6)c6ccc3[nH]6)C=C5)C=C4)cc2)ccc1N1CC2(CCOCC2)C1
REMARK SMILES IDX 11 1 10 2 9 3 8 4 7 5 5 6 6 7 4 8 2 9 3 10 78 11 77 12 76 13
REMARK SMILES IDX 1 14 79 17 80 18 87 19 81 20 82 21 86 22 83 23 85 24 84 25
REMARK SMILES IDX 12 26 13 27 14 28 15 29 16 30 17 31 75 32 18 33 74 34 19 35
REMARK SMILES IDX 20 36 21 37 68 38 22 39 73 40 67 41 69 42 23 43 72 44 66 45
REMARK SMILES IDX 65 46 24 48 54 49 35 50 53 51 36 52 39 53 52 54 70 55 37 56
REMARK SMILES IDX 38 57 51 59 71 60 40 61 25 62 26 63 34 64 27 65 33 66 28 67
REMARK SMILES IDX 29 68 30 69 31 70 32 71 55 72 56 73 64 74 57 75 63 76 58 77
REMARK SMILES IDX 59 78 60 79 61 80 62 81 41 82 42 83 50 84 43 85 49 86 44 87
REMARK SMILES IDX 45 88 46 89 47 90 48 91
REMARK H PARENT 1 15 1 16 69 47 39 58
REMARK Flexibility Score: inf
ROOT
ATOM      1  C   UNL A   1      31.876  28.946  27.018  1.00  0.00     0.202 C 
ENDROOT
BRANCH   1   2
ATOM      2  O   UNL A   1      31.493  28.303  25.801  1.00  0.00    -0.374 OA
BRANCH   2   3
ATOM      3  C   UNL A   1      31.800  28.989  24.586  1.00  0.00     0.202 C 
BRANCH   3   4
ATOM      4  C   UNL A   1      32.808  28.297  23.661  1.00  0.00     0.261 C 
BRANCH   4   5
ATOM      5  O   UNL A   1      32.352  26.989  23.279  1.00  0.00    -0.460 OA
BRANCH   5   6
ATOM      6  C   UNL A   1      33.246  26.264  22.568  1.00  0.00     0.338 C 
ATOM      7  O   UNL A   1      33.975  26.665  21.672  1.00  0.00    -0.246 OA
BRANCH   6   8
ATOM      8  C   UNL A   1      33.374  24.906  23.137  1.00  0.00     0.062 A 
ATOM      9  C   UNL A   1      32.671  22.571  22.965  1.00  0.00     0.056 A 
ATOM     10  C   UNL A   1      32.700  23.880  22.467  1.00  0.00     0.043 A 
ATOM     11  C   UNL A   1      33.374  22.280  24.155  1.00  0.00     0.060 A 
ATOM     12  C   UNL A   1      34.090  23.321  24.790  1.00  0.00     0.029 A 
ATOM     13  C   UNL A   1      34.104  24.625  24.286  1.00  0.00     0.018 A 
BRANCH   9  14
ATOM     14  N   UNL A   1      31.987  21.622  22.212  1.00  0.00    -0.397 N 
ATOM     15  H   UNL A   1      31.823  20.725  22.582  1.00  0.00     0.156 HD
ATOM     16  H   UNL A   1      31.669  21.847  21.308  1.00  0.00     0.156 HD
ENDBRANCH   9  14
BRANCH  11  17
ATOM     17  N   UNL A   1      33.355  21.030  24.815  1.00  0.00    -0.369 N 
ATOM     18  C   UNL A   1      34.183  19.873  24.779  1.00  0.00     0.125 C 
ATOM     19  C   UNL A   1      32.156  20.298  25.118  1.00  0.00     0.125 C 
ATOM     20  C   UNL A   1      32.896  19.013  24.693  1.00  0.00     0.010 C 
ATOM     21  C   UNL A   1      32.790  17.856  25.688  1.00  0.00     0.039 C 
ATOM     22  C   UNL A   1      32.513  18.519  23.290  1.00  0.00     0.039 C 
ATOM     23  C   UNL A   1      33.651  16.698  25.193  1.00  0.00     0.161 C 
ATOM     24  C   UNL A   1      33.399  17.335  22.924  1.00  0.00     0.161 C 
ATOM     25  O   UNL A   1      33.242  16.288  23.884  1.00  0.00    -0.381 OA
ENDBRANCH  11  17
ENDBRANCH   6   8
ENDBRANCH   5   6
ENDBRANCH   4   5
ENDBRANCH   3   4
ENDBRANCH   2   3
ENDBRANCH   1   2
BRANCH   1  26
ATOM     26  C   UNL A   1      32.465  30.356  26.889  1.00  0.00     0.261 C 
BRANCH  26  27
ATOM     27  O   UNL A   1      33.903  30.335  26.829  1.00  0.00    -0.460 OA
BRANCH  27  28
ATOM     28  C   UNL A   1      34.526  30.849  27.917  1.00  0.00     0.338 C 
ATOM     29  O   UNL A   1      34.059  31.634  28.731  1.00  0.00    -0.246 OA
BRANCH  28  30
ATOM     30  C   UNL A   1      35.831  30.186  28.111  1.00  0.00     0.060 A 
ATOM     31  C   UNL A   1      36.118  29.687  29.388  1.00  0.00     0.016 A 
ATOM     32  C   UNL A   1      36.780  30.105  27.089  1.00  0.00     0.016 A 
ATOM     33  C   UNL A   1      37.373  29.150  29.663  1.00  0.00     0.010 A 
ATOM     34  C   UNL A   1      38.043  29.573  27.369  1.00  0.00     0.010 A 
ATOM     35  C   UNL A   1      38.357  29.125  28.665  1.00  0.00    -0.014 A 
BRANCH  35  36
ATOM     36  C   UNL A   1      39.750  28.756  29.018  1.00  0.00     0.031 A 
ATOM     37  C   UNL A   1      40.617  29.765  29.724  1.00  0.00     0.074 A 
ATOM     38  C   UNL A   1      40.230  27.530  28.739  1.00  0.00     0.049 A 
ATOM     39  N   UNL A   1      41.864  29.662  30.103  1.00  0.00    -0.248 NA
ATOM     40  C   UNL A   1      39.995  31.061  30.044  1.00  0.00     0.031 C 
ATOM     41  C   UNL A   1      39.477  26.452  28.098  1.00  0.00     0.029 A 
ATOM     42  N   UNL A   1      41.472  26.988  28.960  1.00  0.00    -0.354 N 
ATOM     43  C   UNL A   1      42.181  30.879  30.697  1.00  0.00     0.074 A 
ATOM     44  C   UNL A   1      41.002  31.714  30.606  1.00  0.00     0.031 C 
ATOM     45  C   UNL A   1      40.277  25.378  27.972  1.00  0.00     0.029 A 
ATOM     46  C   UNL A   1      41.603  25.702  28.492  1.00  0.00     0.049 A 
ATOM     47  H   UNL A   1      42.199  27.475  29.409  1.00  0.00     0.167 HD
ATOM     48  C   UNL A   1      43.346  31.266  31.269  1.00  0.00     0.031 A 
ATOM     49  C   UNL A   1      42.676  24.886  28.470  1.00  0.00     0.031 A 
ATOM     50  C   UNL A   1      44.518  30.437  31.353  1.00  0.00     0.049 A 
ATOM     51  C   UNL A   1      43.981  25.366  29.052  1.00  0.00     0.074 A 
ATOM     52  C   UNL A   1      45.739  30.733  31.934  1.00  0.00     0.029 A 
ATOM     53  N   UNL A   1      44.621  29.154  30.838  1.00  0.00    -0.354 N 
ATOM     54  N   UNL A   1      44.254  26.509  29.634  1.00  0.00    -0.248 NA
ATOM     55  C   UNL A   1      45.120  24.439  28.980  1.00  0.00     0.031 C 
ATOM     56  C   UNL A   1      46.598  29.650  31.722  1.00  0.00     0.029 A 
ATOM     57  C   UNL A   1      45.893  28.656  31.062  1.00  0.00     0.049 A 
ATOM     58  H   UNL A   1      43.896  28.670  30.381  1.00  0.00     0.167 HD
ATOM     59  C   UNL A   1      45.588  26.427  30.023  1.00  0.00     0.074 A 
ATOM     60  C   UNL A   1      46.061  25.119  29.621  1.00  0.00     0.031 C 
ATOM     61  C   UNL A   1      46.350  27.350  30.660  1.00  0.00     0.031 A 
BRANCH  48  62
ATOM     62  C   UNL A   1      43.422  32.663  31.823  1.00  0.00    -0.014 A 
ATOM     63  C   UNL A   1      43.359  32.903  33.208  1.00  0.00     0.010 A 
ATOM     64  C   UNL A   1      43.615  33.748  30.948  1.00  0.00     0.010 A 
ATOM     65  C   UNL A   1      43.458  34.205  33.704  1.00  0.00     0.020 A 
ATOM     66  C   UNL A   1      43.739  35.049  31.442  1.00  0.00     0.020 A 
ATOM     67  C   UNL A   1      43.646  35.270  32.818  1.00  0.00     0.054 A 
BRANCH  67  68
ATOM     68  S   UNL A   1      43.808  36.947  33.492  1.00  0.00     0.124 S 
ATOM     69  O   UNL A   1      42.533  37.116  34.185  1.00  0.00    -0.237 OA
ATOM     70  O   UNL A   1      44.981  36.835  34.353  1.00  0.00    -0.237 OA
ATOM     71  O   UNL A   1      43.987  37.782  32.306  1.00  0.00    -0.744 OA
ENDBRANCH  67  68
ENDBRANCH  48  62
BRANCH  49  72
ATOM     72  C   UNL A   1      42.574  23.535  27.855  1.00  0.00    -0.014 A 
ATOM     73  C   UNL A   1      42.843  23.344  26.489  1.00  0.00     0.010 A 
ATOM     74  C   UNL A   1      42.188  22.430  28.636  1.00  0.00     0.010 A 
ATOM     75  C   UNL A   1      42.707  22.078  25.909  1.00  0.00     0.020 A 
ATOM     76  C   UNL A   1      42.077  21.158  28.067  1.00  0.00     0.020 A 
ATOM     77  C   UNL A   1      42.323  20.993  26.703  1.00  0.00     0.054 A 
BRANCH  77  78
ATOM     78  S   UNL A   1      42.188  19.353  25.941  1.00  0.00     0.124 S 
ATOM     79  O   UNL A   1      43.055  19.487  24.775  1.00  0.00    -0.237 OA
ATOM     80  O   UNL A   1      42.679  18.472  26.998  1.00  0.00    -0.237 OA
ATOM     81  O   UNL A   1      40.761  19.228  25.651  1.00  0.00    -0.744 OA
ENDBRANCH  77  78
ENDBRANCH  49  72
BRANCH  61  82
ATOM     82  C   UNL A   1      47.767  26.968  31.001  1.00  0.00    -0.014 A 
ATOM     83  C   UNL A   1      48.082  26.342  32.218  1.00  0.00     0.010 A 
ATOM     84  C   UNL A   1      48.788  27.190  30.058  1.00  0.00     0.010 A 
ATOM     85  C   UNL A   1      49.401  25.971  32.501  1.00  0.00     0.020 A 
ATOM     86  C   UNL A   1      50.102  26.797  30.326  1.00  0.00     0.020 A 
ATOM     87  C   UNL A   1      50.403  26.202  31.552  1.00  0.00     0.054 A 
BRANCH  87  88
ATOM     88  S   UNL A   1      52.097  25.672  31.924  1.00  0.00     0.124 S 
ATOM     89  O   UNL A   1      51.909  24.259  32.247  1.00  0.00    -0.237 OA
ATOM     90  O   UNL A   1      52.801  25.942  30.673  1.00  0.00    -0.237 OA
ATOM     91  O   UNL A   1      52.487  26.521  33.049  1.00  0.00    -0.744 OA
ENDBRANCH  87  88
ENDBRANCH  61  82
ENDBRANCH  35  36
ENDBRANCH  28  30
ENDBRANCH  27  28
ENDBRANCH  26  27
ENDBRANCH   1  26
TORSDOF 19
ENDMDL
MODEL 2
REMARK VINA RESULT:     -10.8      2.668      8.767
REMARK SMILES Nc1cc(C(=O)OCCOCCOC(=O)c2ccc(-c3c4nc(c(-c5ccc(S(=O)(=O)[O-])cc5)c5ccc([nH]5)c(-c5ccc(S(=O)(=O)[O-])cc5)c5nc(c(-c6ccc(S(=O)(=O)[O-])cc6)c6ccc3[nH]6)C=C5)C=C4)cc2)ccc1N1CC2(CCOCC2)C1
REMARK SMILES IDX 11 1 10 2 9 3 8 4 7 5 5 6 6 7 4 8 2 9 3 10 78 11 77 12 76 13
REMARK SMILES IDX 1 14 79 17 80 18 87 19 81 20 82 21 86 22 83 23 85 24 84 25
REMARK SMILES IDX 12 26 13 27 14 28 15 29 16 30 17 31 75 32 18 33 74 34 19 35
REMARK SMILES IDX 20 36 21 37 68 38 22 39 73 40 67 41 69 42 23 43 72 44 66 45
REMARK SMILES IDX 65 46 24 48 54 49 35 50 53 51 36 52 39 53 52 54 70 55 37 56
REMARK SMILES IDX 38 57 51 59 71 60 40 61 25 62 26 63 34 64 27 65 33 66 28 67
REMARK SMILES IDX 29 68 30 69 31 70 32 71 55 72 56 73 64 74 57 75 63 76 58 77
REMARK SMILES IDX 59 78 60 79 61 80 62 81 41 82 42 83 50 84 43 85 49 86 44 87
REMARK SMILES IDX 45 88 46 89 47 90 48 91
REMARK H PARENT 1 15 1 16 69 47 39 58
REMARK Flexibility Score: inf
ROOT
ATOM      1  C   UNL A   1      34.949  24.586  25.128  1.00  0.00     0.202 C 
ENDROOT
BRANCH   1   2
ATOM      2  O   UNL A   1      34.372  25.508  26.054  1.00  0.00    -0.374 OA
BRANCH   2   3
ATOM      3  C   UNL A   1      33.480  26.487  25.518  1.00  0.00     0.202 C 
BRANCH   3   4
ATOM      4  C   UNL A   1      32.196  26.735  26.318  1.00  0.00     0.261 C 
BRANCH   4   5
ATOM      5  O   UNL A   1      31.037  26.308  25.585  1.00  0.00    -0.460 OA
BRANCH   5   6
ATOM      6  C   UNL A   1      30.469  25.167  26.040  1.00  0.00     0.338 C 
ATOM      7  O   UNL A   1      29.400  25.057  26.624  1.00  0.00    -0.246 OA
BRANCH   6   8
ATOM      8  C   UNL A   1      31.237  23.992  25.579  1.00  0.00     0.062 A 
ATOM      9  C   UNL A   1      32.004  22.715  23.641  1.00  0.00     0.056 A 
ATOM     10  C   UNL A   1      31.378  23.839  24.196  1.00  0.00     0.043 A 
ATOM     11  C   UNL A   1      32.536  21.734  24.506  1.00  0.00     0.060 A 
ATOM     12  C   UNL A   1      32.427  21.933  25.902  1.00  0.00     0.029 A 
ATOM     13  C   UNL A   1      31.792  23.055  26.443  1.00  0.00     0.018 A 
BRANCH   9  14
ATOM     14  N   UNL A   1      32.108  22.670  22.254  1.00  0.00    -0.397 N 
ATOM     15  H   UNL A   1      31.614  23.319  21.702  1.00  0.00     0.156 HD
ATOM     16  H   UNL A   1      32.674  21.988  21.824  1.00  0.00     0.156 HD
ENDBRANCH   9  14
BRANCH  11  17
ATOM     17  N   UNL A   1      33.109  20.513  24.083  1.00  0.00    -0.369 N 
ATOM     18  C   UNL A   1      32.581  19.273  23.624  1.00  0.00     0.125 C 
ATOM     19  C   UNL A   1      34.276  19.924  24.677  1.00  0.00     0.125 C 
ATOM     20  C   UNL A   1      33.572  18.555  24.576  1.00  0.00     0.010 C 
ATOM     21  C   UNL A   1      34.420  17.444  23.954  1.00  0.00     0.039 C 
ATOM     22  C   UNL A   1      32.986  18.065  25.909  1.00  0.00     0.039 C 
ATOM     23  C   UNL A   1      33.568  16.187  23.820  1.00  0.00     0.161 C 
ATOM     24  C   UNL A   1      32.201  16.783  25.662  1.00  0.00     0.161 C 
ATOM     25  O   UNL A   1      33.054  15.786  25.094  1.00  0.00    -0.381 OA
ENDBRANCH  11  17
ENDBRANCH   6   8
ENDBRANCH   5   6
ENDBRANCH   4   5
ENDBRANCH   3   4
ENDBRANCH   2   3
ENDBRANCH   1   2
BRANCH   1  26
ATOM     26  C   UNL A   1      35.977  23.600  25.697  1.00  0.00     0.261 C 
BRANCH  26  27
ATOM     27  O   UNL A   1      37.315  23.910  25.268  1.00  0.00    -0.460 OA
BRANCH  27  28
ATOM     28  C   UNL A   1      38.297  23.376  26.034  1.00  0.00     0.338 C 
ATOM     29  O   UNL A   1      38.670  22.212  26.048  1.00  0.00    -0.246 OA
BRANCH  28  30
ATOM     30  C   UNL A   1      39.012  24.448  26.756  1.00  0.00     0.060 A 
ATOM     31  C   UNL A   1      38.714  24.622  28.113  1.00  0.00     0.016 A 
ATOM     32  C   UNL A   1      39.908  25.304  26.112  1.00  0.00     0.016 A 
ATOM     33  C   UNL A   1      39.272  25.683  28.822  1.00  0.00     0.010 A 
ATOM     34  C   UNL A   1      40.462  26.374  26.823  1.00  0.00     0.010 A 
ATOM     35  C   UNL A   1      40.120  26.589  28.170  1.00  0.00    -0.014 A 
BRANCH  35  36
ATOM     36  C   UNL A   1      40.537  27.832  28.865  1.00  0.00     0.031 A 
ATOM     37  C   UNL A   1      41.916  27.907  29.465  1.00  0.00     0.074 A 
ATOM     38  C   UNL A   1      39.710  28.891  28.938  1.00  0.00     0.049 A 
ATOM     39  N   UNL A   1      42.476  28.882  30.133  1.00  0.00    -0.248 NA
ATOM     40  C   UNL A   1      42.778  26.725  29.289  1.00  0.00     0.031 C 
ATOM     41  C   UNL A   1      38.368  28.959  28.361  1.00  0.00     0.029 A 
ATOM     42  N   UNL A   1      39.882  30.115  29.534  1.00  0.00    -0.354 N 
ATOM     43  C   UNL A   1      43.749  28.431  30.465  1.00  0.00     0.074 A 
ATOM     44  C   UNL A   1      43.870  27.086  29.947  1.00  0.00     0.031 C 
ATOM     45  C   UNL A   1      37.835  30.162  28.637  1.00  0.00     0.029 A 
ATOM     46  C   UNL A   1      38.783  30.935  29.436  1.00  0.00     0.049 A 
ATOM     47  H   UNL A   1      40.713  30.381  29.990  1.00  0.00     0.167 HD
ATOM     48  C   UNL A   1      44.729  29.080  31.138  1.00  0.00     0.031 A 
ATOM     49  C   UNL A   1      38.560  32.163  29.948  1.00  0.00     0.031 A 
ATOM     50  C   UNL A   1      44.604  30.415  31.658  1.00  0.00     0.049 A 
ATOM     51  C   UNL A   1      39.643  32.836  30.752  1.00  0.00     0.074 A 
ATOM     52  C   UNL A   1      45.551  31.166  32.334  1.00  0.00     0.029 A 
ATOM     53  N   UNL A   1      43.464  31.198  31.567  1.00  0.00    -0.354 N 
ATOM     54  N   UNL A   1      40.850  32.406  31.032  1.00  0.00    -0.248 NA
ATOM     55  C   UNL A   1      39.333  34.164  31.301  1.00  0.00     0.031 C 
ATOM     56  C   UNL A   1      44.965  32.381  32.700  1.00  0.00     0.029 A 
ATOM     57  C   UNL A   1      43.673  32.412  32.199  1.00  0.00     0.049 A 
ATOM     58  H   UNL A   1      42.630  30.930  31.118  1.00  0.00     0.167 HD
ATOM     59  C   UNL A   1      41.453  33.423  31.765  1.00  0.00     0.074 A 
ATOM     60  C   UNL A   1      40.483  34.493  31.874  1.00  0.00     0.031 C 
ATOM     61  C   UNL A   1      42.700  33.470  32.296  1.00  0.00     0.031 A 
BRANCH  48  62
ATOM     62  C   UNL A   1      46.018  28.340  31.381  1.00  0.00    -0.014 A 
ATOM     63  C   UNL A   1      46.191  27.534  32.520  1.00  0.00     0.010 A 
ATOM     64  C   UNL A   1      47.049  28.411  30.427  1.00  0.00     0.010 A 
ATOM     65  C   UNL A   1      47.385  26.834  32.715  1.00  0.00     0.020 A 
ATOM     66  C   UNL A   1      48.235  27.694  30.606  1.00  0.00     0.020 A 
ATOM     67  C   UNL A   1      48.400  26.920  31.757  1.00  0.00     0.054 A 
BRANCH  67  68
ATOM     68  S   UNL A   1      49.926  25.973  32.016  1.00  0.00     0.124 S 
ATOM     69  O   UNL A   1      50.754  26.932  32.746  1.00  0.00    -0.237 OA
ATOM     70  O   UNL A   1      49.464  24.826  32.791  1.00  0.00    -0.237 OA
ATOM     71  O   UNL A   1      50.379  25.665  30.662  1.00  0.00    -0.744 OA
ENDBRANCH  67  68
ENDBRANCH  48  62
BRANCH  49  72
ATOM     72  C   UNL A   1      37.247  32.832  29.738  1.00  0.00    -0.014 A 
ATOM     73  C   UNL A   1      36.920  33.398  28.494  1.00  0.00     0.010 A 
ATOM     74  C   UNL A   1      36.322  32.921  30.793  1.00  0.00     0.010 A 
ATOM     75  C   UNL A   1      35.701  34.061  28.315  1.00  0.00     0.020 A 
ATOM     76  C   UNL A   1      35.091  33.558  30.611  1.00  0.00     0.020 A 
ATOM     77  C   UNL A   1      34.795  34.137  29.376  1.00  0.00     0.054 A 
BRANCH  77  78
ATOM     78  S   UNL A   1      33.204  34.968  29.113  1.00  0.00     0.124 S 
ATOM     79  O   UNL A   1      33.623  36.298  28.685  1.00  0.00    -0.237 OA
ATOM     80  O   UNL A   1      32.580  34.138  28.085  1.00  0.00    -0.237 OA
ATOM     81  O   UNL A   1      32.565  34.904  30.426  1.00  0.00    -0.744 OA
ENDBRANCH  77  78
ENDBRANCH  49  72
BRANCH  61  82
ATOM     82  C   UNL A   1      43.106  34.732  33.011  1.00  0.00    -0.014 A 
ATOM     83  C   UNL A   1      42.851  34.910  34.382  1.00  0.00     0.010 A 
ATOM     84  C   UNL A   1      43.807  35.729  32.308  1.00  0.00     0.010 A 
ATOM     85  C   UNL A   1      43.264  36.078  35.031  1.00  0.00     0.020 A 
ATOM     86  C   UNL A   1      44.245  36.886  32.960  1.00  0.00     0.020 A 
ATOM     87  C   UNL A   1      43.957  37.059  34.314  1.00  0.00     0.054 A 
BRANCH  87  88
ATOM     88  S   UNL A   1      44.520  38.545  35.189  1.00  0.00     0.124 S 
ATOM     89  O   UNL A   1      44.234  38.205  36.581  1.00  0.00    -0.237 OA
ATOM     90  O   UNL A   1      45.937  38.609  34.836  1.00  0.00    -0.237 OA
ATOM     91  O   UNL A   1      43.695  39.612  34.626  1.00  0.00    -0.744 OA
ENDBRANCH  87  88
ENDBRANCH  61  82
ENDBRANCH  35  36
ENDBRANCH  28  30
ENDBRANCH  27  28
ENDBRANCH  26  27
ENDBRANCH   1  26
TORSDOF 19
ENDMDL
MODEL 3
REMARK VINA RESULT:     -10.7      3.313      4.422
REMARK SMILES Nc1cc(C(=O)OCCOCCOC(=O)c2ccc(-c3c4nc(c(-c5ccc(S(=O)(=O)[O-])cc5)c5ccc([nH]5)c(-c5ccc(S(=O)(=O)[O-])cc5)c5nc(c(-c6ccc(S(=O)(=O)[O-])cc6)c6ccc3[nH]6)C=C5)C=C4)cc2)ccc1N1CC2(CCOCC2)C1
REMARK SMILES IDX 11 1 10 2 9 3 8 4 7 5 5 6 6 7 4 8 2 9 3 10 78 11 77 12 76 13
REMARK SMILES IDX 1 14 79 17 80 18 87 19 81 20 82 21 86 22 83 23 85 24 84 25
REMARK SMILES IDX 12 26 13 27 14 28 15 29 16 30 17 31 75 32 18 33 74 34 19 35
REMARK SMILES IDX 20 36 21 37 68 38 22 39 73 40 67 41 69 42 23 43 72 44 66 45
REMARK SMILES IDX 65 46 24 48 54 49 35 50 53 51 36 52 39 53 52 54 70 55 37 56
REMARK SMILES IDX 38 57 51 59 71 60 40 61 25 62 26 63 34 64 27 65 33 66 28 67
REMARK SMILES IDX 29 68 30 69 31 70 32 71 55 72 56 73 64 74 57 75 63 76 58 77
REMARK SMILES IDX 59 78 60 79 61 80 62 81 41 82 42 83 50 84 43 85 49 86 44 87
REMARK SMILES IDX 45 88 46 89 47 90 48 91
REMARK H PARENT 1 15 1 16 69 47 39 58
REMARK Flexibility Score: inf
ROOT
ATOM      1  C   UNL A   1      35.362  33.352  28.650  1.00  0.00     0.202 C 
ENDROOT
BRANCH   1   2
ATOM      2  O   UNL A   1      35.343  32.321  27.660  1.00  0.00    -0.374 OA
BRANCH   2   3
ATOM      3  C   UNL A   1      34.550  31.167  27.946  1.00  0.00     0.202 C 
BRANCH   3   4
ATOM      4  C   UNL A   1      33.292  30.988  27.089  1.00  0.00     0.261 C 
BRANCH   4   5
ATOM      5  O   UNL A   1      32.676  29.713  27.330  1.00  0.00    -0.460 OA
BRANCH   5   6
ATOM      6  C   UNL A   1      31.978  29.215  26.283  1.00  0.00     0.338 C 
ATOM      7  O   UNL A   1      31.236  29.832  25.532  1.00  0.00    -0.246 OA
BRANCH   6   8
ATOM      8  C   UNL A   1      32.362  27.811  26.029  1.00  0.00     0.062 A 
ATOM      9  C   UNL A   1      31.775  25.464  26.377  1.00  0.00     0.056 A 
ATOM     10  C   UNL A   1      31.473  26.828  26.476  1.00  0.00     0.043 A 
ATOM     11  C   UNL A   1      32.992  25.078  25.775  1.00  0.00     0.060 A 
ATOM     12  C   UNL A   1      33.855  26.086  25.285  1.00  0.00     0.029 A 
ATOM     13  C   UNL A   1      33.545  27.445  25.398  1.00  0.00     0.018 A 
BRANCH   9  14
ATOM     14  N   UNL A   1      30.814  24.568  26.835  1.00  0.00    -0.397 N 
ATOM     15  H   UNL A   1      31.061  23.633  27.018  1.00  0.00     0.156 HD
ATOM     16  H   UNL A   1      29.886  24.869  26.974  1.00  0.00     0.156 HD
ENDBRANCH   9  14
BRANCH  11  17
ATOM     17  N   UNL A   1      33.463  23.747  25.692  1.00  0.00    -0.369 N 
ATOM     18  C   UNL A   1      34.589  23.056  26.221  1.00  0.00     0.125 C 
ATOM     19  C   UNL A   1      33.382  22.938  24.508  1.00  0.00     0.125 C 
ATOM     20  C   UNL A   1      34.809  22.437  24.816  1.00  0.00     0.010 C 
ATOM     21  C   UNL A   1      34.977  20.918  24.766  1.00  0.00     0.039 C 
ATOM     22  C   UNL A   1      35.892  23.102  23.953  1.00  0.00     0.039 C 
ATOM     23  C   UNL A   1      36.398  20.564  25.193  1.00  0.00     0.161 C 
ATOM     24  C   UNL A   1      37.261  22.638  24.436  1.00  0.00     0.161 C 
ATOM     25  O   UNL A   1      37.356  21.214  24.351  1.00  0.00    -0.381 OA
ENDBRANCH  11  17
ENDBRANCH   6   8
ENDBRANCH   5   6
ENDBRANCH   4   5
ENDBRANCH   3   4
ENDBRANCH   2   3
ENDBRANCH   1   2
BRANCH   1  26
ATOM     26  C   UNL A   1      35.406  32.892  30.112  1.00  0.00     0.261 C 
BRANCH  26  27
ATOM     27  O   UNL A   1      36.753  32.679  30.570  1.00  0.00    -0.460 OA
BRANCH  27  28
ATOM     28  C   UNL A   1      36.953  31.512  31.229  1.00  0.00     0.338 C 
ATOM     29  O   UNL A   1      36.236  31.020  32.089  1.00  0.00    -0.246 OA
BRANCH  28  30
ATOM     30  C   UNL A   1      38.095  30.787  30.637  1.00  0.00     0.060 A 
ATOM     31  C   UNL A   1      39.061  30.278  31.514  1.00  0.00     0.016 A 
ATOM     32  C   UNL A   1      38.254  30.658  29.255  1.00  0.00     0.016 A 
ATOM     33  C   UNL A   1      40.215  29.681  31.013  1.00  0.00     0.010 A 
ATOM     34  C   UNL A   1      39.418  30.065  28.753  1.00  0.00     0.010 A 
ATOM     35  C   UNL A   1      40.419  29.605  29.628  1.00  0.00    -0.014 A 
BRANCH  35  36
ATOM     36  C   UNL A   1      41.736  29.169  29.104  1.00  0.00     0.031 A 
ATOM     37  C   UNL A   1      42.861  30.168  29.031  1.00  0.00     0.074 A 
ATOM     38  C   UNL A   1      41.939  27.894  28.723  1.00  0.00     0.049 A 
ATOM     39  N   UNL A   1      44.080  30.010  28.586  1.00  0.00    -0.248 NA
ATOM     40  C   UNL A   1      42.571  31.526  29.522  1.00  0.00     0.031 C 
ATOM     41  C   UNL A   1      40.945  26.824  28.786  1.00  0.00     0.029 A 
ATOM     42  N   UNL A   1      43.055  27.287  28.204  1.00  0.00    -0.354 N 
ATOM     43  C   UNL A   1      44.701  31.245  28.735  1.00  0.00     0.074 A 
ATOM     44  C   UNL A   1      43.716  32.150  29.288  1.00  0.00     0.031 C 
ATOM     45  C   UNL A   1      41.495  25.691  28.316  1.00  0.00     0.029 A 
ATOM     46  C   UNL A   1      42.866  25.962  27.891  1.00  0.00     0.049 A 
ATOM     47  H   UNL A   1      43.909  27.756  28.067  1.00  0.00     0.167 HD
ATOM     48  C   UNL A   1      45.976  31.594  28.442  1.00  0.00     0.031 A 
ATOM     49  C   UNL A   1      43.698  25.074  27.311  1.00  0.00     0.031 A 
ATOM     50  C   UNL A   1      46.952  30.695  27.887  1.00  0.00     0.049 A 
ATOM     51  C   UNL A   1      45.091  25.506  26.931  1.00  0.00     0.074 A 
ATOM     52  C   UNL A   1      48.277  30.950  27.577  1.00  0.00     0.029 A 
ATOM     53  N   UNL A   1      46.712  29.371  27.554  1.00  0.00    -0.354 N 
ATOM     54  N   UNL A   1      45.670  26.670  27.104  1.00  0.00    -0.248 NA
ATOM     55  C   UNL A   1      45.945  24.499  26.284  1.00  0.00     0.031 C 
ATOM     56  C   UNL A   1      48.822  29.796  27.005  1.00  0.00     0.029 A 
ATOM     57  C   UNL A   1      47.854  28.804  27.015  1.00  0.00     0.049 A 
ATOM     58  H   UNL A   1      45.855  28.903  27.682  1.00  0.00     0.167 HD
ATOM     59  C   UNL A   1      46.965  26.527  26.614  1.00  0.00     0.074 A 
ATOM     60  C   UNL A   1      47.087  25.161  26.149  1.00  0.00     0.031 C 
ATOM     61  C   UNL A   1      47.963  27.442  26.559  1.00  0.00     0.031 A 
BRANCH  48  62
ATOM     62  C   UNL A   1      46.384  33.022  28.685  1.00  0.00    -0.014 A 
ATOM     63  C   UNL A   1      46.938  33.422  29.915  1.00  0.00     0.010 A 
ATOM     64  C   UNL A   1      46.260  33.966  27.650  1.00  0.00     0.010 A 
ATOM     65  C   UNL A   1      47.334  34.748  30.113  1.00  0.00     0.020 A 
ATOM     66  C   UNL A   1      46.678  35.286  27.835  1.00  0.00     0.020 A 
ATOM     67  C   UNL A   1      47.200  35.672  29.071  1.00  0.00     0.054 A 
BRANCH  67  68
ATOM     68  S   UNL A   1      47.756  37.378  29.343  1.00  0.00     0.124 S 
ATOM     69  O   UNL A   1      46.634  38.147  28.809  1.00  0.00    -0.237 OA
ATOM     70  O   UNL A   1      47.923  37.434  30.792  1.00  0.00    -0.237 OA
ATOM     71  O   UNL A   1      48.994  37.467  28.572  1.00  0.00    -0.744 OA
ENDBRANCH  67  68
ENDBRANCH  48  62
BRANCH  49  72
ATOM     72  C   UNL A   1      43.234  23.688  27.030  1.00  0.00    -0.014 A 
ATOM     73  C   UNL A   1      43.344  22.682  28.004  1.00  0.00     0.010 A 
ATOM     74  C   UNL A   1      42.692  23.365  25.772  1.00  0.00     0.010 A 
ATOM     75  C   UNL A   1      42.942  21.372  27.720  1.00  0.00     0.020 A 
ATOM     76  C   UNL A   1      42.264  22.064  25.493  1.00  0.00     0.020 A 
ATOM     77  C   UNL A   1      42.405  21.072  26.465  1.00  0.00     0.054 A 
BRANCH  77  78
ATOM     78  S   UNL A   1      41.855  19.377  26.128  1.00  0.00     0.124 S 
ATOM     79  O   UNL A   1      40.446  19.573  25.805  1.00  0.00    -0.237 OA
ATOM     80  O   UNL A   1      42.712  18.983  25.012  1.00  0.00    -0.237 OA
ATOM     81  O   UNL A   1      42.119  18.677  27.383  1.00  0.00    -0.744 OA
ENDBRANCH  77  78
ENDBRANCH  49  72
BRANCH  61  82
ATOM     82  C   UNL A   1      49.292  26.991  26.012  1.00  0.00    -0.014 A 
ATOM     83  C   UNL A   1      49.636  27.199  24.665  1.00  0.00     0.010 A 
ATOM     84  C   UNL A   1      50.233  26.402  26.877  1.00  0.00     0.010 A 
ATOM     85  C   UNL A   1      50.887  26.798  24.186  1.00  0.00     0.020 A 
ATOM     86  C   UNL A   1      51.494  26.025  26.408  1.00  0.00     0.020 A 
ATOM     87  C   UNL A   1      51.808  26.212  25.061  1.00  0.00     0.054 A 
BRANCH  87  88
ATOM     88  S   UNL A   1      53.440  25.741  24.425  1.00  0.00     0.124 S 
ATOM     89  O   UNL A   1      53.554  24.356  24.876  1.00  0.00    -0.237 OA
ATOM     90  O   UNL A   1      53.289  25.923  22.984  1.00  0.00    -0.237 OA
ATOM     91  O   UNL A   1      54.350  26.683  25.075  1.00  0.00    -0.744 OA
ENDBRANCH  87  88
ENDBRANCH  61  82
ENDBRANCH  35  36
ENDBRANCH  28  30
ENDBRANCH  27  28
ENDBRANCH  26  27
ENDBRANCH   1  26
TORSDOF 19
ENDMDL
