MODEL 1
REMARK VINA RESULT:     -10.3      0.000      0.000
REMARK SMILES C[C@@H]1[C@H](C(=O)OCCOCCOC(=O)c2ccc(-c3c4nc(c(-c5ccc(S(=O)(=O)[O-])cc5)c5ccc([nH]5)c(-c5ccc(S(=O)(=O)[O-])cc5)c5nc(c(-c6ccc(S(=O)(=O)[O-])cc6)c6ccc3[nH]6)C=C5)C=C4)cc2)CCN1C(=O)c1ccc([N+](=O)[O-])c(F)c1
REMARK SMILES IDX 9 1 8 2 7 3 6 4 4 5 5 6 3 7 1 8 2 9 77 10 75 11 76 12 78 13
REMARK SMILES IDX 79 14 80 15 81 16 89 17 82 18 87 19 83 20 88 21 84 22 85 23
REMARK SMILES IDX 86 24 10 25 11 26 12 27 13 28 14 29 15 30 16 31 74 32 17 33
REMARK SMILES IDX 73 34 18 35 19 36 20 37 67 38 21 39 72 40 66 41 68 42 22 43
REMARK SMILES IDX 71 44 65 45 64 46 23 48 53 49 34 50 52 51 35 52 38 53 51 54
REMARK SMILES IDX 69 55 36 56 37 57 50 59 70 60 39 61 24 62 25 63 33 64 26 65
REMARK SMILES IDX 32 66 27 67 28 68 29 69 30 70 31 71 54 72 55 73 63 74 56 75
REMARK SMILES IDX 62 76 57 77 58 78 59 79 60 80 61 81 40 82 41 83 49 84 42 85
REMARK SMILES IDX 48 86 43 87 44 88 45 89 46 90 47 91
REMARK H PARENT 68 47 38 58
REMARK Flexibility Score: inf
ROOT
ATOM      1  O   UNL A   1      33.388  29.040  24.077  1.00  0.00    -0.374 OA
ENDROOT
BRANCH   1   2
ATOM      2  C   UNL A   1      33.928  27.981  23.282  1.00  0.00     0.202 C 
BRANCH   2   3
ATOM      3  C   UNL A   1      32.941  27.291  22.335  1.00  0.00     0.261 C 
BRANCH   3   4
ATOM      4  O   UNL A   1      31.620  27.837  22.512  1.00  0.00    -0.463 OA
BRANCH   4   5
ATOM      5  C   UNL A   1      30.704  27.036  23.093  1.00  0.00     0.311 C 
ATOM      6  O   UNL A   1      29.496  27.245  23.096  1.00  0.00    -0.252 OA
BRANCH   5   7
ATOM      7  C   UNL A   1      31.303  25.818  23.761  1.00  0.00     0.123 C 
ATOM      8  C   UNL A   1      30.285  26.147  26.131  1.00  0.00     0.032 C 
ATOM      9  C   UNL A   1      31.483  25.692  25.294  1.00  0.00     0.096 C 
ATOM     10  N   UNL A   1      31.712  24.233  25.443  1.00  0.00    -0.335 N 
ATOM     11  C   UNL A   1      30.542  24.551  23.398  1.00  0.00     0.039 C 
ATOM     12  C   UNL A   1      31.230  23.514  24.266  1.00  0.00     0.121 C 
BRANCH  10  13
ATOM     13  C   UNL A   1      32.481  23.522  26.352  1.00  0.00     0.254 C 
ATOM     14  O   UNL A   1      32.065  23.217  27.471  1.00  0.00    -0.269 OA
BRANCH  13  15
ATOM     15  C   UNL A   1      33.829  23.028  26.009  1.00  0.00     0.043 A 
ATOM     16  C   UNL A   1      34.029  21.640  25.941  1.00  0.00     0.021 A 
ATOM     17  C   UNL A   1      34.928  23.885  25.963  1.00  0.00     0.060 A 
ATOM     18  C   UNL A   1      35.316  21.118  25.762  1.00  0.00     0.090 A 
ATOM     19  C   UNL A   1      36.209  23.369  25.756  1.00  0.00     0.201 A 
ATOM     20  C   UNL A   1      36.405  21.994  25.650  1.00  0.00     0.304 A 
ATOM     21  F   UNL A   1      37.228  24.238  25.711  1.00  0.00    -0.199 F 
BRANCH  20  22
ATOM     22  N   UNL A   1      37.747  21.451  25.459  1.00  0.00     0.065 N 
ATOM     23  O   UNL A   1      37.868  20.520  24.648  1.00  0.00    -0.258 OA
ATOM     24  O   UNL A   1      38.684  21.965  26.078  1.00  0.00    -0.258 OA
ENDBRANCH  20  22
ENDBRANCH  13  15
ENDBRANCH  10  13
ENDBRANCH   5   7
ENDBRANCH   4   5
ENDBRANCH   3   4
ENDBRANCH   2   3
ENDBRANCH   1   2
BRANCH   1  25
ATOM     25  C   UNL A   1      33.463  28.899  25.493  1.00  0.00     0.202 C 
BRANCH  25  26
ATOM     26  C   UNL A   1      33.117  30.136  26.332  1.00  0.00     0.261 C 
BRANCH  26  27
ATOM     27  O   UNL A   1      33.527  29.993  27.702  1.00  0.00    -0.460 OA
BRANCH  27  28
ATOM     28  C   UNL A   1      34.487  30.869  28.092  1.00  0.00     0.338 C 
ATOM     29  O   UNL A   1      34.315  32.021  28.463  1.00  0.00    -0.246 OA
BRANCH  28  30
ATOM     30  C   UNL A   1      35.789  30.184  28.211  1.00  0.00     0.060 A 
ATOM     31  C   UNL A   1      36.128  29.673  29.471  1.00  0.00     0.016 A 
ATOM     32  C   UNL A   1      36.689  30.088  27.147  1.00  0.00     0.016 A 
ATOM     33  C   UNL A   1      37.389  29.124  29.689  1.00  0.00     0.010 A 
ATOM     34  C   UNL A   1      37.957  29.537  27.368  1.00  0.00     0.010 A 
ATOM     35  C   UNL A   1      38.329  29.091  28.651  1.00  0.00    -0.014 A 
BRANCH  35  36
ATOM     36  C   UNL A   1      39.738  28.733  28.955  1.00  0.00     0.031 A 
ATOM     37  C   UNL A   1      40.621  29.747  29.636  1.00  0.00     0.074 A 
ATOM     38  C   UNL A   1      40.216  27.505  28.679  1.00  0.00     0.049 A 
ATOM     39  N   UNL A   1      41.875  29.646  29.991  1.00  0.00    -0.248 NA
ATOM     40  C   UNL A   1      40.007  31.046  29.957  1.00  0.00     0.031 C 
ATOM     41  C   UNL A   1      39.452  26.416  28.069  1.00  0.00     0.029 A 
ATOM     42  N   UNL A   1      41.463  26.967  28.881  1.00  0.00    -0.354 N 
ATOM     43  C   UNL A   1      42.204  30.868  30.568  1.00  0.00     0.074 A 
ATOM     44  C   UNL A   1      41.028  31.705  30.485  1.00  0.00     0.031 C 
ATOM     45  C   UNL A   1      40.249  25.341  27.947  1.00  0.00     0.029 A 
ATOM     46  C   UNL A   1      41.587  25.673  28.434  1.00  0.00     0.049 A 
ATOM     47  H   UNL A   1      42.200  27.462  29.307  1.00  0.00     0.167 HD
ATOM     48  C   UNL A   1      43.377  31.258  31.125  1.00  0.00     0.031 A 
ATOM     49  C   UNL A   1      42.658  24.855  28.403  1.00  0.00     0.031 A 
ATOM     50  C   UNL A   1      44.551  30.427  31.200  1.00  0.00     0.049 A 
ATOM     51  C   UNL A   1      43.974  25.339  28.956  1.00  0.00     0.074 A 
ATOM     52  C   UNL A   1      45.781  30.728  31.759  1.00  0.00     0.029 A 
ATOM     53  N   UNL A   1      44.647  29.141  30.693  1.00  0.00    -0.354 N 
ATOM     54  N   UNL A   1      44.261  26.487  29.520  1.00  0.00    -0.248 NA
ATOM     55  C   UNL A   1      45.110  24.409  28.875  1.00  0.00     0.031 C 
ATOM     56  C   UNL A   1      46.640  29.649  31.533  1.00  0.00     0.029 A 
ATOM     57  C   UNL A   1      45.924  28.646  30.898  1.00  0.00     0.049 A 
ATOM     58  H   UNL A   1      43.915  28.651  30.252  1.00  0.00     0.167 HD
ATOM     59  C   UNL A   1      45.600  26.405  29.890  1.00  0.00     0.074 A 
ATOM     60  C   UNL A   1      46.062  25.090  29.498  1.00  0.00     0.031 C 
ATOM     61  C   UNL A   1      46.376  27.335  30.503  1.00  0.00     0.031 A 
BRANCH  48  62
ATOM     62  C   UNL A   1      43.461  32.661  31.668  1.00  0.00    -0.014 A 
ATOM     63  C   UNL A   1      43.230  32.935  33.029  1.00  0.00     0.010 A 
ATOM     64  C   UNL A   1      43.821  33.717  30.811  1.00  0.00     0.010 A 
ATOM     65  C   UNL A   1      43.323  34.244  33.513  1.00  0.00     0.020 A 
ATOM     66  C   UNL A   1      43.944  35.021  31.296  1.00  0.00     0.020 A 
ATOM     67  C   UNL A   1      43.678  35.278  32.643  1.00  0.00     0.054 A 
BRANCH  67  68
ATOM     68  S   UNL A   1      43.817  36.962  33.304  1.00  0.00     0.124 S 
ATOM     69  O   UNL A   1      43.894  37.760  32.083  1.00  0.00    -0.237 OA
ATOM     70  O   UNL A   1      42.582  37.106  34.071  1.00  0.00    -0.237 OA
ATOM     71  O   UNL A   1      45.041  36.923  34.100  1.00  0.00    -0.744 OA
ENDBRANCH  67  68
ENDBRANCH  48  62
BRANCH  49  72
ATOM     72  C   UNL A   1      42.538  23.496  27.806  1.00  0.00    -0.014 A 
ATOM     73  C   UNL A   1      42.174  22.391  28.595  1.00  0.00     0.010 A 
ATOM     74  C   UNL A   1      42.800  23.300  26.436  1.00  0.00     0.010 A 
ATOM     75  C   UNL A   1      42.088  21.114  28.030  1.00  0.00     0.020 A 
ATOM     76  C   UNL A   1      42.685  22.031  25.862  1.00  0.00     0.020 A 
ATOM     77  C   UNL A   1      42.339  20.944  26.665  1.00  0.00     0.054 A 
BRANCH  77  78
ATOM     78  S   UNL A   1      42.170  19.288  25.944  1.00  0.00     0.124 S 
ATOM     79  O   UNL A   1      43.000  19.390  24.748  1.00  0.00    -0.237 OA
ATOM     80  O   UNL A   1      42.690  18.430  27.005  1.00  0.00    -0.237 OA
ATOM     81  O   UNL A   1      40.734  19.165  25.702  1.00  0.00    -0.744 OA
ENDBRANCH  77  78
ENDBRANCH  49  72
BRANCH  61  82
ATOM     82  C   UNL A   1      47.798  26.955  30.829  1.00  0.00    -0.014 A 
ATOM     83  C   UNL A   1      48.854  27.225  29.941  1.00  0.00     0.010 A 
ATOM     84  C   UNL A   1      48.089  26.366  32.075  1.00  0.00     0.010 A 
ATOM     85  C   UNL A   1      50.167  26.882  30.277  1.00  0.00     0.020 A 
ATOM     86  C   UNL A   1      49.403  26.051  32.428  1.00  0.00     0.020 A 
ATOM     87  C   UNL A   1      50.434  26.297  31.519  1.00  0.00     0.054 A 
BRANCH  87  88
ATOM     88  S   UNL A   1      52.151  25.900  31.947  1.00  0.00     0.124 S 
ATOM     89  O   UNL A   1      52.873  26.365  30.766  1.00  0.00    -0.237 OA
ATOM     90  O   UNL A   1      52.367  26.679  33.164  1.00  0.00    -0.237 OA
ATOM     91  O   UNL A   1      52.135  24.451  32.137  1.00  0.00    -0.744 OA
ENDBRANCH  87  88
ENDBRANCH  61  82
ENDBRANCH  35  36
ENDBRANCH  28  30
ENDBRANCH  27  28
ENDBRANCH  26  27
ENDBRANCH  25  26
ENDBRANCH   1  25
TORSDOF 20
ENDMDL
MODEL 2
REMARK VINA RESULT:      -9.7      1.904      3.935
REMARK SMILES C[C@@H]1[C@H](C(=O)OCCOCCOC(=O)c2ccc(-c3c4nc(c(-c5ccc(S(=O)(=O)[O-])cc5)c5ccc([nH]5)c(-c5ccc(S(=O)(=O)[O-])cc5)c5nc(c(-c6ccc(S(=O)(=O)[O-])cc6)c6ccc3[nH]6)C=C5)C=C4)cc2)CCN1C(=O)c1ccc([N+](=O)[O-])c(F)c1
REMARK SMILES IDX 9 1 8 2 7 3 6 4 4 5 5 6 3 7 1 8 2 9 77 10 75 11 76 12 78 13
REMARK SMILES IDX 79 14 80 15 81 16 89 17 82 18 87 19 83 20 88 21 84 22 85 23
REMARK SMILES IDX 86 24 10 25 11 26 12 27 13 28 14 29 15 30 16 31 74 32 17 33
REMARK SMILES IDX 73 34 18 35 19 36 20 37 67 38 21 39 72 40 66 41 68 42 22 43
REMARK SMILES IDX 71 44 65 45 64 46 23 48 53 49 34 50 52 51 35 52 38 53 51 54
REMARK SMILES IDX 69 55 36 56 37 57 50 59 70 60 39 61 24 62 25 63 33 64 26 65
REMARK SMILES IDX 32 66 27 67 28 68 29 69 30 70 31 71 54 72 55 73 63 74 56 75
REMARK SMILES IDX 62 76 57 77 58 78 59 79 60 80 61 81 40 82 41 83 49 84 42 85
REMARK SMILES IDX 48 86 43 87 44 88 45 89 46 90 47 91
REMARK H PARENT 68 47 38 58
REMARK Flexibility Score: inf
ROOT
ATOM      1  O   UNL A   1      34.832  25.732  25.106  1.00  0.00    -0.374 OA
ENDROOT
BRANCH   1   2
ATOM      2  C   UNL A   1      35.305  24.442  25.500  1.00  0.00     0.202 C 
BRANCH   2   3
ATOM      3  C   UNL A   1      35.771  23.528  24.362  1.00  0.00     0.261 C 
BRANCH   3   4
ATOM      4  O   UNL A   1      34.636  23.037  23.625  1.00  0.00    -0.463 OA
BRANCH   4   5
ATOM      5  C   UNL A   1      33.769  22.251  24.295  1.00  0.00     0.311 C 
ATOM      6  O   UNL A   1      33.834  21.027  24.350  1.00  0.00    -0.252 OA
BRANCH   5   7
ATOM      7  C   UNL A   1      32.675  23.022  25.000  1.00  0.00     0.123 C 
ATOM      8  C   UNL A   1      31.258  23.660  22.915  1.00  0.00     0.032 C 
ATOM      9  C   UNL A   1      31.784  24.072  24.291  1.00  0.00     0.096 C 
ATOM     10  N   UNL A   1      30.673  24.216  25.264  1.00  0.00    -0.335 N 
ATOM     11  C   UNL A   1      31.660  22.088  25.644  1.00  0.00     0.039 C 
ATOM     12  C   UNL A   1      30.622  23.066  26.162  1.00  0.00     0.121 C 
BRANCH  10  13
ATOM     13  C   UNL A   1      29.885  25.312  25.588  1.00  0.00     0.254 C 
ATOM     14  O   UNL A   1      29.304  25.409  26.669  1.00  0.00    -0.269 OA
BRANCH  13  15
ATOM     15  C   UNL A   1      29.747  26.465  24.676  1.00  0.00     0.043 A 
ATOM     16  C   UNL A   1      30.795  27.396  24.622  1.00  0.00     0.021 A 
ATOM     17  C   UNL A   1      28.536  26.754  24.048  1.00  0.00     0.060 A 
ATOM     18  C   UNL A   1      30.655  28.578  23.885  1.00  0.00     0.090 A 
ATOM     19  C   UNL A   1      28.403  27.919  23.289  1.00  0.00     0.201 A 
ATOM     20  C   UNL A   1      29.456  28.826  23.201  1.00  0.00     0.304 A 
ATOM     21  F   UNL A   1      27.221  28.142  22.698  1.00  0.00    -0.199 F 
BRANCH  20  22
ATOM     22  N   UNL A   1      29.311  30.056  22.430  1.00  0.00     0.065 N 
ATOM     23  O   UNL A   1      29.592  30.002  21.222  1.00  0.00    -0.258 OA
ATOM     24  O   UNL A   1      28.885  31.064  23.003  1.00  0.00    -0.258 OA
ENDBRANCH  20  22
ENDBRANCH  13  15
ENDBRANCH  10  13
ENDBRANCH   5   7
ENDBRANCH   4   5
ENDBRANCH   3   4
ENDBRANCH   2   3
ENDBRANCH   1   2
BRANCH   1  25
ATOM     25  C   UNL A   1      33.944  26.403  25.995  1.00  0.00     0.202 C 
BRANCH  25  26
ATOM     26  C   UNL A   1      34.075  27.929  26.083  1.00  0.00     0.261 C 
BRANCH  26  27
ATOM     27  O   UNL A   1      33.874  28.414  27.422  1.00  0.00    -0.460 OA
BRANCH  27  28
ATOM     28  C   UNL A   1      34.331  29.673  27.635  1.00  0.00     0.338 C 
ATOM     29  O   UNL A   1      33.666  30.700  27.627  1.00  0.00    -0.246 OA
BRANCH  28  30
ATOM     30  C   UNL A   1      35.734  29.641  28.091  1.00  0.00     0.060 A 
ATOM     31  C   UNL A   1      36.723  29.882  27.129  1.00  0.00     0.016 A 
ATOM     32  C   UNL A   1      36.091  29.326  29.405  1.00  0.00     0.016 A 
ATOM     33  C   UNL A   1      38.069  29.747  27.457  1.00  0.00     0.010 A 
ATOM     34  C   UNL A   1      37.445  29.189  29.733  1.00  0.00     0.010 A 
ATOM     35  C   UNL A   1      38.440  29.357  28.751  1.00  0.00    -0.014 A 
BRANCH  35  36
ATOM     36  C   UNL A   1      39.851  28.981  29.022  1.00  0.00     0.031 A 
ATOM     37  C   UNL A   1      40.767  29.987  29.668  1.00  0.00     0.074 A 
ATOM     38  C   UNL A   1      40.302  27.743  28.747  1.00  0.00     0.049 A 
ATOM     39  N   UNL A   1      42.028  29.871  29.992  1.00  0.00    -0.248 NA
ATOM     40  C   UNL A   1      40.182  31.299  29.991  1.00  0.00     0.031 C 
ATOM     41  C   UNL A   1      39.507  26.659  28.170  1.00  0.00     0.029 A 
ATOM     42  N   UNL A   1      41.546  27.187  28.923  1.00  0.00    -0.354 N 
ATOM     43  C   UNL A   1      42.391  31.094  30.547  1.00  0.00     0.074 A 
ATOM     44  C   UNL A   1      41.226  31.948  30.485  1.00  0.00     0.031 C 
ATOM     45  C   UNL A   1      40.283  25.570  28.039  1.00  0.00     0.029 A 
ATOM     46  C   UNL A   1      41.638  25.887  28.486  1.00  0.00     0.049 A 
ATOM     47  H   UNL A   1      42.302  27.675  29.324  1.00  0.00     0.167 HD
ATOM     48  C   UNL A   1      43.584  31.472  31.068  1.00  0.00     0.031 A 
ATOM     49  C   UNL A   1      42.696  25.052  28.436  1.00  0.00     0.031 A 
ATOM     50  C   UNL A   1      44.746  30.624  31.121  1.00  0.00     0.049 A 
ATOM     51  C   UNL A   1      44.033  25.521  28.949  1.00  0.00     0.074 A 
ATOM     52  C   UNL A   1      45.995  30.911  31.646  1.00  0.00     0.029 A 
ATOM     53  N   UNL A   1      44.809  29.331  30.626  1.00  0.00    -0.354 N 
ATOM     54  N   UNL A   1      44.352  26.671  29.494  1.00  0.00    -0.248 NA
ATOM     55  C   UNL A   1      45.152  24.573  28.850  1.00  0.00     0.031 C 
ATOM     56  C   UNL A   1      46.831  29.816  31.408  1.00  0.00     0.029 A 
ATOM     57  C   UNL A   1      46.084  28.818  30.804  1.00  0.00     0.049 A 
ATOM     58  H   UNL A   1      44.059  28.848  30.210  1.00  0.00     0.167 HD
ATOM     59  C   UNL A   1      45.699  26.572  29.830  1.00  0.00     0.074 A 
ATOM     60  C   UNL A   1      46.130  25.245  29.440  1.00  0.00     0.031 C 
ATOM     61  C   UNL A   1      46.505  27.496  30.411  1.00  0.00     0.031 A 
BRANCH  48  62
ATOM     62  C   UNL A   1      43.703  32.879  31.594  1.00  0.00    -0.014 A 
ATOM     63  C   UNL A   1      43.506  33.172  32.956  1.00  0.00     0.010 A 
ATOM     64  C   UNL A   1      44.063  33.919  30.717  1.00  0.00     0.010 A 
ATOM     65  C   UNL A   1      43.631  34.484  33.423  1.00  0.00     0.020 A 
ATOM     66  C   UNL A   1      44.218  35.226  31.185  1.00  0.00     0.020 A 
ATOM     67  C   UNL A   1      43.986  35.502  32.534  1.00  0.00     0.054 A 
BRANCH  67  68
ATOM     68  S   UNL A   1      44.168  37.191  33.173  1.00  0.00     0.124 S 
ATOM     69  O   UNL A   1      42.881  37.403  33.832  1.00  0.00    -0.237 OA
ATOM     70  O   UNL A   1      45.318  37.071  34.066  1.00  0.00    -0.237 OA
ATOM     71  O   UNL A   1      44.393  37.994  31.975  1.00  0.00    -0.744 OA
ENDBRANCH  67  68
ENDBRANCH  48  62
BRANCH  49  72
ATOM     72  C   UNL A   1      42.540  23.689  27.858  1.00  0.00    -0.014 A 
ATOM     73  C   UNL A   1      42.240  22.587  28.678  1.00  0.00     0.010 A 
ATOM     74  C   UNL A   1      42.701  23.486  26.474  1.00  0.00     0.010 A 
ATOM     75  C   UNL A   1      42.120  21.306  28.128  1.00  0.00     0.020 A 
ATOM     76  C   UNL A   1      42.551  22.213  25.917  1.00  0.00     0.020 A 
ATOM     77  C   UNL A   1      42.271  21.128  26.750  1.00  0.00     0.054 A 
BRANCH  77  78
ATOM     78  S   UNL A   1      42.058  19.468  26.052  1.00  0.00     0.124 S 
ATOM     79  O   UNL A   1      40.625  19.435  25.774  1.00  0.00    -0.237 OA
ATOM     80  O   UNL A   1      42.930  19.506  24.881  1.00  0.00    -0.237 OA
ATOM     81  O   UNL A   1      42.508  18.585  27.126  1.00  0.00    -0.744 OA
ENDBRANCH  77  78
ENDBRANCH  49  72
BRANCH  61  82
ATOM     82  C   UNL A   1      47.929  27.098  30.705  1.00  0.00    -0.014 A 
ATOM     83  C   UNL A   1      48.960  27.313  29.773  1.00  0.00     0.010 A 
ATOM     84  C   UNL A   1      48.250  26.547  31.960  1.00  0.00     0.010 A 
ATOM     85  C   UNL A   1      50.277  26.955  30.078  1.00  0.00     0.020 A 
ATOM     86  C   UNL A   1      49.568  26.217  32.281  1.00  0.00     0.020 A 
ATOM     87  C   UNL A   1      50.573  26.409  31.331  1.00  0.00     0.054 A 
BRANCH  87  88
ATOM     88  S   UNL A   1      52.295  25.990  31.717  1.00  0.00     0.124 S 
ATOM     89  O   UNL A   1      52.965  26.262  30.448  1.00  0.00    -0.237 OA
ATOM     90  O   UNL A   1      52.613  26.911  32.806  1.00  0.00    -0.237 OA
ATOM     91  O   UNL A   1      52.233  24.581  32.098  1.00  0.00    -0.744 OA
ENDBRANCH  87  88
ENDBRANCH  61  82
ENDBRANCH  35  36
ENDBRANCH  28  30
ENDBRANCH  27  28
ENDBRANCH  26  27
ENDBRANCH  25  26
ENDBRANCH   1  25
TORSDOF 20
ENDMDL
MODEL 3
REMARK VINA RESULT:      -9.6      4.770     10.668
REMARK SMILES C[C@@H]1[C@H](C(=O)OCCOCCOC(=O)c2ccc(-c3c4nc(c(-c5ccc(S(=O)(=O)[O-])cc5)c5ccc([nH]5)c(-c5ccc(S(=O)(=O)[O-])cc5)c5nc(c(-c6ccc(S(=O)(=O)[O-])cc6)c6ccc3[nH]6)C=C5)C=C4)cc2)CCN1C(=O)c1ccc([N+](=O)[O-])c(F)c1
REMARK SMILES IDX 9 1 8 2 7 3 6 4 4 5 5 6 3 7 1 8 2 9 77 10 75 11 76 12 78 13
REMARK SMILES IDX 79 14 80 15 81 16 89 17 82 18 87 19 83 20 88 21 84 22 85 23
REMARK SMILES IDX 86 24 10 25 11 26 12 27 13 28 14 29 15 30 16 31 74 32 17 33
REMARK SMILES IDX 73 34 18 35 19 36 20 37 67 38 21 39 72 40 66 41 68 42 22 43
REMARK SMILES IDX 71 44 65 45 64 46 23 48 53 49 34 50 52 51 35 52 38 53 51 54
REMARK SMILES IDX 69 55 36 56 37 57 50 59 70 60 39 61 24 62 25 63 33 64 26 65
REMARK SMILES IDX 32 66 27 67 28 68 29 69 30 70 31 71 54 72 55 73 63 74 56 75
REMARK SMILES IDX 62 76 57 77 58 78 59 79 60 80 61 81 40 82 41 83 49 84 42 85
REMARK SMILES IDX 48 86 43 87 44 88 45 89 46 90 47 91
REMARK H PARENT 68 47 38 58
REMARK Flexibility Score: inf
ROOT
ATOM      1  O   UNL A   1      38.961  22.067  25.529  1.00  0.00    -0.374 OA
ENDROOT
BRANCH   1   2
ATOM      2  C   UNL A   1      37.585  21.900  25.878  1.00  0.00     0.202 C 
BRANCH   2   3
ATOM      3  C   UNL A   1      36.582  22.086  24.735  1.00  0.00     0.261 C 
BRANCH   3   4
ATOM      4  O   UNL A   1      35.418  22.792  25.208  1.00  0.00    -0.463 OA
BRANCH   4   5
ATOM      5  C   UNL A   1      34.242  22.133  25.150  1.00  0.00     0.311 C 
ATOM      6  O   UNL A   1      34.128  20.918  25.039  1.00  0.00    -0.252 OA
BRANCH   5   7
ATOM      7  C   UNL A   1      33.037  23.042  25.240  1.00  0.00     0.123 C 
ATOM      8  C   UNL A   1      32.728  23.512  22.701  1.00  0.00     0.032 C 
ATOM      9  C   UNL A   1      32.650  24.051  24.131  1.00  0.00     0.096 C 
ATOM     10  N   UNL A   1      31.249  24.370  24.502  1.00  0.00    -0.335 N 
ATOM     11  C   UNL A   1      31.754  22.249  25.446  1.00  0.00     0.039 C 
ATOM     12  C   UNL A   1      30.699  23.337  25.375  1.00  0.00     0.121 C 
BRANCH  10  13
ATOM     13  C   UNL A   1      30.514  25.539  24.358  1.00  0.00     0.254 C 
ATOM     14  O   UNL A   1      29.435  25.571  23.766  1.00  0.00    -0.269 OA
BRANCH  13  15
ATOM     15  C   UNL A   1      30.952  26.810  24.968  1.00  0.00     0.043 A 
ATOM     16  C   UNL A   1      31.382  27.840  24.117  1.00  0.00     0.021 A 
ATOM     17  C   UNL A   1      31.147  26.928  26.344  1.00  0.00     0.060 A 
ATOM     18  C   UNL A   1      31.941  29.009  24.646  1.00  0.00     0.090 A 
ATOM     19  C   UNL A   1      31.678  28.105  26.876  1.00  0.00     0.201 A 
ATOM     20  C   UNL A   1      32.070  29.144  26.036  1.00  0.00     0.304 A 
ATOM     21  F   UNL A   1      31.835  28.168  28.206  1.00  0.00    -0.199 F 
BRANCH  20  22
ATOM     22  N   UNL A   1      32.649  30.364  26.589  1.00  0.00     0.065 N 
ATOM     23  O   UNL A   1      31.879  31.319  26.778  1.00  0.00    -0.258 OA
ATOM     24  O   UNL A   1      33.852  30.370  26.870  1.00  0.00    -0.258 OA
ENDBRANCH  20  22
ENDBRANCH  13  15
ENDBRANCH  10  13
ENDBRANCH   5   7
ENDBRANCH   4   5
ENDBRANCH   3   4
ENDBRANCH   2   3
ENDBRANCH   1   2
BRANCH   1  25
ATOM     25  C   UNL A   1      39.909  22.092  26.593  1.00  0.00     0.202 C 
BRANCH  25  26
ATOM     26  C   UNL A   1      40.774  23.353  26.721  1.00  0.00     0.261 C 
BRANCH  26  27
ATOM     27  O   UNL A   1      40.137  24.368  27.516  1.00  0.00    -0.460 OA
BRANCH  27  28
ATOM     28  C   UNL A   1      40.365  25.635  27.091  1.00  0.00     0.338 C 
ATOM     29  O   UNL A   1      40.602  25.988  25.944  1.00  0.00    -0.246 OA
BRANCH  28  30
ATOM     30  C   UNL A   1      40.090  26.598  28.175  1.00  0.00     0.060 A 
ATOM     31  C   UNL A   1      40.829  27.788  28.174  1.00  0.00     0.016 A 
ATOM     32  C   UNL A   1      39.181  26.334  29.203  1.00  0.00     0.016 A 
ATOM     33  C   UNL A   1      40.713  28.688  29.231  1.00  0.00     0.010 A 
ATOM     34  C   UNL A   1      39.066  27.238  30.266  1.00  0.00     0.010 A 
ATOM     35  C   UNL A   1      39.863  28.399  30.307  1.00  0.00    -0.014 A 
BRANCH  35  36
ATOM     36  C   UNL A   1      39.929  29.236  31.532  1.00  0.00     0.031 A 
ATOM     37  C   UNL A   1      41.051  29.012  32.512  1.00  0.00     0.074 A 
ATOM     38  C   UNL A   1      39.035  30.218  31.749  1.00  0.00     0.049 A 
ATOM     39  N   UNL A   1      41.300  29.624  33.640  1.00  0.00    -0.248 NA
ATOM     40  C   UNL A   1      42.022  27.958  32.174  1.00  0.00     0.031 C 
ATOM     41  C   UNL A   1      37.931  30.573  30.856  1.00  0.00     0.029 A 
ATOM     42  N   UNL A   1      38.917  31.103  32.792  1.00  0.00    -0.354 N 
ATOM     43  C   UNL A   1      42.446  29.026  34.152  1.00  0.00     0.074 A 
ATOM     44  C   UNL A   1      42.825  27.980  33.227  1.00  0.00     0.031 C 
ATOM     45  C   UNL A   1      37.249  31.600  31.391  1.00  0.00     0.029 A 
ATOM     46  C   UNL A   1      37.842  31.952  32.680  1.00  0.00     0.049 A 
ATOM     47  H   UNL A   1      39.545  31.127  33.551  1.00  0.00     0.167 HD
ATOM     48  C   UNL A   1      43.128  29.323  35.285  1.00  0.00     0.031 A 
ATOM     49  C   UNL A   1      37.377  32.894  33.525  1.00  0.00     0.031 A 
ATOM     50  C   UNL A   1      42.745  30.358  36.209  1.00  0.00     0.049 A 
ATOM     51  C   UNL A   1      38.107  33.153  34.818  1.00  0.00     0.074 A 
ATOM     52  C   UNL A   1      43.382  30.745  37.377  1.00  0.00     0.029 A 
ATOM     53  N   UNL A   1      41.624  31.162  36.081  1.00  0.00    -0.354 N 
ATOM     54  N   UNL A   1      39.203  32.596  35.274  1.00  0.00    -0.248 NA
ATOM     55  C   UNL A   1      37.540  34.178  35.707  1.00  0.00     0.031 C 
ATOM     56  C   UNL A   1      42.610  31.738  37.987  1.00  0.00     0.029 A 
ATOM     57  C   UNL A   1      41.533  32.022  37.163  1.00  0.00     0.049 A 
ATOM     58  H   UNL A   1      40.987  31.128  35.332  1.00  0.00     0.167 HD
ATOM     59  C   UNL A   1      39.474  33.224  36.486  1.00  0.00     0.074 A 
ATOM     60  C   UNL A   1      38.434  34.213  36.685  1.00  0.00     0.031 C 
ATOM     61  C   UNL A   1      40.493  33.003  37.354  1.00  0.00     0.031 A 
BRANCH  48  62
ATOM     62  C   UNL A   1      44.343  28.492  35.607  1.00  0.00    -0.014 A 
ATOM     63  C   UNL A   1      44.243  27.310  36.363  1.00  0.00     0.010 A 
ATOM     64  C   UNL A   1      45.601  28.879  35.106  1.00  0.00     0.010 A 
ATOM     65  C   UNL A   1      45.384  26.550  36.642  1.00  0.00     0.020 A 
ATOM     66  C   UNL A   1      46.737  28.106  35.357  1.00  0.00     0.020 A 
ATOM     67  C   UNL A   1      46.623  26.954  36.137  1.00  0.00     0.054 A 
BRANCH  67  68
ATOM     68  S   UNL A   1      48.081  25.934  36.493  1.00  0.00     0.124 S 
ATOM     69  O   UNL A   1      48.207  25.150  35.265  1.00  0.00    -0.237 OA
ATOM     70  O   UNL A   1      49.124  26.933  36.709  1.00  0.00    -0.237 OA
ATOM     71  O   UNL A   1      47.694  25.174  37.678  1.00  0.00    -0.744 OA
ENDBRANCH  67  68
ENDBRANCH  48  62
BRANCH  49  72
ATOM     72  C   UNL A   1      36.141  33.652  33.186  1.00  0.00    -0.014 A 
ATOM     73  C   UNL A   1      34.871  33.070  33.341  1.00  0.00     0.010 A 
ATOM     74  C   UNL A   1      36.232  34.969  32.694  1.00  0.00     0.010 A 
ATOM     75  C   UNL A   1      33.717  33.782  32.996  1.00  0.00     0.020 A 
ATOM     76  C   UNL A   1      35.081  35.694  32.378  1.00  0.00     0.020 A 
ATOM     77  C   UNL A   1      33.830  35.092  32.522  1.00  0.00     0.054 A 
BRANCH  77  78
ATOM     78  S   UNL A   1      32.318  36.015  32.132  1.00  0.00     0.124 S 
ATOM     79  O   UNL A   1      32.413  36.157  30.682  1.00  0.00    -0.237 OA
ATOM     80  O   UNL A   1      31.270  35.118  32.613  1.00  0.00    -0.237 OA
ATOM     81  O   UNL A   1      32.466  37.253  32.894  1.00  0.00    -0.744 OA
ENDBRANCH  77  78
ENDBRANCH  49  72
BRANCH  61  82
ATOM     82  C   UNL A   1      40.566  33.873  38.584  1.00  0.00    -0.014 A 
ATOM     83  C   UNL A   1      41.167  35.144  38.552  1.00  0.00     0.010 A 
ATOM     84  C   UNL A   1      39.971  33.431  39.780  1.00  0.00     0.010 A 
ATOM     85  C   UNL A   1      41.202  35.940  39.700  1.00  0.00     0.020 A 
ATOM     86  C   UNL A   1      39.975  34.236  40.922  1.00  0.00     0.020 A 
ATOM     87  C   UNL A   1      40.605  35.481  40.879  1.00  0.00     0.054 A 
BRANCH  87  88
ATOM     88  S   UNL A   1      40.628  36.550  42.343  1.00  0.00     0.124 S 
ATOM     89  O   UNL A   1      39.657  37.580  41.984  1.00  0.00    -0.237 OA
ATOM     90  O   UNL A   1      40.216  35.642  43.411  1.00  0.00    -0.237 OA
ATOM     91  O   UNL A   1      42.016  37.004  42.421  1.00  0.00    -0.744 OA
ENDBRANCH  87  88
ENDBRANCH  61  82
ENDBRANCH  35  36
ENDBRANCH  28  30
ENDBRANCH  27  28
ENDBRANCH  26  27
ENDBRANCH  25  26
ENDBRANCH   1  25
TORSDOF 20
ENDMDL
