MODEL 1
REMARK VINA RESULT:     -10.8      0.000      0.000
REMARK SMILES Cc1cc2c(=O)c3ccccc3oc2c(C(=O)OCCOCCOC(=O)c2ccc(-c3c4nc(c(-c5ccc(S(=O)(=O)[O-])cc5)c5ccc([nH]5)c(-c5ccc(S(=O)(=O)[O-])cc5)c5nc(c(-c6ccc(S(=O)(=O)[O-])cc6)c6ccc3[nH]6)C=C5)C=C4)cc2)c1C
REMARK SMILES IDX 22 1 21 2 20 3 19 4 18 5 16 6 17 7 15 8 1 9 2 10 3 11 87 12
REMARK SMILES IDX 4 13 88 14 5 15 14 16 6 17 7 18 13 19 8 20 12 21 9 22 11 23
REMARK SMILES IDX 10 24 23 25 24 26 25 27 26 28 27 29 28 30 86 31 29 32 85 33
REMARK SMILES IDX 30 34 31 35 32 36 79 37 33 38 84 39 78 40 80 41 34 42 83 43
REMARK SMILES IDX 77 44 76 45 35 47 65 48 46 49 64 50 47 51 50 52 63 53 81 54
REMARK SMILES IDX 48 55 49 56 62 58 82 59 51 60 36 61 37 62 45 63 38 64 44 65
REMARK SMILES IDX 39 66 40 67 41 68 42 69 43 70 66 71 67 72 75 73 68 74 74 75
REMARK SMILES IDX 69 76 70 77 71 78 72 79 73 80 52 81 53 82 61 83 54 84 60 85
REMARK SMILES IDX 55 86 56 87 57 88 58 89 59 90
REMARK H PARENT 80 46 50 57
REMARK Flexibility Score: inf
ROOT
ATOM      1  C   UNL A   1      31.742  28.046  25.786  1.00  0.00     0.202 C 
ENDROOT
BRANCH   1   2
ATOM      2  O   UNL A   1      31.841  26.632  25.622  1.00  0.00    -0.374 OA
BRANCH   2   3
ATOM      3  C   UNL A   1      30.663  25.915  25.251  1.00  0.00     0.202 C 
BRANCH   3   4
ATOM      4  C   UNL A   1      30.820  24.418  24.979  1.00  0.00     0.261 C 
BRANCH   4   5
ATOM      5  O   UNL A   1      32.209  24.070  24.883  1.00  0.00    -0.460 OA
BRANCH   5   6
ATOM      6  C   UNL A   1      32.682  23.275  25.870  1.00  0.00     0.342 C 
ATOM      7  O   UNL A   1      32.042  22.848  26.819  1.00  0.00    -0.246 OA
BRANCH   6   8
ATOM      8  C   UNL A   1      34.094  22.878  25.606  1.00  0.00     0.106 A 
ATOM      9  C   UNL A   1      37.727  24.077  25.982  1.00  0.00     0.044 C 
ATOM     10  C   UNL A   1      36.505  23.230  25.738  1.00  0.00    -0.046 A 
ATOM     11  C   UNL A   1      36.694  21.865  25.469  1.00  0.00     0.019 A 
ATOM     12  C   UNL A   1      35.192  23.761  25.785  1.00  0.00    -0.030 A 
ATOM     13  C   UNL A   1      35.606  21.034  25.203  1.00  0.00     0.067 A 
ATOM     14  C   UNL A   1      34.974  25.244  25.971  1.00  0.00     0.046 C 
ATOM     15  C   UNL A   1      35.821  19.613  24.887  1.00  0.00     0.200 A 
ATOM     16  C   UNL A   1      34.309  21.532  25.240  1.00  0.00     0.153 A 
ATOM     17  O   UNL A   1      36.936  19.107  24.915  1.00  0.00    -0.288 OA
ATOM     18  C   UNL A   1      34.637  18.831  24.511  1.00  0.00     0.065 A 
ATOM     19  O   UNL A   1      33.216  20.777  24.871  1.00  0.00    -0.455 OA
ATOM     20  C   UNL A   1      34.747  17.481  24.163  1.00  0.00     0.016 A 
ATOM     21  C   UNL A   1      33.404  19.475  24.484  1.00  0.00     0.138 A 
ATOM     22  C   UNL A   1      33.611  16.780  23.757  1.00  0.00     0.001 A 
ATOM     23  C   UNL A   1      32.274  18.775  24.057  1.00  0.00     0.048 A 
ATOM     24  C   UNL A   1      32.378  17.431  23.691  1.00  0.00     0.004 A 
ENDBRANCH   6   8
ENDBRANCH   5   6
ENDBRANCH   4   5
ENDBRANCH   3   4
ENDBRANCH   2   3
ENDBRANCH   1   2
BRANCH   1  25
ATOM     25  C   UNL A   1      32.324  28.661  27.067  1.00  0.00     0.261 C 
BRANCH  25  26
ATOM     26  O   UNL A   1      33.754  28.793  27.038  1.00  0.00    -0.460 OA
BRANCH  26  27
ATOM     27  C   UNL A   1      34.231  29.964  27.533  1.00  0.00     0.338 C 
ATOM     28  O   UNL A   1      33.605  30.998  27.712  1.00  0.00    -0.246 OA
BRANCH  27  29
ATOM     29  C   UNL A   1      35.606  29.761  28.024  1.00  0.00     0.060 A 
ATOM     30  C   UNL A   1      35.858  29.401  29.348  1.00  0.00     0.016 A 
ATOM     31  C   UNL A   1      36.663  29.909  27.115  1.00  0.00     0.016 A 
ATOM     32  C   UNL A   1      37.175  29.173  29.757  1.00  0.00     0.010 A 
ATOM     33  C   UNL A   1      37.976  29.682  27.527  1.00  0.00     0.010 A 
ATOM     34  C   UNL A   1      38.242  29.298  28.849  1.00  0.00    -0.014 A 
BRANCH  34  35
ATOM     35  C   UNL A   1      39.622  28.928  29.254  1.00  0.00     0.031 A 
ATOM     36  C   UNL A   1      40.210  27.594  28.893  1.00  0.00     0.074 A 
ATOM     37  C   UNL A   1      40.344  29.810  29.973  1.00  0.00     0.049 A 
ATOM     38  N   UNL A   1      41.418  27.146  29.119  1.00  0.00    -0.248 NA
ATOM     39  C   UNL A   1      39.336  26.641  28.194  1.00  0.00     0.031 C 
ATOM     40  C   UNL A   1      39.866  31.126  30.401  1.00  0.00     0.029 A 
ATOM     41  N   UNL A   1      41.627  29.747  30.459  1.00  0.00    -0.354 N 
ATOM     42  C   UNL A   1      41.460  25.869  28.574  1.00  0.00     0.074 A 
ATOM     43  C   UNL A   1      40.139  25.592  28.052  1.00  0.00     0.031 C 
ATOM     44  C   UNL A   1      40.853  31.760  31.051  1.00  0.00     0.029 A 
ATOM     45  C   UNL A   1      42.021  30.885  31.125  1.00  0.00     0.049 A 
ATOM     46  H   UNL A   1      42.210  28.963  30.342  1.00  0.00     0.167 HD
ATOM     47  C   UNL A   1      42.513  25.021  28.499  1.00  0.00     0.031 A 
ATOM     48  C   UNL A   1      43.188  31.197  31.727  1.00  0.00     0.031 A 
ATOM     49  C   UNL A   1      43.820  25.306  29.036  1.00  0.00     0.049 A 
ATOM     50  C   UNL A   1      44.326  30.215  31.673  1.00  0.00     0.074 A 
ATOM     51  C   UNL A   1      44.958  24.520  28.972  1.00  0.00     0.029 A 
ATOM     52  N   UNL A   1      44.168  26.453  29.737  1.00  0.00    -0.354 N 
ATOM     53  N   UNL A   1      44.372  29.046  31.081  1.00  0.00    -0.248 NA
ATOM     54  C   UNL A   1      45.574  30.596  32.351  1.00  0.00     0.031 C 
ATOM     55  C   UNL A   1      45.966  25.148  29.705  1.00  0.00     0.029 A 
ATOM     56  C   UNL A   1      45.492  26.373  30.144  1.00  0.00     0.049 A 
ATOM     57  H   UNL A   1      43.566  27.209  29.918  1.00  0.00     0.167 HD
ATOM     58  C   UNL A   1      45.660  28.563  31.291  1.00  0.00     0.074 A 
ATOM     59  C   UNL A   1      46.366  29.574  32.050  1.00  0.00     0.031 C 
ATOM     60  C   UNL A   1      46.200  27.385  30.892  1.00  0.00     0.031 A 
BRANCH  47  61
ATOM     61  C   UNL A   1      42.329  23.702  27.790  1.00  0.00    -0.014 A 
ATOM     62  C   UNL A   1      41.683  22.635  28.444  1.00  0.00     0.010 A 
ATOM     63  C   UNL A   1      42.941  23.467  26.545  1.00  0.00     0.010 A 
ATOM     64  C   UNL A   1      41.694  21.351  27.892  1.00  0.00     0.020 A 
ATOM     65  C   UNL A   1      42.925  22.191  25.974  1.00  0.00     0.020 A 
ATOM     66  C   UNL A   1      42.327  21.135  26.665  1.00  0.00     0.054 A 
BRANCH  66  67
ATOM     67  S   UNL A   1      42.384  19.451  25.994  1.00  0.00     0.124 S 
ATOM     68  O   UNL A   1      40.975  19.179  25.722  1.00  0.00    -0.237 OA
ATOM     69  O   UNL A   1      43.236  19.607  24.818  1.00  0.00    -0.237 OA
ATOM     70  O   UNL A   1      42.973  18.670  27.080  1.00  0.00    -0.744 OA
ENDBRANCH  66  67
ENDBRANCH  47  61
BRANCH  48  71
ATOM     71  C   UNL A   1      43.334  32.529  32.381  1.00  0.00    -0.014 A 
ATOM     72  C   UNL A   1      42.936  32.715  33.719  1.00  0.00     0.010 A 
ATOM     73  C   UNL A   1      43.789  33.639  31.648  1.00  0.00     0.010 A 
ATOM     74  C   UNL A   1      42.925  33.991  34.289  1.00  0.00     0.020 A 
ATOM     75  C   UNL A   1      43.816  34.912  32.227  1.00  0.00     0.020 A 
ATOM     76  C   UNL A   1      43.352  35.084  33.533  1.00  0.00     0.054 A 
BRANCH  76  77
ATOM     77  S   UNL A   1      43.266  36.738  34.273  1.00  0.00     0.124 S 
ATOM     78  O   UNL A   1      44.393  36.709  35.201  1.00  0.00    -0.237 OA
ATOM     79  O   UNL A   1      43.428  37.612  33.114  1.00  0.00    -0.237 OA
ATOM     80  O   UNL A   1      41.946  36.769  34.894  1.00  0.00    -0.744 OA
ENDBRANCH  76  77
ENDBRANCH  48  71
BRANCH  60  81
ATOM     81  C   UNL A   1      47.638  27.090  31.246  1.00  0.00    -0.014 A 
ATOM     82  C   UNL A   1      48.647  27.289  30.284  1.00  0.00     0.010 A 
ATOM     83  C   UNL A   1      47.968  26.464  32.461  1.00  0.00     0.010 A 
ATOM     84  C   UNL A   1      49.943  26.814  30.503  1.00  0.00     0.020 A 
ATOM     85  C   UNL A   1      49.274  26.020  32.699  1.00  0.00     0.020 A 
ATOM     86  C   UNL A   1      50.244  26.169  31.704  1.00  0.00     0.054 A 
BRANCH  86  87
ATOM     87  S   UNL A   1      51.911  25.493  31.937  1.00  0.00     0.124 S 
ATOM     88  O   UNL A   1      52.590  25.920  30.717  1.00  0.00    -0.237 OA
ATOM     89  O   UNL A   1      52.353  26.148  33.165  1.00  0.00    -0.237 OA
ATOM     90  O   UNL A   1      51.687  24.054  32.054  1.00  0.00    -0.744 OA
ENDBRANCH  86  87
ENDBRANCH  60  81
ENDBRANCH  34  35
ENDBRANCH  27  29
ENDBRANCH  26  27
ENDBRANCH  25  26
ENDBRANCH   1  25
TORSDOF 17
ENDMDL
MODEL 2
REMARK VINA RESULT:     -10.7      3.902      9.804
REMARK SMILES Cc1cc2c(=O)c3ccccc3oc2c(C(=O)OCCOCCOC(=O)c2ccc(-c3c4nc(c(-c5ccc(S(=O)(=O)[O-])cc5)c5ccc([nH]5)c(-c5ccc(S(=O)(=O)[O-])cc5)c5nc(c(-c6ccc(S(=O)(=O)[O-])cc6)c6ccc3[nH]6)C=C5)C=C4)cc2)c1C
REMARK SMILES IDX 22 1 21 2 20 3 19 4 18 5 16 6 17 7 15 8 1 9 2 10 3 11 87 12
REMARK SMILES IDX 4 13 88 14 5 15 14 16 6 17 7 18 13 19 8 20 12 21 9 22 11 23
REMARK SMILES IDX 10 24 23 25 24 26 25 27 26 28 27 29 28 30 86 31 29 32 85 33
REMARK SMILES IDX 30 34 31 35 32 36 79 37 33 38 84 39 78 40 80 41 34 42 83 43
REMARK SMILES IDX 77 44 76 45 35 47 65 48 46 49 64 50 47 51 50 52 63 53 81 54
REMARK SMILES IDX 48 55 49 56 62 58 82 59 51 60 36 61 37 62 45 63 38 64 44 65
REMARK SMILES IDX 39 66 40 67 41 68 42 69 43 70 66 71 67 72 75 73 68 74 74 75
REMARK SMILES IDX 69 76 70 77 71 78 72 79 73 80 52 81 53 82 61 83 54 84 60 85
REMARK SMILES IDX 55 86 56 87 57 88 58 89 59 90
REMARK H PARENT 80 46 50 57
REMARK Flexibility Score: inf
ROOT
ATOM      1  C   UNL A   1      35.166  32.133  28.416  1.00  0.00     0.202 C 
ENDROOT
BRANCH   1   2
ATOM      2  O   UNL A   1      34.378  31.042  27.940  1.00  0.00    -0.374 OA
BRANCH   2   3
ATOM      3  C   UNL A   1      35.054  29.851  27.538  1.00  0.00     0.202 C 
BRANCH   3   4
ATOM      4  C   UNL A   1      34.182  28.663  27.131  1.00  0.00     0.261 C 
BRANCH   4   5
ATOM      5  O   UNL A   1      33.366  29.006  26.001  1.00  0.00    -0.460 OA
BRANCH   5   6
ATOM      6  C   UNL A   1      33.534  28.234  24.902  1.00  0.00     0.342 C 
ATOM      7  O   UNL A   1      34.461  28.301  24.110  1.00  0.00    -0.246 OA
BRANCH   6   8
ATOM      8  C   UNL A   1      32.479  27.184  24.821  1.00  0.00     0.106 A 
ATOM      9  C   UNL A   1      31.586  23.650  26.040  1.00  0.00     0.044 C 
ATOM     10  C   UNL A   1      31.516  25.027  25.435  1.00  0.00    -0.046 A 
ATOM     11  C   UNL A   1      30.273  25.474  24.958  1.00  0.00     0.019 A 
ATOM     12  C   UNL A   1      32.647  25.876  25.348  1.00  0.00    -0.030 A 
ATOM     13  C   UNL A   1      30.150  26.727  24.358  1.00  0.00     0.067 A 
ATOM     14  C   UNL A   1      34.012  25.375  25.761  1.00  0.00     0.046 C 
ATOM     15  C   UNL A   1      28.849  27.168  23.829  1.00  0.00     0.200 A 
ATOM     16  C   UNL A   1      31.246  27.576  24.258  1.00  0.00     0.153 A 
ATOM     17  O   UNL A   1      27.837  26.491  23.959  1.00  0.00    -0.288 OA
ATOM     18  C   UNL A   1      28.824  28.451  23.115  1.00  0.00     0.065 A 
ATOM     19  O   UNL A   1      31.195  28.770  23.571  1.00  0.00    -0.455 OA
ATOM     20  C   UNL A   1      27.640  28.937  22.550  1.00  0.00     0.016 A 
ATOM     21  C   UNL A   1      30.015  29.158  22.992  1.00  0.00     0.138 A 
ATOM     22  C   UNL A   1      27.661  30.132  21.831  1.00  0.00     0.001 A 
ATOM     23  C   UNL A   1      30.035  30.343  22.253  1.00  0.00     0.048 A 
ATOM     24  C   UNL A   1      28.861  30.827  21.670  1.00  0.00     0.004 A 
ENDBRANCH   6   8
ENDBRANCH   5   6
ENDBRANCH   4   5
ENDBRANCH   3   4
ENDBRANCH   2   3
ENDBRANCH   1   2
BRANCH   1  25
ATOM     25  C   UNL A   1      35.328  32.292  29.934  1.00  0.00     0.261 C 
BRANCH  25  26
ATOM     26  O   UNL A   1      36.628  31.914  30.412  1.00  0.00    -0.460 OA
BRANCH  26  27
ATOM     27  C   UNL A   1      36.758  30.605  30.745  1.00  0.00     0.338 C 
ATOM     28  O   UNL A   1      35.920  29.894  31.279  1.00  0.00    -0.246 OA
BRANCH  27  29
ATOM     29  C   UNL A   1      38.016  30.081  30.183  1.00  0.00     0.060 A 
ATOM     30  C   UNL A   1      38.233  30.038  28.805  1.00  0.00     0.016 A 
ATOM     31  C   UNL A   1      39.011  29.653  31.072  1.00  0.00     0.016 A 
ATOM     32  C   UNL A   1      39.461  29.578  28.320  1.00  0.00     0.010 A 
ATOM     33  C   UNL A   1      40.234  29.193  30.584  1.00  0.00     0.010 A 
ATOM     34  C   UNL A   1      40.475  29.164  29.204  1.00  0.00    -0.014 A 
BRANCH  34  35
ATOM     35  C   UNL A   1      41.820  28.802  28.689  1.00  0.00     0.031 A 
ATOM     36  C   UNL A   1      42.929  29.812  28.623  1.00  0.00     0.074 A 
ATOM     37  C   UNL A   1      42.030  27.542  28.260  1.00  0.00     0.049 A 
ATOM     38  N   UNL A   1      44.172  29.637  28.257  1.00  0.00    -0.248 NA
ATOM     39  C   UNL A   1      42.605  31.192  29.014  1.00  0.00     0.031 C 
ATOM     40  C   UNL A   1      41.019  26.483  28.253  1.00  0.00     0.029 A 
ATOM     41  N   UNL A   1      43.154  26.930  27.761  1.00  0.00    -0.354 N 
ATOM     42  C   UNL A   1      44.788  30.874  28.392  1.00  0.00     0.074 A 
ATOM     43  C   UNL A   1      43.768  31.806  28.823  1.00  0.00     0.031 C 
ATOM     44  C   UNL A   1      41.577  25.346  27.813  1.00  0.00     0.029 A 
ATOM     45  C   UNL A   1      42.974  25.599  27.463  1.00  0.00     0.049 A 
ATOM     46  H   UNL A   1      44.009  27.401  27.629  1.00  0.00     0.167 HD
ATOM     47  C   UNL A   1      46.090  31.192  28.195  1.00  0.00     0.031 A 
ATOM     48  C   UNL A   1      43.829  24.680  26.969  1.00  0.00     0.031 A 
ATOM     49  C   UNL A   1      47.092  30.255  27.752  1.00  0.00     0.049 A 
ATOM     50  C   UNL A   1      45.257  25.073  26.711  1.00  0.00     0.074 A 
ATOM     51  C   UNL A   1      48.445  30.481  27.562  1.00  0.00     0.029 A 
ATOM     52  N   UNL A   1      46.861  28.926  27.424  1.00  0.00    -0.354 N 
ATOM     53  N   UNL A   1      45.841  26.228  26.923  1.00  0.00    -0.248 NA
ATOM     54  C   UNL A   1      46.149  24.040  26.164  1.00  0.00     0.031 C 
ATOM     55  C   UNL A   1      49.014  29.319  27.040  1.00  0.00     0.029 A 
ATOM     56  C   UNL A   1      48.040  28.335  26.996  1.00  0.00     0.049 A 
ATOM     57  H   UNL A   1      45.991  28.472  27.487  1.00  0.00     0.167 HD
ATOM     58  C   UNL A   1      47.173  26.054  26.560  1.00  0.00     0.074 A 
ATOM     59  C   UNL A   1      47.313  24.678  26.132  1.00  0.00     0.031 C 
ATOM     60  C   UNL A   1      48.182  26.959  26.579  1.00  0.00     0.031 A 
BRANCH  47  61
ATOM     61  C   UNL A   1      46.539  32.604  28.476  1.00  0.00    -0.014 A 
ATOM     62  C   UNL A   1      46.525  33.566  27.447  1.00  0.00     0.010 A 
ATOM     63  C   UNL A   1      47.130  32.936  29.709  1.00  0.00     0.010 A 
ATOM     64  C   UNL A   1      47.135  34.811  27.627  1.00  0.00     0.020 A 
ATOM     65  C   UNL A   1      47.711  34.193  29.905  1.00  0.00     0.020 A 
ATOM     66  C   UNL A   1      47.736  35.111  28.853  1.00  0.00     0.054 A 
BRANCH  66  67
ATOM     67  S   UNL A   1      48.574  36.707  29.048  1.00  0.00     0.124 S 
ATOM     68  O   UNL A   1      47.881  37.282  30.197  1.00  0.00    -0.237 OA
ATOM     69  O   UNL A   1      49.961  36.310  29.280  1.00  0.00    -0.237 OA
ATOM     70  O   UNL A   1      48.333  37.379  27.773  1.00  0.00    -0.744 OA
ENDBRANCH  66  67
ENDBRANCH  47  61
BRANCH  48  71
ATOM     71  C   UNL A   1      43.347  23.287  26.745  1.00  0.00    -0.014 A 
ATOM     72  C   UNL A   1      42.893  22.505  27.824  1.00  0.00     0.010 A 
ATOM     73  C   UNL A   1      43.422  22.703  25.467  1.00  0.00     0.010 A 
ATOM     74  C   UNL A   1      42.587  21.153  27.646  1.00  0.00     0.020 A 
ATOM     75  C   UNL A   1      43.080  21.360  25.278  1.00  0.00     0.020 A 
ATOM     76  C   UNL A   1      42.697  20.586  26.375  1.00  0.00     0.054 A 
BRANCH  76  77
ATOM     77  S   UNL A   1      42.359  18.814  26.183  1.00  0.00     0.124 S 
ATOM     78  O   UNL A   1      40.952  18.820  25.789  1.00  0.00    -0.237 OA
ATOM     79  O   UNL A   1      43.302  18.423  25.140  1.00  0.00    -0.237 OA
ATOM     80  O   UNL A   1      42.635  18.266  27.507  1.00  0.00    -0.744 OA
ENDBRANCH  76  77
ENDBRANCH  48  71
BRANCH  60  81
ATOM     81  C   UNL A   1      49.557  26.520  26.134  1.00  0.00    -0.014 A 
ATOM     82  C   UNL A   1      50.437  25.937  27.066  1.00  0.00     0.010 A 
ATOM     83  C   UNL A   1      50.035  26.836  24.850  1.00  0.00     0.010 A 
ATOM     84  C   UNL A   1      51.782  25.732  26.744  1.00  0.00     0.020 A 
ATOM     85  C   UNL A   1      51.372  26.598  24.512  1.00  0.00     0.020 A 
ATOM     86  C   UNL A   1      52.244  26.079  25.473  1.00  0.00     0.054 A 
BRANCH  86  87
ATOM     87  S   UNL A   1      54.008  25.876  25.101  1.00  0.00     0.124 S 
ATOM     88  O   UNL A   1      54.181  26.748  23.943  1.00  0.00    -0.237 OA
ATOM     89  O   UNL A   1      54.648  26.330  26.333  1.00  0.00    -0.237 OA
ATOM     90  O   UNL A   1      54.141  24.446  24.831  1.00  0.00    -0.744 OA
ENDBRANCH  86  87
ENDBRANCH  60  81
ENDBRANCH  34  35
ENDBRANCH  27  29
ENDBRANCH  26  27
ENDBRANCH  25  26
ENDBRANCH   1  25
TORSDOF 17
ENDMDL
MODEL 3
REMARK VINA RESULT:     -10.6      3.544      4.969
REMARK SMILES Cc1cc2c(=O)c3ccccc3oc2c(C(=O)OCCOCCOC(=O)c2ccc(-c3c4nc(c(-c5ccc(S(=O)(=O)[O-])cc5)c5ccc([nH]5)c(-c5ccc(S(=O)(=O)[O-])cc5)c5nc(c(-c6ccc(S(=O)(=O)[O-])cc6)c6ccc3[nH]6)C=C5)C=C4)cc2)c1C
REMARK SMILES IDX 22 1 21 2 20 3 19 4 18 5 16 6 17 7 15 8 1 9 2 10 3 11 87 12
REMARK SMILES IDX 4 13 88 14 5 15 14 16 6 17 7 18 13 19 8 20 12 21 9 22 11 23
REMARK SMILES IDX 10 24 23 25 24 26 25 27 26 28 27 29 28 30 86 31 29 32 85 33
REMARK SMILES IDX 30 34 31 35 32 36 79 37 33 38 84 39 78 40 80 41 34 42 83 43
REMARK SMILES IDX 77 44 76 45 35 47 65 48 46 49 64 50 47 51 50 52 63 53 81 54
REMARK SMILES IDX 48 55 49 56 62 58 82 59 51 60 36 61 37 62 45 63 38 64 44 65
REMARK SMILES IDX 39 66 40 67 41 68 42 69 43 70 66 71 67 72 75 73 68 74 74 75
REMARK SMILES IDX 69 76 70 77 71 78 72 79 73 80 52 81 53 82 61 83 54 84 60 85
REMARK SMILES IDX 55 86 56 87 57 88 58 89 59 90
REMARK H PARENT 80 46 50 57
REMARK Flexibility Score: inf
ROOT
ATOM      1  C   UNL A   1      34.781  31.498  27.989  1.00  0.00     0.202 C 
ENDROOT
BRANCH   1   2
ATOM      2  O   UNL A   1      33.458  31.140  27.591  1.00  0.00    -0.374 OA
BRANCH   2   3
ATOM      3  C   UNL A   1      33.174  29.758  27.374  1.00  0.00     0.202 C 
BRANCH   3   4
ATOM      4  C   UNL A   1      33.678  29.144  26.067  1.00  0.00     0.261 C 
BRANCH   4   5
ATOM      5  O   UNL A   1      34.016  27.762  26.262  1.00  0.00    -0.460 OA
BRANCH   5   6
ATOM      6  C   UNL A   1      33.695  26.933  25.243  1.00  0.00     0.342 C 
ATOM      7  O   UNL A   1      33.939  27.117  24.060  1.00  0.00    -0.246 OA
BRANCH   6   8
ATOM      8  C   UNL A   1      33.083  25.673  25.752  1.00  0.00     0.106 A 
ATOM      9  C   UNL A   1      29.716  24.076  26.696  1.00  0.00     0.044 C 
ATOM     10  C   UNL A   1      31.170  24.286  26.366  1.00  0.00    -0.046 A 
ATOM     11  C   UNL A   1      31.998  23.154  26.289  1.00  0.00     0.019 A 
ATOM     12  C   UNL A   1      31.714  25.571  26.119  1.00  0.00    -0.030 A 
ATOM     13  C   UNL A   1      33.360  23.286  26.019  1.00  0.00     0.067 A 
ATOM     14  C   UNL A   1      30.864  26.808  26.298  1.00  0.00     0.046 C 
ATOM     15  C   UNL A   1      34.223  22.094  25.978  1.00  0.00     0.200 A 
ATOM     16  C   UNL A   1      33.917  24.535  25.778  1.00  0.00     0.153 A 
ATOM     17  O   UNL A   1      33.769  20.964  26.109  1.00  0.00    -0.288 OA
ATOM     18  C   UNL A   1      35.661  22.323  25.797  1.00  0.00     0.065 A 
ATOM     19  O   UNL A   1      35.275  24.722  25.623  1.00  0.00    -0.455 OA
ATOM     20  C   UNL A   1      36.564  21.255  25.777  1.00  0.00     0.016 A 
ATOM     21  C   UNL A   1      36.108  23.634  25.672  1.00  0.00     0.138 A 
ATOM     22  C   UNL A   1      37.930  21.510  25.659  1.00  0.00     0.001 A 
ATOM     23  C   UNL A   1      37.478  23.887  25.575  1.00  0.00     0.048 A 
ATOM     24  C   UNL A   1      38.388  22.826  25.572  1.00  0.00     0.004 A 
ENDBRANCH   6   8
ENDBRANCH   5   6
ENDBRANCH   4   5
ENDBRANCH   3   4
ENDBRANCH   2   3
ENDBRANCH   1   2
BRANCH   1  25
ATOM     25  C   UNL A   1      35.000  31.925  29.447  1.00  0.00     0.261 C 
BRANCH  25  26
ATOM     26  O   UNL A   1      36.380  31.907  29.846  1.00  0.00    -0.460 OA
BRANCH  26  27
ATOM     27  C   UNL A   1      36.781  30.770  30.469  1.00  0.00     0.338 C 
ATOM     28  O   UNL A   1      36.093  30.015  31.140  1.00  0.00    -0.246 OA
BRANCH  27  29
ATOM     29  C   UNL A   1      38.160  30.448  30.058  1.00  0.00     0.060 A 
ATOM     30  C   UNL A   1      39.188  30.330  30.994  1.00  0.00     0.016 A 
ATOM     31  C   UNL A   1      38.411  30.229  28.696  1.00  0.00     0.016 A 
ATOM     32  C   UNL A   1      40.470  29.977  30.563  1.00  0.00     0.010 A 
ATOM     33  C   UNL A   1      39.691  29.877  28.269  1.00  0.00     0.010 A 
ATOM     34  C   UNL A   1      40.729  29.735  29.200  1.00  0.00    -0.014 A 
BRANCH  34  35
ATOM     35  C   UNL A   1      42.057  29.232  28.765  1.00  0.00     0.031 A 
ATOM     36  C   UNL A   1      42.263  27.793  28.391  1.00  0.00     0.074 A 
ATOM     37  C   UNL A   1      43.093  30.094  28.726  1.00  0.00     0.049 A 
ATOM     38  N   UNL A   1      43.344  27.215  27.934  1.00  0.00    -0.248 NA
ATOM     39  C   UNL A   1      41.116  26.886  28.550  1.00  0.00     0.031 C 
ATOM     40  C   UNL A   1      43.016  31.509  29.092  1.00  0.00     0.029 A 
ATOM     41  N   UNL A   1      44.404  29.918  28.353  1.00  0.00    -0.354 N 
ATOM     42  C   UNL A   1      43.006  25.883  27.731  1.00  0.00     0.074 A 
ATOM     43  C   UNL A   1      41.635  25.726  28.164  1.00  0.00     0.031 C 
ATOM     44  C   UNL A   1      44.212  32.080  28.888  1.00  0.00     0.029 A 
ATOM     45  C   UNL A   1      45.155  31.068  28.419  1.00  0.00     0.049 A 
ATOM     46  H   UNL A   1      44.770  29.050  28.066  1.00  0.00     0.167 HD
ATOM     47  C   UNL A   1      43.769  24.892  27.208  1.00  0.00     0.031 A 
ATOM     48  C   UNL A   1      46.455  31.292  28.132  1.00  0.00     0.031 A 
ATOM     49  C   UNL A   1      45.139  25.062  26.793  1.00  0.00     0.049 A 
ATOM     50  C   UNL A   1      47.293  30.162  27.602  1.00  0.00     0.074 A 
ATOM     51  C   UNL A   1      45.977  24.122  26.217  1.00  0.00     0.029 A 
ATOM     52  N   UNL A   1      45.877  26.232  26.911  1.00  0.00    -0.354 N 
ATOM     53  N   UNL A   1      46.934  28.929  27.337  1.00  0.00    -0.248 NA
ATOM     54  C   UNL A   1      48.705  30.451  27.313  1.00  0.00     0.031 C 
ATOM     55  C   UNL A   1      47.241  24.695  26.066  1.00  0.00     0.029 A 
ATOM     56  C   UNL A   1      47.169  26.023  26.456  1.00  0.00     0.049 A 
ATOM     57  H   UNL A   1      45.533  27.082  27.266  1.00  0.00     0.167 HD
ATOM     58  C   UNL A   1      48.067  28.302  26.828  1.00  0.00     0.074 A 
ATOM     59  C   UNL A   1      49.119  29.297  26.804  1.00  0.00     0.031 C 
ATOM     60  C   UNL A   1      48.216  27.018  26.422  1.00  0.00     0.031 A 
BRANCH  47  61
ATOM     61  C   UNL A   1      43.152  23.529  27.019  1.00  0.00    -0.014 A 
ATOM     62  C   UNL A   1      43.214  22.578  28.056  1.00  0.00     0.010 A 
ATOM     63  C   UNL A   1      42.661  23.134  25.761  1.00  0.00     0.010 A 
ATOM     64  C   UNL A   1      42.843  21.250  27.826  1.00  0.00     0.020 A 
ATOM     65  C   UNL A   1      42.258  21.813  25.537  1.00  0.00     0.020 A 
ATOM     66  C   UNL A   1      42.380  20.874  26.563  1.00  0.00     0.054 A 
BRANCH  66  67
ATOM     67  S   UNL A   1      41.962  19.134  26.267  1.00  0.00     0.124 S 
ATOM     68  O   UNL A   1      42.175  18.536  27.581  1.00  0.00    -0.237 OA
ATOM     69  O   UNL A   1      40.571  19.212  25.826  1.00  0.00    -0.237 OA
ATOM     70  O   UNL A   1      42.911  18.725  25.233  1.00  0.00    -0.744 OA
ENDBRANCH  66  67
ENDBRANCH  47  61
BRANCH  48  71
ATOM     71  C   UNL A   1      47.009  32.666  28.299  1.00  0.00    -0.014 A 
ATOM     72  C   UNL A   1      47.091  33.542  27.200  1.00  0.00     0.010 A 
ATOM     73  C   UNL A   1      47.538  33.078  29.536  1.00  0.00     0.010 A 
ATOM     74  C   UNL A   1      47.748  34.770  27.314  1.00  0.00     0.020 A 
ATOM     75  C   UNL A   1      48.163  34.322  29.664  1.00  0.00     0.020 A 
ATOM     76  C   UNL A   1      48.293  35.145  28.543  1.00  0.00     0.054 A 
BRANCH  76  77
ATOM     77  S   UNL A   1      49.199  36.714  28.649  1.00  0.00     0.124 S 
ATOM     78  O   UNL A   1      50.586  36.261  28.607  1.00  0.00    -0.237 OA
ATOM     79  O   UNL A   1      48.733  37.428  27.463  1.00  0.00    -0.237 OA
ATOM     80  O   UNL A   1      48.763  37.277  29.924  1.00  0.00    -0.744 OA
ENDBRANCH  76  77
ENDBRANCH  48  71
BRANCH  60  81
ATOM     81  C   UNL A   1      49.561  26.574  25.899  1.00  0.00    -0.014 A 
ATOM     82  C   UNL A   1      50.490  25.983  26.777  1.00  0.00     0.010 A 
ATOM     83  C   UNL A   1      49.968  26.893  24.591  1.00  0.00     0.010 A 
ATOM     84  C   UNL A   1      51.813  25.773  26.379  1.00  0.00     0.020 A 
ATOM     85  C   UNL A   1      51.283  26.651  24.177  1.00  0.00     0.020 A 
ATOM     86  C   UNL A   1      52.205  26.123  25.086  1.00  0.00     0.054 A 
BRANCH  86  87
ATOM     87  S   UNL A   1      53.944  25.914  24.615  1.00  0.00     0.124 S 
ATOM     88  O   UNL A   1      53.923  26.261  23.197  1.00  0.00    -0.237 OA
ATOM     89  O   UNL A   1      54.627  26.866  25.486  1.00  0.00    -0.237 OA
ATOM     90  O   UNL A   1      54.214  24.508  24.909  1.00  0.00    -0.744 OA
ENDBRANCH  86  87
ENDBRANCH  60  81
ENDBRANCH  34  35
ENDBRANCH  27  29
ENDBRANCH  26  27
ENDBRANCH  25  26
ENDBRANCH   1  25
TORSDOF 17
ENDMDL
