MODEL 1
REMARK VINA RESULT:     -10.1      0.000      0.000
REMARK SMILES Cc1cc(C)cc(CSc2cc(C(=O)OCCOCCOC(=O)c3ccc(-c4c5nc(c(-c6ccc(S(=O)(=O)[O-])cc6)c6ccc([nH]6)c(-c6ccc(S(=O)(=O)[O-])cc6)c6nc(c(-c7ccc(S(=O)(=O)[O-])cc7)c7ccc4[nH]7)C=C6)C=C5)cc3)cc(Cl)n2)c1
REMARK SMILES IDX 18 1 17 2 16 3 15 4 13 5 14 6 12 7 10 8 11 9 87 10 85 11
REMARK SMILES IDX 84 12 86 13 9 14 8 15 7 16 1 17 2 18 3 19 88 20 4 21 5 22
REMARK SMILES IDX 6 23 19 24 20 25 21 26 22 27 23 28 24 29 25 30 83 31 26 32
REMARK SMILES IDX 82 33 27 34 28 35 29 36 76 37 30 38 81 39 75 40 77 41 31 42
REMARK SMILES IDX 80 43 74 44 73 45 32 47 62 48 43 49 61 50 44 51 47 52 60 53
REMARK SMILES IDX 78 54 45 55 46 56 59 58 79 59 48 60 33 61 34 62 42 63 35 64
REMARK SMILES IDX 41 65 36 66 37 67 38 68 39 69 40 70 63 71 64 72 72 73 65 74
REMARK SMILES IDX 71 75 66 76 67 77 68 78 69 79 70 80 49 81 50 82 58 83 51 84
REMARK SMILES IDX 57 85 52 86 53 87 54 88 55 89 56 90
REMARK H PARENT 77 46 47 57
REMARK Flexibility Score: inf
ROOT
ATOM      1  O   UNL A   1      39.127  21.753  25.746  1.00  0.00    -0.374 OA
ENDROOT
BRANCH   1   2
ATOM      2  C   UNL A   1      37.761  22.119  25.943  1.00  0.00     0.202 C 
BRANCH   2   3
ATOM      3  C   UNL A   1      37.122  23.022  24.883  1.00  0.00     0.261 C 
BRANCH   3   4
ATOM      4  O   UNL A   1      35.747  22.677  24.649  1.00  0.00    -0.460 OA
BRANCH   4   5
ATOM      5  C   UNL A   1      35.098  23.466  23.762  1.00  0.00     0.338 C 
ATOM      6  O   UNL A   1      35.223  23.479  22.547  1.00  0.00    -0.246 OA
BRANCH   5   7
ATOM      7  C   UNL A   1      34.023  24.203  24.451  1.00  0.00     0.065 A 
ATOM      8  C   UNL A   1      32.931  26.290  24.814  1.00  0.00     0.099 A 
ATOM      9  C   UNL A   1      33.964  25.581  24.234  1.00  0.00     0.051 A 
ATOM     10  N   UNL A   1      31.985  25.708  25.575  1.00  0.00    -0.230 NA
ATOM     11  C   UNL A   1      32.086  24.380  25.781  1.00  0.00     0.131 A 
ATOM     12  C   UNL A   1      33.066  23.574  25.241  1.00  0.00     0.056 A 
ATOM     13  Cl  UNL A   1      30.872  23.728  26.802  1.00  0.00    -0.062 Cl
BRANCH   8  14
ATOM     14  S   UNL A   1      32.791  28.037  24.527  1.00  0.00    -0.102 SA
BRANCH  14  15
ATOM     15  C   UNL A   1      32.411  28.577  26.226  1.00  0.00     0.112 C 
BRANCH  15  16
ATOM     16  C   UNL A   1      33.462  29.468  26.840  1.00  0.00    -0.037 A 
ATOM     17  C   UNL A   1      33.780  33.032  28.167  1.00  0.00     0.044 C 
ATOM     18  C   UNL A   1      34.114  31.624  27.774  1.00  0.00    -0.051 A 
ATOM     19  C   UNL A   1      35.423  31.151  27.924  1.00  0.00     0.006 A 
ATOM     20  C   UNL A   1      33.140  30.777  27.230  1.00  0.00     0.008 A 
ATOM     21  C   UNL A   1      35.764  29.846  27.549  1.00  0.00    -0.051 A 
ATOM     22  C   UNL A   1      37.180  29.372  27.679  1.00  0.00     0.044 C 
ATOM     23  C   UNL A   1      34.775  29.009  27.023  1.00  0.00     0.008 A 
ENDBRANCH  15  16
ENDBRANCH  14  15
ENDBRANCH   8  14
ENDBRANCH   5   7
ENDBRANCH   4   5
ENDBRANCH   3   4
ENDBRANCH   2   3
ENDBRANCH   1   2
BRANCH   1  24
ATOM     24  C   UNL A   1      40.057  22.070  26.781  1.00  0.00     0.202 C 
BRANCH  24  25
ATOM     25  C   UNL A   1      40.765  23.431  26.724  1.00  0.00     0.261 C 
BRANCH  25  26
ATOM     26  O   UNL A   1      39.913  24.520  27.114  1.00  0.00    -0.460 OA
BRANCH  26  27
ATOM     27  C   UNL A   1      40.458  25.744  26.908  1.00  0.00     0.338 C 
ATOM     28  O   UNL A   1      41.068  26.118  25.920  1.00  0.00    -0.246 OA
BRANCH  27  29
ATOM     29  C   UNL A   1      40.063  26.673  27.983  1.00  0.00     0.060 A 
ATOM     30  C   UNL A   1      40.674  27.933  27.990  1.00  0.00     0.016 A 
ATOM     31  C   UNL A   1      39.204  26.293  29.016  1.00  0.00     0.016 A 
ATOM     32  C   UNL A   1      40.498  28.785  29.075  1.00  0.00     0.010 A 
ATOM     33  C   UNL A   1      39.027  27.154  30.106  1.00  0.00     0.010 A 
ATOM     34  C   UNL A   1      39.719  28.378  30.165  1.00  0.00    -0.014 A 
BRANCH  34  35
ATOM     35  C   UNL A   1      39.789  29.162  31.424  1.00  0.00     0.031 A 
ATOM     36  C   UNL A   1      40.927  28.905  32.381  1.00  0.00     0.074 A 
ATOM     37  C   UNL A   1      38.902  30.139  31.677  1.00  0.00     0.049 A 
ATOM     38  N   UNL A   1      41.215  29.510  33.505  1.00  0.00    -0.248 NA
ATOM     39  C   UNL A   1      41.862  27.827  32.022  1.00  0.00     0.031 C 
ATOM     40  C   UNL A   1      37.782  30.509  30.812  1.00  0.00     0.029 A 
ATOM     41  N   UNL A   1      38.812  31.011  32.733  1.00  0.00    -0.354 N 
ATOM     42  C   UNL A   1      42.356  28.879  33.991  1.00  0.00     0.074 A 
ATOM     43  C   UNL A   1      42.685  27.823  33.060  1.00  0.00     0.031 C 
ATOM     44  C   UNL A   1      37.121  31.537  31.369  1.00  0.00     0.029 A 
ATOM     45  C   UNL A   1      37.753  31.880  32.642  1.00  0.00     0.049 A 
ATOM     46  H   UNL A   1      39.447  31.012  33.485  1.00  0.00     0.167 HD
ATOM     47  C   UNL A   1      43.074  29.162  35.105  1.00  0.00     0.031 A 
ATOM     48  C   UNL A   1      37.334  32.840  33.491  1.00  0.00     0.031 A 
ATOM     49  C   UNL A   1      42.740  30.209  36.033  1.00  0.00     0.049 A 
ATOM     50  C   UNL A   1      38.118  33.101  34.751  1.00  0.00     0.074 A 
ATOM     51  C   UNL A   1      43.414  30.588  37.182  1.00  0.00     0.029 A 
ATOM     52  N   UNL A   1      41.637  31.043  35.926  1.00  0.00    -0.354 N 
ATOM     53  N   UNL A   1      39.211  32.516  35.180  1.00  0.00    -0.248 NA
ATOM     54  C   UNL A   1      37.621  34.168  35.629  1.00  0.00     0.031 C 
ATOM     55  C   UNL A   1      42.683  31.608  37.801  1.00  0.00     0.029 A 
ATOM     56  C   UNL A   1      41.595  31.916  37.000  1.00  0.00     0.049 A 
ATOM     57  H   UNL A   1      40.980  31.017  35.193  1.00  0.00     0.167 HD
ATOM     58  C   UNL A   1      39.550  33.166  36.364  1.00  0.00     0.074 A 
ATOM     59  C   UNL A   1      38.555  34.199  36.570  1.00  0.00     0.031 C 
ATOM     60  C   UNL A   1      40.594  32.934  37.199  1.00  0.00     0.031 A 
BRANCH  47  61
ATOM     61  C   UNL A   1      44.273  28.296  35.399  1.00  0.00    -0.014 A 
ATOM     62  C   UNL A   1      45.522  28.542  34.798  1.00  0.00     0.010 A 
ATOM     63  C   UNL A   1      44.154  27.235  36.316  1.00  0.00     0.010 A 
ATOM     64  C   UNL A   1      46.616  27.718  35.077  1.00  0.00     0.020 A 
ATOM     65  C   UNL A   1      45.254  26.429  36.621  1.00  0.00     0.020 A 
ATOM     66  C   UNL A   1      46.475  26.665  35.985  1.00  0.00     0.054 A 
BRANCH  66  67
ATOM     67  S   UNL A   1      47.916  25.623  36.341  1.00  0.00     0.124 S 
ATOM     68  O   UNL A   1      47.674  24.469  35.479  1.00  0.00    -0.237 OA
ATOM     69  O   UNL A   1      49.033  26.477  35.947  1.00  0.00    -0.237 OA
ATOM     70  O   UNL A   1      47.810  25.361  37.774  1.00  0.00    -0.744 OA
ENDBRANCH  66  67
ENDBRANCH  47  61
BRANCH  48  71
ATOM     71  C   UNL A   1      36.108  33.624  33.177  1.00  0.00    -0.014 A 
ATOM     72  C   UNL A   1      36.197  34.930  32.666  1.00  0.00     0.010 A 
ATOM     73  C   UNL A   1      34.836  33.057  33.385  1.00  0.00     0.010 A 
ATOM     74  C   UNL A   1      35.037  35.661  32.385  1.00  0.00     0.020 A 
ATOM     75  C   UNL A   1      33.677  33.773  33.077  1.00  0.00     0.020 A 
ATOM     76  C   UNL A   1      33.785  35.075  32.587  1.00  0.00     0.054 A 
BRANCH  76  77
ATOM     77  S   UNL A   1      32.297  36.020  32.161  1.00  0.00     0.124 S 
ATOM     78  O   UNL A   1      31.230  35.119  32.587  1.00  0.00    -0.237 OA
ATOM     79  O   UNL A   1      32.457  37.234  32.958  1.00  0.00    -0.237 OA
ATOM     80  O   UNL A   1      32.416  36.213  30.718  1.00  0.00    -0.744 OA
ENDBRANCH  76  77
ENDBRANCH  48  71
BRANCH  60  81
ATOM     81  C   UNL A   1      40.740  33.843  38.394  1.00  0.00    -0.014 A 
ATOM     82  C   UNL A   1      40.176  33.518  39.641  1.00  0.00     0.010 A 
ATOM     83  C   UNL A   1      41.478  35.034  38.268  1.00  0.00     0.010 A 
ATOM     84  C   UNL A   1      40.303  34.393  40.724  1.00  0.00     0.020 A 
ATOM     85  C   UNL A   1      41.638  35.894  39.358  1.00  0.00     0.020 A 
ATOM     86  C   UNL A   1      41.029  35.579  40.573  1.00  0.00     0.054 A 
BRANCH  86  87
ATOM     87  S   UNL A   1      41.187  36.694  41.995  1.00  0.00     0.124 S 
ATOM     88  O   UNL A   1      41.929  37.813  41.422  1.00  0.00    -0.237 OA
ATOM     89  O   UNL A   1      39.795  36.973  42.340  1.00  0.00    -0.237 OA
ATOM     90  O   UNL A   1      41.918  35.899  42.979  1.00  0.00    -0.744 OA
ENDBRANCH  86  87
ENDBRANCH  60  81
ENDBRANCH  34  35
ENDBRANCH  27  29
ENDBRANCH  26  27
ENDBRANCH  25  26
ENDBRANCH  24  25
ENDBRANCH   1  24
TORSDOF 20
ENDMDL
MODEL 2
REMARK VINA RESULT:      -9.6      1.036      8.205
REMARK SMILES Cc1cc(C)cc(CSc2cc(C(=O)OCCOCCOC(=O)c3ccc(-c4c5nc(c(-c6ccc(S(=O)(=O)[O-])cc6)c6ccc([nH]6)c(-c6ccc(S(=O)(=O)[O-])cc6)c6nc(c(-c7ccc(S(=O)(=O)[O-])cc7)c7ccc4[nH]7)C=C6)C=C5)cc3)cc(Cl)n2)c1
REMARK SMILES IDX 18 1 17 2 16 3 15 4 13 5 14 6 12 7 10 8 11 9 87 10 85 11
REMARK SMILES IDX 84 12 86 13 9 14 8 15 7 16 1 17 2 18 3 19 88 20 4 21 5 22
REMARK SMILES IDX 6 23 19 24 20 25 21 26 22 27 23 28 24 29 25 30 83 31 26 32
REMARK SMILES IDX 82 33 27 34 28 35 29 36 76 37 30 38 81 39 75 40 77 41 31 42
REMARK SMILES IDX 80 43 74 44 73 45 32 47 62 48 43 49 61 50 44 51 47 52 60 53
REMARK SMILES IDX 78 54 45 55 46 56 59 58 79 59 48 60 33 61 34 62 42 63 35 64
REMARK SMILES IDX 41 65 36 66 37 67 38 68 39 69 40 70 63 71 64 72 72 73 65 74
REMARK SMILES IDX 71 75 66 76 67 77 68 78 69 79 70 80 49 81 50 82 58 83 51 84
REMARK SMILES IDX 57 85 52 86 53 87 54 88 55 89 56 90
REMARK H PARENT 77 46 47 57
REMARK Flexibility Score: inf
ROOT
ATOM      1  O   UNL A   1      38.592  21.946  25.382  1.00  0.00    -0.374 OA
ENDROOT
BRANCH   1   2
ATOM      2  C   UNL A   1      37.390  21.816  24.621  1.00  0.00     0.202 C 
BRANCH   2   3
ATOM      3  C   UNL A   1      36.411  20.717  25.049  1.00  0.00     0.261 C 
BRANCH   3   4
ATOM      4  O   UNL A   1      35.356  21.237  25.875  1.00  0.00    -0.460 OA
BRANCH   4   5
ATOM      5  C   UNL A   1      34.103  20.935  25.466  1.00  0.00     0.338 C 
ATOM      6  O   UNL A   1      33.669  19.841  25.142  1.00  0.00    -0.246 OA
BRANCH   5   7
ATOM      7  C   UNL A   1      33.225  22.104  25.660  1.00  0.00     0.065 A 
ATOM      8  C   UNL A   1      32.871  24.433  25.298  1.00  0.00     0.099 A 
ATOM      9  C   UNL A   1      33.695  23.331  25.187  1.00  0.00     0.051 A 
ATOM     10  N   UNL A   1      31.640  24.370  25.839  1.00  0.00    -0.230 NA
ATOM     11  C   UNL A   1      31.228  23.175  26.305  1.00  0.00     0.131 A 
ATOM     12  C   UNL A   1      31.962  22.010  26.234  1.00  0.00     0.056 A 
ATOM     13  Cl  UNL A   1      29.671  23.194  27.024  1.00  0.00    -0.062 Cl
BRANCH   8  14
ATOM     14  S   UNL A   1      33.410  26.004  24.667  1.00  0.00    -0.102 SA
BRANCH  14  15
ATOM     15  C   UNL A   1      32.076  27.052  25.333  1.00  0.00     0.112 C 
BRANCH  15  16
ATOM     16  C   UNL A   1      32.561  28.295  26.039  1.00  0.00    -0.037 A 
ATOM     17  C   UNL A   1      31.417  31.886  26.632  1.00  0.00     0.044 C 
ATOM     18  C   UNL A   1      32.234  30.629  26.659  1.00  0.00    -0.051 A 
ATOM     19  C   UNL A   1      33.483  30.625  27.293  1.00  0.00     0.006 A 
ATOM     20  C   UNL A   1      31.782  29.461  26.033  1.00  0.00     0.008 A 
ATOM     21  C   UNL A   1      34.272  29.470  27.317  1.00  0.00    -0.051 A 
ATOM     22  C   UNL A   1      35.624  29.495  27.965  1.00  0.00     0.044 C 
ATOM     23  C   UNL A   1      33.797  28.307  26.702  1.00  0.00     0.008 A 
ENDBRANCH  15  16
ENDBRANCH  14  15
ENDBRANCH   8  14
ENDBRANCH   5   7
ENDBRANCH   4   5
ENDBRANCH   3   4
ENDBRANCH   2   3
ENDBRANCH   1   2
BRANCH   1  24
ATOM     24  C   UNL A   1      38.578  22.828  26.502  1.00  0.00     0.202 C 
BRANCH  24  25
ATOM     25  C   UNL A   1      38.892  24.311  26.257  1.00  0.00     0.261 C 
BRANCH  25  26
ATOM     26  O   UNL A   1      39.916  24.816  27.128  1.00  0.00    -0.460 OA
BRANCH  26  27
ATOM     27  C   UNL A   1      40.324  26.074  26.825  1.00  0.00     0.338 C 
ATOM     28  O   UNL A   1      40.714  26.476  25.742  1.00  0.00    -0.246 OA
BRANCH  27  29
ATOM     29  C   UNL A   1      40.066  26.987  27.954  1.00  0.00     0.060 A 
ATOM     30  C   UNL A   1      40.691  28.239  27.914  1.00  0.00     0.016 A 
ATOM     31  C   UNL A   1      39.323  26.598  29.071  1.00  0.00     0.016 A 
ATOM     32  C   UNL A   1      40.650  29.072  29.027  1.00  0.00     0.010 A 
ATOM     33  C   UNL A   1      39.281  27.440  30.189  1.00  0.00     0.010 A 
ATOM     34  C   UNL A   1      39.993  28.654  30.190  1.00  0.00    -0.014 A 
BRANCH  34  35
ATOM     35  C   UNL A   1      40.215  29.413  31.447  1.00  0.00     0.031 A 
ATOM     36  C   UNL A   1      39.201  30.448  31.865  1.00  0.00     0.074 A 
ATOM     37  C   UNL A   1      41.261  29.132  32.244  1.00  0.00     0.049 A 
ATOM     38  N   UNL A   1      39.166  31.182  32.946  1.00  0.00    -0.248 NA
ATOM     39  C   UNL A   1      38.079  30.684  30.941  1.00  0.00     0.031 C 
ATOM     40  C   UNL A   1      42.288  28.127  31.969  1.00  0.00     0.029 A 
ATOM     41  N   UNL A   1      41.624  29.660  33.457  1.00  0.00    -0.354 N 
ATOM     42  C   UNL A   1      38.027  31.973  32.830  1.00  0.00     0.074 A 
ATOM     43  C   UNL A   1      37.421  31.656  31.556  1.00  0.00     0.031 C 
ATOM     44  C   UNL A   1      43.162  28.106  32.989  1.00  0.00     0.029 A 
ATOM     45  C   UNL A   1      42.773  29.114  33.974  1.00  0.00     0.049 A 
ATOM     46  H   UNL A   1      41.110  30.365  33.913  1.00  0.00     0.167 HD
ATOM     47  C   UNL A   1      37.523  32.874  33.708  1.00  0.00     0.031 A 
ATOM     48  C   UNL A   1      43.442  29.399  35.110  1.00  0.00     0.031 A 
ATOM     49  C   UNL A   1      38.132  33.193  34.972  1.00  0.00     0.049 A 
ATOM     50  C   UNL A   1      42.891  30.442  36.047  1.00  0.00     0.074 A 
ATOM     51  C   UNL A   1      37.690  34.077  35.941  1.00  0.00     0.029 A 
ATOM     52  N   UNL A   1      39.317  32.646  35.442  1.00  0.00    -0.354 N 
ATOM     53  N   UNL A   1      41.798  31.159  35.935  1.00  0.00    -0.248 NA
ATOM     54  C   UNL A   1      43.656  30.698  37.274  1.00  0.00     0.031 C 
ATOM     55  C   UNL A   1      38.641  34.110  36.968  1.00  0.00     0.029 A 
ATOM     56  C   UNL A   1      39.636  33.193  36.674  1.00  0.00     0.049 A 
ATOM     57  H   UNL A   1      39.853  31.968  34.968  1.00  0.00     0.167 HD
ATOM     58  C   UNL A   1      41.728  31.928  37.093  1.00  0.00     0.074 A 
ATOM     59  C   UNL A   1      42.880  31.574  37.897  1.00  0.00     0.031 C 
ATOM     60  C   UNL A   1      40.792  32.838  37.461  1.00  0.00     0.031 A 
BRANCH  47  61
ATOM     61  C   UNL A   1      36.266  33.606  33.311  1.00  0.00    -0.014 A 
ATOM     62  C   UNL A   1      34.999  33.002  33.416  1.00  0.00     0.010 A 
ATOM     63  C   UNL A   1      36.353  34.934  32.851  1.00  0.00     0.010 A 
ATOM     64  C   UNL A   1      33.849  33.697  33.029  1.00  0.00     0.020 A 
ATOM     65  C   UNL A   1      35.202  35.642  32.494  1.00  0.00     0.020 A 
ATOM     66  C   UNL A   1      33.959  35.012  32.569  1.00  0.00     0.054 A 
BRANCH  66  67
ATOM     67  S   UNL A   1      32.448  35.895  32.091  1.00  0.00     0.124 S 
ATOM     68  O   UNL A   1      32.553  35.906  30.634  1.00  0.00    -0.237 OA
ATOM     69  O   UNL A   1      31.394  35.046  32.639  1.00  0.00    -0.237 OA
ATOM     70  O   UNL A   1      32.591  37.200  32.734  1.00  0.00    -0.744 OA
ENDBRANCH  66  67
ENDBRANCH  47  61
BRANCH  48  71
ATOM     71  C   UNL A   1      44.711  28.684  35.422  1.00  0.00    -0.014 A 
ATOM     72  C   UNL A   1      44.706  27.497  36.174  1.00  0.00     0.010 A 
ATOM     73  C   UNL A   1      45.938  29.193  34.958  1.00  0.00     0.010 A 
ATOM     74  C   UNL A   1      45.905  26.840  36.469  1.00  0.00     0.020 A 
ATOM     75  C   UNL A   1      47.135  28.524  35.225  1.00  0.00     0.020 A 
ATOM     76  C   UNL A   1      47.112  27.356  35.988  1.00  0.00     0.054 A 
BRANCH  76  77
ATOM     77  S   UNL A   1      48.648  26.456  36.334  1.00  0.00     0.124 S 
ATOM     78  O   UNL A   1      48.186  25.073  36.391  1.00  0.00    -0.237 OA
ATOM     79  O   UNL A   1      49.480  26.801  35.184  1.00  0.00    -0.237 OA
ATOM     80  O   UNL A   1      49.095  27.021  37.606  1.00  0.00    -0.744 OA
ENDBRANCH  76  77
ENDBRANCH  48  71
BRANCH  60  81
ATOM     81  C   UNL A   1      40.949  33.487  38.813  1.00  0.00    -0.014 A 
ATOM     82  C   UNL A   1      40.473  32.873  39.985  1.00  0.00     0.010 A 
ATOM     83  C   UNL A   1      41.610  34.726  38.912  1.00  0.00     0.010 A 
ATOM     84  C   UNL A   1      40.607  33.510  41.223  1.00  0.00     0.020 A 
ATOM     85  C   UNL A   1      41.778  35.350  40.151  1.00  0.00     0.020 A 
ATOM     86  C   UNL A   1      41.255  34.748  41.296  1.00  0.00     0.054 A 
BRANCH  86  87
ATOM     87  S   UNL A   1      41.424  35.551  42.913  1.00  0.00     0.124 S 
ATOM     88  O   UNL A   1      40.188  36.324  42.998  1.00  0.00    -0.237 OA
ATOM     89  O   UNL A   1      41.520  34.416  43.827  1.00  0.00    -0.237 OA
ATOM     90  O   UNL A   1      42.646  36.342  42.781  1.00  0.00    -0.744 OA
ENDBRANCH  86  87
ENDBRANCH  60  81
ENDBRANCH  34  35
ENDBRANCH  27  29
ENDBRANCH  26  27
ENDBRANCH  25  26
ENDBRANCH  24  25
ENDBRANCH   1  24
TORSDOF 20
ENDMDL
MODEL 3
REMARK VINA RESULT:      -9.4      3.147      9.837
REMARK SMILES Cc1cc(C)cc(CSc2cc(C(=O)OCCOCCOC(=O)c3ccc(-c4c5nc(c(-c6ccc(S(=O)(=O)[O-])cc6)c6ccc([nH]6)c(-c6ccc(S(=O)(=O)[O-])cc6)c6nc(c(-c7ccc(S(=O)(=O)[O-])cc7)c7ccc4[nH]7)C=C6)C=C5)cc3)cc(Cl)n2)c1
REMARK SMILES IDX 18 1 17 2 16 3 15 4 13 5 14 6 12 7 10 8 11 9 87 10 85 11
REMARK SMILES IDX 84 12 86 13 9 14 8 15 7 16 1 17 2 18 3 19 88 20 4 21 5 22
REMARK SMILES IDX 6 23 19 24 20 25 21 26 22 27 23 28 24 29 25 30 83 31 26 32
REMARK SMILES IDX 82 33 27 34 28 35 29 36 76 37 30 38 81 39 75 40 77 41 31 42
REMARK SMILES IDX 80 43 74 44 73 45 32 47 62 48 43 49 61 50 44 51 47 52 60 53
REMARK SMILES IDX 78 54 45 55 46 56 59 58 79 59 48 60 33 61 34 62 42 63 35 64
REMARK SMILES IDX 41 65 36 66 37 67 38 68 39 69 40 70 63 71 64 72 72 73 65 74
REMARK SMILES IDX 71 75 66 76 67 77 68 78 69 79 70 80 49 81 50 82 58 83 51 84
REMARK SMILES IDX 57 85 52 86 53 87 54 88 55 89 56 90
REMARK H PARENT 77 46 47 57
REMARK Flexibility Score: inf
ROOT
ATOM      1  O   UNL A   1      32.966  28.192  25.961  1.00  0.00    -0.374 OA
ENDROOT
BRANCH   1   2
ATOM      2  C   UNL A   1      32.121  27.363  26.760  1.00  0.00     0.202 C 
BRANCH   2   3
ATOM      3  C   UNL A   1      30.845  26.827  26.099  1.00  0.00     0.261 C 
BRANCH   3   4
ATOM      4  O   UNL A   1      31.096  25.621  25.361  1.00  0.00    -0.460 OA
BRANCH   4   5
ATOM      5  C   UNL A   1      30.952  24.475  26.065  1.00  0.00     0.338 C 
ATOM      6  O   UNL A   1      30.067  24.196  26.860  1.00  0.00    -0.246 OA
BRANCH   5   7
ATOM      7  C   UNL A   1      31.922  23.474  25.584  1.00  0.00     0.065 A 
ATOM      8  C   UNL A   1      34.108  23.040  24.741  1.00  0.00     0.099 A 
ATOM      9  C   UNL A   1      33.155  23.956  25.138  1.00  0.00     0.051 A 
ATOM     10  N   UNL A   1      33.898  21.710  24.768  1.00  0.00    -0.230 NA
ATOM     11  C   UNL A   1      32.690  21.283  25.183  1.00  0.00     0.131 A 
ATOM     12  C   UNL A   1      31.671  22.107  25.614  1.00  0.00     0.056 A 
ATOM     13  Cl  UNL A   1      32.487  19.581  25.138  1.00  0.00    -0.062 Cl
BRANCH   8  14
ATOM     14  S   UNL A   1      35.706  23.606  24.209  1.00  0.00    -0.102 SA
BRANCH  14  15
ATOM     15  C   UNL A   1      36.616  22.030  24.314  1.00  0.00     0.112 C 
BRANCH  15  16
ATOM     16  C   UNL A   1      37.796  22.059  25.255  1.00  0.00    -0.037 A 
ATOM     17  C   UNL A   1      39.418  24.451  27.747  1.00  0.00     0.044 C 
ATOM     18  C   UNL A   1      39.143  23.238  26.910  1.00  0.00    -0.051 A 
ATOM     19  C   UNL A   1      40.020  22.147  26.958  1.00  0.00     0.006 A 
ATOM     20  C   UNL A   1      38.035  23.187  26.055  1.00  0.00     0.008 A 
ATOM     21  C   UNL A   1      39.795  21.009  26.174  1.00  0.00    -0.051 A 
ATOM     22  C   UNL A   1      40.767  19.868  26.208  1.00  0.00     0.044 C 
ATOM     23  C   UNL A   1      38.674  20.969  25.339  1.00  0.00     0.008 A 
ENDBRANCH  15  16
ENDBRANCH  14  15
ENDBRANCH   8  14
ENDBRANCH   5   7
ENDBRANCH   4   5
ENDBRANCH   3   4
ENDBRANCH   2   3
ENDBRANCH   1   2
BRANCH   1  24
ATOM     24  C   UNL A   1      32.496  29.497  25.628  1.00  0.00     0.202 C 
BRANCH  24  25
ATOM     25  C   UNL A   1      32.591  30.593  26.699  1.00  0.00     0.261 C 
BRANCH  25  26
ATOM     26  O   UNL A   1      33.661  30.372  27.631  1.00  0.00    -0.460 OA
BRANCH  26  27
ATOM     27  C   UNL A   1      34.479  31.442  27.793  1.00  0.00     0.338 C 
ATOM     28  O   UNL A   1      34.148  32.615  27.847  1.00  0.00    -0.246 OA
BRANCH  27  29
ATOM     29  C   UNL A   1      35.855  31.001  28.088  1.00  0.00     0.060 A 
ATOM     30  C   UNL A   1      36.056  29.628  28.273  1.00  0.00     0.016 A 
ATOM     31  C   UNL A   1      36.900  31.907  28.283  1.00  0.00     0.016 A 
ATOM     32  C   UNL A   1      37.280  29.162  28.741  1.00  0.00     0.010 A 
ATOM     33  C   UNL A   1      38.132  31.434  28.752  1.00  0.00     0.010 A 
ATOM     34  C   UNL A   1      38.307  30.067  29.037  1.00  0.00    -0.014 A 
BRANCH  34  35
ATOM     35  C   UNL A   1      39.480  29.587  29.809  1.00  0.00     0.031 A 
ATOM     36  C   UNL A   1      39.711  30.129  31.198  1.00  0.00     0.074 A 
ATOM     37  C   UNL A   1      40.283  28.627  29.317  1.00  0.00     0.049 A 
ATOM     38  N   UNL A   1      40.634  29.809  32.068  1.00  0.00    -0.248 NA
ATOM     39  C   UNL A   1      38.778  31.167  31.666  1.00  0.00     0.031 C 
ATOM     40  C   UNL A   1      40.140  27.997  28.005  1.00  0.00     0.029 A 
ATOM     41  N   UNL A   1      41.373  28.006  29.871  1.00  0.00    -0.354 N 
ATOM     42  C   UNL A   1      40.400  30.611  33.180  1.00  0.00     0.074 A 
ATOM     43  C   UNL A   1      39.272  31.458  32.861  1.00  0.00     0.031 C 
ATOM     44  C   UNL A   1      41.103  27.071  27.858  1.00  0.00     0.029 A 
ATOM     45  C   UNL A   1      41.946  27.063  29.053  1.00  0.00     0.049 A 
ATOM     46  H   UNL A   1      41.712  28.216  30.771  1.00  0.00     0.167 HD
ATOM     47  C   UNL A   1      41.055  30.634  34.366  1.00  0.00     0.031 A 
ATOM     48  C   UNL A   1      43.031  26.286  29.240  1.00  0.00     0.031 A 
ATOM     49  C   UNL A   1      42.181  29.795  34.679  1.00  0.00     0.049 A 
ATOM     50  C   UNL A   1      43.776  26.366  30.547  1.00  0.00     0.074 A 
ATOM     51  C   UNL A   1      42.903  29.728  35.859  1.00  0.00     0.029 A 
ATOM     52  N   UNL A   1      42.756  28.881  33.808  1.00  0.00    -0.354 N 
ATOM     53  N   UNL A   1      43.523  27.108  31.599  1.00  0.00    -0.248 NA
ATOM     54  C   UNL A   1      44.942  25.485  30.698  1.00  0.00     0.031 C 
ATOM     55  C   UNL A   1      43.951  28.818  35.678  1.00  0.00     0.029 A 
ATOM     56  C   UNL A   1      43.839  28.264  34.413  1.00  0.00     0.049 A 
ATOM     57  H   UNL A   1      42.439  28.697  32.894  1.00  0.00     0.167 HD
ATOM     58  C   UNL A   1      44.480  26.761  32.548  1.00  0.00     0.074 A 
ATOM     59  C   UNL A   1      45.303  25.729  31.950  1.00  0.00     0.031 C 
ATOM     60  C   UNL A   1      44.656  27.245  33.803  1.00  0.00     0.031 A 
BRANCH  47  61
ATOM     61  C   UNL A   1      40.589  31.627  35.401  1.00  0.00    -0.014 A 
ATOM     62  C   UNL A   1      39.483  31.362  36.229  1.00  0.00     0.010 A 
ATOM     63  C   UNL A   1      41.291  32.835  35.566  1.00  0.00     0.010 A 
ATOM     64  C   UNL A   1      39.062  32.303  37.172  1.00  0.00     0.020 A 
ATOM     65  C   UNL A   1      40.892  33.766  36.530  1.00  0.00     0.020 A 
ATOM     66  C   UNL A   1      39.768  33.501  37.315  1.00  0.00     0.054 A 
BRANCH  66  67
ATOM     67  S   UNL A   1      39.211  34.697  38.560  1.00  0.00     0.124 S 
ATOM     68  O   UNL A   1      39.306  35.958  37.830  1.00  0.00    -0.237 OA
ATOM     69  O   UNL A   1      37.854  34.243  38.854  1.00  0.00    -0.237 OA
ATOM     70  O   UNL A   1      40.169  34.536  39.651  1.00  0.00    -0.744 OA
ENDBRANCH  66  67
ENDBRANCH  47  61
BRANCH  48  71
ATOM     71  C   UNL A   1      43.480  25.366  28.159  1.00  0.00    -0.014 A 
ATOM     72  C   UNL A   1      44.224  25.843  27.067  1.00  0.00     0.010 A 
ATOM     73  C   UNL A   1      43.163  23.996  28.223  1.00  0.00     0.010 A 
ATOM     74  C   UNL A   1      44.632  24.971  26.052  1.00  0.00     0.020 A 
ATOM     75  C   UNL A   1      43.594  23.116  27.227  1.00  0.00     0.020 A 
ATOM     76  C   UNL A   1      44.318  23.612  26.142  1.00  0.00     0.054 A 
BRANCH  76  77
ATOM     77  S   UNL A   1      44.906  22.490  24.843  1.00  0.00     0.124 S 
ATOM     78  O   UNL A   1      45.993  21.787  25.516  1.00  0.00    -0.237 OA
ATOM     79  O   UNL A   1      43.716  21.691  24.557  1.00  0.00    -0.237 OA
ATOM     80  O   UNL A   1      45.312  23.393  23.769  1.00  0.00    -0.744 OA
ENDBRANCH  76  77
ENDBRANCH  48  71
BRANCH  60  81
ATOM     81  C   UNL A   1      45.757  26.634  34.634  1.00  0.00    -0.014 A 
ATOM     82  C   UNL A   1      45.543  25.482  35.410  1.00  0.00     0.010 A 
ATOM     83  C   UNL A   1      47.039  27.215  34.614  1.00  0.00     0.010 A 
ATOM     84  C   UNL A   1      46.574  24.954  36.193  1.00  0.00     0.020 A 
ATOM     85  C   UNL A   1      48.083  26.670  35.367  1.00  0.00     0.020 A 
ATOM     86  C   UNL A   1      47.837  25.556  36.170  1.00  0.00     0.054 A 
BRANCH  86  87
ATOM     87  S   UNL A   1      49.161  24.848  37.187  1.00  0.00     0.124 S 
ATOM     88  O   UNL A   1      49.194  23.464  36.722  1.00  0.00    -0.237 OA
ATOM     89  O   UNL A   1      50.317  25.662  36.821  1.00  0.00    -0.237 OA
ATOM     90  O   UNL A   1      48.684  25.034  38.556  1.00  0.00    -0.744 OA
ENDBRANCH  86  87
ENDBRANCH  60  81
ENDBRANCH  34  35
ENDBRANCH  27  29
ENDBRANCH  26  27
ENDBRANCH  25  26
ENDBRANCH  24  25
ENDBRANCH   1  24
TORSDOF 20
ENDMDL
