MODEL 1
REMARK VINA RESULT:      -8.3      0.000      0.000
REMARK SMILES O=C(Cc1cc[nH]n1)Nc1nc(CC(=O)OCCOCCOC(=O)c2ccc(-c3c4nc(c(-c5ccc(S(=O)(=O)[O-])cc5)c5ccc([nH]5)c(-c5ccc(S(=O)(=O)[O-])cc5)c5nc(c(-c6ccc(S(=O)(=O)[O-])cc6)c6ccc3[nH]6)C=C5)C=C4)cc2)cs1
REMARK SMILES IDX 18 1 17 2 16 3 14 4 15 5 13 6 12 7 10 8 11 9 86 10 85 11
REMARK SMILES IDX 9 12 1 13 2 14 3 16 4 17 5 18 8 19 6 20 7 21 19 23 20 24
REMARK SMILES IDX 21 25 22 26 23 27 24 28 25 29 26 30 84 31 27 32 83 33 28 34
REMARK SMILES IDX 29 35 30 36 77 37 31 38 82 39 76 40 78 41 32 42 81 43 75 44
REMARK SMILES IDX 74 45 33 47 63 48 44 49 62 50 45 51 48 52 61 53 79 54 46 55
REMARK SMILES IDX 47 56 60 58 80 59 49 60 34 61 35 62 43 63 36 64 42 65 37 66
REMARK SMILES IDX 38 67 39 68 40 69 41 70 64 71 65 72 73 73 66 74 72 75 67 76
REMARK SMILES IDX 68 77 69 78 70 79 71 80 50 81 51 82 59 83 52 84 58 85 53 86
REMARK SMILES IDX 54 87 55 88 56 89 57 90
REMARK H PARENT 9 15 7 22 78 46 48 57
REMARK Flexibility Score: inf
ROOT
ATOM      1  C   UNL A   1      34.821  34.774  29.772  1.00  0.00     0.202 C 
ENDROOT
BRANCH   1   2
ATOM      2  C   UNL A   1      33.826  34.952  30.923  1.00  0.00     0.261 C 
BRANCH   2   3
ATOM      3  O   UNL A   1      34.420  34.776  32.226  1.00  0.00    -0.463 OA
BRANCH   3   4
ATOM      4  C   UNL A   1      34.208  33.567  32.812  1.00  0.00     0.311 C 
ATOM      5  O   UNL A   1      33.112  33.175  33.206  1.00  0.00    -0.252 OA
BRANCH   4   6
ATOM      6  C   UNL A   1      35.443  32.724  32.997  1.00  0.00     0.179 C 
BRANCH   6   7
ATOM      7  C   UNL A   1      36.558  33.274  33.824  1.00  0.00     0.065 A 
ATOM      8  C   UNL A   1      37.540  33.566  35.784  1.00  0.00     0.189 A 
ATOM      9  N   UNL A   1      36.438  33.174  35.201  1.00  0.00    -0.224 NA
ATOM     10  S   UNL A   1      38.756  34.180  34.762  1.00  0.00    -0.105 S 
ATOM     11  C   UNL A   1      37.801  33.722  33.407  1.00  0.00     0.093 A 
BRANCH   8  12
ATOM     12  N   UNL A   1      37.862  33.533  37.107  1.00  0.00    -0.302 N 
ATOM     13  O   UNL A   1      37.659  31.235  37.388  1.00  0.00    -0.274 OA
ATOM     14  C   UNL A   1      37.836  32.368  37.837  1.00  0.00     0.232 C 
ATOM     15  H   UNL A   1      38.123  34.370  37.554  1.00  0.00     0.172 HD
BRANCH  14  16
ATOM     16  C   UNL A   1      37.973  32.574  39.335  1.00  0.00     0.158 C 
BRANCH  16  17
ATOM     17  C   UNL A   1      36.722  32.419  40.138  1.00  0.00     0.071 A 
ATOM     18  C   UNL A   1      36.284  33.276  41.179  1.00  0.00     0.045 A 
ATOM     19  N   UNL A   1      35.903  31.362  40.001  1.00  0.00    -0.180 NA
ATOM     20  C   UNL A   1      35.138  32.697  41.663  1.00  0.00     0.105 A 
ATOM     21  N   UNL A   1      34.946  31.568  40.926  1.00  0.00    -0.285 N 
ATOM     22  H   UNL A   1      34.181  30.962  41.055  1.00  0.00     0.189 HD
ENDBRANCH  16  17
ENDBRANCH  14  16
ENDBRANCH   8  12
ENDBRANCH   6   7
ENDBRANCH   4   6
ENDBRANCH   3   4
ENDBRANCH   2   3
ENDBRANCH   1   2
BRANCH   1  23
ATOM     23  O   UNL A   1      34.306  34.891  28.446  1.00  0.00    -0.374 OA
BRANCH  23  24
ATOM     24  C   UNL A   1      33.568  33.781  27.941  1.00  0.00     0.202 C 
BRANCH  24  25
ATOM     25  C   UNL A   1      33.924  32.399  28.505  1.00  0.00     0.261 C 
BRANCH  25  26
ATOM     26  O   UNL A   1      35.109  31.849  27.904  1.00  0.00    -0.460 OA
BRANCH  26  27
ATOM     27  C   UNL A   1      35.102  30.500  27.776  1.00  0.00     0.338 C 
ATOM     28  O   UNL A   1      34.230  29.818  27.249  1.00  0.00    -0.246 OA
BRANCH  27  29
ATOM     29  C   UNL A   1      36.389  29.925  28.206  1.00  0.00     0.060 A 
ATOM     30  C   UNL A   1      36.428  29.302  29.461  1.00  0.00     0.016 A 
ATOM     31  C   UNL A   1      37.555  30.070  27.451  1.00  0.00     0.016 A 
ATOM     32  C   UNL A   1      37.643  28.880  29.996  1.00  0.00     0.010 A 
ATOM     33  C   UNL A   1      38.776  29.653  27.994  1.00  0.00     0.010 A 
ATOM     34  C   UNL A   1      38.830  29.096  29.286  1.00  0.00    -0.014 A 
BRANCH  34  35
ATOM     35  C   UNL A   1      40.135  28.892  29.964  1.00  0.00     0.031 A 
ATOM     36  C   UNL A   1      41.089  27.869  29.405  1.00  0.00     0.074 A 
ATOM     37  C   UNL A   1      40.486  29.629  31.032  1.00  0.00     0.049 A 
ATOM     38  N   UNL A   1      42.266  27.505  29.846  1.00  0.00    -0.248 NA
ATOM     39  C   UNL A   1      40.659  27.166  28.184  1.00  0.00     0.031 C 
ATOM     40  C   UNL A   1      39.678  30.692  31.627  1.00  0.00     0.029 A 
ATOM     41  N   UNL A   1      41.619  29.593  31.804  1.00  0.00    -0.354 N 
ATOM     42  C   UNL A   1      42.714  26.527  28.964  1.00  0.00     0.074 A 
ATOM     43  C   UNL A   1      41.671  26.336  27.980  1.00  0.00     0.031 C 
ATOM     44  C   UNL A   1      40.342  31.208  32.676  1.00  0.00     0.029 A 
ATOM     45  C   UNL A   1      41.604  30.489  32.846  1.00  0.00     0.049 A 
ATOM     46  H   UNL A   1      42.371  28.983  31.629  1.00  0.00     0.167 HD
ATOM     47  C   UNL A   1      43.889  25.853  28.968  1.00  0.00     0.031 A 
ATOM     48  C   UNL A   1      42.497  30.693  33.835  1.00  0.00     0.031 A 
ATOM     49  C   UNL A   1      44.917  26.032  29.960  1.00  0.00     0.049 A 
ATOM     50  C   UNL A   1      43.757  29.867  33.874  1.00  0.00     0.074 A 
ATOM     51  C   UNL A   1      46.139  25.390  30.058  1.00  0.00     0.029 A 
ATOM     52  N   UNL A   1      44.838  26.911  31.029  1.00  0.00    -0.354 N 
ATOM     53  N   UNL A   1      44.166  28.946  33.035  1.00  0.00    -0.248 NA
ATOM     54  C   UNL A   1      44.678  30.111  34.995  1.00  0.00     0.031 C 
ATOM     55  C   UNL A   1      46.779  25.848  31.214  1.00  0.00     0.029 A 
ATOM     56  C   UNL A   1      45.981  26.815  31.804  1.00  0.00     0.049 A 
ATOM     57  H   UNL A   1      44.083  27.516  31.208  1.00  0.00     0.167 HD
ATOM     58  C   UNL A   1      45.405  28.525  33.506  1.00  0.00     0.074 A 
ATOM     59  C   UNL A   1      45.681  29.293  34.704  1.00  0.00     0.031 C 
ATOM     60  C   UNL A   1      46.242  27.591  32.990  1.00  0.00     0.031 A 
BRANCH  47  61
ATOM     61  C   UNL A   1      44.101  24.830  27.884  1.00  0.00    -0.014 A 
ATOM     62  C   UNL A   1      43.717  23.488  28.064  1.00  0.00     0.010 A 
ATOM     63  C   UNL A   1      44.683  25.218  26.665  1.00  0.00     0.010 A 
ATOM     64  C   UNL A   1      43.961  22.544  27.063  1.00  0.00     0.020 A 
ATOM     65  C   UNL A   1      44.904  24.281  25.651  1.00  0.00     0.020 A 
ATOM     66  C   UNL A   1      44.562  22.946  25.866  1.00  0.00     0.054 A 
BRANCH  66  67
ATOM     67  S   UNL A   1      44.876  21.699  24.585  1.00  0.00     0.124 S 
ATOM     68  O   UNL A   1      44.558  22.438  23.365  1.00  0.00    -0.237 OA
ATOM     69  O   UNL A   1      46.289  21.386  24.778  1.00  0.00    -0.237 OA
ATOM     70  O   UNL A   1      43.950  20.620  24.917  1.00  0.00    -0.744 OA
ENDBRANCH  66  67
ENDBRANCH  47  61
BRANCH  48  71
ATOM     71  C   UNL A   1      42.228  31.721  34.876  1.00  0.00    -0.014 A 
ATOM     72  C   UNL A   1      41.552  31.379  36.060  1.00  0.00     0.010 A 
ATOM     73  C   UNL A   1      42.657  33.049  34.692  1.00  0.00     0.010 A 
ATOM     74  C   UNL A   1      41.301  32.348  37.037  1.00  0.00     0.020 A 
ATOM     75  C   UNL A   1      42.430  34.014  35.677  1.00  0.00     0.020 A 
ATOM     76  C   UNL A   1      41.745  33.659  36.840  1.00  0.00     0.054 A 
BRANCH  76  77
ATOM     77  S   UNL A   1      41.460  34.886  38.147  1.00  0.00     0.124 S 
ATOM     78  O   UNL A   1      41.664  34.095  39.356  1.00  0.00    -0.237 OA
ATOM     79  O   UNL A   1      42.484  35.889  37.865  1.00  0.00    -0.237 OA
ATOM     80  O   UNL A   1      40.087  35.325  37.910  1.00  0.00    -0.744 OA
ENDBRANCH  76  77
ENDBRANCH  48  71
BRANCH  60  81
ATOM     81  C   UNL A   1      47.561  27.374  33.687  1.00  0.00    -0.014 A 
ATOM     82  C   UNL A   1      47.706  26.397  34.687  1.00  0.00     0.010 A 
ATOM     83  C   UNL A   1      48.688  28.109  33.275  1.00  0.00     0.010 A 
ATOM     84  C   UNL A   1      48.953  26.174  35.279  1.00  0.00     0.020 A 
ATOM     85  C   UNL A   1      49.940  27.872  33.847  1.00  0.00     0.020 A 
ATOM     86  C   UNL A   1      50.063  26.913  34.853  1.00  0.00     0.054 A 
BRANCH  86  87
ATOM     87  S   UNL A   1      51.683  26.563  35.592  1.00  0.00     0.124 S 
ATOM     88  O   UNL A   1      51.750  27.554  36.661  1.00  0.00    -0.237 OA
ATOM     89  O   UNL A   1      51.543  25.175  36.029  1.00  0.00    -0.237 OA
ATOM     90  O   UNL A   1      52.619  26.769  34.490  1.00  0.00    -0.744 OA
ENDBRANCH  86  87
ENDBRANCH  60  81
ENDBRANCH  34  35
ENDBRANCH  27  29
ENDBRANCH  26  27
ENDBRANCH  25  26
ENDBRANCH  24  25
ENDBRANCH  23  24
ENDBRANCH   1  23
TORSDOF 21
ENDMDL
MODEL 2
REMARK VINA RESULT:      -7.8      7.453     16.055
REMARK SMILES O=C(Cc1cc[nH]n1)Nc1nc(CC(=O)OCCOCCOC(=O)c2ccc(-c3c4nc(c(-c5ccc(S(=O)(=O)[O-])cc5)c5ccc([nH]5)c(-c5ccc(S(=O)(=O)[O-])cc5)c5nc(c(-c6ccc(S(=O)(=O)[O-])cc6)c6ccc3[nH]6)C=C5)C=C4)cc2)cs1
REMARK SMILES IDX 18 1 17 2 16 3 14 4 15 5 13 6 12 7 10 8 11 9 86 10 85 11
REMARK SMILES IDX 9 12 1 13 2 14 3 16 4 17 5 18 8 19 6 20 7 21 19 23 20 24
REMARK SMILES IDX 21 25 22 26 23 27 24 28 25 29 26 30 84 31 27 32 83 33 28 34
REMARK SMILES IDX 29 35 30 36 77 37 31 38 82 39 76 40 78 41 32 42 81 43 75 44
REMARK SMILES IDX 74 45 33 47 63 48 44 49 62 50 45 51 48 52 61 53 79 54 46 55
REMARK SMILES IDX 47 56 60 58 80 59 49 60 34 61 35 62 43 63 36 64 42 65 37 66
REMARK SMILES IDX 38 67 39 68 40 69 41 70 64 71 65 72 73 73 66 74 72 75 67 76
REMARK SMILES IDX 68 77 69 78 70 79 71 80 50 81 51 82 59 83 52 84 58 85 53 86
REMARK SMILES IDX 54 87 55 88 56 89 57 90
REMARK H PARENT 9 15 7 22 78 46 48 57
REMARK Flexibility Score: inf
ROOT
ATOM      1  C   UNL A   1      46.081  21.969  38.747  1.00  0.00     0.202 C 
ENDROOT
BRANCH   1   2
ATOM      2  C   UNL A   1      46.607  20.779  37.938  1.00  0.00     0.261 C 
BRANCH   2   3
ATOM      3  O   UNL A   1      45.925  19.542  38.230  1.00  0.00    -0.463 OA
BRANCH   3   4
ATOM      4  C   UNL A   1      46.564  18.706  39.091  1.00  0.00     0.311 C 
ATOM      5  O   UNL A   1      47.724  18.860  39.469  1.00  0.00    -0.252 OA
BRANCH   4   6
ATOM      6  C   UNL A   1      45.759  17.513  39.537  1.00  0.00     0.179 C 
BRANCH   6   7
ATOM      7  C   UNL A   1      45.321  17.447  40.963  1.00  0.00     0.065 A 
ATOM      8  C   UNL A   1      45.190  16.367  42.889  1.00  0.00     0.189 A 
ATOM      9  N   UNL A   1      45.484  16.238  41.622  1.00  0.00    -0.224 NA
ATOM     10  S   UNL A   1      44.600  17.889  43.374  1.00  0.00    -0.105 S 
ATOM     11  C   UNL A   1      44.928  18.483  41.794  1.00  0.00     0.093 A 
BRANCH   8  12
ATOM     12  N   UNL A   1      45.310  15.451  43.889  1.00  0.00    -0.302 N 
ATOM     13  O   UNL A   1      43.341  14.298  43.452  1.00  0.00    -0.274 OA
ATOM     14  C   UNL A   1      44.337  14.512  44.142  1.00  0.00     0.232 C 
ATOM     15  H   UNL A   1      46.120  15.460  44.448  1.00  0.00     0.172 HD
BRANCH  14  16
ATOM     16  C   UNL A   1      44.531  13.756  45.444  1.00  0.00     0.158 C 
BRANCH  16  17
ATOM     17  C   UNL A   1      44.857  12.302  45.319  1.00  0.00     0.071 A 
ATOM     18  C   UNL A   1      45.845  11.735  44.477  1.00  0.00     0.045 A 
ATOM     19  N   UNL A   1      44.156  11.349  45.957  1.00  0.00    -0.180 NA
ATOM     20  C   UNL A   1      45.727  10.379  44.646  1.00  0.00     0.105 A 
ATOM     21  N   UNL A   1      44.717  10.198  45.543  1.00  0.00    -0.285 N 
ATOM     22  H   UNL A   1      44.427   9.311  45.858  1.00  0.00     0.189 HD
ENDBRANCH  16  17
ENDBRANCH  14  16
ENDBRANCH   8  12
ENDBRANCH   6   7
ENDBRANCH   4   6
ENDBRANCH   3   4
ENDBRANCH   2   3
ENDBRANCH   1   2
BRANCH   1  23
ATOM     23  O   UNL A   1      46.929  22.477  39.776  1.00  0.00    -0.374 OA
BRANCH  23  24
ATOM     24  C   UNL A   1      47.841  23.509  39.410  1.00  0.00     0.202 C 
BRANCH  24  25
ATOM     25  C   UNL A   1      47.331  24.952  39.513  1.00  0.00     0.261 C 
BRANCH  25  26
ATOM     26  O   UNL A   1      46.473  25.312  38.416  1.00  0.00    -0.460 OA
BRANCH  26  27
ATOM     27  C   UNL A   1      47.004  26.217  37.560  1.00  0.00     0.338 C 
ATOM     28  O   UNL A   1      48.130  26.195  37.073  1.00  0.00    -0.246 OA
BRANCH  27  29
ATOM     29  C   UNL A   1      45.983  27.185  37.118  1.00  0.00     0.060 A 
ATOM     30  C   UNL A   1      44.648  26.897  37.433  1.00  0.00     0.016 A 
ATOM     31  C   UNL A   1      46.304  28.295  36.334  1.00  0.00     0.016 A 
ATOM     32  C   UNL A   1      43.622  27.682  36.910  1.00  0.00     0.010 A 
ATOM     33  C   UNL A   1      45.270  29.077  35.804  1.00  0.00     0.010 A 
ATOM     34  C   UNL A   1      43.925  28.748  36.055  1.00  0.00    -0.014 A 
BRANCH  34  35
ATOM     35  C   UNL A   1      42.834  29.409  35.296  1.00  0.00     0.031 A 
ATOM     36  C   UNL A   1      42.181  30.632  35.883  1.00  0.00     0.074 A 
ATOM     37  C   UNL A   1      42.456  28.957  34.087  1.00  0.00     0.049 A 
ATOM     38  N   UNL A   1      41.195  31.353  35.412  1.00  0.00    -0.248 NA
ATOM     39  C   UNL A   1      42.713  31.108  37.171  1.00  0.00     0.031 C 
ATOM     40  C   UNL A   1      43.053  27.822  33.385  1.00  0.00     0.029 A 
ATOM     41  N   UNL A   1      41.476  29.404  33.237  1.00  0.00    -0.354 N 
ATOM     42  C   UNL A   1      40.985  32.361  36.347  1.00  0.00     0.074 A 
ATOM     43  C   UNL A   1      41.925  32.142  37.424  1.00  0.00     0.031 C 
ATOM     44  C   UNL A   1      42.425  27.660  32.207  1.00  0.00     0.029 A 
ATOM     45  C   UNL A   1      41.361  28.656  32.090  1.00  0.00     0.049 A 
ATOM     46  H   UNL A   1      40.910  30.185  33.430  1.00  0.00     0.167 HD
ATOM     47  C   UNL A   1      40.093  33.381  36.311  1.00  0.00     0.031 A 
ATOM     48  C   UNL A   1      40.483  28.751  31.070  1.00  0.00     0.031 A 
ATOM     49  C   UNL A   1      39.146  33.585  35.247  1.00  0.00     0.049 A 
ATOM     50  C   UNL A   1      39.439  29.837  31.094  1.00  0.00     0.074 A 
ATOM     51  C   UNL A   1      38.194  34.582  35.121  1.00  0.00     0.029 A 
ATOM     52  N   UNL A   1      39.026  32.773  34.130  1.00  0.00    -0.354 N 
ATOM     53  N   UNL A   1      39.251  30.781  31.985  1.00  0.00    -0.248 NA
ATOM     54  C   UNL A   1      38.488  29.871  29.972  1.00  0.00     0.031 C 
ATOM     55  C   UNL A   1      37.466  34.344  33.951  1.00  0.00     0.029 A 
ATOM     56  C   UNL A   1      38.002  33.232  33.319  1.00  0.00     0.049 A 
ATOM     57  H   UNL A   1      39.587  31.986  33.940  1.00  0.00     0.167 HD
ATOM     58  C   UNL A   1      38.184  31.541  31.515  1.00  0.00     0.074 A 
ATOM     59  C   UNL A   1      37.769  30.948  30.259  1.00  0.00     0.031 C 
ATOM     60  C   UNL A   1      37.605  32.635  32.069  1.00  0.00     0.031 A 
BRANCH  47  61
ATOM     61  C   UNL A   1      40.080  34.326  37.482  1.00  0.00    -0.014 A 
ATOM     62  C   UNL A   1      39.124  34.203  38.508  1.00  0.00     0.010 A 
ATOM     63  C   UNL A   1      41.043  35.347  37.564  1.00  0.00     0.010 A 
ATOM     64  C   UNL A   1      39.100  35.117  39.565  1.00  0.00     0.020 A 
ATOM     65  C   UNL A   1      41.039  36.247  38.634  1.00  0.00     0.020 A 
ATOM     66  C   UNL A   1      40.053  36.139  39.616  1.00  0.00     0.054 A 
BRANCH  66  67
ATOM     67  S   UNL A   1      39.996  37.317  40.994  1.00  0.00     0.124 S 
ATOM     68  O   UNL A   1      39.987  36.424  42.151  1.00  0.00    -0.237 OA
ATOM     69  O   UNL A   1      41.221  38.091  40.808  1.00  0.00    -0.237 OA
ATOM     70  O   UNL A   1      38.756  38.056  40.769  1.00  0.00    -0.744 OA
ENDBRANCH  66  67
ENDBRANCH  47  61
BRANCH  48  71
ATOM     71  C   UNL A   1      40.551  27.785  29.941  1.00  0.00    -0.014 A 
ATOM     72  C   UNL A   1      39.559  26.800  29.783  1.00  0.00     0.010 A 
ATOM     73  C   UNL A   1      41.605  27.850  29.011  1.00  0.00     0.010 A 
ATOM     74  C   UNL A   1      39.626  25.893  28.720  1.00  0.00     0.020 A 
ATOM     75  C   UNL A   1      41.661  26.961  27.934  1.00  0.00     0.020 A 
ATOM     76  C   UNL A   1      40.675  25.982  27.801  1.00  0.00     0.054 A 
BRANCH  76  77
ATOM     77  S   UNL A   1      40.709  24.832  26.396  1.00  0.00     0.124 S 
ATOM     78  O   UNL A   1      41.076  25.713  25.292  1.00  0.00    -0.237 OA
ATOM     79  O   UNL A   1      41.728  23.868  26.804  1.00  0.00    -0.237 OA
ATOM     80  O   UNL A   1      39.347  24.306  26.352  1.00  0.00    -0.744 OA
ENDBRANCH  76  77
ENDBRANCH  48  71
BRANCH  60  81
ATOM     81  C   UNL A   1      36.488  33.297  31.306  1.00  0.00    -0.014 A 
ATOM     82  C   UNL A   1      35.236  33.531  31.899  1.00  0.00     0.010 A 
ATOM     83  C   UNL A   1      36.726  33.761  29.998  1.00  0.00     0.010 A 
ATOM     84  C   UNL A   1      34.233  34.198  31.189  1.00  0.00     0.020 A 
ATOM     85  C   UNL A   1      35.735  34.449  29.295  1.00  0.00     0.020 A 
ATOM     86  C   UNL A   1      34.490  34.655  29.891  1.00  0.00     0.054 A 
BRANCH  86  87
ATOM     87  S   UNL A   1      33.195  35.573  29.014  1.00  0.00     0.124 S 
ATOM     88  O   UNL A   1      33.974  36.535  28.241  1.00  0.00    -0.237 OA
ATOM     89  O   UNL A   1      32.533  34.528  28.234  1.00  0.00    -0.237 OA
ATOM     90  O   UNL A   1      32.386  36.145  30.088  1.00  0.00    -0.744 OA
ENDBRANCH  86  87
ENDBRANCH  60  81
ENDBRANCH  34  35
ENDBRANCH  27  29
ENDBRANCH  26  27
ENDBRANCH  25  26
ENDBRANCH  24  25
ENDBRANCH  23  24
ENDBRANCH   1  23
TORSDOF 21
ENDMDL
MODEL 3
REMARK VINA RESULT:      -7.7      6.361     15.316
REMARK SMILES O=C(Cc1cc[nH]n1)Nc1nc(CC(=O)OCCOCCOC(=O)c2ccc(-c3c4nc(c(-c5ccc(S(=O)(=O)[O-])cc5)c5ccc([nH]5)c(-c5ccc(S(=O)(=O)[O-])cc5)c5nc(c(-c6ccc(S(=O)(=O)[O-])cc6)c6ccc3[nH]6)C=C5)C=C4)cc2)cs1
REMARK SMILES IDX 18 1 17 2 16 3 14 4 15 5 13 6 12 7 10 8 11 9 86 10 85 11
REMARK SMILES IDX 9 12 1 13 2 14 3 16 4 17 5 18 8 19 6 20 7 21 19 23 20 24
REMARK SMILES IDX 21 25 22 26 23 27 24 28 25 29 26 30 84 31 27 32 83 33 28 34
REMARK SMILES IDX 29 35 30 36 77 37 31 38 82 39 76 40 78 41 32 42 81 43 75 44
REMARK SMILES IDX 74 45 33 47 63 48 44 49 62 50 45 51 48 52 61 53 79 54 46 55
REMARK SMILES IDX 47 56 60 58 80 59 49 60 34 61 35 62 43 63 36 64 42 65 37 66
REMARK SMILES IDX 38 67 39 68 40 69 41 70 64 71 65 72 73 73 66 74 72 75 67 76
REMARK SMILES IDX 68 77 69 78 70 79 71 80 50 81 51 82 59 83 52 84 58 85 53 86
REMARK SMILES IDX 54 87 55 88 56 89 57 90
REMARK H PARENT 9 15 7 22 78 46 48 57
REMARK Flexibility Score: inf
ROOT
ATOM      1  C   UNL A   1      46.510  22.367  39.235  1.00  0.00     0.202 C 
ENDROOT
BRANCH   1   2
ATOM      2  C   UNL A   1      46.460  21.108  38.364  1.00  0.00     0.261 C 
BRANCH   2   3
ATOM      3  O   UNL A   1      45.848  19.980  39.024  1.00  0.00    -0.463 OA
BRANCH   3   4
ATOM      4  C   UNL A   1      46.698  18.990  39.408  1.00  0.00     0.311 C 
ATOM      5  O   UNL A   1      47.918  19.121  39.488  1.00  0.00    -0.252 OA
BRANCH   4   6
ATOM      6  C   UNL A   1      46.043  17.665  39.697  1.00  0.00     0.179 C 
BRANCH   6   7
ATOM      7  C   UNL A   1      45.347  17.489  41.006  1.00  0.00     0.065 A 
ATOM      8  C   UNL A   1      45.063  18.050  43.126  1.00  0.00     0.189 A 
ATOM      9  N   UNL A   1      45.848  18.190  42.092  1.00  0.00    -0.224 NA
ATOM     10  S   UNL A   1      43.739  16.997  42.930  1.00  0.00    -0.105 S 
ATOM     11  C   UNL A   1      44.145  16.851  41.265  1.00  0.00     0.093 A 
BRANCH   8  12
ATOM     12  N   UNL A   1      45.146  18.648  44.346  1.00  0.00    -0.302 N 
ATOM     13  O   UNL A   1      43.867  20.518  43.829  1.00  0.00    -0.274 OA
ATOM     14  C   UNL A   1      44.591  19.882  44.595  1.00  0.00     0.232 C 
ATOM     15  H   UNL A   1      45.618  18.183  45.074  1.00  0.00     0.172 HD
BRANCH  14  16
ATOM     16  C   UNL A   1      45.006  20.491  45.922  1.00  0.00     0.158 C 
BRANCH  16  17
ATOM     17  C   UNL A   1      46.373  20.133  46.412  1.00  0.00     0.071 A 
ATOM     18  C   UNL A   1      47.555  20.892  46.225  1.00  0.00     0.045 A 
ATOM     19  N   UNL A   1      46.635  18.968  47.029  1.00  0.00    -0.180 NA
ATOM     20  C   UNL A   1      48.558  20.137  46.778  1.00  0.00     0.105 A 
ATOM     21  N   UNL A   1      47.963  19.008  47.252  1.00  0.00    -0.285 N 
ATOM     22  H   UNL A   1      48.454  18.291  47.715  1.00  0.00     0.189 HD
ENDBRANCH  16  17
ENDBRANCH  14  16
ENDBRANCH   8  12
ENDBRANCH   6   7
ENDBRANCH   4   6
ENDBRANCH   3   4
ENDBRANCH   2   3
ENDBRANCH   1   2
BRANCH   1  23
ATOM     23  O   UNL A   1      47.801  22.883  39.554  1.00  0.00    -0.374 OA
BRANCH  23  24
ATOM     24  C   UNL A   1      48.366  23.819  38.640  1.00  0.00     0.202 C 
BRANCH  24  25
ATOM     25  C   UNL A   1      48.647  25.229  39.178  1.00  0.00     0.261 C 
BRANCH  25  26
ATOM     26  O   UNL A   1      47.655  26.184  38.764  1.00  0.00    -0.460 OA
BRANCH  26  27
ATOM     27  C   UNL A   1      47.929  26.810  37.595  1.00  0.00     0.338 C 
ATOM     28  O   UNL A   1      48.919  26.645  36.889  1.00  0.00    -0.246 OA
BRANCH  27  29
ATOM     29  C   UNL A   1      46.782  27.622  37.152  1.00  0.00     0.060 A 
ATOM     30  C   UNL A   1      45.512  27.033  37.225  1.00  0.00     0.016 A 
ATOM     31  C   UNL A   1      46.944  28.890  36.588  1.00  0.00     0.016 A 
ATOM     32  C   UNL A   1      44.408  27.681  36.676  1.00  0.00     0.010 A 
ATOM     33  C   UNL A   1      45.833  29.535  36.030  1.00  0.00     0.010 A 
ATOM     34  C   UNL A   1      44.570  28.915  36.034  1.00  0.00    -0.014 A 
BRANCH  34  35
ATOM     35  C   UNL A   1      43.456  29.470  35.226  1.00  0.00     0.031 A 
ATOM     36  C   UNL A   1      42.572  30.525  35.839  1.00  0.00     0.074 A 
ATOM     37  C   UNL A   1      43.256  29.078  33.956  1.00  0.00     0.049 A 
ATOM     38  N   UNL A   1      41.529  31.130  35.331  1.00  0.00    -0.248 NA
ATOM     39  C   UNL A   1      42.914  30.957  37.205  1.00  0.00     0.031 C 
ATOM     40  C   UNL A   1      44.080  28.113  33.229  1.00  0.00     0.029 A 
ATOM     41  N   UNL A   1      42.292  29.448  33.051  1.00  0.00    -0.354 N 
ATOM     42  C   UNL A   1      41.085  32.006  36.316  1.00  0.00     0.074 A 
ATOM     43  C   UNL A   1      41.955  31.834  37.459  1.00  0.00     0.031 C 
ATOM     44  C   UNL A   1      43.585  27.966  31.988  1.00  0.00     0.029 A 
ATOM     45  C   UNL A   1      42.392  28.798  31.844  1.00  0.00     0.049 A 
ATOM     46  H   UNL A   1      41.597  30.115  33.248  1.00  0.00     0.167 HD
ATOM     47  C   UNL A   1      40.051  32.880  36.272  1.00  0.00     0.031 A 
ATOM     48  C   UNL A   1      41.598  28.853  30.756  1.00  0.00     0.031 A 
ATOM     49  C   UNL A   1      39.175  33.036  35.141  1.00  0.00     0.049 A 
ATOM     50  C   UNL A   1      40.398  29.763  30.762  1.00  0.00     0.074 A 
ATOM     51  C   UNL A   1      38.092  33.886  35.001  1.00  0.00     0.029 A 
ATOM     52  N   UNL A   1      39.277  32.319  33.958  1.00  0.00    -0.354 N 
ATOM     53  N   UNL A   1      39.990  30.584  31.700  1.00  0.00    -0.248 NA
ATOM     54  C   UNL A   1      39.551  29.756  29.559  1.00  0.00     0.031 C 
ATOM     55  C   UNL A   1      37.511  33.649  33.751  1.00  0.00     0.029 A 
ATOM     56  C   UNL A   1      38.265  32.691  33.091  1.00  0.00     0.049 A 
ATOM     57  H   UNL A   1      39.969  31.645  33.764  1.00  0.00     0.167 HD
ATOM     58  C   UNL A   1      38.860  31.215  31.189  1.00  0.00     0.074 A 
ATOM     59  C   UNL A   1      38.650  30.683  29.857  1.00  0.00     0.031 C 
ATOM     60  C   UNL A   1      38.073  32.156  31.767  1.00  0.00     0.031 A 
BRANCH  47  61
ATOM     61  C   UNL A   1      39.791  33.704  37.506  1.00  0.00    -0.014 A 
ATOM     62  C   UNL A   1      40.377  34.972  37.672  1.00  0.00     0.010 A 
ATOM     63  C   UNL A   1      38.941  33.205  38.509  1.00  0.00     0.010 A 
ATOM     64  C   UNL A   1      40.159  35.703  38.843  1.00  0.00     0.020 A 
ATOM     65  C   UNL A   1      38.699  33.945  39.670  1.00  0.00     0.020 A 
ATOM     66  C   UNL A   1      39.328  35.180  39.839  1.00  0.00     0.054 A 
BRANCH  66  67
ATOM     67  S   UNL A   1      39.067  36.144  41.354  1.00  0.00     0.124 S 
ATOM     68  O   UNL A   1      37.864  35.521  41.901  1.00  0.00    -0.237 OA
ATOM     69  O   UNL A   1      40.296  35.903  42.105  1.00  0.00    -0.237 OA
ATOM     70  O   UNL A   1      38.895  37.511  40.869  1.00  0.00    -0.744 OA
ENDBRANCH  66  67
ENDBRANCH  47  61
BRANCH  48  71
ATOM     71  C   UNL A   1      41.910  28.013  29.568  1.00  0.00    -0.014 A 
ATOM     72  C   UNL A   1      42.885  28.420  28.640  1.00  0.00     0.010 A 
ATOM     73  C   UNL A   1      41.239  26.793  29.364  1.00  0.00     0.010 A 
ATOM     74  C   UNL A   1      43.176  27.628  27.526  1.00  0.00     0.020 A 
ATOM     75  C   UNL A   1      41.546  25.986  28.264  1.00  0.00     0.020 A 
ATOM     76  C   UNL A   1      42.507  26.414  27.347  1.00  0.00     0.054 A 
BRANCH  76  77
ATOM     77  S   UNL A   1      42.943  25.374  25.924  1.00  0.00     0.124 S 
ATOM     78  O   UNL A   1      42.397  26.141  24.809  1.00  0.00    -0.237 OA
ATOM     79  O   UNL A   1      44.400  25.325  26.006  1.00  0.00    -0.237 OA
ATOM     80  O   UNL A   1      42.267  24.110  26.205  1.00  0.00    -0.744 OA
ENDBRANCH  76  77
ENDBRANCH  48  71
BRANCH  60  81
ATOM     81  C   UNL A   1      36.933  32.710  30.952  1.00  0.00    -0.014 A 
ATOM     82  C   UNL A   1      35.607  32.305  31.180  1.00  0.00     0.010 A 
ATOM     83  C   UNL A   1      37.191  33.709  29.995  1.00  0.00     0.010 A 
ATOM     84  C   UNL A   1      34.560  32.875  30.450  1.00  0.00     0.020 A 
ATOM     85  C   UNL A   1      36.145  34.298  29.281  1.00  0.00     0.020 A 
ATOM     86  C   UNL A   1      34.836  33.870  29.506  1.00  0.00     0.054 A 
BRANCH  86  87
ATOM     87  S   UNL A   1      33.455  34.639  28.615  1.00  0.00     0.124 S 
ATOM     88  O   UNL A   1      32.543  34.978  29.703  1.00  0.00    -0.237 OA
ATOM     89  O   UNL A   1      34.093  35.775  27.953  1.00  0.00    -0.237 OA
ATOM     90  O   UNL A   1      32.991  33.585  27.717  1.00  0.00    -0.744 OA
ENDBRANCH  86  87
ENDBRANCH  60  81
ENDBRANCH  34  35
ENDBRANCH  27  29
ENDBRANCH  26  27
ENDBRANCH  25  26
ENDBRANCH  24  25
ENDBRANCH  23  24
ENDBRANCH   1  23
TORSDOF 21
ENDMDL
