MODEL 1
REMARK VINA RESULT:     -11.5      0.000      0.000
REMARK SMILES Cc1ccc([C@@H](CC(=O)OCCOCCOC(=O)c2ccc(-c3c4nc(c(-c5ccc(S(=O)(=O)[O-])cc5)c5ccc([nH]5)c(-c5ccc(S(=O)(=O)[O-])cc5)c5nc(c(-c6ccc(S(=O)(=O)[O-])cc6)c6ccc3[nH]6)C=C5)C=C4)cc2)NC(=O)c2ccc(OC(F)F)cc2)cc1
REMARK SMILES IDX 12 1 11 2 10 3 8 4 9 5 7 6 6 7 5 8 1 9 2 10 3 11 93 12 4 13
REMARK SMILES IDX 92 14 79 15 80 16 81 18 82 19 83 20 91 21 84 22 90 23 85 24
REMARK SMILES IDX 86 25 87 26 88 27 89 28 13 29 14 30 15 31 16 32 17 33 18 34
REMARK SMILES IDX 19 35 20 36 78 37 21 38 77 39 22 40 23 41 24 42 71 43 25 44
REMARK SMILES IDX 76 45 70 46 72 47 26 48 75 49 69 50 68 51 27 53 57 54 38 55
REMARK SMILES IDX 56 56 39 57 42 58 55 59 73 60 40 61 41 62 54 64 74 65 43 66
REMARK SMILES IDX 28 67 29 68 37 69 30 70 36 71 31 72 32 73 33 74 34 75 35 76
REMARK SMILES IDX 58 77 59 78 67 79 60 80 66 81 61 82 62 83 63 84 64 85 65 86
REMARK SMILES IDX 44 87 45 88 53 89 46 90 52 91 47 92 48 93 49 94 50 95 51 96
REMARK H PARENT 79 17 72 52 42 63
REMARK Flexibility Score: inf
ROOT
ATOM      1  C   UNL A   1      31.073  26.952  24.998  1.00  0.00     0.202 C 
ENDROOT
BRANCH   1   2
ATOM      2  C   UNL A   1      30.835  25.852  25.999  1.00  0.00     0.261 C 
BRANCH   2   3
ATOM      3  O   UNL A   1      31.752  24.748  25.915  1.00  0.00    -0.463 OA
BRANCH   3   4
ATOM      4  C   UNL A   1      31.498  23.526  26.439  1.00  0.00     0.308 C 
ATOM      5  O   UNL A   1      30.635  23.226  27.235  1.00  0.00    -0.252 OA
BRANCH   4   6
ATOM      6  C   UNL A   1      32.520  22.566  25.893  1.00  0.00     0.152 C 
BRANCH   6   7
ATOM      7  C   UNL A   1      32.225  22.199  24.418  1.00  0.00     0.123 C 
BRANCH   7   8
ATOM      8  C   UNL A   1      32.798  20.803  24.075  1.00  0.00    -0.025 A 
ATOM      9  C   UNL A   1      33.805  16.610  23.550  1.00  0.00     0.044 C 
ATOM     10  C   UNL A   1      33.506  18.074  23.673  1.00  0.00    -0.051 A 
ATOM     11  C   UNL A   1      34.154  18.840  24.638  1.00  0.00     0.004 A 
ATOM     12  C   UNL A   1      32.533  18.685  22.879  1.00  0.00     0.004 A 
ATOM     13  C   UNL A   1      33.833  20.188  24.805  1.00  0.00     0.006 A 
ATOM     14  C   UNL A   1      32.181  20.029  23.078  1.00  0.00     0.006 A 
ENDBRANCH   7   8
BRANCH   7  15
ATOM     15  N   UNL A   1      32.655  23.224  23.450  1.00  0.00    -0.345 N 
ATOM     16  C   UNL A   1      33.779  23.983  23.321  1.00  0.00     0.251 C 
ATOM     17  H   UNL A   1      31.988  23.398  22.746  1.00  0.00     0.164 HD
ATOM     18  O   UNL A   1      33.773  24.991  22.621  1.00  0.00    -0.269 OA
BRANCH  16  19
ATOM     19  C   UNL A   1      35.013  23.599  24.005  1.00  0.00     0.040 A 
ATOM     20  C   UNL A   1      35.311  24.170  25.239  1.00  0.00     0.017 A 
ATOM     21  C   UNL A   1      35.928  22.760  23.374  1.00  0.00     0.017 A 
ATOM     22  C   UNL A   1      36.487  23.804  25.891  1.00  0.00     0.047 A 
ATOM     23  C   UNL A   1      37.081  22.362  24.046  1.00  0.00     0.047 A 
ATOM     24  C   UNL A   1      37.358  22.867  25.318  1.00  0.00     0.126 A 
BRANCH  24  25
ATOM     25  O   UNL A   1      38.445  22.552  26.082  1.00  0.00    -0.435 OA
BRANCH  25  26
ATOM     26  C   UNL A   1      39.049  23.606  26.823  1.00  0.00     0.542 C 
ATOM     27  F   UNL A   1      39.950  23.101  27.700  1.00  0.00    -0.167 F 
ATOM     28  F   UNL A   1      39.686  24.458  25.987  1.00  0.00    -0.167 F 
ENDBRANCH  25  26
ENDBRANCH  24  25
ENDBRANCH  16  19
ENDBRANCH   7  15
ENDBRANCH   6   7
ENDBRANCH   4   6
ENDBRANCH   3   4
ENDBRANCH   2   3
ENDBRANCH   1   2
BRANCH   1  29
ATOM     29  O   UNL A   1      31.528  28.095  25.706  1.00  0.00    -0.374 OA
BRANCH  29  30
ATOM     30  C   UNL A   1      32.326  27.867  26.853  1.00  0.00     0.202 C 
BRANCH  30  31
ATOM     31  C   UNL A   1      33.832  28.097  26.668  1.00  0.00     0.261 C 
BRANCH  31  32
ATOM     32  O   UNL A   1      34.150  29.478  26.378  1.00  0.00    -0.460 OA
BRANCH  32  33
ATOM     33  C   UNL A   1      33.924  30.377  27.382  1.00  0.00     0.338 C 
ATOM     34  O   UNL A   1      32.852  30.920  27.579  1.00  0.00    -0.246 OA
BRANCH  33  35
ATOM     35  C   UNL A   1      35.173  30.602  28.164  1.00  0.00     0.060 A 
ATOM     36  C   UNL A   1      36.157  31.515  27.739  1.00  0.00     0.016 A 
ATOM     37  C   UNL A   1      35.460  29.695  29.177  1.00  0.00     0.016 A 
ATOM     38  C   UNL A   1      37.464  31.426  28.248  1.00  0.00     0.010 A 
ATOM     39  C   UNL A   1      36.773  29.494  29.527  1.00  0.00     0.010 A 
ATOM     40  C   UNL A   1      37.784  30.366  29.091  1.00  0.00    -0.014 A 
BRANCH  40  41
ATOM     41  C   UNL A   1      39.086  30.039  29.671  1.00  0.00     0.031 A 
ATOM     42  C   UNL A   1      39.619  28.692  29.364  1.00  0.00     0.074 A 
ATOM     43  C   UNL A   1      39.920  30.999  30.136  1.00  0.00     0.049 A 
ATOM     44  N   UNL A   1      40.653  28.174  29.929  1.00  0.00    -0.248 NA
ATOM     45  C   UNL A   1      38.995  27.788  28.394  1.00  0.00     0.031 C 
ATOM     46  C   UNL A   1      41.383  31.008  30.119  1.00  0.00     0.029 A 
ATOM     47  N   UNL A   1      39.610  32.178  30.811  1.00  0.00    -0.354 N 
ATOM     48  C   UNL A   1      41.037  27.113  29.144  1.00  0.00     0.074 A 
ATOM     49  C   UNL A   1      39.916  26.832  28.287  1.00  0.00     0.031 C 
ATOM     50  C   UNL A   1      41.832  31.977  30.938  1.00  0.00     0.029 A 
ATOM     51  C   UNL A   1      40.679  32.499  31.652  1.00  0.00     0.049 A 
ATOM     52  H   UNL A   1      38.778  32.695  30.712  1.00  0.00     0.167 HD
ATOM     53  C   UNL A   1      42.336  26.711  29.163  1.00  0.00     0.031 A 
ATOM     54  C   UNL A   1      40.501  32.595  32.997  1.00  0.00     0.031 A 
ATOM     55  C   UNL A   1      43.125  27.508  30.110  1.00  0.00     0.049 A 
ATOM     56  C   UNL A   1      41.366  31.600  33.710  1.00  0.00     0.074 A 
ATOM     57  C   UNL A   1      44.044  28.533  29.948  1.00  0.00     0.029 A 
ATOM     58  N   UNL A   1      42.749  27.544  31.450  1.00  0.00    -0.354 N 
ATOM     59  N   UNL A   1      41.961  30.611  33.105  1.00  0.00    -0.248 NA
ATOM     60  C   UNL A   1      41.638  31.622  35.137  1.00  0.00     0.031 C 
ATOM     61  C   UNL A   1      44.220  29.174  31.209  1.00  0.00     0.029 A 
ATOM     62  C   UNL A   1      43.431  28.526  32.146  1.00  0.00     0.049 A 
ATOM     63  H   UNL A   1      42.080  26.943  31.853  1.00  0.00     0.167 HD
ATOM     64  C   UNL A   1      42.632  29.839  34.001  1.00  0.00     0.074 A 
ATOM     65  C   UNL A   1      42.423  30.537  35.262  1.00  0.00     0.031 C 
ATOM     66  C   UNL A   1      43.236  28.680  33.594  1.00  0.00     0.031 A 
BRANCH  53  67
ATOM     67  C   UNL A   1      42.924  25.807  28.101  1.00  0.00    -0.014 A 
ATOM     68  C   UNL A   1      42.922  24.413  28.297  1.00  0.00     0.010 A 
ATOM     69  C   UNL A   1      43.508  26.259  26.899  1.00  0.00     0.010 A 
ATOM     70  C   UNL A   1      43.515  23.530  27.382  1.00  0.00     0.020 A 
ATOM     71  C   UNL A   1      44.148  25.396  25.997  1.00  0.00     0.020 A 
ATOM     72  C   UNL A   1      44.137  24.029  26.240  1.00  0.00     0.054 A 
BRANCH  72  73
ATOM     73  S   UNL A   1      44.879  22.872  25.061  1.00  0.00     0.124 S 
ATOM     74  O   UNL A   1      45.888  22.195  25.872  1.00  0.00    -0.237 OA
ATOM     75  O   UNL A   1      43.734  22.056  24.669  1.00  0.00    -0.237 OA
ATOM     76  O   UNL A   1      45.412  23.739  24.012  1.00  0.00    -0.744 OA
ENDBRANCH  72  73
ENDBRANCH  53  67
BRANCH  54  77
ATOM     77  C   UNL A   1      39.107  33.006  33.374  1.00  0.00    -0.014 A 
ATOM     78  C   UNL A   1      38.707  34.321  33.054  1.00  0.00     0.010 A 
ATOM     79  C   UNL A   1      38.107  32.029  33.545  1.00  0.00     0.010 A 
ATOM     80  C   UNL A   1      37.369  34.604  32.746  1.00  0.00     0.020 A 
ATOM     81  C   UNL A   1      36.764  32.317  33.235  1.00  0.00     0.020 A 
ATOM     82  C   UNL A   1      36.413  33.590  32.782  1.00  0.00     0.054 A 
BRANCH  82  83
ATOM     83  S   UNL A   1      34.770  33.916  32.050  1.00  0.00     0.124 S 
ATOM     84  O   UNL A   1      34.293  35.037  32.853  1.00  0.00    -0.237 OA
ATOM     85  O   UNL A   1      35.075  34.247  30.658  1.00  0.00    -0.237 OA
ATOM     86  O   UNL A   1      34.063  32.653  32.231  1.00  0.00    -0.744 OA
ENDBRANCH  82  83
ENDBRANCH  54  77
BRANCH  66  87
ATOM     87  C   UNL A   1      43.695  27.563  34.506  1.00  0.00    -0.014 A 
ATOM     88  C   UNL A   1      42.892  26.496  34.924  1.00  0.00     0.010 A 
ATOM     89  C   UNL A   1      45.048  27.525  34.926  1.00  0.00     0.010 A 
ATOM     90  C   UNL A   1      43.398  25.452  35.702  1.00  0.00     0.020 A 
ATOM     91  C   UNL A   1      45.579  26.470  35.672  1.00  0.00     0.020 A 
ATOM     92  C   UNL A   1      44.740  25.441  36.064  1.00  0.00     0.054 A 
BRANCH  92  93
ATOM     93  S   UNL A   1      45.348  24.065  37.054  1.00  0.00     0.124 S 
ATOM     94  O   UNL A   1      44.848  22.913  36.309  1.00  0.00    -0.237 OA
ATOM     95  O   UNL A   1      46.795  24.263  37.006  1.00  0.00    -0.237 OA
ATOM     96  O   UNL A   1      44.734  24.276  38.363  1.00  0.00    -0.744 OA
ENDBRANCH  92  93
ENDBRANCH  66  87
ENDBRANCH  40  41
ENDBRANCH  33  35
ENDBRANCH  32  33
ENDBRANCH  31  32
ENDBRANCH  30  31
ENDBRANCH  29  30
ENDBRANCH   1  29
TORSDOF 23
ENDMDL
MODEL 2
REMARK VINA RESULT:     -11.5      1.886      2.418
REMARK SMILES Cc1ccc([C@@H](CC(=O)OCCOCCOC(=O)c2ccc(-c3c4nc(c(-c5ccc(S(=O)(=O)[O-])cc5)c5ccc([nH]5)c(-c5ccc(S(=O)(=O)[O-])cc5)c5nc(c(-c6ccc(S(=O)(=O)[O-])cc6)c6ccc3[nH]6)C=C5)C=C4)cc2)NC(=O)c2ccc(OC(F)F)cc2)cc1
REMARK SMILES IDX 12 1 11 2 10 3 8 4 9 5 7 6 6 7 5 8 1 9 2 10 3 11 93 12 4 13
REMARK SMILES IDX 92 14 79 15 80 16 81 18 82 19 83 20 91 21 84 22 90 23 85 24
REMARK SMILES IDX 86 25 87 26 88 27 89 28 13 29 14 30 15 31 16 32 17 33 18 34
REMARK SMILES IDX 19 35 20 36 78 37 21 38 77 39 22 40 23 41 24 42 71 43 25 44
REMARK SMILES IDX 76 45 70 46 72 47 26 48 75 49 69 50 68 51 27 53 57 54 38 55
REMARK SMILES IDX 56 56 39 57 42 58 55 59 73 60 40 61 41 62 54 64 74 65 43 66
REMARK SMILES IDX 28 67 29 68 37 69 30 70 36 71 31 72 32 73 33 74 34 75 35 76
REMARK SMILES IDX 58 77 59 78 67 79 60 80 66 81 61 82 62 83 63 84 64 85 65 86
REMARK SMILES IDX 44 87 45 88 53 89 46 90 52 91 47 92 48 93 49 94 50 95 51 96
REMARK H PARENT 79 17 72 52 42 63
REMARK Flexibility Score: inf
ROOT
ATOM      1  C   UNL A   1      31.703  27.294  25.099  1.00  0.00     0.202 C 
ENDROOT
BRANCH   1   2
ATOM      2  C   UNL A   1      31.515  26.283  26.199  1.00  0.00     0.261 C 
BRANCH   2   3
ATOM      3  O   UNL A   1      32.232  25.050  26.018  1.00  0.00    -0.463 OA
BRANCH   3   4
ATOM      4  C   UNL A   1      31.833  23.869  26.548  1.00  0.00     0.308 C 
ATOM      5  O   UNL A   1      30.927  23.677  27.328  1.00  0.00    -0.252 OA
BRANCH   4   6
ATOM      6  C   UNL A   1      32.752  22.795  26.032  1.00  0.00     0.152 C 
BRANCH   6   7
ATOM      7  C   UNL A   1      32.465  22.467  24.545  1.00  0.00     0.123 C 
BRANCH   7   8
ATOM      8  C   UNL A   1      32.915  21.026  24.206  1.00  0.00    -0.025 A 
ATOM      9  C   UNL A   1      33.544  16.760  23.674  1.00  0.00     0.044 C 
ATOM     10  C   UNL A   1      33.378  18.245  23.802  1.00  0.00    -0.051 A 
ATOM     11  C   UNL A   1      34.070  18.942  24.787  1.00  0.00     0.004 A 
ATOM     12  C   UNL A   1      32.485  18.947  22.989  1.00  0.00     0.004 A 
ATOM     13  C   UNL A   1      33.871  20.314  24.956  1.00  0.00     0.006 A 
ATOM     14  C   UNL A   1      32.254  20.317  23.189  1.00  0.00     0.006 A 
ENDBRANCH   7   8
BRANCH   7  15
ATOM     15  N   UNL A   1      33.016  23.453  23.598  1.00  0.00    -0.345 N 
ATOM     16  C   UNL A   1      34.222  24.075  23.483  1.00  0.00     0.251 C 
ATOM     17  H   UNL A   1      32.374  23.720  22.900  1.00  0.00     0.164 HD
ATOM     18  O   UNL A   1      34.337  25.091  22.804  1.00  0.00    -0.269 OA
BRANCH  16  19
ATOM     19  C   UNL A   1      35.401  23.532  24.157  1.00  0.00     0.040 A 
ATOM     20  C   UNL A   1      36.124  22.513  23.543  1.00  0.00     0.017 A 
ATOM     21  C   UNL A   1      35.724  23.952  25.445  1.00  0.00     0.017 A 
ATOM     22  C   UNL A   1      37.248  21.995  24.185  1.00  0.00     0.047 A 
ATOM     23  C   UNL A   1      36.871  23.464  26.065  1.00  0.00     0.047 A 
ATOM     24  C   UNL A   1      37.652  22.496  25.430  1.00  0.00     0.126 A 
BRANCH  24  25
ATOM     25  O   UNL A   1      38.798  21.945  25.925  1.00  0.00    -0.435 OA
BRANCH  25  26
ATOM     26  C   UNL A   1      39.596  22.756  26.781  1.00  0.00     0.542 C 
ATOM     27  F   UNL A   1      40.302  21.976  27.635  1.00  0.00    -0.167 F 
ATOM     28  F   UNL A   1      40.461  23.495  26.049  1.00  0.00    -0.167 F 
ENDBRANCH  25  26
ENDBRANCH  24  25
ENDBRANCH  16  19
ENDBRANCH   7  15
ENDBRANCH   6   7
ENDBRANCH   4   6
ENDBRANCH   3   4
ENDBRANCH   2   3
ENDBRANCH   1   2
BRANCH   1  29
ATOM     29  O   UNL A   1      31.851  28.570  25.701  1.00  0.00    -0.374 OA
BRANCH  29  30
ATOM     30  C   UNL A   1      33.142  28.918  26.167  1.00  0.00     0.202 C 
BRANCH  30  31
ATOM     31  C   UNL A   1      33.337  30.395  26.535  1.00  0.00     0.261 C 
BRANCH  31  32
ATOM     32  O   UNL A   1      33.931  30.567  27.842  1.00  0.00    -0.460 OA
BRANCH  32  33
ATOM     33  C   UNL A   1      35.134  31.214  27.882  1.00  0.00     0.338 C 
ATOM     34  O   UNL A   1      35.298  32.366  27.521  1.00  0.00    -0.246 OA
BRANCH  33  35
ATOM     35  C   UNL A   1      36.194  30.303  28.402  1.00  0.00     0.060 A 
ATOM     36  C   UNL A   1      36.197  29.861  29.739  1.00  0.00     0.016 A 
ATOM     37  C   UNL A   1      37.319  30.118  27.607  1.00  0.00     0.016 A 
ATOM     38  C   UNL A   1      37.378  29.350  30.306  1.00  0.00     0.010 A 
ATOM     39  C   UNL A   1      38.507  29.797  28.216  1.00  0.00     0.010 A 
ATOM     40  C   UNL A   1      38.551  29.386  29.557  1.00  0.00    -0.014 A 
BRANCH  40  41
ATOM     41  C   UNL A   1      39.894  28.981  29.971  1.00  0.00     0.031 A 
ATOM     42  C   UNL A   1      40.373  27.680  29.452  1.00  0.00     0.074 A 
ATOM     43  C   UNL A   1      40.783  29.871  30.474  1.00  0.00     0.049 A 
ATOM     44  N   UNL A   1      41.445  27.090  29.851  1.00  0.00    -0.248 NA
ATOM     45  C   UNL A   1      39.649  26.908  28.438  1.00  0.00     0.031 C 
ATOM     46  C   UNL A   1      42.238  29.873  30.324  1.00  0.00     0.029 A 
ATOM     47  N   UNL A   1      40.555  30.958  31.315  1.00  0.00    -0.354 N 
ATOM     48  C   UNL A   1      41.739  26.133  28.909  1.00  0.00     0.074 A 
ATOM     49  C   UNL A   1      40.540  25.968  28.130  1.00  0.00     0.031 C 
ATOM     50  C   UNL A   1      42.776  30.730  31.212  1.00  0.00     0.029 A 
ATOM     51  C   UNL A   1      41.700  31.165  32.088  1.00  0.00     0.049 A 
ATOM     52  H   UNL A   1      39.727  31.489  31.357  1.00  0.00     0.167 HD
ATOM     53  C   UNL A   1      43.027  25.724  28.759  1.00  0.00     0.031 A 
ATOM     54  C   UNL A   1      41.646  31.093  33.445  1.00  0.00     0.031 A 
ATOM     55  C   UNL A   1      43.912  26.392  29.722  1.00  0.00     0.049 A 
ATOM     56  C   UNL A   1      42.554  30.011  33.948  1.00  0.00     0.074 A 
ATOM     57  C   UNL A   1      44.830  27.423  29.606  1.00  0.00     0.029 A 
ATOM     58  N   UNL A   1      43.658  26.262  31.085  1.00  0.00    -0.354 N 
ATOM     59  N   UNL A   1      43.075  29.103  33.173  1.00  0.00    -0.248 NA
ATOM     60  C   UNL A   1      42.954  29.853  35.335  1.00  0.00     0.031 C 
ATOM     61  C   UNL A   1      45.129  27.900  30.914  1.00  0.00     0.029 A 
ATOM     62  C   UNL A   1      44.417  27.145  31.832  1.00  0.00     0.049 A 
ATOM     63  H   UNL A   1      43.017  25.619  31.470  1.00  0.00     0.167 HD
ATOM     64  C   UNL A   1      43.810  28.220  33.901  1.00  0.00     0.074 A 
ATOM     65  C   UNL A   1      43.728  28.756  35.252  1.00  0.00     0.031 C 
ATOM     66  C   UNL A   1      44.355  27.118  33.300  1.00  0.00     0.031 A 
BRANCH  53  67
ATOM     67  C   UNL A   1      43.502  24.956  27.545  1.00  0.00    -0.014 A 
ATOM     68  C   UNL A   1      43.542  23.549  27.585  1.00  0.00     0.010 A 
ATOM     69  C   UNL A   1      43.936  25.552  26.342  1.00  0.00     0.010 A 
ATOM     70  C   UNL A   1      44.039  22.787  26.516  1.00  0.00     0.020 A 
ATOM     71  C   UNL A   1      44.480  24.808  25.283  1.00  0.00     0.020 A 
ATOM     72  C   UNL A   1      44.517  23.424  25.373  1.00  0.00     0.054 A 
BRANCH  72  73
ATOM     73  S   UNL A   1      45.134  22.422  23.998  1.00  0.00     0.124 S 
ATOM     74  O   UNL A   1      44.011  22.437  23.063  1.00  0.00    -0.237 OA
ATOM     75  O   UNL A   1      46.314  23.170  23.576  1.00  0.00    -0.237 OA
ATOM     76  O   UNL A   1      45.408  21.122  24.609  1.00  0.00    -0.744 OA
ENDBRANCH  72  73
ENDBRANCH  53  67
BRANCH  54  77
ATOM     77  C   UNL A   1      40.299  31.462  33.995  1.00  0.00    -0.014 A 
ATOM     78  C   UNL A   1      39.499  30.420  34.513  1.00  0.00     0.010 A 
ATOM     79  C   UNL A   1      40.058  32.773  34.449  1.00  0.00     0.010 A 
ATOM     80  C   UNL A   1      38.613  30.660  35.573  1.00  0.00     0.020 A 
ATOM     81  C   UNL A   1      39.167  33.011  35.513  1.00  0.00     0.020 A 
ATOM     82  C   UNL A   1      38.492  31.942  36.106  1.00  0.00     0.054 A 
BRANCH  82  83
ATOM     83  S   UNL A   1      37.600  32.146  37.688  1.00  0.00     0.124 S 
ATOM     84  O   UNL A   1      36.648  33.205  37.370  1.00  0.00    -0.237 OA
ATOM     85  O   UNL A   1      36.999  30.831  37.914  1.00  0.00    -0.237 OA
ATOM     86  O   UNL A   1      38.657  32.498  38.630  1.00  0.00    -0.744 OA
ENDBRANCH  82  83
ENDBRANCH  54  77
BRANCH  66  87
ATOM     87  C   UNL A   1      44.874  25.893  34.020  1.00  0.00    -0.014 A 
ATOM     88  C   UNL A   1      44.092  24.791  34.382  1.00  0.00     0.010 A 
ATOM     89  C   UNL A   1      46.261  25.790  34.299  1.00  0.00     0.010 A 
ATOM     90  C   UNL A   1      44.647  23.654  34.975  1.00  0.00     0.020 A 
ATOM     91  C   UNL A   1      46.838  24.647  34.856  1.00  0.00     0.020 A 
ATOM     92  C   UNL A   1      46.017  23.586  35.201  1.00  0.00     0.054 A 
BRANCH  92  93
ATOM     93  S   UNL A   1      46.687  22.092  35.953  1.00  0.00     0.124 S 
ATOM     94  O   UNL A   1      45.900  21.994  37.180  1.00  0.00    -0.237 OA
ATOM     95  O   UNL A   1      46.399  21.079  34.940  1.00  0.00    -0.237 OA
ATOM     96  O   UNL A   1      48.103  22.398  36.142  1.00  0.00    -0.744 OA
ENDBRANCH  92  93
ENDBRANCH  66  87
ENDBRANCH  40  41
ENDBRANCH  33  35
ENDBRANCH  32  33
ENDBRANCH  31  32
ENDBRANCH  30  31
ENDBRANCH  29  30
ENDBRANCH   1  29
TORSDOF 23
ENDMDL
MODEL 3
REMARK VINA RESULT:     -10.9      2.091      3.380
REMARK SMILES Cc1ccc([C@@H](CC(=O)OCCOCCOC(=O)c2ccc(-c3c4nc(c(-c5ccc(S(=O)(=O)[O-])cc5)c5ccc([nH]5)c(-c5ccc(S(=O)(=O)[O-])cc5)c5nc(c(-c6ccc(S(=O)(=O)[O-])cc6)c6ccc3[nH]6)C=C5)C=C4)cc2)NC(=O)c2ccc(OC(F)F)cc2)cc1
REMARK SMILES IDX 12 1 11 2 10 3 8 4 9 5 7 6 6 7 5 8 1 9 2 10 3 11 93 12 4 13
REMARK SMILES IDX 92 14 79 15 80 16 81 18 82 19 83 20 91 21 84 22 90 23 85 24
REMARK SMILES IDX 86 25 87 26 88 27 89 28 13 29 14 30 15 31 16 32 17 33 18 34
REMARK SMILES IDX 19 35 20 36 78 37 21 38 77 39 22 40 23 41 24 42 71 43 25 44
REMARK SMILES IDX 76 45 70 46 72 47 26 48 75 49 69 50 68 51 27 53 57 54 38 55
REMARK SMILES IDX 56 56 39 57 42 58 55 59 73 60 40 61 41 62 54 64 74 65 43 66
REMARK SMILES IDX 28 67 29 68 37 69 30 70 36 71 31 72 32 73 33 74 34 75 35 76
REMARK SMILES IDX 58 77 59 78 67 79 60 80 66 81 61 82 62 83 63 84 64 85 65 86
REMARK SMILES IDX 44 87 45 88 53 89 46 90 52 91 47 92 48 93 49 94 50 95 51 96
REMARK H PARENT 79 17 72 52 42 63
REMARK Flexibility Score: inf
ROOT
ATOM      1  C   UNL A   1      33.071  26.520  24.814  1.00  0.00     0.202 C 
ENDROOT
BRANCH   1   2
ATOM      2  C   UNL A   1      32.189  25.743  25.755  1.00  0.00     0.261 C 
BRANCH   2   3
ATOM      3  O   UNL A   1      32.876  24.786  26.579  1.00  0.00    -0.463 OA
BRANCH   3   4
ATOM      4  C   UNL A   1      32.336  23.603  26.956  1.00  0.00     0.308 C 
ATOM      5  O   UNL A   1      31.163  23.320  27.047  1.00  0.00    -0.252 OA
BRANCH   4   6
ATOM      6  C   UNL A   1      33.465  22.668  27.302  1.00  0.00     0.152 C 
BRANCH   6   7
ATOM      7  C   UNL A   1      34.097  22.047  26.031  1.00  0.00     0.123 C 
BRANCH   7   8
ATOM      8  C   UNL A   1      35.580  22.469  25.896  1.00  0.00    -0.025 A 
ATOM      9  C   UNL A   1      39.808  23.399  26.264  1.00  0.00     0.044 C 
ATOM     10  C   UNL A   1      38.355  23.088  26.060  1.00  0.00    -0.051 A 
ATOM     11  C   UNL A   1      37.396  24.079  26.242  1.00  0.00     0.004 A 
ATOM     12  C   UNL A   1      37.927  21.793  25.753  1.00  0.00     0.004 A 
ATOM     13  C   UNL A   1      36.038  23.781  26.121  1.00  0.00     0.006 A 
ATOM     14  C   UNL A   1      36.560  21.487  25.675  1.00  0.00     0.006 A 
ENDBRANCH   7   8
BRANCH   7  15
ATOM     15  N   UNL A   1      33.336  22.307  24.796  1.00  0.00    -0.345 N 
ATOM     16  C   UNL A   1      33.005  21.545  23.717  1.00  0.00     0.251 C 
ATOM     17  H   UNL A   1      32.993  23.229  24.739  1.00  0.00     0.164 HD
ATOM     18  O   UNL A   1      32.639  22.072  22.670  1.00  0.00    -0.269 OA
BRANCH  16  19
ATOM     19  C   UNL A   1      33.070  20.087  23.795  1.00  0.00     0.040 A 
ATOM     20  C   UNL A   1      34.081  19.491  24.544  1.00  0.00     0.017 A 
ATOM     21  C   UNL A   1      32.200  19.309  23.036  1.00  0.00     0.017 A 
ATOM     22  C   UNL A   1      34.143  18.101  24.618  1.00  0.00     0.047 A 
ATOM     23  C   UNL A   1      32.237  17.921  23.145  1.00  0.00     0.047 A 
ATOM     24  C   UNL A   1      33.197  17.308  23.954  1.00  0.00     0.126 A 
BRANCH  24  25
ATOM     25  O   UNL A   1      33.334  15.964  24.152  1.00  0.00    -0.435 OA
BRANCH  25  26
ATOM     26  C   UNL A   1      33.026  15.461  25.447  1.00  0.00     0.542 C 
ATOM     27  F   UNL A   1      31.720  15.679  25.732  1.00  0.00    -0.167 F 
ATOM     28  F   UNL A   1      33.266  14.130  25.498  1.00  0.00    -0.167 F 
ENDBRANCH  25  26
ENDBRANCH  24  25
ENDBRANCH  16  19
ENDBRANCH   7  15
ENDBRANCH   6   7
ENDBRANCH   4   6
ENDBRANCH   3   4
ENDBRANCH   2   3
ENDBRANCH   1   2
BRANCH   1  29
ATOM     29  O   UNL A   1      32.682  27.883  24.876  1.00  0.00    -0.374 OA
BRANCH  29  30
ATOM     30  C   UNL A   1      32.652  28.488  26.155  1.00  0.00     0.202 C 
BRANCH  30  31
ATOM     31  C   UNL A   1      32.910  30.001  26.179  1.00  0.00     0.261 C 
BRANCH  31  32
ATOM     32  O   UNL A   1      33.011  30.525  27.523  1.00  0.00    -0.460 OA
BRANCH  32  33
ATOM     33  C   UNL A   1      33.956  31.491  27.728  1.00  0.00     0.338 C 
ATOM     34  O   UNL A   1      33.710  32.683  27.771  1.00  0.00    -0.246 OA
BRANCH  33  35
ATOM     35  C   UNL A   1      35.306  30.873  27.865  1.00  0.00     0.060 A 
ATOM     36  C   UNL A   1      35.466  29.503  28.145  1.00  0.00     0.016 A 
ATOM     37  C   UNL A   1      36.391  31.735  27.975  1.00  0.00     0.016 A 
ATOM     38  C   UNL A   1      36.687  29.029  28.656  1.00  0.00     0.010 A 
ATOM     39  C   UNL A   1      37.508  31.302  28.646  1.00  0.00     0.010 A 
ATOM     40  C   UNL A   1      37.683  29.948  28.971  1.00  0.00    -0.014 A 
BRANCH  40  41
ATOM     41  C   UNL A   1      38.989  29.687  29.576  1.00  0.00     0.031 A 
ATOM     42  C   UNL A   1      39.631  28.402  29.217  1.00  0.00     0.074 A 
ATOM     43  C   UNL A   1      39.733  30.678  30.121  1.00  0.00     0.049 A 
ATOM     44  N   UNL A   1      40.685  27.932  29.788  1.00  0.00    -0.248 NA
ATOM     45  C   UNL A   1      39.107  27.510  28.179  1.00  0.00     0.031 C 
ATOM     46  C   UNL A   1      41.191  30.797  30.153  1.00  0.00     0.029 A 
ATOM     47  N   UNL A   1      39.314  31.792  30.846  1.00  0.00    -0.354 N 
ATOM     48  C   UNL A   1      41.171  26.947  28.961  1.00  0.00     0.074 A 
ATOM     49  C   UNL A   1      40.101  26.632  28.052  1.00  0.00     0.031 C 
ATOM     50  C   UNL A   1      41.540  31.750  31.038  1.00  0.00     0.029 A 
ATOM     51  C   UNL A   1      40.330  32.144  31.739  1.00  0.00     0.049 A 
ATOM     52  H   UNL A   1      38.449  32.251  30.747  1.00  0.00     0.167 HD
ATOM     53  C   UNL A   1      42.496  26.643  29.003  1.00  0.00     0.031 A 
ATOM     54  C   UNL A   1      40.104  32.151  33.080  1.00  0.00     0.031 A 
ATOM     55  C   UNL A   1      43.193  27.442  30.017  1.00  0.00     0.049 A 
ATOM     56  C   UNL A   1      41.021  31.185  33.769  1.00  0.00     0.074 A 
ATOM     57  C   UNL A   1      44.037  28.540  29.942  1.00  0.00     0.029 A 
ATOM     58  N   UNL A   1      42.775  27.375  31.344  1.00  0.00    -0.354 N 
ATOM     59  N   UNL A   1      41.707  30.279  33.132  1.00  0.00    -0.248 NA
ATOM     60  C   UNL A   1      41.248  31.148  35.203  1.00  0.00     0.031 C 
ATOM     61  C   UNL A   1      44.125  29.121  31.240  1.00  0.00     0.029 A 
ATOM     62  C   UNL A   1      43.360  28.366  32.114  1.00  0.00     0.049 A 
ATOM     63  H   UNL A   1      42.142  26.705  31.691  1.00  0.00     0.167 HD
ATOM     64  C   UNL A   1      42.408  29.509  34.008  1.00  0.00     0.074 A 
ATOM     65  C   UNL A   1      42.109  30.119  35.297  1.00  0.00     0.031 C 
ATOM     66  C   UNL A   1      43.110  28.424  33.561  1.00  0.00     0.031 A 
BRANCH  53  67
ATOM     67  C   UNL A   1      43.183  25.845  27.916  1.00  0.00    -0.014 A 
ATOM     68  C   UNL A   1      43.575  24.518  28.171  1.00  0.00     0.010 A 
ATOM     69  C   UNL A   1      43.486  26.342  26.630  1.00  0.00     0.010 A 
ATOM     70  C   UNL A   1      44.278  23.753  27.226  1.00  0.00     0.020 A 
ATOM     71  C   UNL A   1      44.229  25.609  25.692  1.00  0.00     0.020 A 
ATOM     72  C   UNL A   1      44.612  24.309  25.994  1.00  0.00     0.054 A 
BRANCH  72  73
ATOM     73  S   UNL A   1      45.500  23.299  24.781  1.00  0.00     0.124 S 
ATOM     74  O   UNL A   1      46.016  22.203  25.597  1.00  0.00    -0.237 OA
ATOM     75  O   UNL A   1      44.440  22.942  23.843  1.00  0.00    -0.237 OA
ATOM     76  O   UNL A   1      46.518  24.206  24.253  1.00  0.00    -0.744 OA
ENDBRANCH  72  73
ENDBRANCH  53  67
BRANCH  54  77
ATOM     77  C   UNL A   1      38.673  32.436  33.431  1.00  0.00    -0.014 A 
ATOM     78  C   UNL A   1      38.246  33.781  33.383  1.00  0.00     0.010 A 
ATOM     79  C   UNL A   1      37.701  31.424  33.302  1.00  0.00     0.010 A 
ATOM     80  C   UNL A   1      36.923  34.097  33.044  1.00  0.00     0.020 A 
ATOM     81  C   UNL A   1      36.374  31.746  32.961  1.00  0.00     0.020 A 
ATOM     82  C   UNL A   1      36.007  33.080  32.779  1.00  0.00     0.054 A 
BRANCH  82  83
ATOM     83  S   UNL A   1      34.408  33.527  32.014  1.00  0.00     0.124 S 
ATOM     84  O   UNL A   1      33.456  33.172  33.061  1.00  0.00    -0.237 OA
ATOM     85  O   UNL A   1      34.537  34.963  31.766  1.00  0.00    -0.237 OA
ATOM     86  O   UNL A   1      34.368  32.706  30.808  1.00  0.00    -0.744 OA
ENDBRANCH  82  83
ENDBRANCH  54  77
BRANCH  66  87
ATOM     87  C   UNL A   1      43.625  27.294  34.427  1.00  0.00    -0.014 A 
ATOM     88  C   UNL A   1      42.869  26.186  34.823  1.00  0.00     0.010 A 
ATOM     89  C   UNL A   1      44.987  27.292  34.822  1.00  0.00     0.010 A 
ATOM     90  C   UNL A   1      43.425  25.136  35.557  1.00  0.00     0.020 A 
ATOM     91  C   UNL A   1      45.568  26.233  35.523  1.00  0.00     0.020 A 
ATOM     92  C   UNL A   1      44.773  25.162  35.896  1.00  0.00     0.054 A 
BRANCH  92  93
ATOM     93  S   UNL A   1      45.448  23.777  36.829  1.00  0.00     0.124 S 
ATOM     94  O   UNL A   1      46.886  23.978  36.670  1.00  0.00    -0.237 OA
ATOM     95  O   UNL A   1      44.925  24.023  38.171  1.00  0.00    -0.237 OA
ATOM     96  O   UNL A   1      44.903  22.601  36.156  1.00  0.00    -0.744 OA
ENDBRANCH  92  93
ENDBRANCH  66  87
ENDBRANCH  40  41
ENDBRANCH  33  35
ENDBRANCH  32  33
ENDBRANCH  31  32
ENDBRANCH  30  31
ENDBRANCH  29  30
ENDBRANCH   1  29
TORSDOF 23
ENDMDL
