MODEL 1
REMARK VINA RESULT:     -11.2      0.000      0.000
REMARK SMILES Cc1c[nH]c(C[N@@H+](C)[C@@H](C(=O)OCCOCCOC(=O)c2ccc(-c3c4nc(c(-c5ccc(S(=O)(=O)[O-])cc5)c5ccc([nH]5)c(-c5ccc(S(=O)(=O)[O-])cc5)c5nc(c(-c6ccc(S(=O)(=O)[O-])cc6)c6ccc3[nH]6)C=C5)C=C4)cc2)c2ccc(NC(=O)N3CCCC3)cc2)n1
REMARK SMILES IDX 15 1 14 2 13 3 12 4 10 5 11 6 9 7 7 8 8 9 6 11 5 12 1 13
REMARK SMILES IDX 2 14 3 15 95 16 4 17 81 19 82 20 94 21 83 22 93 23 84 24
REMARK SMILES IDX 85 25 86 26 87 28 88 29 89 30 92 31 90 32 91 33 16 34 17 35
REMARK SMILES IDX 18 36 19 37 20 38 21 39 22 40 80 41 23 42 79 43 24 44 25 45
REMARK SMILES IDX 26 46 73 47 27 48 78 49 72 50 74 51 28 52 77 53 71 54 70 55
REMARK SMILES IDX 29 57 59 58 40 59 58 60 41 61 44 62 57 63 75 64 42 65 43 66
REMARK SMILES IDX 56 68 76 69 45 70 30 71 31 72 39 73 32 74 38 75 33 76 34 77
REMARK SMILES IDX 35 78 36 79 37 80 60 81 61 82 69 83 62 84 68 85 63 86 64 87
REMARK SMILES IDX 65 88 66 89 67 90 46 91 47 92 55 93 48 94 54 95 49 96 50 97
REMARK SMILES IDX 51 98 52 99 53 100
REMARK H PARENT 7 10 4 18 85 27 74 56 44 67
REMARK Flexibility Score: inf
ROOT
ATOM      1  O   UNL A   1      40.245  20.896  25.895  1.00  0.00    -0.374 OA
ENDROOT
BRANCH   1   2
ATOM      2  C   UNL A   1      38.831  20.752  25.745  1.00  0.00     0.202 C 
BRANCH   2   3
ATOM      3  C   UNL A   1      38.046  22.053  25.572  1.00  0.00     0.261 C 
BRANCH   3   4
ATOM      4  O   UNL A   1      36.654  21.891  25.909  1.00  0.00    -0.459 OA
BRANCH   4   5
ATOM      5  C   UNL A   1      35.810  22.102  24.860  1.00  0.00     0.369 C 
ATOM      6  O   UNL A   1      36.209  22.267  23.708  1.00  0.00    -0.245 OA
BRANCH   5   7
ATOM      7  C   UNL A   1      34.304  21.965  25.199  1.00  0.00     0.326 C 
BRANCH   7   8
ATOM      8  N   UNL A   1      33.502  20.969  24.417  1.00  0.00    -0.316 N 
ATOM      9  C   UNL A   1      32.767  21.619  23.325  1.00  0.00     0.334 C 
ATOM     10  H   UNL A   1      34.260  20.362  24.106  1.00  0.00     0.349 HD
BRANCH   8  11
ATOM     11  C   UNL A   1      32.613  20.007  25.092  1.00  0.00     0.339 C 
BRANCH  11  12
ATOM     12  C   UNL A   1      32.980  18.544  25.076  1.00  0.00     0.161 A 
ATOM     13  C   UNL A   1      32.567  15.029  25.583  1.00  0.00     0.068 C 
ATOM     14  C   UNL A   1      33.072  16.393  25.311  1.00  0.00     0.056 A 
ATOM     15  C   UNL A   1      34.282  16.760  24.774  1.00  0.00     0.107 A 
ATOM     16  N   UNL A   1      32.303  17.512  25.556  1.00  0.00    -0.233 NA
ATOM     17  N   UNL A   1      34.206  18.114  24.622  1.00  0.00    -0.344 N 
ATOM     18  H   UNL A   1      34.912  18.689  24.250  1.00  0.00     0.167 HD
ENDBRANCH  11  12
ENDBRANCH   8  11
ENDBRANCH   7   8
BRANCH   7  19
ATOM     19  C   UNL A   1      33.630  23.313  25.449  1.00  0.00     0.021 A 
ATOM     20  C   UNL A   1      32.362  23.432  26.030  1.00  0.00     0.012 A 
ATOM     21  C   UNL A   1      34.278  24.497  25.063  1.00  0.00     0.012 A 
ATOM     22  C   UNL A   1      31.836  24.687  26.337  1.00  0.00     0.027 A 
ATOM     23  C   UNL A   1      33.776  25.748  25.437  1.00  0.00     0.027 A 
ATOM     24  C   UNL A   1      32.599  25.839  26.175  1.00  0.00     0.042 A 
BRANCH  24  25
ATOM     25  N   UNL A   1      32.246  27.087  26.722  1.00  0.00    -0.308 N 
ATOM     26  C   UNL A   1      31.812  28.236  26.130  1.00  0.00     0.321 C 
ATOM     27  H   UNL A   1      32.327  27.138  27.702  1.00  0.00     0.171 HD
ATOM     28  O   UNL A   1      31.991  29.304  26.721  1.00  0.00    -0.248 OA
ATOM     29  N   UNL A   1      31.208  28.192  24.909  1.00  0.00    -0.325 N 
ATOM     30  C   UNL A   1      30.155  27.291  24.479  1.00  0.00     0.121 C 
ATOM     31  C   UNL A   1      31.304  29.300  23.989  1.00  0.00     0.121 C 
ATOM     32  C   UNL A   1      30.251  27.349  22.965  1.00  0.00     0.023 C 
ATOM     33  C   UNL A   1      30.715  28.779  22.678  1.00  0.00     0.023 C 
ENDBRANCH  24  25
ENDBRANCH   7  19
ENDBRANCH   5   7
ENDBRANCH   4   5
ENDBRANCH   3   4
ENDBRANCH   2   3
ENDBRANCH   1   2
BRANCH   1  34
ATOM     34  C   UNL A   1      40.737  21.064  27.222  1.00  0.00     0.202 C 
BRANCH  34  35
ATOM     35  C   UNL A   1      40.845  22.509  27.732  1.00  0.00     0.261 C 
BRANCH  35  36
ATOM     36  O   UNL A   1      40.863  23.473  26.664  1.00  0.00    -0.460 OA
BRANCH  36  37
ATOM     37  C   UNL A   1      41.832  24.412  26.781  1.00  0.00     0.338 C 
ATOM     38  O   UNL A   1      42.902  24.440  26.178  1.00  0.00    -0.246 OA
BRANCH  37  39
ATOM     39  C   UNL A   1      41.368  25.552  27.589  1.00  0.00     0.060 A 
ATOM     40  C   UNL A   1      42.258  26.624  27.745  1.00  0.00     0.016 A 
ATOM     41  C   UNL A   1      40.149  25.536  28.268  1.00  0.00     0.016 A 
ATOM     42  C   UNL A   1      41.960  27.654  28.631  1.00  0.00     0.010 A 
ATOM     43  C   UNL A   1      39.855  26.574  29.165  1.00  0.00     0.010 A 
ATOM     44  C   UNL A   1      40.780  27.612  29.384  1.00  0.00    -0.014 A 
BRANCH  44  45
ATOM     45  C   UNL A   1      40.619  28.564  30.513  1.00  0.00     0.031 A 
ATOM     46  C   UNL A   1      41.558  28.466  31.688  1.00  0.00     0.074 A 
ATOM     47  C   UNL A   1      39.707  29.552  30.460  1.00  0.00     0.049 A 
ATOM     48  N   UNL A   1      41.619  29.208  32.763  1.00  0.00    -0.248 NA
ATOM     49  C   UNL A   1      42.565  27.392  31.642  1.00  0.00     0.031 C 
ATOM     50  C   UNL A   1      38.780  29.789  29.353  1.00  0.00     0.029 A 
ATOM     51  N   UNL A   1      39.418  30.549  31.358  1.00  0.00    -0.354 N 
ATOM     52  C   UNL A   1      42.663  28.691  33.523  1.00  0.00     0.074 A 
ATOM     53  C   UNL A   1      43.189  27.554  32.801  1.00  0.00     0.031 C 
ATOM     54  C   UNL A   1      38.025  30.864  29.639  1.00  0.00     0.029 A 
ATOM     55  C   UNL A   1      38.392  31.373  30.959  1.00  0.00     0.049 A 
ATOM     56  H   UNL A   1      39.901  30.663  32.210  1.00  0.00     0.167 HD
ATOM     57  C   UNL A   1      43.144  29.126  34.712  1.00  0.00     0.031 A 
ATOM     58  C   UNL A   1      37.805  32.407  31.594  1.00  0.00     0.031 A 
ATOM     59  C   UNL A   1      42.618  30.254  35.431  1.00  0.00     0.049 A 
ATOM     60  C   UNL A   1      38.311  32.825  32.950  1.00  0.00     0.074 A 
ATOM     61  C   UNL A   1      43.047  30.780  36.639  1.00  0.00     0.029 A 
ATOM     62  N   UNL A   1      41.547  31.029  35.016  1.00  0.00    -0.354 N 
ATOM     63  N   UNL A   1      39.311  32.336  33.644  1.00  0.00    -0.248 NA
ATOM     64  C   UNL A   1      37.614  33.942  33.605  1.00  0.00     0.031 C 
ATOM     65  C   UNL A   1      42.198  31.836  36.981  1.00  0.00     0.029 A 
ATOM     66  C   UNL A   1      41.282  32.010  35.957  1.00  0.00     0.049 A 
ATOM     67  H   UNL A   1      41.048  30.901  34.177  1.00  0.00     0.167 HD
ATOM     68  C   UNL A   1      39.380  33.104  34.802  1.00  0.00     0.074 A 
ATOM     69  C   UNL A   1      38.332  34.098  34.710  1.00  0.00     0.031 C 
ATOM     70  C   UNL A   1      40.237  32.996  35.849  1.00  0.00     0.031 A 
BRANCH  57  71
ATOM     71  C   UNL A   1      44.282  28.357  35.331  1.00  0.00    -0.014 A 
ATOM     72  C   UNL A   1      45.621  28.717  35.097  1.00  0.00     0.010 A 
ATOM     73  C   UNL A   1      44.002  27.293  36.208  1.00  0.00     0.010 A 
ATOM     74  C   UNL A   1      46.660  28.009  35.708  1.00  0.00     0.020 A 
ATOM     75  C   UNL A   1      45.037  26.599  36.840  1.00  0.00     0.020 A 
ATOM     76  C   UNL A   1      46.361  26.954  36.576  1.00  0.00     0.054 A 
BRANCH  76  77
ATOM     77  S   UNL A   1      47.728  26.077  37.384  1.00  0.00     0.124 S 
ATOM     78  O   UNL A   1      47.088  24.825  37.782  1.00  0.00    -0.237 OA
ATOM     79  O   UNL A   1      48.714  25.965  36.313  1.00  0.00    -0.237 OA
ATOM     80  O   UNL A   1      48.106  26.960  38.484  1.00  0.00    -0.744 OA
ENDBRANCH  76  77
ENDBRANCH  57  71
BRANCH  58  81
ATOM     81  C   UNL A   1      36.648  33.107  30.968  1.00  0.00    -0.014 A 
ATOM     82  C   UNL A   1      36.744  33.652  29.676  1.00  0.00     0.010 A 
ATOM     83  C   UNL A   1      35.442  33.246  31.679  1.00  0.00     0.010 A 
ATOM     84  C   UNL A   1      35.664  34.344  29.117  1.00  0.00     0.020 A 
ATOM     85  C   UNL A   1      34.350  33.910  31.112  1.00  0.00     0.020 A 
ATOM     86  C   UNL A   1      34.474  34.468  29.840  1.00  0.00     0.054 A 
BRANCH  86  87
ATOM     87  S   UNL A   1      33.072  35.336  29.082  1.00  0.00     0.124 S 
ATOM     88  O   UNL A   1      32.189  35.542  30.226  1.00  0.00    -0.237 OA
ATOM     89  O   UNL A   1      33.701  36.539  28.542  1.00  0.00    -0.237 OA
ATOM     90  O   UNL A   1      32.588  34.391  28.079  1.00  0.00    -0.744 OA
ENDBRANCH  86  87
ENDBRANCH  58  81
BRANCH  70  91
ATOM     91  C   UNL A   1      40.107  34.002  36.963  1.00  0.00    -0.014 A 
ATOM     92  C   UNL A   1      39.355  33.723  38.117  1.00  0.00     0.010 A 
ATOM     93  C   UNL A   1      40.801  35.224  36.876  1.00  0.00     0.010 A 
ATOM     94  C   UNL A   1      39.273  34.662  39.150  1.00  0.00     0.020 A 
ATOM     95  C   UNL A   1      40.744  36.151  37.918  1.00  0.00     0.020 A 
ATOM     96  C   UNL A   1      39.968  35.870  39.044  1.00  0.00     0.054 A 
BRANCH  96  97
ATOM     97  S   UNL A   1      39.880  37.052  40.417  1.00  0.00     0.124 S 
ATOM     98  O   UNL A   1      41.129  36.785  41.127  1.00  0.00    -0.237 OA
ATOM     99  O   UNL A   1      39.811  38.339  39.729  1.00  0.00    -0.237 OA
ATOM    100  O   UNL A   1      38.664  36.667  41.129  1.00  0.00    -0.744 OA
ENDBRANCH  96  97
ENDBRANCH  70  91
ENDBRANCH  44  45
ENDBRANCH  37  39
ENDBRANCH  36  37
ENDBRANCH  35  36
ENDBRANCH  34  35
ENDBRANCH   1  34
TORSDOF 22
ENDMDL
MODEL 2
REMARK VINA RESULT:     -11.2      2.161      9.510
REMARK SMILES Cc1c[nH]c(C[N@@H+](C)[C@@H](C(=O)OCCOCCOC(=O)c2ccc(-c3c4nc(c(-c5ccc(S(=O)(=O)[O-])cc5)c5ccc([nH]5)c(-c5ccc(S(=O)(=O)[O-])cc5)c5nc(c(-c6ccc(S(=O)(=O)[O-])cc6)c6ccc3[nH]6)C=C5)C=C4)cc2)c2ccc(NC(=O)N3CCCC3)cc2)n1
REMARK SMILES IDX 15 1 14 2 13 3 12 4 10 5 11 6 9 7 7 8 8 9 6 11 5 12 1 13
REMARK SMILES IDX 2 14 3 15 95 16 4 17 81 19 82 20 94 21 83 22 93 23 84 24
REMARK SMILES IDX 85 25 86 26 87 28 88 29 89 30 92 31 90 32 91 33 16 34 17 35
REMARK SMILES IDX 18 36 19 37 20 38 21 39 22 40 80 41 23 42 79 43 24 44 25 45
REMARK SMILES IDX 26 46 73 47 27 48 78 49 72 50 74 51 28 52 77 53 71 54 70 55
REMARK SMILES IDX 29 57 59 58 40 59 58 60 41 61 44 62 57 63 75 64 42 65 43 66
REMARK SMILES IDX 56 68 76 69 45 70 30 71 31 72 39 73 32 74 38 75 33 76 34 77
REMARK SMILES IDX 35 78 36 79 37 80 60 81 61 82 69 83 62 84 68 85 63 86 64 87
REMARK SMILES IDX 65 88 66 89 67 90 46 91 47 92 55 93 48 94 54 95 49 96 50 97
REMARK SMILES IDX 51 98 52 99 53 100
REMARK H PARENT 7 10 4 18 85 27 74 56 44 67
REMARK Flexibility Score: inf
ROOT
ATOM      1  O   UNL A   1      33.797  29.471  27.506  1.00  0.00    -0.374 OA
ENDROOT
BRANCH   1   2
ATOM      2  C   UNL A   1      33.975  28.561  26.420  1.00  0.00     0.202 C 
BRANCH   2   3
ATOM      3  C   UNL A   1      33.018  28.740  25.240  1.00  0.00     0.261 C 
BRANCH   3   4
ATOM      4  O   UNL A   1      31.639  28.592  25.637  1.00  0.00    -0.459 OA
BRANCH   4   5
ATOM      5  C   UNL A   1      31.189  27.308  25.578  1.00  0.00     0.369 C 
ATOM      6  O   UNL A   1      30.649  26.749  26.532  1.00  0.00    -0.245 OA
BRANCH   5   7
ATOM      7  C   UNL A   1      31.265  26.655  24.175  1.00  0.00     0.326 C 
BRANCH   7   8
ATOM      8  N   UNL A   1      30.303  27.135  23.130  1.00  0.00    -0.316 N 
ATOM      9  C   UNL A   1      30.972  28.000  22.151  1.00  0.00     0.334 C 
ATOM     10  H   UNL A   1      30.009  26.233  22.756  1.00  0.00     0.349 HD
BRANCH   8  11
ATOM     11  C   UNL A   1      29.010  27.735  23.501  1.00  0.00     0.339 C 
BRANCH  11  12
ATOM     12  C   UNL A   1      28.689  29.127  23.014  1.00  0.00     0.161 A 
ATOM     13  C   UNL A   1      28.850  32.695  22.873  1.00  0.00     0.068 C 
ATOM     14  C   UNL A   1      28.510  31.264  22.716  1.00  0.00     0.056 A 
ATOM     15  C   UNL A   1      27.653  30.689  21.810  1.00  0.00     0.107 A 
ATOM     16  N   UNL A   1      29.093  30.290  23.500  1.00  0.00    -0.233 NA
ATOM     17  N   UNL A   1      27.783  29.345  22.002  1.00  0.00    -0.344 N 
ATOM     18  H   UNL A   1      27.307  28.645  21.500  1.00  0.00     0.167 HD
ENDBRANCH  11  12
ENDBRANCH   8  11
ENDBRANCH   7   8
BRANCH   7  19
ATOM     19  C   UNL A   1      31.482  25.144  24.237  1.00  0.00     0.021 A 
ATOM     20  C   UNL A   1      31.900  24.390  23.134  1.00  0.00     0.012 A 
ATOM     21  C   UNL A   1      31.231  24.455  25.434  1.00  0.00     0.012 A 
ATOM     22  C   UNL A   1      32.188  23.032  23.270  1.00  0.00     0.027 A 
ATOM     23  C   UNL A   1      31.587  23.109  25.579  1.00  0.00     0.027 A 
ATOM     24  C   UNL A   1      32.172  22.422  24.519  1.00  0.00     0.042 A 
BRANCH  24  25
ATOM     25  N   UNL A   1      32.719  21.149  24.768  1.00  0.00    -0.308 N 
ATOM     26  C   UNL A   1      34.013  20.727  24.844  1.00  0.00     0.321 C 
ATOM     27  H   UNL A   1      32.050  20.440  24.911  1.00  0.00     0.171 HD
ATOM     28  O   UNL A   1      34.256  19.537  24.626  1.00  0.00    -0.248 OA
ATOM     29  N   UNL A   1      35.006  21.612  25.144  1.00  0.00    -0.325 N 
ATOM     30  C   UNL A   1      35.014  22.598  26.208  1.00  0.00     0.121 C 
ATOM     31  C   UNL A   1      36.347  21.425  24.644  1.00  0.00     0.121 C 
ATOM     32  C   UNL A   1      36.075  23.585  25.752  1.00  0.00     0.023 C 
ATOM     33  C   UNL A   1      37.082  22.720  24.991  1.00  0.00     0.023 C 
ENDBRANCH  24  25
ENDBRANCH   7  19
ENDBRANCH   5   7
ENDBRANCH   4   5
ENDBRANCH   3   4
ENDBRANCH   2   3
ENDBRANCH   1   2
BRANCH   1  34
ATOM     34  C   UNL A   1      34.191  30.823  27.283  1.00  0.00     0.202 C 
BRANCH  34  35
ATOM     35  C   UNL A   1      33.133  31.899  27.571  1.00  0.00     0.261 C 
BRANCH  35  36
ATOM     36  O   UNL A   1      33.608  33.229  27.299  1.00  0.00    -0.460 OA
BRANCH  36  37
ATOM     37  C   UNL A   1      33.528  34.073  28.356  1.00  0.00     0.338 C 
ATOM     38  O   UNL A   1      32.609  34.849  28.607  1.00  0.00    -0.246 OA
BRANCH  37  39
ATOM     39  C   UNL A   1      34.606  33.810  29.325  1.00  0.00     0.060 A 
ATOM     40  C   UNL A   1      35.913  34.102  28.915  1.00  0.00     0.016 A 
ATOM     41  C   UNL A   1      34.367  33.193  30.554  1.00  0.00     0.016 A 
ATOM     42  C   UNL A   1      36.993  33.722  29.705  1.00  0.00     0.010 A 
ATOM     43  C   UNL A   1      35.459  32.805  31.345  1.00  0.00     0.010 A 
ATOM     44  C   UNL A   1      36.776  33.026  30.902  1.00  0.00    -0.014 A 
BRANCH  44  45
ATOM     45  C   UNL A   1      37.936  32.391  31.579  1.00  0.00     0.031 A 
ATOM     46  C   UNL A   1      38.346  32.891  32.941  1.00  0.00     0.074 A 
ATOM     47  C   UNL A   1      38.563  31.335  31.031  1.00  0.00     0.049 A 
ATOM     48  N   UNL A   1      39.304  32.466  33.725  1.00  0.00    -0.248 NA
ATOM     49  C   UNL A   1      37.571  34.013  33.495  1.00  0.00     0.031 C 
ATOM     50  C   UNL A   1      38.224  30.722  29.747  1.00  0.00     0.029 A 
ATOM     51  N   UNL A   1      39.615  30.583  31.494  1.00  0.00    -0.354 N 
ATOM     52  C   UNL A   1      39.251  33.270  34.858  1.00  0.00     0.074 A 
ATOM     53  C   UNL A   1      38.186  34.226  34.650  1.00  0.00     0.031 C 
ATOM     54  C   UNL A   1      39.053  29.687  29.525  1.00  0.00     0.029 A 
ATOM     55  C   UNL A   1      40.000  29.582  30.634  1.00  0.00     0.049 A 
ATOM     56  H   UNL A   1      40.053  30.747  32.361  1.00  0.00     0.167 HD
ATOM     57  C   UNL A   1      40.016  33.213  35.975  1.00  0.00     0.031 A 
ATOM     58  C   UNL A   1      41.011  28.694  30.722  1.00  0.00     0.031 A 
ATOM     59  C   UNL A   1      41.076  32.265  36.180  1.00  0.00     0.049 A 
ATOM     60  C   UNL A   1      41.895  28.701  31.943  1.00  0.00     0.074 A 
ATOM     61  C   UNL A   1      41.900  32.121  37.284  1.00  0.00     0.029 A 
ATOM     62  N   UNL A   1      41.466  31.301  35.263  1.00  0.00    -0.354 N 
ATOM     63  N   UNL A   1      41.818  29.457  33.013  1.00  0.00    -0.248 NA
ATOM     64  C   UNL A   1      42.997  27.729  31.971  1.00  0.00     0.031 C 
ATOM     65  C   UNL A   1      42.824  31.110  37.010  1.00  0.00     0.029 A 
ATOM     66  C   UNL A   1      42.535  30.579  35.763  1.00  0.00     0.049 A 
ATOM     67  H   UNL A   1      41.044  31.152  34.385  1.00  0.00     0.167 HD
ATOM     68  C   UNL A   1      42.842  29.030  33.852  1.00  0.00     0.074 A 
ATOM     69  C   UNL A   1      43.516  27.943  33.173  1.00  0.00     0.031 C 
ATOM     70  C   UNL A   1      43.193  29.496  35.077  1.00  0.00     0.031 A 
BRANCH  57  71
ATOM     71  C   UNL A   1      39.755  34.232  37.054  1.00  0.00    -0.014 A 
ATOM     72  C   UNL A   1      38.990  33.914  38.191  1.00  0.00     0.010 A 
ATOM     73  C   UNL A   1      40.336  35.509  36.955  1.00  0.00     0.010 A 
ATOM     74  C   UNL A   1      38.789  34.865  39.195  1.00  0.00     0.020 A 
ATOM     75  C   UNL A   1      40.159  36.454  37.970  1.00  0.00     0.020 A 
ATOM     76  C   UNL A   1      39.375  36.130  39.078  1.00  0.00     0.054 A 
BRANCH  76  77
ATOM     77  S   UNL A   1      39.128  37.331  40.414  1.00  0.00     0.124 S 
ATOM     78  O   UNL A   1      40.492  37.793  40.658  1.00  0.00    -0.237 OA
ATOM     79  O   UNL A   1      38.234  38.310  39.803  1.00  0.00    -0.237 OA
ATOM     80  O   UNL A   1      38.538  36.538  41.490  1.00  0.00    -0.744 OA
ENDBRANCH  76  77
ENDBRANCH  57  71
BRANCH  58  81
ATOM     81  C   UNL A   1      41.265  27.739  29.608  1.00  0.00    -0.014 A 
ATOM     82  C   UNL A   1      40.438  26.620  29.410  1.00  0.00     0.010 A 
ATOM     83  C   UNL A   1      42.358  27.941  28.744  1.00  0.00     0.010 A 
ATOM     84  C   UNL A   1      40.713  25.708  28.387  1.00  0.00     0.020 A 
ATOM     85  C   UNL A   1      42.618  27.048  27.701  1.00  0.00     0.020 A 
ATOM     86  C   UNL A   1      41.802  25.929  27.538  1.00  0.00     0.054 A 
BRANCH  86  87
ATOM     87  S   UNL A   1      42.120  24.754  26.191  1.00  0.00     0.124 S 
ATOM     88  O   UNL A   1      41.124  23.719  26.452  1.00  0.00    -0.237 OA
ATOM     89  O   UNL A   1      41.891  25.569  25.001  1.00  0.00    -0.237 OA
ATOM     90  O   UNL A   1      43.509  24.356  26.407  1.00  0.00    -0.744 OA
ENDBRANCH  86  87
ENDBRANCH  58  81
BRANCH  70  91
ATOM     91  C   UNL A   1      44.332  28.809  35.784  1.00  0.00    -0.014 A 
ATOM     92  C   UNL A   1      45.661  29.236  35.619  1.00  0.00     0.010 A 
ATOM     93  C   UNL A   1      44.057  27.756  36.677  1.00  0.00     0.010 A 
ATOM     94  C   UNL A   1      46.697  28.600  36.309  1.00  0.00     0.020 A 
ATOM     95  C   UNL A   1      45.087  27.138  37.390  1.00  0.00     0.020 A 
ATOM     96  C   UNL A   1      46.404  27.556  37.189  1.00  0.00     0.054 A 
BRANCH  96  97
ATOM     97  S   UNL A   1      47.762  26.776  38.106  1.00  0.00     0.124 S 
ATOM     98  O   UNL A   1      48.047  25.602  37.285  1.00  0.00    -0.237 OA
ATOM     99  O   UNL A   1      48.791  27.813  38.098  1.00  0.00    -0.237 OA
ATOM    100  O   UNL A   1      47.180  26.494  39.415  1.00  0.00    -0.744 OA
ENDBRANCH  96  97
ENDBRANCH  70  91
ENDBRANCH  44  45
ENDBRANCH  37  39
ENDBRANCH  36  37
ENDBRANCH  35  36
ENDBRANCH  34  35
ENDBRANCH   1  34
TORSDOF 22
ENDMDL
MODEL 3
REMARK VINA RESULT:     -11.1      1.609      2.325
REMARK SMILES Cc1c[nH]c(C[N@@H+](C)[C@@H](C(=O)OCCOCCOC(=O)c2ccc(-c3c4nc(c(-c5ccc(S(=O)(=O)[O-])cc5)c5ccc([nH]5)c(-c5ccc(S(=O)(=O)[O-])cc5)c5nc(c(-c6ccc(S(=O)(=O)[O-])cc6)c6ccc3[nH]6)C=C5)C=C4)cc2)c2ccc(NC(=O)N3CCCC3)cc2)n1
REMARK SMILES IDX 15 1 14 2 13 3 12 4 10 5 11 6 9 7 7 8 8 9 6 11 5 12 1 13
REMARK SMILES IDX 2 14 3 15 95 16 4 17 81 19 82 20 94 21 83 22 93 23 84 24
REMARK SMILES IDX 85 25 86 26 87 28 88 29 89 30 92 31 90 32 91 33 16 34 17 35
REMARK SMILES IDX 18 36 19 37 20 38 21 39 22 40 80 41 23 42 79 43 24 44 25 45
REMARK SMILES IDX 26 46 73 47 27 48 78 49 72 50 74 51 28 52 77 53 71 54 70 55
REMARK SMILES IDX 29 57 59 58 40 59 58 60 41 61 44 62 57 63 75 64 42 65 43 66
REMARK SMILES IDX 56 68 76 69 45 70 30 71 31 72 39 73 32 74 38 75 33 76 34 77
REMARK SMILES IDX 35 78 36 79 37 80 60 81 61 82 69 83 62 84 68 85 63 86 64 87
REMARK SMILES IDX 65 88 66 89 67 90 46 91 47 92 55 93 48 94 54 95 49 96 50 97
REMARK SMILES IDX 51 98 52 99 53 100
REMARK H PARENT 7 10 4 18 85 27 74 56 44 67
REMARK Flexibility Score: inf
ROOT
ATOM      1  O   UNL A   1      39.820  19.618  25.128  1.00  0.00    -0.374 OA
ENDROOT
BRANCH   1   2
ATOM      2  C   UNL A   1      38.482  19.941  25.513  1.00  0.00     0.202 C 
BRANCH   2   3
ATOM      3  C   UNL A   1      38.005  21.345  25.139  1.00  0.00     0.261 C 
BRANCH   3   4
ATOM      4  O   UNL A   1      36.695  21.628  25.670  1.00  0.00    -0.459 OA
BRANCH   4   5
ATOM      5  C   UNL A   1      35.820  22.105  24.741  1.00  0.00     0.369 C 
ATOM      6  O   UNL A   1      36.178  22.503  23.633  1.00  0.00    -0.245 OA
BRANCH   5   7
ATOM      7  C   UNL A   1      34.324  21.964  25.123  1.00  0.00     0.326 C 
BRANCH   7   8
ATOM      8  N   UNL A   1      33.505  20.961  24.369  1.00  0.00    -0.316 N 
ATOM      9  C   UNL A   1      32.753  21.599  23.282  1.00  0.00     0.334 C 
ATOM     10  H   UNL A   1      34.255  20.347  24.052  1.00  0.00     0.349 HD
BRANCH   8  11
ATOM     11  C   UNL A   1      32.624  20.011  25.071  1.00  0.00     0.339 C 
BRANCH  11  12
ATOM     12  C   UNL A   1      33.005  18.551  25.099  1.00  0.00     0.161 A 
ATOM     13  C   UNL A   1      32.531  15.020  25.387  1.00  0.00     0.068 C 
ATOM     14  C   UNL A   1      33.068  16.395  25.284  1.00  0.00     0.056 A 
ATOM     15  C   UNL A   1      34.365  16.787  25.060  1.00  0.00     0.107 A 
ATOM     16  N   UNL A   1      32.247  17.501  25.374  1.00  0.00    -0.233 NA
ATOM     17  N   UNL A   1      34.309  18.144  24.936  1.00  0.00    -0.344 N 
ATOM     18  H   UNL A   1      35.075  18.735  24.759  1.00  0.00     0.167 HD
ENDBRANCH  11  12
ENDBRANCH   8  11
ENDBRANCH   7   8
BRANCH   7  19
ATOM     19  C   UNL A   1      33.652  23.310  25.386  1.00  0.00     0.021 A 
ATOM     20  C   UNL A   1      32.404  23.427  26.009  1.00  0.00     0.012 A 
ATOM     21  C   UNL A   1      34.281  24.494  24.969  1.00  0.00     0.012 A 
ATOM     22  C   UNL A   1      31.882  24.683  26.324  1.00  0.00     0.027 A 
ATOM     23  C   UNL A   1      33.785  25.746  25.350  1.00  0.00     0.027 A 
ATOM     24  C   UNL A   1      32.634  25.836  26.128  1.00  0.00     0.042 A 
BRANCH  24  25
ATOM     25  N   UNL A   1      32.293  27.087  26.677  1.00  0.00    -0.308 N 
ATOM     26  C   UNL A   1      31.868  28.240  26.088  1.00  0.00     0.321 C 
ATOM     27  H   UNL A   1      32.376  27.137  27.656  1.00  0.00     0.171 HD
ATOM     28  O   UNL A   1      32.057  29.306  26.679  1.00  0.00    -0.248 OA
ATOM     29  N   UNL A   1      31.261  28.203  24.867  1.00  0.00    -0.325 N 
ATOM     30  C   UNL A   1      30.199  27.312  24.439  1.00  0.00     0.121 C 
ATOM     31  C   UNL A   1      31.364  29.312  23.948  1.00  0.00     0.121 C 
ATOM     32  C   UNL A   1      30.292  27.371  22.924  1.00  0.00     0.023 C 
ATOM     33  C   UNL A   1      30.769  28.798  22.638  1.00  0.00     0.023 C 
ENDBRANCH  24  25
ENDBRANCH   7  19
ENDBRANCH   5   7
ENDBRANCH   4   5
ENDBRANCH   3   4
ENDBRANCH   2   3
ENDBRANCH   1   2
BRANCH   1  34
ATOM     34  C   UNL A   1      40.791  19.557  26.170  1.00  0.00     0.202 C 
BRANCH  34  35
ATOM     35  C   UNL A   1      41.908  20.611  26.125  1.00  0.00     0.261 C 
BRANCH  35  36
ATOM     36  O   UNL A   1      41.533  21.783  25.380  1.00  0.00    -0.460 OA
BRANCH  36  37
ATOM     37  C   UNL A   1      42.465  22.767  25.390  1.00  0.00     0.338 C 
ATOM     38  O   UNL A   1      43.450  22.849  24.660  1.00  0.00    -0.246 OA
BRANCH  37  39
ATOM     39  C   UNL A   1      42.052  23.878  26.262  1.00  0.00     0.060 A 
ATOM     40  C   UNL A   1      42.798  25.061  26.180  1.00  0.00     0.016 A 
ATOM     41  C   UNL A   1      41.039  23.741  27.213  1.00  0.00     0.016 A 
ATOM     42  C   UNL A   1      42.578  26.090  27.091  1.00  0.00     0.010 A 
ATOM     43  C   UNL A   1      40.825  24.777  28.134  1.00  0.00     0.010 A 
ATOM     44  C   UNL A   1      41.624  25.935  28.106  1.00  0.00    -0.014 A 
BRANCH  44  45
ATOM     45  C   UNL A   1      41.604  26.916  29.222  1.00  0.00     0.031 A 
ATOM     46  C   UNL A   1      42.671  26.833  30.284  1.00  0.00     0.074 A 
ATOM     47  C   UNL A   1      40.701  27.913  29.249  1.00  0.00     0.049 A 
ATOM     48  N   UNL A   1      42.863  27.600  31.326  1.00  0.00    -0.248 NA
ATOM     49  C   UNL A   1      43.655  25.746  30.149  1.00  0.00     0.031 C 
ATOM     50  C   UNL A   1      39.655  28.135  28.251  1.00  0.00     0.029 A 
ATOM     51  N   UNL A   1      40.528  28.935  30.150  1.00  0.00    -0.354 N 
ATOM     52  C   UNL A   1      43.981  27.087  31.973  1.00  0.00     0.074 A 
ATOM     53  C   UNL A   1      44.410  25.927  31.224  1.00  0.00     0.031 C 
ATOM     54  C   UNL A   1      38.949  29.226  28.595  1.00  0.00     0.029 A 
ATOM     55  C   UNL A   1      39.471  29.762  29.851  1.00  0.00     0.049 A 
ATOM     56  H   UNL A   1      41.106  29.063  30.937  1.00  0.00     0.167 HD
ATOM     57  C   UNL A   1      44.600  27.544  33.088  1.00  0.00     0.031 A 
ATOM     58  C   UNL A   1      38.970  30.818  30.523  1.00  0.00     0.031 A 
ATOM     59  C   UNL A   1      44.172  28.695  33.835  1.00  0.00     0.049 A 
ATOM     60  C   UNL A   1      39.633  31.261  31.802  1.00  0.00     0.074 A 
ATOM     61  C   UNL A   1      44.742  29.243  34.971  1.00  0.00     0.029 A 
ATOM     62  N   UNL A   1      43.068  29.474  33.526  1.00  0.00    -0.354 N 
ATOM     63  N   UNL A   1      40.702  30.775  32.388  1.00  0.00    -0.248 NA
ATOM     64  C   UNL A   1      39.027  32.401  32.504  1.00  0.00     0.031 C 
ATOM     65  C   UNL A   1      43.949  30.318  35.383  1.00  0.00     0.029 A 
ATOM     66  C   UNL A   1      42.922  30.480  34.466  1.00  0.00     0.049 A 
ATOM     67  H   UNL A   1      42.474  29.333  32.754  1.00  0.00     0.167 HD
ATOM     68  C   UNL A   1      40.911  31.569  33.511  1.00  0.00     0.074 A 
ATOM     69  C   UNL A   1      39.869  32.574  33.515  1.00  0.00     0.031 C 
ATOM     70  C   UNL A   1      41.881  31.476  34.455  1.00  0.00     0.031 A 
BRANCH  57  71
ATOM     71  C   UNL A   1      45.794  26.775  33.591  1.00  0.00    -0.014 A 
ATOM     72  C   UNL A   1      45.645  25.672  34.451  1.00  0.00     0.010 A 
ATOM     73  C   UNL A   1      47.082  27.127  33.147  1.00  0.00     0.010 A 
ATOM     74  C   UNL A   1      46.764  24.954  34.880  1.00  0.00     0.020 A 
ATOM     75  C   UNL A   1      48.201  26.394  33.553  1.00  0.00     0.020 A 
ATOM     76  C   UNL A   1      48.036  25.319  34.427  1.00  0.00     0.054 A 
BRANCH  76  77
ATOM     77  S   UNL A   1      49.466  24.345  34.969  1.00  0.00     0.124 S 
ATOM     78  O   UNL A   1      49.591  24.746  36.368  1.00  0.00    -0.237 OA
ATOM     79  O   UNL A   1      49.020  22.972  34.748  1.00  0.00    -0.237 OA
ATOM     80  O   UNL A   1      50.545  24.795  34.094  1.00  0.00    -0.744 OA
ENDBRANCH  76  77
ENDBRANCH  57  71
BRANCH  58  81
ATOM     81  C   UNL A   1      37.756  31.518  30.017  1.00  0.00    -0.014 A 
ATOM     82  C   UNL A   1      36.472  31.147  30.453  1.00  0.00     0.010 A 
ATOM     83  C   UNL A   1      37.884  32.555  29.074  1.00  0.00     0.010 A 
ATOM     84  C   UNL A   1      35.338  31.784  29.937  1.00  0.00     0.020 A 
ATOM     85  C   UNL A   1      36.756  33.214  28.580  1.00  0.00     0.020 A 
ATOM     86  C   UNL A   1      35.488  32.814  29.004  1.00  0.00     0.054 A 
BRANCH  86  87
ATOM     87  S   UNL A   1      34.006  33.653  28.375  1.00  0.00     0.124 S 
ATOM     88  O   UNL A   1      33.396  34.151  29.604  1.00  0.00    -0.237 OA
ATOM     89  O   UNL A   1      34.572  34.670  27.491  1.00  0.00    -0.237 OA
ATOM     90  O   UNL A   1      33.273  32.587  27.698  1.00  0.00    -0.744 OA
ENDBRANCH  86  87
ENDBRANCH  58  81
BRANCH  70  91
ATOM     91  C   UNL A   1      41.890  32.510  35.551  1.00  0.00    -0.014 A 
ATOM     92  C   UNL A   1      42.578  33.726  35.404  1.00  0.00     0.010 A 
ATOM     93  C   UNL A   1      41.144  32.282  36.722  1.00  0.00     0.010 A 
ATOM     94  C   UNL A   1      42.548  34.682  36.424  1.00  0.00     0.020 A 
ATOM     95  C   UNL A   1      41.087  33.246  37.730  1.00  0.00     0.020 A 
ATOM     96  C   UNL A   1      41.803  34.436  37.580  1.00  0.00     0.054 A 
BRANCH  96  97
ATOM     97  S   UNL A   1      41.743  35.711  38.870  1.00  0.00     0.124 S 
ATOM     98  O   UNL A   1      42.941  35.408  39.650  1.00  0.00    -0.237 OA
ATOM     99  O   UNL A   1      41.792  36.950  38.099  1.00  0.00    -0.237 OA
ATOM    100  O   UNL A   1      40.477  35.456  39.551  1.00  0.00    -0.744 OA
ENDBRANCH  96  97
ENDBRANCH  70  91
ENDBRANCH  44  45
ENDBRANCH  37  39
ENDBRANCH  36  37
ENDBRANCH  35  36
ENDBRANCH  34  35
ENDBRANCH   1  34
TORSDOF 22
ENDMDL
