MODEL 1
REMARK VINA RESULT:     -10.3      0.000      0.000
REMARK SMILES C#Cc1cc(Cl)cc2c1O[C@H](C(F)(F)F)C(C(=O)OCCOCCOC(=O)c1ccc(-c3c4nc(c(-c5ccc(S(=O)(=O)[O-])cc5)c5ccc([nH]5)c(-c5ccc(S(=O)(=O)[O-])cc5)c5nc(c(-c6ccc(S(=O)(=O)[O-])cc6)c6ccc3[nH]6)C=C5)C=C4)cc1)=C2
REMARK SMILES IDX 23 1 22 2 21 3 20 4 19 5 17 6 18 7 16 8 3 9 4 10 9 11 5 12
REMARK SMILES IDX 8 13 10 14 6 15 7 16 88 17 11 18 2 19 1 20 12 21 13 22 14 23
REMARK SMILES IDX 15 24 24 25 25 26 26 27 27 28 28 29 29 30 87 31 30 32 86 33
REMARK SMILES IDX 31 34 32 35 33 36 80 37 34 38 85 39 79 40 81 41 35 42 84 43
REMARK SMILES IDX 78 44 77 45 36 47 66 48 47 49 65 50 48 51 51 52 64 53 82 54
REMARK SMILES IDX 49 55 50 56 63 58 83 59 52 60 37 61 38 62 46 63 39 64 45 65
REMARK SMILES IDX 40 66 41 67 42 68 43 69 44 70 67 71 68 72 76 73 69 74 75 75
REMARK SMILES IDX 70 76 71 77 72 78 73 79 74 80 53 81 54 82 62 83 55 84 61 85
REMARK SMILES IDX 56 86 57 87 58 88 59 89 60 90
REMARK H PARENT 81 46 51 57
REMARK Flexibility Score: inf
ROOT
ATOM      1  C   UNL A   1      31.588  27.962  26.057  1.00  0.00     0.202 C 
ENDROOT
BRANCH   1   2
ATOM      2  O   UNL A   1      31.462  28.833  24.936  1.00  0.00    -0.374 OA
BRANCH   2   3
ATOM      3  C   UNL A   1      32.008  28.433  23.683  1.00  0.00     0.202 C 
BRANCH   3   4
ATOM      4  C   UNL A   1      31.273  27.377  22.851  1.00  0.00     0.261 C 
BRANCH   4   5
ATOM      5  O   UNL A   1      31.968  26.124  22.815  1.00  0.00    -0.460 OA
BRANCH   5   6
ATOM      6  C   UNL A   1      31.523  25.220  23.717  1.00  0.00     0.338 C 
ATOM      7  O   UNL A   1      30.447  25.222  24.291  1.00  0.00    -0.246 OA
BRANCH   6   8
ATOM      8  C   UNL A   1      32.483  24.103  23.815  1.00  0.00     0.087 C 
ATOM      9  C   UNL A   1      34.993  20.882  24.648  1.00  0.00     0.068 A 
ATOM     10  C   UNL A   1      34.435  19.609  24.812  1.00  0.00     0.041 A 
ATOM     11  C   UNL A   1      34.183  21.958  24.252  1.00  0.00     0.143 A 
ATOM     12  C   UNL A   1      33.080  19.408  24.560  1.00  0.00     0.043 A 
ATOM     13  C   UNL A   1      32.816  21.751  24.043  1.00  0.00     0.020 A 
ATOM     14  O   UNL A   1      34.778  23.179  24.077  1.00  0.00    -0.474 OA
ATOM     15  Cl  UNL A   1      32.393  17.845  24.769  1.00  0.00    -0.084 Cl
ATOM     16  C   UNL A   1      32.269  20.470  24.173  1.00  0.00     0.032 A 
ATOM     17  C   UNL A   1      31.944  22.879  23.784  1.00  0.00     0.027 C 
ATOM     18  C   UNL A   1      33.953  24.372  23.975  1.00  0.00     0.316 C 
BRANCH   9  19
ATOM     19  C   UNL A   1      36.381  21.066  24.950  1.00  0.00    -0.067 C 
ATOM     20  C   UNL A   1      37.552  21.190  25.190  1.00  0.00     0.010 C 
ENDBRANCH   9  19
BRANCH  18  21
ATOM     21  C   UNL A   1      34.259  25.280  25.175  1.00  0.00     0.430 C 
ATOM     22  F   UNL A   1      35.458  24.980  25.726  1.00  0.00    -0.167 F 
ATOM     23  F   UNL A   1      34.305  26.584  24.819  1.00  0.00    -0.167 F 
ATOM     24  F   UNL A   1      33.322  25.156  26.143  1.00  0.00    -0.167 F 
ENDBRANCH  18  21
ENDBRANCH   6   8
ENDBRANCH   5   6
ENDBRANCH   4   5
ENDBRANCH   3   4
ENDBRANCH   2   3
ENDBRANCH   1   2
BRANCH   1  25
ATOM     25  C   UNL A   1      32.185  28.477  27.376  1.00  0.00     0.261 C 
BRANCH  25  26
ATOM     26  O   UNL A   1      33.618  28.540  27.390  1.00  0.00    -0.460 OA
BRANCH  26  27
ATOM     27  C   UNL A   1      34.117  29.802  27.436  1.00  0.00     0.338 C 
ATOM     28  O   UNL A   1      33.504  30.843  27.268  1.00  0.00    -0.246 OA
BRANCH  27  29
ATOM     29  C   UNL A   1      35.509  29.768  27.916  1.00  0.00     0.060 A 
ATOM     30  C   UNL A   1      36.534  29.983  26.985  1.00  0.00     0.016 A 
ATOM     31  C   UNL A   1      35.801  29.436  29.237  1.00  0.00     0.016 A 
ATOM     32  C   UNL A   1      37.863  29.835  27.368  1.00  0.00     0.010 A 
ATOM     33  C   UNL A   1      37.137  29.274  29.615  1.00  0.00     0.010 A 
ATOM     34  C   UNL A   1      38.171  29.441  28.676  1.00  0.00    -0.014 A 
BRANCH  34  35
ATOM     35  C   UNL A   1      39.562  29.061  29.017  1.00  0.00     0.031 A 
ATOM     36  C   UNL A   1      40.435  30.058  29.731  1.00  0.00     0.074 A 
ATOM     37  C   UNL A   1      40.026  27.831  28.732  1.00  0.00     0.049 A 
ATOM     38  N   UNL A   1      41.688  29.951  30.088  1.00  0.00    -0.248 NA
ATOM     39  C   UNL A   1      39.815  31.346  30.093  1.00  0.00     0.031 C 
ATOM     40  C   UNL A   1      39.254  26.762  28.099  1.00  0.00     0.029 A 
ATOM     41  N   UNL A   1      41.263  27.273  28.941  1.00  0.00    -0.354 N 
ATOM     42  C   UNL A   1      42.008  31.152  30.711  1.00  0.00     0.074 A 
ATOM     43  C   UNL A   1      40.831  31.990  30.649  1.00  0.00     0.031 C 
ATOM     44  C   UNL A   1      40.033  25.673  27.979  1.00  0.00     0.029 A 
ATOM     45  C   UNL A   1      41.370  25.982  28.483  1.00  0.00     0.049 A 
ATOM     46  H   UNL A   1      42.002  27.753  29.379  1.00  0.00     0.167 HD
ATOM     47  C   UNL A   1      43.173  31.516  31.296  1.00  0.00     0.031 A 
ATOM     48  C   UNL A   1      42.430  25.149  28.458  1.00  0.00     0.031 A 
ATOM     49  C   UNL A   1      44.341  30.678  31.352  1.00  0.00     0.049 A 
ATOM     50  C   UNL A   1      43.747  25.622  29.021  1.00  0.00     0.074 A 
ATOM     51  C   UNL A   1      45.570  30.959  31.924  1.00  0.00     0.029 A 
ATOM     52  N   UNL A   1      44.429  29.401  30.820  1.00  0.00    -0.354 N 
ATOM     53  N   UNL A   1      44.030  26.757  29.615  1.00  0.00    -0.248 NA
ATOM     54  C   UNL A   1      44.886  24.698  28.915  1.00  0.00     0.031 C 
ATOM     55  C   UNL A   1      46.421  29.878  31.679  1.00  0.00     0.029 A 
ATOM     56  C   UNL A   1      45.700  28.893  31.024  1.00  0.00     0.049 A 
ATOM     57  H   UNL A   1      43.696  28.925  30.367  1.00  0.00     0.167 HD
ATOM     58  C   UNL A   1      45.371  26.670  29.980  1.00  0.00     0.074 A 
ATOM     59  C   UNL A   1      45.834  25.364  29.559  1.00  0.00     0.031 C 
ATOM     60  C   UNL A   1      46.148  27.588  30.606  1.00  0.00     0.031 A 
BRANCH  47  61
ATOM     61  C   UNL A   1      43.257  32.883  31.921  1.00  0.00    -0.014 A 
ATOM     62  C   UNL A   1      43.002  33.069  33.291  1.00  0.00     0.010 A 
ATOM     63  C   UNL A   1      43.693  33.978  31.151  1.00  0.00     0.010 A 
ATOM     64  C   UNL A   1      43.171  34.326  33.878  1.00  0.00     0.020 A 
ATOM     65  C   UNL A   1      43.892  35.229  31.740  1.00  0.00     0.020 A 
ATOM     66  C   UNL A   1      43.625  35.397  33.100  1.00  0.00     0.054 A 
BRANCH  66  67
ATOM     67  S   UNL A   1      43.897  36.997  33.907  1.00  0.00     0.124 S 
ATOM     68  O   UNL A   1      44.894  36.658  34.922  1.00  0.00    -0.237 OA
ATOM     69  O   UNL A   1      44.378  37.829  32.809  1.00  0.00    -0.237 OA
ATOM     70  O   UNL A   1      42.580  37.353  34.429  1.00  0.00    -0.744 OA
ENDBRANCH  66  67
ENDBRANCH  47  61
BRANCH  48  71
ATOM     71  C   UNL A   1      42.300  23.786  27.870  1.00  0.00    -0.014 A 
ATOM     72  C   UNL A   1      42.015  22.679  28.688  1.00  0.00     0.010 A 
ATOM     73  C   UNL A   1      42.478  23.583  26.489  1.00  0.00     0.010 A 
ATOM     74  C   UNL A   1      41.932  21.394  28.142  1.00  0.00     0.020 A 
ATOM     75  C   UNL A   1      42.362  22.305  25.933  1.00  0.00     0.020 A 
ATOM     76  C   UNL A   1      42.103  21.217  26.767  1.00  0.00     0.054 A 
BRANCH  76  77
ATOM     77  S   UNL A   1      41.963  19.543  26.082  1.00  0.00     0.124 S 
ATOM     78  O   UNL A   1      42.490  18.724  27.169  1.00  0.00    -0.237 OA
ATOM     79  O   UNL A   1      40.527  19.427  25.838  1.00  0.00    -0.237 OA
ATOM     80  O   UNL A   1      42.791  19.594  24.879  1.00  0.00    -0.744 OA
ENDBRANCH  76  77
ENDBRANCH  48  71
BRANCH  60  81
ATOM     81  C   UNL A   1      47.577  27.216  30.907  1.00  0.00    -0.014 A 
ATOM     82  C   UNL A   1      47.926  26.575  32.109  1.00  0.00     0.010 A 
ATOM     83  C   UNL A   1      48.572  27.432  29.934  1.00  0.00     0.010 A 
ATOM     84  C   UNL A   1      49.247  26.182  32.343  1.00  0.00     0.020 A 
ATOM     85  C   UNL A   1      49.885  27.008  30.149  1.00  0.00     0.020 A 
ATOM     86  C   UNL A   1      50.216  26.395  31.358  1.00  0.00     0.054 A 
BRANCH  86  87
ATOM     87  S   UNL A   1      51.909  25.825  31.670  1.00  0.00     0.124 S 
ATOM     88  O   UNL A   1      52.295  26.632  32.824  1.00  0.00    -0.237 OA
ATOM     89  O   UNL A   1      51.720  24.401  31.935  1.00  0.00    -0.237 OA
ATOM     90  O   UNL A   1      52.617  26.136  30.430  1.00  0.00    -0.744 OA
ENDBRANCH  86  87
ENDBRANCH  60  81
ENDBRANCH  34  35
ENDBRANCH  27  29
ENDBRANCH  26  27
ENDBRANCH  25  26
ENDBRANCH   1  25
TORSDOF 19
ENDMDL
MODEL 2
REMARK VINA RESULT:     -10.2      4.534     10.324
REMARK SMILES C#Cc1cc(Cl)cc2c1O[C@H](C(F)(F)F)C(C(=O)OCCOCCOC(=O)c1ccc(-c3c4nc(c(-c5ccc(S(=O)(=O)[O-])cc5)c5ccc([nH]5)c(-c5ccc(S(=O)(=O)[O-])cc5)c5nc(c(-c6ccc(S(=O)(=O)[O-])cc6)c6ccc3[nH]6)C=C5)C=C4)cc1)=C2
REMARK SMILES IDX 23 1 22 2 21 3 20 4 19 5 17 6 18 7 16 8 3 9 4 10 9 11 5 12
REMARK SMILES IDX 8 13 10 14 6 15 7 16 88 17 11 18 2 19 1 20 12 21 13 22 14 23
REMARK SMILES IDX 15 24 24 25 25 26 26 27 27 28 28 29 29 30 87 31 30 32 86 33
REMARK SMILES IDX 31 34 32 35 33 36 80 37 34 38 85 39 79 40 81 41 35 42 84 43
REMARK SMILES IDX 78 44 77 45 36 47 66 48 47 49 65 50 48 51 51 52 64 53 82 54
REMARK SMILES IDX 49 55 50 56 63 58 83 59 52 60 37 61 38 62 46 63 39 64 45 65
REMARK SMILES IDX 40 66 41 67 42 68 43 69 44 70 67 71 68 72 76 73 69 74 75 75
REMARK SMILES IDX 70 76 71 77 72 78 73 79 74 80 53 81 54 82 62 83 55 84 61 85
REMARK SMILES IDX 56 86 57 87 58 88 59 89 60 90
REMARK H PARENT 81 46 51 57
REMARK Flexibility Score: inf
ROOT
ATOM      1  C   UNL A   1      38.065  22.858  25.798  1.00  0.00     0.202 C 
ENDROOT
BRANCH   1   2
ATOM      2  O   UNL A   1      37.043  21.865  25.827  1.00  0.00    -0.374 OA
BRANCH   2   3
ATOM      3  C   UNL A   1      36.280  21.621  24.649  1.00  0.00     0.202 C 
BRANCH   3   4
ATOM      4  C   UNL A   1      34.793  21.986  24.633  1.00  0.00     0.261 C 
BRANCH   4   5
ATOM      5  O   UNL A   1      34.574  23.400  24.549  1.00  0.00    -0.460 OA
BRANCH   5   6
ATOM      6  C   UNL A   1      33.940  23.925  25.622  1.00  0.00     0.338 C 
ATOM      7  O   UNL A   1      33.871  23.447  26.742  1.00  0.00    -0.246 OA
BRANCH   6   8
ATOM      8  C   UNL A   1      33.445  25.276  25.294  1.00  0.00     0.087 C 
ATOM      9  C   UNL A   1      31.758  29.065  24.887  1.00  0.00     0.068 A 
ATOM     10  C   UNL A   1      32.185  30.095  25.733  1.00  0.00     0.041 A 
ATOM     11  C   UNL A   1      32.393  27.814  24.926  1.00  0.00     0.143 A 
ATOM     12  C   UNL A   1      33.255  29.883  26.598  1.00  0.00     0.043 A 
ATOM     13  C   UNL A   1      33.440  27.602  25.830  1.00  0.00     0.020 A 
ATOM     14  O   UNL A   1      31.960  26.846  24.061  1.00  0.00    -0.474 OA
ATOM     15  Cl  UNL A   1      33.775  31.146  27.644  1.00  0.00    -0.084 Cl
ATOM     16  C   UNL A   1      33.887  28.644  26.649  1.00  0.00     0.032 A 
ATOM     17  C   UNL A   1      34.001  26.275  25.988  1.00  0.00     0.027 C 
ATOM     18  C   UNL A   1      32.362  25.464  24.269  1.00  0.00     0.316 C 
BRANCH   9  19
ATOM     19  C   UNL A   1      30.631  29.301  24.035  1.00  0.00    -0.067 C 
ATOM     20  C   UNL A   1      29.706  29.503  23.294  1.00  0.00     0.010 C 
ENDBRANCH   9  19
BRANCH  18  21
ATOM     21  C   UNL A   1      31.108  24.633  24.578  1.00  0.00     0.430 C 
ATOM     22  F   UNL A   1      30.854  24.601  25.906  1.00  0.00    -0.167 F 
ATOM     23  F   UNL A   1      30.008  25.143  23.979  1.00  0.00    -0.167 F 
ATOM     24  F   UNL A   1      31.244  23.355  24.157  1.00  0.00    -0.167 F 
ENDBRANCH  18  21
ENDBRANCH   6   8
ENDBRANCH   5   6
ENDBRANCH   4   5
ENDBRANCH   3   4
ENDBRANCH   2   3
ENDBRANCH   1   2
BRANCH   1  25
ATOM     25  C   UNL A   1      39.502  22.504  26.210  1.00  0.00     0.261 C 
BRANCH  25  26
ATOM     26  O   UNL A   1      39.971  23.202  27.373  1.00  0.00    -0.460 OA
BRANCH  26  27
ATOM     27  C   UNL A   1      40.885  24.170  27.106  1.00  0.00     0.338 C 
ATOM     28  O   UNL A   1      41.738  24.158  26.236  1.00  0.00    -0.246 OA
BRANCH  27  29
ATOM     29  C   UNL A   1      40.588  25.367  27.911  1.00  0.00     0.060 A 
ATOM     30  C   UNL A   1      41.564  26.369  27.989  1.00  0.00     0.016 A 
ATOM     31  C   UNL A   1      39.412  25.456  28.654  1.00  0.00     0.016 A 
ATOM     32  C   UNL A   1      41.379  27.457  28.837  1.00  0.00     0.010 A 
ATOM     33  C   UNL A   1      39.235  26.542  29.516  1.00  0.00     0.010 A 
ATOM     34  C   UNL A   1      40.230  27.529  29.635  1.00  0.00    -0.014 A 
BRANCH  34  35
ATOM     35  C   UNL A   1      40.142  28.557  30.699  1.00  0.00     0.031 A 
ATOM     36  C   UNL A   1      41.071  28.464  31.880  1.00  0.00     0.074 A 
ATOM     37  C   UNL A   1      39.276  29.581  30.592  1.00  0.00     0.049 A 
ATOM     38  N   UNL A   1      41.138  29.228  32.938  1.00  0.00    -0.248 NA
ATOM     39  C   UNL A   1      42.054  27.366  31.868  1.00  0.00     0.031 C 
ATOM     40  C   UNL A   1      38.372  29.809  29.466  1.00  0.00     0.029 A 
ATOM     41  N   UNL A   1      39.018  30.624  31.447  1.00  0.00    -0.354 N 
ATOM     42  C   UNL A   1      42.164  28.705  33.717  1.00  0.00     0.074 A 
ATOM     43  C   UNL A   1      42.666  27.536  33.031  1.00  0.00     0.031 C 
ATOM     44  C   UNL A   1      37.663  30.929  29.695  1.00  0.00     0.029 A 
ATOM     45  C   UNL A   1      38.030  31.469  31.002  1.00  0.00     0.049 A 
ATOM     46  H   UNL A   1      39.497  30.754  32.296  1.00  0.00     0.167 HD
ATOM     47  C   UNL A   1      42.654  29.170  34.890  1.00  0.00     0.031 A 
ATOM     48  C   UNL A   1      37.473  32.547  31.590  1.00  0.00     0.031 A 
ATOM     49  C   UNL A   1      42.150  30.333  35.569  1.00  0.00     0.049 A 
ATOM     50  C   UNL A   1      37.967  32.978  32.949  1.00  0.00     0.074 A 
ATOM     51  C   UNL A   1      42.581  30.884  36.763  1.00  0.00     0.029 A 
ATOM     52  N   UNL A   1      41.105  31.126  35.117  1.00  0.00    -0.354 N 
ATOM     53  N   UNL A   1      38.944  32.479  33.668  1.00  0.00    -0.248 NA
ATOM     54  C   UNL A   1      37.285  34.122  33.573  1.00  0.00     0.031 C 
ATOM     55  C   UNL A   1      41.755  31.968  37.067  1.00  0.00     0.029 A 
ATOM     56  C   UNL A   1      40.859  32.141  36.025  1.00  0.00     0.049 A 
ATOM     57  H   UNL A   1      40.613  30.988  34.276  1.00  0.00     0.167 HD
ATOM     58  C   UNL A   1      39.014  33.267  34.813  1.00  0.00     0.074 A 
ATOM     59  C   UNL A   1      37.995  34.288  34.680  1.00  0.00     0.031 C 
ATOM     60  C   UNL A   1      39.846  33.156  35.878  1.00  0.00     0.031 A 
BRANCH  47  61
ATOM     61  C   UNL A   1      43.793  28.421  35.530  1.00  0.00    -0.014 A 
ATOM     62  C   UNL A   1      45.128  28.799  35.301  1.00  0.00     0.010 A 
ATOM     63  C   UNL A   1      43.522  27.390  36.450  1.00  0.00     0.010 A 
ATOM     64  C   UNL A   1      46.171  28.154  35.971  1.00  0.00     0.020 A 
ATOM     65  C   UNL A   1      44.560  26.763  37.144  1.00  0.00     0.020 A 
ATOM     66  C   UNL A   1      45.879  27.147  36.896  1.00  0.00     0.054 A 
BRANCH  66  67
ATOM     67  S   UNL A   1      47.253  26.378  37.796  1.00  0.00     0.124 S 
ATOM     68  O   UNL A   1      47.819  27.517  38.515  1.00  0.00    -0.237 OA
ATOM     69  O   UNL A   1      46.572  25.388  38.626  1.00  0.00    -0.237 OA
ATOM     70  O   UNL A   1      48.099  25.829  36.740  1.00  0.00    -0.744 OA
ENDBRANCH  66  67
ENDBRANCH  47  61
BRANCH  48  71
ATOM     71  C   UNL A   1      36.376  33.291  30.909  1.00  0.00    -0.014 A 
ATOM     72  C   UNL A   1      36.585  33.875  29.648  1.00  0.00     0.010 A 
ATOM     73  C   UNL A   1      35.119  33.436  31.525  1.00  0.00     0.010 A 
ATOM     74  C   UNL A   1      35.569  34.607  29.026  1.00  0.00     0.020 A 
ATOM     75  C   UNL A   1      34.089  34.137  30.892  1.00  0.00     0.020 A 
ATOM     76  C   UNL A   1      34.326  34.730  29.651  1.00  0.00     0.054 A 
BRANCH  76  77
ATOM     77  S   UNL A   1      33.017  35.662  28.810  1.00  0.00     0.124 S 
ATOM     78  O   UNL A   1      33.781  36.663  28.073  1.00  0.00    -0.237 OA
ATOM     79  O   UNL A   1      32.374  34.631  27.999  1.00  0.00    -0.237 OA
ATOM     80  O   UNL A   1      32.203  36.179  29.907  1.00  0.00    -0.744 OA
ENDBRANCH  76  77
ENDBRANCH  48  71
BRANCH  60  81
ATOM     81  C   UNL A   1      39.719  34.175  36.982  1.00  0.00    -0.014 A 
ATOM     82  C   UNL A   1      39.018  33.884  38.165  1.00  0.00     0.010 A 
ATOM     83  C   UNL A   1      40.386  35.410  36.868  1.00  0.00     0.010 A 
ATOM     84  C   UNL A   1      38.963  34.819  39.202  1.00  0.00     0.020 A 
ATOM     85  C   UNL A   1      40.364  36.332  37.917  1.00  0.00     0.020 A 
ATOM     86  C   UNL A   1      39.643  36.034  39.074  1.00  0.00     0.054 A 
BRANCH  86  87
ATOM     87  S   UNL A   1      39.598  37.203  40.460  1.00  0.00     0.124 S 
ATOM     88  O   UNL A   1      38.741  38.264  39.937  1.00  0.00    -0.237 OA
ATOM     89  O   UNL A   1      39.019  36.400  41.533  1.00  0.00    -0.237 OA
ATOM     90  O   UNL A   1      40.998  37.574  40.650  1.00  0.00    -0.744 OA
ENDBRANCH  86  87
ENDBRANCH  60  81
ENDBRANCH  34  35
ENDBRANCH  27  29
ENDBRANCH  26  27
ENDBRANCH  25  26
ENDBRANCH   1  25
TORSDOF 19
ENDMDL
MODEL 3
REMARK VINA RESULT:     -10.1      1.426      2.071
REMARK SMILES C#Cc1cc(Cl)cc2c1O[C@H](C(F)(F)F)C(C(=O)OCCOCCOC(=O)c1ccc(-c3c4nc(c(-c5ccc(S(=O)(=O)[O-])cc5)c5ccc([nH]5)c(-c5ccc(S(=O)(=O)[O-])cc5)c5nc(c(-c6ccc(S(=O)(=O)[O-])cc6)c6ccc3[nH]6)C=C5)C=C4)cc1)=C2
REMARK SMILES IDX 23 1 22 2 21 3 20 4 19 5 17 6 18 7 16 8 3 9 4 10 9 11 5 12
REMARK SMILES IDX 8 13 10 14 6 15 7 16 88 17 11 18 2 19 1 20 12 21 13 22 14 23
REMARK SMILES IDX 15 24 24 25 25 26 26 27 27 28 28 29 29 30 87 31 30 32 86 33
REMARK SMILES IDX 31 34 32 35 33 36 80 37 34 38 85 39 79 40 81 41 35 42 84 43
REMARK SMILES IDX 78 44 77 45 36 47 66 48 47 49 65 50 48 51 51 52 64 53 82 54
REMARK SMILES IDX 49 55 50 56 63 58 83 59 52 60 37 61 38 62 46 63 39 64 45 65
REMARK SMILES IDX 40 66 41 67 42 68 43 69 44 70 67 71 68 72 76 73 69 74 75 75
REMARK SMILES IDX 70 76 71 77 72 78 73 79 74 80 53 81 54 82 62 83 55 84 61 85
REMARK SMILES IDX 56 86 57 87 58 88 59 89 60 90
REMARK H PARENT 81 46 51 57
REMARK Flexibility Score: inf
ROOT
ATOM      1  C   UNL A   1      31.627  31.154  26.169  1.00  0.00     0.202 C 
ENDROOT
BRANCH   1   2
ATOM      2  O   UNL A   1      31.847  30.220  25.115  1.00  0.00    -0.374 OA
BRANCH   2   3
ATOM      3  C   UNL A   1      30.960  29.115  24.972  1.00  0.00     0.202 C 
BRANCH   3   4
ATOM      4  C   UNL A   1      31.369  27.939  24.080  1.00  0.00     0.261 C 
BRANCH   4   5
ATOM      5  O   UNL A   1      32.190  26.987  24.766  1.00  0.00    -0.460 OA
BRANCH   5   6
ATOM      6  C   UNL A   1      33.299  26.620  24.084  1.00  0.00     0.338 C 
ATOM      7  O   UNL A   1      33.964  27.315  23.334  1.00  0.00    -0.246 OA
BRANCH   6   8
ATOM      8  C   UNL A   1      33.708  25.263  24.494  1.00  0.00     0.087 C 
ATOM      9  C   UNL A   1      35.205  21.431  25.163  1.00  0.00     0.068 A 
ATOM     10  C   UNL A   1      36.552  21.278  25.514  1.00  0.00     0.041 A 
ATOM     11  C   UNL A   1      34.651  22.716  25.048  1.00  0.00     0.143 A 
ATOM     12  C   UNL A   1      37.334  22.401  25.769  1.00  0.00     0.043 A 
ATOM     13  C   UNL A   1      35.459  23.836  25.267  1.00  0.00     0.020 A 
ATOM     14  O   UNL A   1      33.323  22.816  24.731  1.00  0.00    -0.474 OA
ATOM     15  Cl  UNL A   1      38.991  22.213  26.192  1.00  0.00    -0.084 Cl
ATOM     16  C   UNL A   1      36.795  23.678  25.652  1.00  0.00     0.032 A 
ATOM     17  C   UNL A   1      34.942  25.164  25.003  1.00  0.00     0.027 C 
ATOM     18  C   UNL A   1      32.783  24.095  24.299  1.00  0.00     0.316 C 
BRANCH   9  19
ATOM     19  C   UNL A   1      34.436  20.259  24.869  1.00  0.00    -0.067 C 
ATOM     20  C   UNL A   1      33.815  19.266  24.601  1.00  0.00     0.010 C 
ENDBRANCH   9  19
BRANCH  18  21
ATOM     21  C   UNL A   1      32.306  23.958  22.846  1.00  0.00     0.430 C 
ATOM     22  F   UNL A   1      33.258  24.368  21.975  1.00  0.00    -0.167 F 
ATOM     23  F   UNL A   1      32.012  22.675  22.532  1.00  0.00    -0.167 F 
ATOM     24  F   UNL A   1      31.196  24.697  22.616  1.00  0.00    -0.167 F 
ENDBRANCH  18  21
ENDBRANCH   6   8
ENDBRANCH   5   6
ENDBRANCH   4   5
ENDBRANCH   3   4
ENDBRANCH   2   3
ENDBRANCH   1   2
BRANCH   1  25
ATOM     25  C   UNL A   1      32.687  31.353  27.263  1.00  0.00     0.261 C 
BRANCH  25  26
ATOM     26  O   UNL A   1      33.972  30.799  26.946  1.00  0.00    -0.460 OA
BRANCH  26  27
ATOM     27  C   UNL A   1      34.227  29.610  27.549  1.00  0.00     0.338 C 
ATOM     28  O   UNL A   1      33.502  28.631  27.583  1.00  0.00    -0.246 OA
BRANCH  27  29
ATOM     29  C   UNL A   1      35.622  29.581  28.019  1.00  0.00     0.060 A 
ATOM     30  C   UNL A   1      36.643  29.715  27.067  1.00  0.00     0.016 A 
ATOM     31  C   UNL A   1      35.922  29.328  29.357  1.00  0.00     0.016 A 
ATOM     32  C   UNL A   1      37.973  29.567  27.448  1.00  0.00     0.010 A 
ATOM     33  C   UNL A   1      37.258  29.166  29.734  1.00  0.00     0.010 A 
ATOM     34  C   UNL A   1      38.285  29.253  28.777  1.00  0.00    -0.014 A 
BRANCH  34  35
ATOM     35  C   UNL A   1      39.673  28.869  29.131  1.00  0.00     0.031 A 
ATOM     36  C   UNL A   1      40.531  29.852  29.881  1.00  0.00     0.074 A 
ATOM     37  C   UNL A   1      40.146  27.648  28.823  1.00  0.00     0.049 A 
ATOM     38  N   UNL A   1      41.779  29.740  30.254  1.00  0.00    -0.248 NA
ATOM     39  C   UNL A   1      39.901  31.128  30.263  1.00  0.00     0.031 C 
ATOM     40  C   UNL A   1      39.387  26.592  28.153  1.00  0.00     0.029 A 
ATOM     41  N   UNL A   1      41.381  27.089  29.038  1.00  0.00    -0.354 N 
ATOM     42  C   UNL A   1      42.084  30.928  30.911  1.00  0.00     0.074 A 
ATOM     43  C   UNL A   1      40.906  31.763  30.851  1.00  0.00     0.031 C 
ATOM     44  C   UNL A   1      40.172  25.509  28.020  1.00  0.00     0.029 A 
ATOM     45  C   UNL A   1      41.499  25.809  28.551  1.00  0.00     0.049 A 
ATOM     46  H   UNL A   1      42.112  27.561  29.499  1.00  0.00     0.167 HD
ATOM     47  C   UNL A   1      43.239  31.281  31.522  1.00  0.00     0.031 A 
ATOM     48  C   UNL A   1      42.563  24.981  28.523  1.00  0.00     0.031 A 
ATOM     49  C   UNL A   1      44.409  30.447  31.577  1.00  0.00     0.049 A 
ATOM     50  C   UNL A   1      43.870  25.445  29.117  1.00  0.00     0.074 A 
ATOM     51  C   UNL A   1      45.628  30.717  32.174  1.00  0.00     0.029 A 
ATOM     52  N   UNL A   1      44.510  29.182  31.016  1.00  0.00    -0.354 N 
ATOM     53  N   UNL A   1      44.140  26.566  29.742  1.00  0.00    -0.248 NA
ATOM     54  C   UNL A   1      45.014  24.527  29.007  1.00  0.00     0.031 C 
ATOM     55  C   UNL A   1      46.486  29.646  31.917  1.00  0.00     0.029 A 
ATOM     56  C   UNL A   1      45.780  28.674  31.227  1.00  0.00     0.049 A 
ATOM     57  H   UNL A   1      43.786  28.715  30.540  1.00  0.00     0.167 HD
ATOM     58  C   UNL A   1      45.474  26.475  30.127  1.00  0.00     0.074 A 
ATOM     59  C   UNL A   1      45.949  25.181  29.682  1.00  0.00     0.031 C 
ATOM     60  C   UNL A   1      46.238  27.381  30.786  1.00  0.00     0.031 A 
BRANCH  47  61
ATOM     61  C   UNL A   1      43.308  32.634  32.180  1.00  0.00    -0.014 A 
ATOM     62  C   UNL A   1      43.067  32.781  33.558  1.00  0.00     0.010 A 
ATOM     63  C   UNL A   1      43.717  33.754  31.433  1.00  0.00     0.010 A 
ATOM     64  C   UNL A   1      43.223  34.026  34.174  1.00  0.00     0.020 A 
ATOM     65  C   UNL A   1      43.903  34.994  32.051  1.00  0.00     0.020 A 
ATOM     66  C   UNL A   1      43.650  35.122  33.418  1.00  0.00     0.054 A 
BRANCH  66  67
ATOM     67  S   UNL A   1      43.906  36.706  34.263  1.00  0.00     0.124 S 
ATOM     68  O   UNL A   1      44.145  36.279  35.640  1.00  0.00    -0.237 OA
ATOM     69  O   UNL A   1      45.065  37.253  33.565  1.00  0.00    -0.237 OA
ATOM     70  O   UNL A   1      42.652  37.424  34.046  1.00  0.00    -0.744 OA
ENDBRANCH  66  67
ENDBRANCH  47  61
BRANCH  48  71
ATOM     71  C   UNL A   1      42.447  23.632  27.901  1.00  0.00    -0.014 A 
ATOM     72  C   UNL A   1      42.070  22.519  28.673  1.00  0.00     0.010 A 
ATOM     73  C   UNL A   1      42.730  23.447  26.535  1.00  0.00     0.010 A 
ATOM     74  C   UNL A   1      42.001  21.246  28.099  1.00  0.00     0.020 A 
ATOM     75  C   UNL A   1      42.628  22.182  25.948  1.00  0.00     0.020 A 
ATOM     76  C   UNL A   1      42.276  21.088  26.738  1.00  0.00     0.054 A 
BRANCH  76  77
ATOM     77  S   UNL A   1      42.150  19.430  26.013  1.00  0.00     0.124 S 
ATOM     78  O   UNL A   1      40.717  19.315  25.760  1.00  0.00    -0.237 OA
ATOM     79  O   UNL A   1      42.996  19.545  24.827  1.00  0.00    -0.237 OA
ATOM     80  O   UNL A   1      42.673  18.555  27.060  1.00  0.00    -0.744 OA
ENDBRANCH  76  77
ENDBRANCH  48  71
BRANCH  60  81
ATOM     81  C   UNL A   1      47.664  27.006  31.100  1.00  0.00    -0.014 A 
ATOM     82  C   UNL A   1      48.006  26.392  32.318  1.00  0.00     0.010 A 
ATOM     83  C   UNL A   1      48.663  27.193  30.125  1.00  0.00     0.010 A 
ATOM     84  C   UNL A   1      49.322  25.996  32.565  1.00  0.00     0.020 A 
ATOM     85  C   UNL A   1      49.973  26.765  30.354  1.00  0.00     0.020 A 
ATOM     86  C   UNL A   1      50.296  26.179  31.578  1.00  0.00     0.054 A 
BRANCH  86  87
ATOM     87  S   UNL A   1      51.984  25.605  31.910  1.00  0.00     0.124 S 
ATOM     88  O   UNL A   1      51.816  24.155  31.928  1.00  0.00    -0.237 OA
ATOM     89  O   UNL A   1      52.729  26.136  30.771  1.00  0.00    -0.237 OA
ATOM     90  O   UNL A   1      52.312  26.208  33.199  1.00  0.00    -0.744 OA
ENDBRANCH  86  87
ENDBRANCH  60  81
ENDBRANCH  34  35
ENDBRANCH  27  29
ENDBRANCH  26  27
ENDBRANCH  25  26
ENDBRANCH   1  25
TORSDOF 19
ENDMDL
