MODEL 1
REMARK VINA RESULT:     -10.1      0.000      0.000
REMARK SMILES C=CCOc1ccc(C(=O)N2CCC[C@H]2C(=O)OCCOCCOC(=O)c2ccc(-c3c4nc(c(-c5ccc(S(=O)(=O)[O-])cc5)c5ccc([nH]5)c(-c5ccc(S(=O)(=O)[O-])cc5)c5nc(c(-c6ccc(S(=O)(=O)[O-])cc6)c6ccc3[nH]6)C=C5)C=C4)cc2)cc1
REMARK SMILES IDX 20 1 19 2 18 3 16 4 17 5 15 6 11 7 12 8 13 9 14 10 9 11
REMARK SMILES IDX 10 12 8 13 5 14 6 15 88 16 7 17 87 18 4 19 3 20 2 21 1 22
REMARK SMILES IDX 21 23 22 24 23 25 24 26 25 27 26 28 27 29 28 30 86 31 29 32
REMARK SMILES IDX 85 33 30 34 31 35 32 36 79 37 33 38 84 39 78 40 80 41 34 42
REMARK SMILES IDX 83 43 77 44 76 45 35 47 65 48 46 49 64 50 47 51 50 52 63 53
REMARK SMILES IDX 81 54 48 55 49 56 62 58 82 59 51 60 36 61 37 62 45 63 38 64
REMARK SMILES IDX 44 65 39 66 40 67 41 68 42 69 43 70 66 71 67 72 75 73 68 74
REMARK SMILES IDX 74 75 69 76 70 77 71 78 72 79 73 80 52 81 53 82 61 83 54 84
REMARK SMILES IDX 60 85 55 86 56 87 57 88 58 89 59 90
REMARK H PARENT 80 46 50 57
REMARK Flexibility Score: inf
ROOT
ATOM      1  C   UNL A   1      36.869  23.882  26.070  1.00  0.00     0.202 C 
ENDROOT
BRANCH   1   2
ATOM      2  C   UNL A   1      35.384  23.757  25.727  1.00  0.00     0.261 C 
BRANCH   2   3
ATOM      3  O   UNL A   1      34.908  25.012  25.236  1.00  0.00    -0.462 OA
BRANCH   3   4
ATOM      4  C   UNL A   1      33.559  25.181  25.220  1.00  0.00     0.328 C 
ATOM      5  O   UNL A   1      32.832  25.245  26.205  1.00  0.00    -0.250 OA
BRANCH   4   6
ATOM      6  C   UNL A   1      33.084  25.384  23.780  1.00  0.00     0.195 C 
ATOM      7  N   UNL A   1      32.279  24.268  23.336  1.00  0.00    -0.325 N 
ATOM      8  C   UNL A   1      30.880  24.528  23.624  1.00  0.00     0.121 C 
ATOM      9  C   UNL A   1      30.758  26.012  23.327  1.00  0.00     0.024 C 
ATOM     10  C   UNL A   1      32.134  26.592  23.689  1.00  0.00     0.039 C 
BRANCH   7  11
ATOM     11  C   UNL A   1      32.911  23.196  22.741  1.00  0.00     0.254 C 
ATOM     12  O   UNL A   1      33.469  23.300  21.651  1.00  0.00    -0.269 OA
BRANCH  11  13
ATOM     13  C   UNL A   1      32.780  21.847  23.339  1.00  0.00     0.040 A 
ATOM     14  C   UNL A   1      32.281  19.356  24.513  1.00  0.00     0.119 A 
ATOM     15  C   UNL A   1      32.115  19.523  23.138  1.00  0.00     0.047 A 
ATOM     16  C   UNL A   1      32.713  20.425  25.291  1.00  0.00     0.047 A 
ATOM     17  C   UNL A   1      32.360  20.770  22.549  1.00  0.00     0.017 A 
ATOM     18  C   UNL A   1      32.908  21.673  24.717  1.00  0.00     0.017 A 
BRANCH  14  19
ATOM     19  O   UNL A   1      32.060  18.114  25.045  1.00  0.00    -0.490 OA
BRANCH  19  20
ATOM     20  C   UNL A   1      33.256  17.339  25.228  1.00  0.00     0.257 C 
BRANCH  20  21
ATOM     21  C   UNL A   1      33.464  16.378  24.087  1.00  0.00     0.006 C 
ATOM     22  C   UNL A   1      34.304  16.592  23.065  1.00  0.00     0.007 C 
ENDBRANCH  20  21
ENDBRANCH  19  20
ENDBRANCH  14  19
ENDBRANCH  11  13
ENDBRANCH   7  11
ENDBRANCH   4   6
ENDBRANCH   3   4
ENDBRANCH   2   3
ENDBRANCH   1   2
BRANCH   1  23
ATOM     23  O   UNL A   1      37.753  23.037  25.328  1.00  0.00    -0.374 OA
BRANCH  23  24
ATOM     24  C   UNL A   1      38.664  22.218  26.063  1.00  0.00     0.202 C 
BRANCH  24  25
ATOM     25  C   UNL A   1      39.921  22.893  26.624  1.00  0.00     0.261 C 
BRANCH  25  26
ATOM     26  O   UNL A   1      39.893  24.322  26.465  1.00  0.00    -0.460 OA
BRANCH  26  27
ATOM     27  C   UNL A   1      41.019  24.958  26.863  1.00  0.00     0.338 C 
ATOM     28  O   UNL A   1      42.150  24.802  26.414  1.00  0.00    -0.246 OA
BRANCH  27  29
ATOM     29  C   UNL A   1      40.695  26.030  27.817  1.00  0.00     0.060 A 
ATOM     30  C   UNL A   1      41.588  27.105  27.911  1.00  0.00     0.016 A 
ATOM     31  C   UNL A   1      39.592  25.944  28.670  1.00  0.00     0.016 A 
ATOM     32  C   UNL A   1      41.412  28.073  28.895  1.00  0.00     0.010 A 
ATOM     33  C   UNL A   1      39.424  26.912  29.666  1.00  0.00     0.010 A 
ATOM     34  C   UNL A   1      40.353  27.959  29.805  1.00  0.00    -0.014 A 
BRANCH  34  35
ATOM     35  C   UNL A   1      40.312  28.853  30.986  1.00  0.00     0.031 A 
ATOM     36  C   UNL A   1      39.311  29.976  31.016  1.00  0.00     0.074 A 
ATOM     37  C   UNL A   1      41.130  28.646  32.033  1.00  0.00     0.049 A 
ATOM     38  N   UNL A   1      39.109  30.881  31.938  1.00  0.00    -0.248 NA
ATOM     39  C   UNL A   1      38.417  30.094  29.851  1.00  0.00     0.031 C 
ATOM     40  C   UNL A   1      42.111  27.565  32.138  1.00  0.00     0.029 A 
ATOM     41  N   UNL A   1      41.265  29.340  33.209  1.00  0.00    -0.354 N 
ATOM     42  C   UNL A   1      38.074  31.679  31.465  1.00  0.00     0.074 A 
ATOM     43  C   UNL A   1      37.706  31.168  30.162  1.00  0.00     0.031 C 
ATOM     44  C   UNL A   1      42.752  27.673  33.315  1.00  0.00     0.029 A 
ATOM     45  C   UNL A   1      42.250  28.847  34.029  1.00  0.00     0.049 A 
ATOM     46  H   UNL A   1      40.709  30.118  33.442  1.00  0.00     0.167 HD
ATOM     47  C   UNL A   1      37.481  32.741  32.062  1.00  0.00     0.031 A 
ATOM     48  C   UNL A   1      42.710  29.301  35.211  1.00  0.00     0.031 A 
ATOM     49  C   UNL A   1      37.859  33.255  33.351  1.00  0.00     0.049 A 
ATOM     50  C   UNL A   1      42.081  30.525  35.824  1.00  0.00     0.074 A 
ATOM     51  C   UNL A   1      37.310  34.317  34.048  1.00  0.00     0.029 A 
ATOM     52  N   UNL A   1      38.886  32.750  34.134  1.00  0.00    -0.354 N 
ATOM     53  N   UNL A   1      41.087  31.255  35.375  1.00  0.00    -0.248 NA
ATOM     54  C   UNL A   1      42.630  30.980  37.109  1.00  0.00     0.031 C 
ATOM     55  C   UNL A   1      38.041  34.487  35.230  1.00  0.00     0.029 A 
ATOM     56  C   UNL A   1      39.006  33.494  35.295  1.00  0.00     0.049 A 
ATOM     57  H   UNL A   1      39.446  31.975  33.899  1.00  0.00     0.167 HD
ATOM     58  C   UNL A   1      40.878  32.242  36.333  1.00  0.00     0.074 A 
ATOM     59  C   UNL A   1      41.838  32.007  37.392  1.00  0.00     0.031 C 
ATOM     60  C   UNL A   1      39.969  33.248  36.339  1.00  0.00     0.031 A 
BRANCH  47  61
ATOM     61  C   UNL A   1      36.384  33.440  31.305  1.00  0.00    -0.014 A 
ATOM     62  C   UNL A   1      35.134  33.694  31.900  1.00  0.00     0.010 A 
ATOM     63  C   UNL A   1      36.617  33.879  29.988  1.00  0.00     0.010 A 
ATOM     64  C   UNL A   1      34.127  34.339  31.177  1.00  0.00     0.020 A 
ATOM     65  C   UNL A   1      35.620  34.547  29.272  1.00  0.00     0.020 A 
ATOM     66  C   UNL A   1      34.374  34.757  29.867  1.00  0.00     0.054 A 
BRANCH  66  67
ATOM     67  S   UNL A   1      33.055  35.609  28.958  1.00  0.00     0.124 S 
ATOM     68  O   UNL A   1      33.809  36.596  28.188  1.00  0.00    -0.237 OA
ATOM     69  O   UNL A   1      32.454  34.531  28.177  1.00  0.00    -0.237 OA
ATOM     70  O   UNL A   1      32.206  36.159  30.012  1.00  0.00    -0.744 OA
ENDBRANCH  66  67
ENDBRANCH  47  61
BRANCH  48  71
ATOM     71  C   UNL A   1      43.839  28.605  35.885  1.00  0.00    -0.014 A 
ATOM     72  C   UNL A   1      43.603  27.545  36.776  1.00  0.00     0.010 A 
ATOM     73  C   UNL A   1      45.166  29.002  35.630  1.00  0.00     0.010 A 
ATOM     74  C   UNL A   1      44.671  26.904  37.412  1.00  0.00     0.020 A 
ATOM     75  C   UNL A   1      46.236  28.346  36.243  1.00  0.00     0.020 A 
ATOM     76  C   UNL A   1      45.981  27.307  37.139  1.00  0.00     0.054 A 
BRANCH  76  77
ATOM     77  S   UNL A   1      47.354  26.427  37.937  1.00  0.00     0.124 S 
ATOM     78  O   UNL A   1      46.946  25.035  37.794  1.00  0.00    -0.237 OA
ATOM     79  O   UNL A   1      48.502  26.838  37.133  1.00  0.00    -0.237 OA
ATOM     80  O   UNL A   1      47.344  26.946  39.304  1.00  0.00    -0.744 OA
ENDBRANCH  76  77
ENDBRANCH  48  71
BRANCH  60  81
ATOM     81  C   UNL A   1      39.945  34.157  37.539  1.00  0.00    -0.014 A 
ATOM     82  C   UNL A   1      40.700  35.342  37.573  1.00  0.00     0.010 A 
ATOM     83  C   UNL A   1      39.106  33.846  38.626  1.00  0.00     0.010 A 
ATOM     84  C   UNL A   1      40.639  36.186  38.686  1.00  0.00     0.020 A 
ATOM     85  C   UNL A   1      39.023  34.700  39.728  1.00  0.00     0.020 A 
ATOM     86  C   UNL A   1      39.801  35.860  39.757  1.00  0.00     0.054 A 
BRANCH  86  87
ATOM     87  S   UNL A   1      39.704  36.994  41.169  1.00  0.00     0.124 S 
ATOM     88  O   UNL A   1      41.113  37.278  41.427  1.00  0.00    -0.237 OA
ATOM     89  O   UNL A   1      38.925  38.108  40.634  1.00  0.00    -0.237 OA
ATOM     90  O   UNL A   1      39.028  36.208  42.199  1.00  0.00    -0.744 OA
ENDBRANCH  86  87
ENDBRANCH  60  81
ENDBRANCH  34  35
ENDBRANCH  27  29
ENDBRANCH  26  27
ENDBRANCH  25  26
ENDBRANCH  24  25
ENDBRANCH  23  24
ENDBRANCH   1  23
TORSDOF 22
ENDMDL
MODEL 2
REMARK VINA RESULT:     -10.0      6.204      9.124
REMARK SMILES C=CCOc1ccc(C(=O)N2CCC[C@H]2C(=O)OCCOCCOC(=O)c2ccc(-c3c4nc(c(-c5ccc(S(=O)(=O)[O-])cc5)c5ccc([nH]5)c(-c5ccc(S(=O)(=O)[O-])cc5)c5nc(c(-c6ccc(S(=O)(=O)[O-])cc6)c6ccc3[nH]6)C=C5)C=C4)cc2)cc1
REMARK SMILES IDX 20 1 19 2 18 3 16 4 17 5 15 6 11 7 12 8 13 9 14 10 9 11
REMARK SMILES IDX 10 12 8 13 5 14 6 15 88 16 7 17 87 18 4 19 3 20 2 21 1 22
REMARK SMILES IDX 21 23 22 24 23 25 24 26 25 27 26 28 27 29 28 30 86 31 29 32
REMARK SMILES IDX 85 33 30 34 31 35 32 36 79 37 33 38 84 39 78 40 80 41 34 42
REMARK SMILES IDX 83 43 77 44 76 45 35 47 65 48 46 49 64 50 47 51 50 52 63 53
REMARK SMILES IDX 81 54 48 55 49 56 62 58 82 59 51 60 36 61 37 62 45 63 38 64
REMARK SMILES IDX 44 65 39 66 40 67 41 68 42 69 43 70 66 71 67 72 75 73 68 74
REMARK SMILES IDX 74 75 69 76 70 77 71 78 72 79 73 80 52 81 53 82 61 83 54 84
REMARK SMILES IDX 60 85 55 86 56 87 57 88 58 89 59 90
REMARK H PARENT 80 46 50 57
REMARK Flexibility Score: inf
ROOT
ATOM      1  C   UNL A   1      35.989  21.888  24.793  1.00  0.00     0.202 C 
ENDROOT
BRANCH   1   2
ATOM      2  C   UNL A   1      35.176  22.456  25.958  1.00  0.00     0.261 C 
BRANCH   2   3
ATOM      3  O   UNL A   1      34.067  21.593  26.221  1.00  0.00    -0.462 OA
BRANCH   3   4
ATOM      4  C   UNL A   1      32.988  22.164  26.820  1.00  0.00     0.328 C 
ATOM      5  O   UNL A   1      32.976  22.687  27.929  1.00  0.00    -0.250 OA
BRANCH   4   6
ATOM      6  C   UNL A   1      31.799  22.151  25.857  1.00  0.00     0.195 C 
ATOM      7  N   UNL A   1      31.663  23.423  25.184  1.00  0.00    -0.325 N 
ATOM      8  C   UNL A   1      32.415  23.403  23.942  1.00  0.00     0.121 C 
ATOM      9  C   UNL A   1      32.175  21.990  23.441  1.00  0.00     0.024 C 
ATOM     10  C   UNL A   1      32.038  21.145  24.717  1.00  0.00     0.039 C 
BRANCH   7  11
ATOM     11  C   UNL A   1      30.890  24.401  25.774  1.00  0.00     0.254 C 
ATOM     12  O   UNL A   1      30.185  24.163  26.752  1.00  0.00    -0.269 OA
BRANCH  11  13
ATOM     13  C   UNL A   1      30.771  25.728  25.125  1.00  0.00     0.040 A 
ATOM     14  C   UNL A   1      30.384  28.299  24.092  1.00  0.00     0.119 A 
ATOM     15  C   UNL A   1      31.416  28.063  25.001  1.00  0.00     0.047 A 
ATOM     16  C   UNL A   1      29.566  27.250  23.688  1.00  0.00     0.047 A 
ATOM     17  C   UNL A   1      31.608  26.777  25.523  1.00  0.00     0.017 A 
ATOM     18  C   UNL A   1      29.724  25.987  24.241  1.00  0.00     0.017 A 
BRANCH  14  19
ATOM     19  O   UNL A   1      30.248  29.563  23.583  1.00  0.00    -0.490 OA
BRANCH  19  20
ATOM     20  C   UNL A   1      29.809  29.595  22.215  1.00  0.00     0.257 C 
BRANCH  20  21
ATOM     21  C   UNL A   1      28.611  30.493  22.047  1.00  0.00     0.006 C 
ATOM     22  C   UNL A   1      27.758  30.805  23.034  1.00  0.00     0.007 C 
ENDBRANCH  20  21
ENDBRANCH  19  20
ENDBRANCH  14  19
ENDBRANCH  11  13
ENDBRANCH   7  11
ENDBRANCH   4   6
ENDBRANCH   3   4
ENDBRANCH   2   3
ENDBRANCH   1   2
BRANCH   1  23
ATOM     23  O   UNL A   1      36.434  20.538  24.945  1.00  0.00    -0.374 OA
BRANCH  23  24
ATOM     24  C   UNL A   1      37.843  20.298  24.944  1.00  0.00     0.202 C 
BRANCH  24  25
ATOM     25  C   UNL A   1      38.721  21.262  25.751  1.00  0.00     0.261 C 
BRANCH  25  26
ATOM     26  O   UNL A   1      39.510  20.583  26.743  1.00  0.00    -0.460 OA
BRANCH  26  27
ATOM     27  C   UNL A   1      40.745  20.217  26.329  1.00  0.00     0.338 C 
ATOM     28  O   UNL A   1      41.046  19.189  25.729  1.00  0.00    -0.246 OA
BRANCH  27  29
ATOM     29  C   UNL A   1      41.704  21.314  26.533  1.00  0.00     0.060 A 
ATOM     30  C   UNL A   1      41.991  21.686  27.853  1.00  0.00     0.016 A 
ATOM     31  C   UNL A   1      42.239  22.029  25.459  1.00  0.00     0.016 A 
ATOM     32  C   UNL A   1      42.775  22.808  28.105  1.00  0.00     0.010 A 
ATOM     33  C   UNL A   1      43.016  23.164  25.716  1.00  0.00     0.010 A 
ATOM     34  C   UNL A   1      43.256  23.578  27.039  1.00  0.00    -0.014 A 
BRANCH  34  35
ATOM     35  C   UNL A   1      43.882  24.893  27.317  1.00  0.00     0.031 A 
ATOM     36  C   UNL A   1      43.016  26.024  27.800  1.00  0.00     0.074 A 
ATOM     37  C   UNL A   1      45.208  25.066  27.174  1.00  0.00     0.049 A 
ATOM     38  N   UNL A   1      43.349  27.255  28.091  1.00  0.00    -0.248 NA
ATOM     39  C   UNL A   1      41.585  25.729  27.981  1.00  0.00     0.031 C 
ATOM     40  C   UNL A   1      46.154  24.032  26.754  1.00  0.00     0.029 A 
ATOM     41  N   UNL A   1      45.986  26.179  27.366  1.00  0.00    -0.354 N 
ATOM     42  C   UNL A   1      42.172  27.883  28.481  1.00  0.00     0.074 A 
ATOM     43  C   UNL A   1      41.112  26.905  28.366  1.00  0.00     0.031 C 
ATOM     44  C   UNL A   1      47.389  24.563  26.715  1.00  0.00     0.029 A 
ATOM     45  C   UNL A   1      47.314  25.979  27.075  1.00  0.00     0.049 A 
ATOM     46  H   UNL A   1      45.628  27.039  27.683  1.00  0.00     0.167 HD
ATOM     47  C   UNL A   1      41.990  29.158  28.900  1.00  0.00     0.031 A 
ATOM     48  C   UNL A   1      48.347  26.843  27.078  1.00  0.00     0.031 A 
ATOM     49  C   UNL A   1      43.045  30.132  29.000  1.00  0.00     0.049 A 
ATOM     50  C   UNL A   1      48.108  28.274  27.482  1.00  0.00     0.074 A 
ATOM     51  C   UNL A   1      42.965  31.445  29.427  1.00  0.00     0.029 A 
ATOM     52  N   UNL A   1      44.370  29.900  28.661  1.00  0.00    -0.354 N 
ATOM     53  N   UNL A   1      46.993  28.847  27.871  1.00  0.00    -0.248 NA
ATOM     54  C   UNL A   1      49.271  29.174  27.456  1.00  0.00     0.031 C 
ATOM     55  C   UNL A   1      44.233  32.025  29.296  1.00  0.00     0.029 A 
ATOM     56  C   UNL A   1      45.113  31.054  28.843  1.00  0.00     0.049 A 
ATOM     57  H   UNL A   1      44.728  29.042  28.339  1.00  0.00     0.167 HD
ATOM     58  C   UNL A   1      47.325  30.168  28.158  1.00  0.00     0.074 A 
ATOM     59  C   UNL A   1      48.746  30.305  27.910  1.00  0.00     0.031 C 
ATOM     60  C   UNL A   1      46.527  31.174  28.591  1.00  0.00     0.031 A 
BRANCH  47  61
ATOM     61  C   UNL A   1      40.589  29.582  29.247  1.00  0.00    -0.014 A 
ATOM     62  C   UNL A   1      39.653  29.899  28.245  1.00  0.00     0.010 A 
ATOM     63  C   UNL A   1      40.191  29.634  30.595  1.00  0.00     0.010 A 
ATOM     64  C   UNL A   1      38.358  30.297  28.588  1.00  0.00     0.020 A 
ATOM     65  C   UNL A   1      38.889  30.006  30.941  1.00  0.00     0.020 A 
ATOM     66  C   UNL A   1      37.985  30.352  29.935  1.00  0.00     0.054 A 
BRANCH  66  67
ATOM     67  S   UNL A   1      36.292  30.853  30.352  1.00  0.00     0.124 S 
ATOM     68  O   UNL A   1      36.030  30.057  31.549  1.00  0.00    -0.237 OA
ATOM     69  O   UNL A   1      36.427  32.291  30.572  1.00  0.00    -0.237 OA
ATOM     70  O   UNL A   1      35.517  30.477  29.172  1.00  0.00    -0.744 OA
ENDBRANCH  66  67
ENDBRANCH  47  61
BRANCH  48  71
ATOM     71  C   UNL A   1      49.700  26.383  26.666  1.00  0.00    -0.014 A 
ATOM     72  C   UNL A   1      50.628  25.928  27.618  1.00  0.00     0.010 A 
ATOM     73  C   UNL A   1      50.066  26.392  25.306  1.00  0.00     0.010 A 
ATOM     74  C   UNL A   1      51.901  25.506  27.222  1.00  0.00     0.020 A 
ATOM     75  C   UNL A   1      51.328  25.946  24.904  1.00  0.00     0.020 A 
ATOM     76  C   UNL A   1      52.242  25.516  25.867  1.00  0.00     0.054 A 
BRANCH  76  77
ATOM     77  S   UNL A   1      53.882  24.917  25.371  1.00  0.00     0.124 S 
ATOM     78  O   UNL A   1      53.564  23.625  24.773  1.00  0.00    -0.237 OA
ATOM     79  O   UNL A   1      54.329  25.952  24.443  1.00  0.00    -0.237 OA
ATOM     80  O   UNL A   1      54.621  24.860  26.631  1.00  0.00    -0.744 OA
ENDBRANCH  76  77
ENDBRANCH  48  71
BRANCH  60  81
ATOM     81  C   UNL A   1      47.173  32.508  28.858  1.00  0.00    -0.014 A 
ATOM     82  C   UNL A   1      47.873  32.754  30.051  1.00  0.00     0.010 A 
ATOM     83  C   UNL A   1      47.126  33.510  27.870  1.00  0.00     0.010 A 
ATOM     84  C   UNL A   1      48.492  33.989  30.265  1.00  0.00     0.020 A 
ATOM     85  C   UNL A   1      47.765  34.736  28.070  1.00  0.00     0.020 A 
ATOM     86  C   UNL A   1      48.433  34.973  29.273  1.00  0.00     0.054 A 
BRANCH  86  87
ATOM     87  S   UNL A   1      49.281  36.551  29.555  1.00  0.00     0.124 S 
ATOM     88  O   UNL A   1      50.297  36.179  30.536  1.00  0.00    -0.237 OA
ATOM     89  O   UNL A   1      49.784  36.889  28.225  1.00  0.00    -0.237 OA
ATOM     90  O   UNL A   1      48.225  37.429  30.055  1.00  0.00    -0.744 OA
ENDBRANCH  86  87
ENDBRANCH  60  81
ENDBRANCH  34  35
ENDBRANCH  27  29
ENDBRANCH  26  27
ENDBRANCH  25  26
ENDBRANCH  24  25
ENDBRANCH  23  24
ENDBRANCH   1  23
TORSDOF 22
ENDMDL
MODEL 3
REMARK VINA RESULT:      -9.9      1.389      8.825
REMARK SMILES C=CCOc1ccc(C(=O)N2CCC[C@H]2C(=O)OCCOCCOC(=O)c2ccc(-c3c4nc(c(-c5ccc(S(=O)(=O)[O-])cc5)c5ccc([nH]5)c(-c5ccc(S(=O)(=O)[O-])cc5)c5nc(c(-c6ccc(S(=O)(=O)[O-])cc6)c6ccc3[nH]6)C=C5)C=C4)cc2)cc1
REMARK SMILES IDX 20 1 19 2 18 3 16 4 17 5 15 6 11 7 12 8 13 9 14 10 9 11
REMARK SMILES IDX 10 12 8 13 5 14 6 15 88 16 7 17 87 18 4 19 3 20 2 21 1 22
REMARK SMILES IDX 21 23 22 24 23 25 24 26 25 27 26 28 27 29 28 30 86 31 29 32
REMARK SMILES IDX 85 33 30 34 31 35 32 36 79 37 33 38 84 39 78 40 80 41 34 42
REMARK SMILES IDX 83 43 77 44 76 45 35 47 65 48 46 49 64 50 47 51 50 52 63 53
REMARK SMILES IDX 81 54 48 55 49 56 62 58 82 59 51 60 36 61 37 62 45 63 38 64
REMARK SMILES IDX 44 65 39 66 40 67 41 68 42 69 43 70 66 71 67 72 75 73 68 74
REMARK SMILES IDX 74 75 69 76 70 77 71 78 72 79 73 80 52 81 53 82 61 83 54 84
REMARK SMILES IDX 60 85 55 86 56 87 57 88 58 89 59 90
REMARK H PARENT 80 46 50 57
REMARK Flexibility Score: inf
ROOT
ATOM      1  C   UNL A   1      38.546  21.891  25.784  1.00  0.00     0.202 C 
ENDROOT
BRANCH   1   2
ATOM      2  C   UNL A   1      37.751  20.722  25.199  1.00  0.00     0.261 C 
BRANCH   2   3
ATOM      3  O   UNL A   1      36.603  21.231  24.517  1.00  0.00    -0.462 OA
BRANCH   3   4
ATOM      4  C   UNL A   1      35.418  20.627  24.799  1.00  0.00     0.328 C 
ATOM      5  O   UNL A   1      35.228  19.418  24.871  1.00  0.00    -0.250 OA
BRANCH   4   6
ATOM      6  C   UNL A   1      34.364  21.688  25.120  1.00  0.00     0.195 C 
ATOM      7  N   UNL A   1      33.743  22.185  23.913  1.00  0.00    -0.325 N 
ATOM      8  C   UNL A   1      32.565  21.393  23.607  1.00  0.00     0.121 C 
ATOM      9  C   UNL A   1      31.980  21.138  24.985  1.00  0.00     0.024 C 
ATOM     10  C   UNL A   1      33.200  21.072  25.916  1.00  0.00     0.039 C 
BRANCH   7  11
ATOM     11  C   UNL A   1      34.315  23.265  23.273  1.00  0.00     0.254 C 
ATOM     12  O   UNL A   1      35.224  23.124  22.458  1.00  0.00    -0.269 OA
BRANCH  11  13
ATOM     13  C   UNL A   1      33.948  24.638  23.690  1.00  0.00     0.040 A 
ATOM     14  C   UNL A   1      33.483  27.310  24.381  1.00  0.00     0.119 A 
ATOM     15  C   UNL A   1      33.076  26.832  23.135  1.00  0.00     0.047 A 
ATOM     16  C   UNL A   1      34.101  26.449  25.281  1.00  0.00     0.047 A 
ATOM     17  C   UNL A   1      33.311  25.497  22.786  1.00  0.00     0.017 A 
ATOM     18  C   UNL A   1      34.380  25.139  24.918  1.00  0.00     0.017 A 
BRANCH  14  19
ATOM     19  O   UNL A   1      33.208  28.614  24.695  1.00  0.00    -0.490 OA
BRANCH  19  20
ATOM     20  C   UNL A   1      31.910  28.809  25.281  1.00  0.00     0.257 C 
BRANCH  20  21
ATOM     21  C   UNL A   1      32.017  29.142  26.746  1.00  0.00     0.006 C 
ATOM     22  C   UNL A   1      32.579  30.260  27.227  1.00  0.00     0.007 C 
ENDBRANCH  20  21
ENDBRANCH  19  20
ENDBRANCH  14  19
ENDBRANCH  11  13
ENDBRANCH   7  11
ENDBRANCH   4   6
ENDBRANCH   3   4
ENDBRANCH   2   3
ENDBRANCH   1   2
BRANCH   1  23
ATOM     23  O   UNL A   1      39.775  21.546  26.430  1.00  0.00    -0.374 OA
BRANCH  23  24
ATOM     24  C   UNL A   1      40.389  22.534  27.260  1.00  0.00     0.202 C 
BRANCH  24  25
ATOM     25  C   UNL A   1      41.733  23.106  26.796  1.00  0.00     0.261 C 
BRANCH  25  26
ATOM     26  O   UNL A   1      41.617  24.457  26.316  1.00  0.00    -0.460 OA
BRANCH  26  27
ATOM     27  C   UNL A   1      40.447  25.066  26.618  1.00  0.00     0.338 C 
ATOM     28  O   UNL A   1      39.362  24.887  26.073  1.00  0.00    -0.246 OA
BRANCH  27  29
ATOM     29  C   UNL A   1      40.587  25.874  27.839  1.00  0.00     0.060 A 
ATOM     30  C   UNL A   1      39.540  25.830  28.769  1.00  0.00     0.016 A 
ATOM     31  C   UNL A   1      41.673  26.731  28.031  1.00  0.00     0.016 A 
ATOM     32  C   UNL A   1      39.550  26.681  29.869  1.00  0.00     0.010 A 
ATOM     33  C   UNL A   1      41.674  27.594  29.131  1.00  0.00     0.010 A 
ATOM     34  C   UNL A   1      40.595  27.598  30.034  1.00  0.00    -0.014 A 
BRANCH  34  35
ATOM     35  C   UNL A   1      40.478  28.655  31.067  1.00  0.00     0.031 A 
ATOM     36  C   UNL A   1      41.378  28.600  32.271  1.00  0.00     0.074 A 
ATOM     37  C   UNL A   1      39.608  29.669  30.916  1.00  0.00     0.049 A 
ATOM     38  N   UNL A   1      41.438  29.408  33.298  1.00  0.00    -0.248 NA
ATOM     39  C   UNL A   1      42.339  27.485  32.327  1.00  0.00     0.031 C 
ATOM     40  C   UNL A   1      38.715  29.853  29.772  1.00  0.00     0.029 A 
ATOM     41  N   UNL A   1      39.333  30.735  31.735  1.00  0.00    -0.354 N 
ATOM     42  C   UNL A   1      42.434  28.898  34.123  1.00  0.00     0.074 A 
ATOM     43  C   UNL A   1      42.935  27.697  33.491  1.00  0.00     0.031 C 
ATOM     44  C   UNL A   1      37.985  30.965  29.965  1.00  0.00     0.029 A 
ATOM     45  C   UNL A   1      38.336  31.551  31.258  1.00  0.00     0.049 A 
ATOM     46  H   UNL A   1      39.804  30.899  32.582  1.00  0.00     0.167 HD
ATOM     47  C   UNL A   1      42.893  29.388  35.300  1.00  0.00     0.031 A 
ATOM     48  C   UNL A   1      37.758  32.636  31.811  1.00  0.00     0.031 A 
ATOM     49  C   UNL A   1      42.383  30.576  35.932  1.00  0.00     0.049 A 
ATOM     50  C   UNL A   1      38.238  33.122  33.152  1.00  0.00     0.074 A 
ATOM     51  C   UNL A   1      42.791  31.161  37.117  1.00  0.00     0.029 A 
ATOM     52  N   UNL A   1      41.349  31.355  35.435  1.00  0.00    -0.354 N 
ATOM     53  N   UNL A   1      39.197  32.643  33.910  1.00  0.00    -0.248 NA
ATOM     54  C   UNL A   1      37.562  34.303  33.711  1.00  0.00     0.031 C 
ATOM     55  C   UNL A   1      41.967  32.266  37.364  1.00  0.00     0.029 A 
ATOM     56  C   UNL A   1      41.085  32.401  36.302  1.00  0.00     0.049 A 
ATOM     57  H   UNL A   1      40.873  31.188  34.589  1.00  0.00     0.167 HD
ATOM     58  C   UNL A   1      39.255  33.477  35.022  1.00  0.00     0.074 A 
ATOM     59  C   UNL A   1      38.244  34.498  34.832  1.00  0.00     0.031 C 
ATOM     60  C   UNL A   1      40.074  33.407  36.100  1.00  0.00     0.031 A 
BRANCH  47  61
ATOM     61  C   UNL A   1      43.979  28.615  35.998  1.00  0.00    -0.014 A 
ATOM     62  C   UNL A   1      43.674  27.566  36.884  1.00  0.00     0.010 A 
ATOM     63  C   UNL A   1      45.328  28.921  35.739  1.00  0.00     0.010 A 
ATOM     64  C   UNL A   1      44.698  26.863  37.526  1.00  0.00     0.020 A 
ATOM     65  C   UNL A   1      46.354  28.204  36.360  1.00  0.00     0.020 A 
ATOM     66  C   UNL A   1      46.031  27.190  37.264  1.00  0.00     0.054 A 
BRANCH  66  67
ATOM     67  S   UNL A   1      47.341  26.252  38.097  1.00  0.00     0.124 S 
ATOM     68  O   UNL A   1      48.495  26.525  37.244  1.00  0.00    -0.237 OA
ATOM     69  O   UNL A   1      47.382  26.863  39.423  1.00  0.00    -0.237 OA
ATOM     70  O   UNL A   1      46.855  24.874  38.064  1.00  0.00    -0.744 OA
ENDBRANCH  66  67
ENDBRANCH  47  61
BRANCH  48  71
ATOM     71  C   UNL A   1      36.645  33.324  31.103  1.00  0.00    -0.014 A 
ATOM     72  C   UNL A   1      35.324  33.228  31.571  1.00  0.00     0.010 A 
ATOM     73  C   UNL A   1      36.907  34.089  29.950  1.00  0.00     0.010 A 
ATOM     74  C   UNL A   1      34.283  33.871  30.893  1.00  0.00     0.020 A 
ATOM     75  C   UNL A   1      35.874  34.755  29.286  1.00  0.00     0.020 A 
ATOM     76  C   UNL A   1      34.566  34.632  29.756  1.00  0.00     0.054 A 
BRANCH  76  77
ATOM     77  S   UNL A   1      33.207  35.499  28.921  1.00  0.00     0.124 S 
ATOM     78  O   UNL A   1      32.480  36.078  30.045  1.00  0.00    -0.237 OA
ATOM     79  O   UNL A   1      33.916  36.448  28.067  1.00  0.00    -0.237 OA
ATOM     80  O   UNL A   1      32.508  34.432  28.207  1.00  0.00    -0.744 OA
ENDBRANCH  76  77
ENDBRANCH  48  71
BRANCH  60  81
ATOM     81  C   UNL A   1      39.937  34.480  37.148  1.00  0.00    -0.014 A 
ATOM     82  C   UNL A   1      40.673  35.675  37.069  1.00  0.00     0.010 A 
ATOM     83  C   UNL A   1      39.013  34.312  38.195  1.00  0.00     0.010 A 
ATOM     84  C   UNL A   1      40.507  36.672  38.035  1.00  0.00     0.020 A 
ATOM     85  C   UNL A   1      38.826  35.315  39.149  1.00  0.00     0.020 A 
ATOM     86  C   UNL A   1      39.585  36.485  39.070  1.00  0.00     0.054 A 
BRANCH  86  87
ATOM     87  S   UNL A   1      39.355  37.810  40.287  1.00  0.00     0.124 S 
ATOM     88  O   UNL A   1      38.072  38.376  39.881  1.00  0.00    -0.237 OA
ATOM     89  O   UNL A   1      39.351  37.086  41.556  1.00  0.00    -0.237 OA
ATOM     90  O   UNL A   1      40.512  38.678  40.077  1.00  0.00    -0.744 OA
ENDBRANCH  86  87
ENDBRANCH  60  81
ENDBRANCH  34  35
ENDBRANCH  27  29
ENDBRANCH  26  27
ENDBRANCH  25  26
ENDBRANCH  24  25
ENDBRANCH  23  24
ENDBRANCH   1  23
TORSDOF 22
ENDMDL
