MODEL 1
REMARK VINA RESULT:     -10.4      0.000      0.000
REMARK SMILES COc1ccc(Nc2cc(C(=O)OCCOCCOC(=O)c3ccc(-c4c5nc(c(-c6ccc(S(=O)(=O)[O-])cc6)c6ccc([nH]6)c(-c6ccc(S(=O)(=O)[O-])cc6)c6nc(c(-c7ccc(S(=O)(=O)[O-])cc7)c7ccc4[nH]7)C=C6)C=C5)cc3)ccn2)cc1
REMARK SMILES IDX 16 1 15 2 14 3 13 4 11 5 12 6 10 7 8 8 9 9 84 10 83 11 82 12
REMARK SMILES IDX 7 13 6 15 3 16 4 17 86 18 5 19 85 20 2 21 1 22 17 23 18 24
REMARK SMILES IDX 19 25 20 26 21 27 22 28 23 29 81 30 24 31 80 32 25 33 26 34
REMARK SMILES IDX 27 35 74 36 28 37 79 38 73 39 75 40 29 41 78 42 72 43 71 44
REMARK SMILES IDX 30 46 60 47 41 48 59 49 42 50 45 51 58 52 76 53 43 54 44 55
REMARK SMILES IDX 57 57 77 58 46 59 31 60 32 61 40 62 33 63 39 64 34 65 35 66
REMARK SMILES IDX 36 67 37 68 38 69 61 70 62 71 70 72 63 73 69 74 64 75 65 76
REMARK SMILES IDX 66 77 67 78 68 79 47 80 48 81 56 82 49 83 55 84 50 85 51 86
REMARK SMILES IDX 52 87 53 88 54 89
REMARK H PARENT 7 14 75 45 45 56
REMARK Flexibility Score: inf
ROOT
ATOM      1  O   UNL A   1      39.076  20.734  25.732  1.00  0.00    -0.374 OA
ENDROOT
BRANCH   1   2
ATOM      2  C   UNL A   1      38.104  21.739  25.436  1.00  0.00     0.202 C 
BRANCH   2   3
ATOM      3  C   UNL A   1      36.915  21.286  24.581  1.00  0.00     0.261 C 
BRANCH   3   4
ATOM      4  O   UNL A   1      35.943  20.595  25.384  1.00  0.00    -0.460 OA
BRANCH   4   5
ATOM      5  C   UNL A   1      34.883  21.329  25.786  1.00  0.00     0.338 C 
ATOM      6  O   UNL A   1      34.785  21.991  26.814  1.00  0.00    -0.246 OA
BRANCH   5   7
ATOM      7  C   UNL A   1      33.866  21.371  24.714  1.00  0.00     0.065 A 
ATOM      8  C   UNL A   1      32.582  22.527  23.061  1.00  0.00     0.131 A 
ATOM      9  C   UNL A   1      33.460  22.568  24.138  1.00  0.00     0.062 A 
ATOM     10  N   UNL A   1      31.986  21.381  22.672  1.00  0.00    -0.239 NA
ATOM     11  C   UNL A   1      32.367  20.233  23.277  1.00  0.00     0.114 A 
ATOM     12  C   UNL A   1      33.318  20.171  24.273  1.00  0.00     0.036 A 
BRANCH   8  13
ATOM     13  N   UNL A   1      32.346  23.658  22.273  1.00  0.00    -0.340 N 
ATOM     14  H   UNL A   1      32.768  23.652  21.383  1.00  0.00     0.168 HD
BRANCH  13  15
ATOM     15  C   UNL A   1      31.588  24.807  22.578  1.00  0.00     0.040 A 
ATOM     16  C   UNL A   1      30.099  27.099  23.287  1.00  0.00     0.119 A 
ATOM     17  C   UNL A   1      31.099  27.182  22.328  1.00  0.00     0.048 A 
ATOM     18  C   UNL A   1      29.823  25.869  23.884  1.00  0.00     0.048 A 
ATOM     19  C   UNL A   1      31.832  26.050  21.978  1.00  0.00     0.030 A 
ATOM     20  C   UNL A   1      30.570  24.733  23.536  1.00  0.00     0.030 A 
BRANCH  16  21
ATOM     21  O   UNL A   1      29.430  28.267  23.516  1.00  0.00    -0.497 OA
ATOM     22  C   UNL A   1      30.216  29.450  23.453  1.00  0.00     0.278 C 
ENDBRANCH  16  21
ENDBRANCH  13  15
ENDBRANCH   8  13
ENDBRANCH   5   7
ENDBRANCH   4   5
ENDBRANCH   3   4
ENDBRANCH   2   3
ENDBRANCH   1   2
BRANCH   1  23
ATOM     23  C   UNL A   1      40.372  21.185  26.127  1.00  0.00     0.202 C 
BRANCH  23  24
ATOM     24  C   UNL A   1      40.420  22.251  27.226  1.00  0.00     0.261 C 
BRANCH  24  25
ATOM     25  O   UNL A   1      40.476  23.580  26.682  1.00  0.00    -0.460 OA
BRANCH  25  26
ATOM     26  C   UNL A   1      41.598  24.270  26.997  1.00  0.00     0.338 C 
ATOM     27  O   UNL A   1      42.728  24.071  26.574  1.00  0.00    -0.246 OA
BRANCH  26  28
ATOM     28  C   UNL A   1      41.256  25.446  27.819  1.00  0.00     0.060 A 
ATOM     29  C   UNL A   1      42.257  26.406  28.013  1.00  0.00     0.016 A 
ATOM     30  C   UNL A   1      40.014  25.579  28.443  1.00  0.00     0.016 A 
ATOM     31  C   UNL A   1      42.038  27.477  28.877  1.00  0.00     0.010 A 
ATOM     32  C   UNL A   1      39.798  26.652  29.315  1.00  0.00     0.010 A 
ATOM     33  C   UNL A   1      40.822  27.584  29.563  1.00  0.00    -0.014 A 
BRANCH  33  34
ATOM     34  C   UNL A   1      40.675  28.595  30.638  1.00  0.00     0.031 A 
ATOM     35  C   UNL A   1      41.567  28.513  31.848  1.00  0.00     0.074 A 
ATOM     36  C   UNL A   1      39.777  29.591  30.526  1.00  0.00     0.049 A 
ATOM     37  N   UNL A   1      41.595  29.278  32.908  1.00  0.00    -0.248 NA
ATOM     38  C   UNL A   1      42.558  27.424  31.864  1.00  0.00     0.031 C 
ATOM     39  C   UNL A   1      38.884  29.799  29.387  1.00  0.00     0.029 A 
ATOM     40  N   UNL A   1      39.467  30.612  31.389  1.00  0.00    -0.354 N 
ATOM     41  C   UNL A   1      42.594  28.758  33.723  1.00  0.00     0.074 A 
ATOM     42  C   UNL A   1      43.133  27.599  33.045  1.00  0.00     0.031 C 
ATOM     43  C   UNL A   1      38.119  30.879  29.627  1.00  0.00     0.029 A 
ATOM     44  C   UNL A   1      38.447  31.417  30.945  1.00  0.00     0.049 A 
ATOM     45  H   UNL A   1      39.933  30.754  32.245  1.00  0.00     0.167 HD
ATOM     46  C   UNL A   1      43.027  29.208  34.924  1.00  0.00     0.031 A 
ATOM     47  C   UNL A   1      37.831  32.457  31.543  1.00  0.00     0.031 A 
ATOM     48  C   UNL A   1      42.484  30.357  35.601  1.00  0.00     0.049 A 
ATOM     49  C   UNL A   1      38.290  32.903  32.906  1.00  0.00     0.074 A 
ATOM     50  C   UNL A   1      42.872  30.905  36.810  1.00  0.00     0.029 A 
ATOM     51  N   UNL A   1      41.432  31.128  35.131  1.00  0.00    -0.354 N 
ATOM     52  N   UNL A   1      39.256  32.418  33.650  1.00  0.00    -0.248 NA
ATOM     53  C   UNL A   1      37.579  34.041  33.507  1.00  0.00     0.031 C 
ATOM     54  C   UNL A   1      42.018  31.973  37.100  1.00  0.00     0.029 A 
ATOM     55  C   UNL A   1      41.137  32.130  36.040  1.00  0.00     0.049 A 
ATOM     56  H   UNL A   1      40.963  30.984  34.276  1.00  0.00     0.167 HD
ATOM     57  C   UNL A   1      39.285  33.209  34.795  1.00  0.00     0.074 A 
ATOM     58  C   UNL A   1      38.250  34.210  34.639  1.00  0.00     0.031 C 
ATOM     59  C   UNL A   1      40.100  33.117  35.875  1.00  0.00     0.031 A 
BRANCH  46  60
ATOM     60  C   UNL A   1      44.122  28.431  35.605  1.00  0.00    -0.014 A 
ATOM     61  C   UNL A   1      45.477  28.750  35.408  1.00  0.00     0.010 A 
ATOM     62  C   UNL A   1      43.786  27.390  36.491  1.00  0.00     0.010 A 
ATOM     63  C   UNL A   1      46.477  28.019  36.055  1.00  0.00     0.020 A 
ATOM     64  C   UNL A   1      44.782  26.674  37.160  1.00  0.00     0.020 A 
ATOM     65  C   UNL A   1      46.123  26.983  36.925  1.00  0.00     0.054 A 
BRANCH  65  66
ATOM     66  S   UNL A   1      47.441  26.065  37.770  1.00  0.00     0.124 S 
ATOM     67  O   UNL A   1      48.624  26.474  37.015  1.00  0.00    -0.237 OA
ATOM     68  O   UNL A   1      47.361  26.575  39.136  1.00  0.00    -0.237 OA
ATOM     69  O   UNL A   1      47.051  24.667  37.605  1.00  0.00    -0.744 OA
ENDBRANCH  65  66
ENDBRANCH  46  60
BRANCH  47  70
ATOM     70  C   UNL A   1      36.697  33.135  30.859  1.00  0.00    -0.014 A 
ATOM     71  C   UNL A   1      35.375  32.951  31.300  1.00  0.00     0.010 A 
ATOM     72  C   UNL A   1      36.941  33.981  29.761  1.00  0.00     0.010 A 
ATOM     73  C   UNL A   1      34.317  33.592  30.648  1.00  0.00     0.020 A 
ATOM     74  C   UNL A   1      35.889  34.645  29.125  1.00  0.00     0.020 A 
ATOM     75  C   UNL A   1      34.581  34.438  29.567  1.00  0.00     0.054 A 
BRANCH  75  76
ATOM     76  S   UNL A   1      33.199  35.305  28.773  1.00  0.00     0.124 S 
ATOM     77  O   UNL A   1      33.891  36.306  27.968  1.00  0.00    -0.237 OA
ATOM     78  O   UNL A   1      32.543  34.235  28.027  1.00  0.00    -0.237 OA
ATOM     79  O   UNL A   1      32.432  35.828  29.901  1.00  0.00    -0.744 OA
ENDBRANCH  75  76
ENDBRANCH  47  70
BRANCH  59  80
ATOM     80  C   UNL A   1      39.930  34.142  36.966  1.00  0.00    -0.014 A 
ATOM     81  C   UNL A   1      40.550  35.401  36.887  1.00  0.00     0.010 A 
ATOM     82  C   UNL A   1      39.088  33.859  38.057  1.00  0.00     0.010 A 
ATOM     83  C   UNL A   1      40.353  36.349  37.896  1.00  0.00     0.020 A 
ATOM     84  C   UNL A   1      38.866  34.814  39.053  1.00  0.00     0.020 A 
ATOM     85  C   UNL A   1      39.513  36.049  38.972  1.00  0.00     0.054 A 
BRANCH  85  86
ATOM     86  S   UNL A   1      39.237  37.312  40.245  1.00  0.00     0.124 S 
ATOM     87  O   UNL A   1      40.600  37.741  40.548  1.00  0.00    -0.237 OA
ATOM     88  O   UNL A   1      38.409  38.294  39.550  1.00  0.00    -0.237 OA
ATOM     89  O   UNL A   1      38.561  36.583  41.317  1.00  0.00    -0.744 OA
ENDBRANCH  85  86
ENDBRANCH  59  80
ENDBRANCH  33  34
ENDBRANCH  26  28
ENDBRANCH  25  26
ENDBRANCH  24  25
ENDBRANCH  23  24
ENDBRANCH   1  23
TORSDOF 20
ENDMDL
MODEL 2
REMARK VINA RESULT:     -10.1      1.662      2.135
REMARK SMILES COc1ccc(Nc2cc(C(=O)OCCOCCOC(=O)c3ccc(-c4c5nc(c(-c6ccc(S(=O)(=O)[O-])cc6)c6ccc([nH]6)c(-c6ccc(S(=O)(=O)[O-])cc6)c6nc(c(-c7ccc(S(=O)(=O)[O-])cc7)c7ccc4[nH]7)C=C6)C=C5)cc3)ccn2)cc1
REMARK SMILES IDX 16 1 15 2 14 3 13 4 11 5 12 6 10 7 8 8 9 9 84 10 83 11 82 12
REMARK SMILES IDX 7 13 6 15 3 16 4 17 86 18 5 19 85 20 2 21 1 22 17 23 18 24
REMARK SMILES IDX 19 25 20 26 21 27 22 28 23 29 81 30 24 31 80 32 25 33 26 34
REMARK SMILES IDX 27 35 74 36 28 37 79 38 73 39 75 40 29 41 78 42 72 43 71 44
REMARK SMILES IDX 30 46 60 47 41 48 59 49 42 50 45 51 58 52 76 53 43 54 44 55
REMARK SMILES IDX 57 57 77 58 46 59 31 60 32 61 40 62 33 63 39 64 34 65 35 66
REMARK SMILES IDX 36 67 37 68 38 69 61 70 62 71 70 72 63 73 69 74 64 75 65 76
REMARK SMILES IDX 66 77 67 78 68 79 47 80 48 81 56 82 49 83 55 84 50 85 51 86
REMARK SMILES IDX 52 87 53 88 54 89
REMARK H PARENT 7 14 75 45 45 56
REMARK Flexibility Score: inf
ROOT
ATOM      1  O   UNL A   1      39.013  21.904  26.562  1.00  0.00    -0.374 OA
ENDROOT
BRANCH   1   2
ATOM      2  C   UNL A   1      38.590  22.721  25.468  1.00  0.00     0.202 C 
BRANCH   2   3
ATOM      3  C   UNL A   1      37.187  23.327  25.593  1.00  0.00     0.261 C 
BRANCH   3   4
ATOM      4  O   UNL A   1      36.328  22.471  26.364  1.00  0.00    -0.460 OA
BRANCH   4   5
ATOM      5  C   UNL A   1      35.266  21.955  25.707  1.00  0.00     0.338 C 
ATOM      6  O   UNL A   1      35.245  20.948  25.007  1.00  0.00    -0.246 OA
BRANCH   5   7
ATOM      7  C   UNL A   1      34.040  22.691  26.078  1.00  0.00     0.065 A 
ATOM      8  C   UNL A   1      32.628  24.620  26.007  1.00  0.00     0.131 A 
ATOM      9  C   UNL A   1      33.849  24.020  25.721  1.00  0.00     0.062 A 
ATOM     10  N   UNL A   1      31.694  24.007  26.765  1.00  0.00    -0.239 NA
ATOM     11  C   UNL A   1      31.921  22.727  27.136  1.00  0.00     0.114 A 
ATOM     12  C   UNL A   1      33.054  22.020  26.794  1.00  0.00     0.036 A 
BRANCH   8  13
ATOM     13  N   UNL A   1      32.274  25.851  25.446  1.00  0.00    -0.340 N 
ATOM     14  H   UNL A   1      31.765  25.804  24.604  1.00  0.00     0.168 HD
BRANCH  13  15
ATOM     15  C   UNL A   1      32.546  27.150  25.919  1.00  0.00     0.040 A 
ATOM     16  C   UNL A   1      33.068  29.791  26.771  1.00  0.00     0.119 A 
ATOM     17  C   UNL A   1      32.083  29.036  27.392  1.00  0.00     0.048 A 
ATOM     18  C   UNL A   1      33.811  29.228  25.734  1.00  0.00     0.048 A 
ATOM     19  C   UNL A   1      31.827  27.733  26.972  1.00  0.00     0.030 A 
ATOM     20  C   UNL A   1      33.544  27.918  25.307  1.00  0.00     0.030 A 
BRANCH  16  21
ATOM     21  O   UNL A   1      33.247  31.038  27.297  1.00  0.00    -0.497 OA
ATOM     22  C   UNL A   1      34.575  31.357  27.691  1.00  0.00     0.278 C 
ENDBRANCH  16  21
ENDBRANCH  13  15
ENDBRANCH   8  13
ENDBRANCH   5   7
ENDBRANCH   4   5
ENDBRANCH   3   4
ENDBRANCH   2   3
ENDBRANCH   1   2
BRANCH   1  23
ATOM     23  C   UNL A   1      40.264  21.232  26.419  1.00  0.00     0.202 C 
BRANCH  23  24
ATOM     24  C   UNL A   1      41.517  22.113  26.402  1.00  0.00     0.261 C 
BRANCH  24  25
ATOM     25  O   UNL A   1      41.384  23.252  27.268  1.00  0.00    -0.460 OA
BRANCH  25  26
ATOM     26  C   UNL A   1      41.771  24.427  26.718  1.00  0.00     0.338 C 
ATOM     27  O   UNL A   1      42.252  24.596  25.606  1.00  0.00    -0.246 OA
BRANCH  26  28
ATOM     28  C   UNL A   1      41.376  25.550  27.588  1.00  0.00     0.060 A 
ATOM     29  C   UNL A   1      42.255  26.635  27.675  1.00  0.00     0.016 A 
ATOM     30  C   UNL A   1      40.209  25.518  28.355  1.00  0.00     0.016 A 
ATOM     31  C   UNL A   1      42.000  27.671  28.572  1.00  0.00     0.010 A 
ATOM     32  C   UNL A   1      39.956  26.556  29.259  1.00  0.00     0.010 A 
ATOM     33  C   UNL A   1      40.869  27.617  29.397  1.00  0.00    -0.014 A 
BRANCH  33  34
ATOM     34  C   UNL A   1      40.717  28.603  30.494  1.00  0.00     0.031 A 
ATOM     35  C   UNL A   1      41.618  28.507  31.696  1.00  0.00     0.074 A 
ATOM     36  C   UNL A   1      39.806  29.590  30.409  1.00  0.00     0.049 A 
ATOM     37  N   UNL A   1      41.643  29.249  32.772  1.00  0.00    -0.248 NA
ATOM     38  C   UNL A   1      42.622  27.430  31.683  1.00  0.00     0.031 C 
ATOM     39  C   UNL A   1      38.904  29.811  29.280  1.00  0.00     0.029 A 
ATOM     40  N   UNL A   1      39.490  30.589  31.294  1.00  0.00    -0.354 N 
ATOM     41  C   UNL A   1      42.653  28.725  33.570  1.00  0.00     0.074 A 
ATOM     42  C   UNL A   1      43.202  27.587  32.864  1.00  0.00     0.031 C 
ATOM     43  C   UNL A   1      38.127  30.876  29.546  1.00  0.00     0.029 A 
ATOM     44  C   UNL A   1      38.457  31.390  30.874  1.00  0.00     0.049 A 
ATOM     45  H   UNL A   1      39.959  30.719  32.150  1.00  0.00     0.167 HD
ATOM     46  C   UNL A   1      43.089  29.155  34.777  1.00  0.00     0.031 A 
ATOM     47  C   UNL A   1      37.832  32.410  31.497  1.00  0.00     0.031 A 
ATOM     48  C   UNL A   1      42.536  30.282  35.481  1.00  0.00     0.049 A 
ATOM     49  C   UNL A   1      38.294  32.833  32.867  1.00  0.00     0.074 A 
ATOM     50  C   UNL A   1      42.925  30.810  36.700  1.00  0.00     0.029 A 
ATOM     51  N   UNL A   1      41.472  31.050  35.035  1.00  0.00    -0.354 N 
ATOM     52  N   UNL A   1      39.271  32.345  33.594  1.00  0.00    -0.248 NA
ATOM     53  C   UNL A   1      37.573  33.949  33.495  1.00  0.00     0.031 C 
ATOM     54  C   UNL A   1      42.059  31.861  37.017  1.00  0.00     0.029 A 
ATOM     55  C   UNL A   1      41.170  32.029  35.967  1.00  0.00     0.049 A 
ATOM     56  H   UNL A   1      40.999  30.919  34.180  1.00  0.00     0.167 HD
ATOM     57  C   UNL A   1      39.298  33.111  34.755  1.00  0.00     0.074 A 
ATOM     58  C   UNL A   1      38.249  34.102  34.627  1.00  0.00     0.031 C 
ATOM     59  C   UNL A   1      40.120  33.006  35.828  1.00  0.00     0.031 A 
BRANCH  46  60
ATOM     60  C   UNL A   1      44.197  28.377  35.435  1.00  0.00    -0.014 A 
ATOM     61  C   UNL A   1      45.547  28.718  35.238  1.00  0.00     0.010 A 
ATOM     62  C   UNL A   1      43.880  27.313  36.299  1.00  0.00     0.010 A 
ATOM     63  C   UNL A   1      46.560  27.985  35.863  1.00  0.00     0.020 A 
ATOM     64  C   UNL A   1      44.889  26.594  36.947  1.00  0.00     0.020 A 
ATOM     65  C   UNL A   1      46.224  26.926  36.711  1.00  0.00     0.054 A 
BRANCH  65  66
ATOM     66  S   UNL A   1      47.558  26.007  37.529  1.00  0.00     0.124 S 
ATOM     67  O   UNL A   1      46.847  24.840  38.045  1.00  0.00    -0.237 OA
ATOM     68  O   UNL A   1      48.485  25.744  36.432  1.00  0.00    -0.237 OA
ATOM     69  O   UNL A   1      48.049  26.937  38.545  1.00  0.00    -0.744 OA
ENDBRANCH  65  66
ENDBRANCH  46  60
BRANCH  47  70
ATOM     70  C   UNL A   1      36.685  33.088  30.835  1.00  0.00    -0.014 A 
ATOM     71  C   UNL A   1      35.370  32.889  31.288  1.00  0.00     0.010 A 
ATOM     72  C   UNL A   1      36.911  33.950  29.745  1.00  0.00     0.010 A 
ATOM     73  C   UNL A   1      34.300  33.531  30.657  1.00  0.00     0.020 A 
ATOM     74  C   UNL A   1      35.847  34.614  29.129  1.00  0.00     0.020 A 
ATOM     75  C   UNL A   1      34.546  34.392  29.583  1.00  0.00     0.054 A 
BRANCH  75  76
ATOM     76  S   UNL A   1      33.149  35.258  28.816  1.00  0.00     0.124 S 
ATOM     77  O   UNL A   1      32.366  35.662  29.979  1.00  0.00    -0.237 OA
ATOM     78  O   UNL A   1      33.809  36.340  28.089  1.00  0.00    -0.237 OA
ATOM     79  O   UNL A   1      32.535  34.235  27.971  1.00  0.00    -0.744 OA
ENDBRANCH  75  76
ENDBRANCH  47  70
BRANCH  59  80
ATOM     80  C   UNL A   1      39.945  34.006  36.941  1.00  0.00    -0.014 A 
ATOM     81  C   UNL A   1      40.462  35.309  36.841  1.00  0.00     0.010 A 
ATOM     82  C   UNL A   1      39.198  33.651  38.080  1.00  0.00     0.010 A 
ATOM     83  C   UNL A   1      40.261  36.231  37.873  1.00  0.00     0.020 A 
ATOM     84  C   UNL A   1      38.970  34.577  39.101  1.00  0.00     0.020 A 
ATOM     85  C   UNL A   1      39.516  35.858  38.996  1.00  0.00     0.054 A 
BRANCH  85  86
ATOM     86  S   UNL A   1      39.229  37.086  40.301  1.00  0.00     0.124 S 
ATOM     87  O   UNL A   1      40.583  37.325  40.795  1.00  0.00    -0.237 OA
ATOM     88  O   UNL A   1      38.621  38.195  39.571  1.00  0.00    -0.237 OA
ATOM     89  O   UNL A   1      38.339  36.399  41.235  1.00  0.00    -0.744 OA
ENDBRANCH  85  86
ENDBRANCH  59  80
ENDBRANCH  33  34
ENDBRANCH  26  28
ENDBRANCH  25  26
ENDBRANCH  24  25
ENDBRANCH  23  24
ENDBRANCH   1  23
TORSDOF 20
ENDMDL
MODEL 3
REMARK VINA RESULT:      -9.8      2.012      9.149
REMARK SMILES COc1ccc(Nc2cc(C(=O)OCCOCCOC(=O)c3ccc(-c4c5nc(c(-c6ccc(S(=O)(=O)[O-])cc6)c6ccc([nH]6)c(-c6ccc(S(=O)(=O)[O-])cc6)c6nc(c(-c7ccc(S(=O)(=O)[O-])cc7)c7ccc4[nH]7)C=C6)C=C5)cc3)ccn2)cc1
REMARK SMILES IDX 16 1 15 2 14 3 13 4 11 5 12 6 10 7 8 8 9 9 84 10 83 11 82 12
REMARK SMILES IDX 7 13 6 15 3 16 4 17 86 18 5 19 85 20 2 21 1 22 17 23 18 24
REMARK SMILES IDX 19 25 20 26 21 27 22 28 23 29 81 30 24 31 80 32 25 33 26 34
REMARK SMILES IDX 27 35 74 36 28 37 79 38 73 39 75 40 29 41 78 42 72 43 71 44
REMARK SMILES IDX 30 46 60 47 41 48 59 49 42 50 45 51 58 52 76 53 43 54 44 55
REMARK SMILES IDX 57 57 77 58 46 59 31 60 32 61 40 62 33 63 39 64 34 65 35 66
REMARK SMILES IDX 36 67 37 68 38 69 61 70 62 71 70 72 63 73 69 74 64 75 65 76
REMARK SMILES IDX 66 77 67 78 68 79 47 80 48 81 56 82 49 83 55 84 50 85 51 86
REMARK SMILES IDX 52 87 53 88 54 89
REMARK H PARENT 7 14 75 45 45 56
REMARK Flexibility Score: inf
ROOT
ATOM      1  O   UNL A   1      33.115  30.601  27.383  1.00  0.00    -0.374 OA
ENDROOT
BRANCH   1   2
ATOM      2  C   UNL A   1      33.309  29.306  26.810  1.00  0.00     0.202 C 
BRANCH   2   3
ATOM      3  C   UNL A   1      32.052  28.628  26.254  1.00  0.00     0.261 C 
BRANCH   3   4
ATOM      4  O   UNL A   1      32.402  27.568  25.348  1.00  0.00    -0.460 OA
BRANCH   4   5
ATOM      5  C   UNL A   1      32.192  27.820  24.038  1.00  0.00     0.338 C 
ATOM      6  O   UNL A   1      31.810  28.871  23.536  1.00  0.00    -0.246 OA
BRANCH   5   7
ATOM      7  C   UNL A   1      32.654  26.674  23.227  1.00  0.00     0.065 A 
ATOM      8  C   UNL A   1      33.940  24.681  22.923  1.00  0.00     0.131 A 
ATOM      9  C   UNL A   1      33.630  25.799  23.688  1.00  0.00     0.062 A 
ATOM     10  N   UNL A   1      33.448  24.511  21.678  1.00  0.00    -0.239 NA
ATOM     11  C   UNL A   1      32.530  25.399  21.234  1.00  0.00     0.114 A 
ATOM     12  C   UNL A   1      32.080  26.470  21.977  1.00  0.00     0.036 A 
BRANCH   8  13
ATOM     13  N   UNL A   1      34.706  23.633  23.445  1.00  0.00    -0.340 N 
ATOM     14  H   UNL A   1      35.677  23.794  23.483  1.00  0.00     0.168 HD
BRANCH  13  15
ATOM     15  C   UNL A   1      34.279  22.378  23.924  1.00  0.00     0.040 A 
ATOM     16  C   UNL A   1      33.398  19.837  24.786  1.00  0.00     0.119 A 
ATOM     17  C   UNL A   1      34.711  20.234  25.001  1.00  0.00     0.048 A 
ATOM     18  C   UNL A   1      32.513  20.712  24.157  1.00  0.00     0.048 A 
ATOM     19  C   UNL A   1      35.144  21.488  24.576  1.00  0.00     0.030 A 
ATOM     20  C   UNL A   1      32.955  21.972  23.723  1.00  0.00     0.030 A 
BRANCH  16  21
ATOM     21  O   UNL A   1      33.088  18.603  25.279  1.00  0.00    -0.497 OA
ATOM     22  C   UNL A   1      32.624  17.656  24.325  1.00  0.00     0.278 C 
ENDBRANCH  16  21
ENDBRANCH  13  15
ENDBRANCH   8  13
ENDBRANCH   5   7
ENDBRANCH   4   5
ENDBRANCH   3   4
ENDBRANCH   2   3
ENDBRANCH   1   2
BRANCH   1  23
ATOM     23  C   UNL A   1      32.084  31.410  26.815  1.00  0.00     0.202 C 
BRANCH  23  24
ATOM     24  C   UNL A   1      31.940  32.829  27.374  1.00  0.00     0.261 C 
BRANCH  24  25
ATOM     25  O   UNL A   1      33.208  33.500  27.469  1.00  0.00    -0.460 OA
BRANCH  25  26
ATOM     26  C   UNL A   1      33.308  34.374  28.497  1.00  0.00     0.338 C 
ATOM     27  O   UNL A   1      32.562  35.312  28.741  1.00  0.00    -0.246 OA
BRANCH  26  28
ATOM     28  C   UNL A   1      34.372  33.947  29.425  1.00  0.00     0.060 A 
ATOM     29  C   UNL A   1      35.687  34.295  29.098  1.00  0.00     0.016 A 
ATOM     30  C   UNL A   1      34.103  33.166  30.552  1.00  0.00     0.016 A 
ATOM     31  C   UNL A   1      36.747  33.818  29.866  1.00  0.00     0.010 A 
ATOM     32  C   UNL A   1      35.169  32.683  31.319  1.00  0.00     0.010 A 
ATOM     33  C   UNL A   1      36.496  32.977  30.958  1.00  0.00    -0.014 A 
BRANCH  33  34
ATOM     34  C   UNL A   1      37.628  32.300  31.636  1.00  0.00     0.031 A 
ATOM     35  C   UNL A   1      38.082  32.802  32.980  1.00  0.00     0.074 A 
ATOM     36  C   UNL A   1      38.227  31.234  31.074  1.00  0.00     0.049 A 
ATOM     37  N   UNL A   1      39.059  32.373  33.736  1.00  0.00    -0.248 NA
ATOM     38  C   UNL A   1      37.337  33.939  33.546  1.00  0.00     0.031 C 
ATOM     39  C   UNL A   1      37.853  30.632  29.795  1.00  0.00     0.029 A 
ATOM     40  N   UNL A   1      39.282  30.473  31.510  1.00  0.00    -0.354 N 
ATOM     41  C   UNL A   1      39.056  33.191  34.860  1.00  0.00     0.074 A 
ATOM     42  C   UNL A   1      37.995  34.158  34.676  1.00  0.00     0.031 C 
ATOM     43  C   UNL A   1      38.674  29.597  29.546  1.00  0.00     0.029 A 
ATOM     44  C   UNL A   1      39.648  29.485  30.630  1.00  0.00     0.049 A 
ATOM     45  H   UNL A   1      39.733  30.621  32.373  1.00  0.00     0.167 HD
ATOM     46  C   UNL A   1      39.859  33.140  35.948  1.00  0.00     0.031 A 
ATOM     47  C   UNL A   1      40.667  28.602  30.681  1.00  0.00     0.031 A 
ATOM     48  C   UNL A   1      40.920  32.183  36.125  1.00  0.00     0.049 A 
ATOM     49  C   UNL A   1      41.585  28.603  31.874  1.00  0.00     0.074 A 
ATOM     50  C   UNL A   1      41.774  32.036  37.204  1.00  0.00     0.029 A 
ATOM     51  N   UNL A   1      41.277  31.216  35.198  1.00  0.00    -0.354 N 
ATOM     52  N   UNL A   1      41.550  29.365  32.941  1.00  0.00    -0.248 NA
ATOM     53  C   UNL A   1      42.678  27.618  31.871  1.00  0.00     0.031 C 
ATOM     54  C   UNL A   1      42.684  31.018  36.904  1.00  0.00     0.029 A 
ATOM     55  C   UNL A   1      42.358  30.488  35.665  1.00  0.00     0.049 A 
ATOM     56  H   UNL A   1      40.828  31.070  34.333  1.00  0.00     0.167 HD
ATOM     57  C   UNL A   1      42.598  28.935  33.749  1.00  0.00     0.074 A 
ATOM     58  C   UNL A   1      43.240  27.839  33.053  1.00  0.00     0.031 C 
ATOM     59  C   UNL A   1      42.990  29.403  34.960  1.00  0.00     0.031 A 
BRANCH  46  60
ATOM     60  C   UNL A   1      39.647  34.176  37.020  1.00  0.00    -0.014 A 
ATOM     61  C   UNL A   1      38.997  33.858  38.225  1.00  0.00     0.010 A 
ATOM     62  C   UNL A   1      40.144  35.479  36.833  1.00  0.00     0.010 A 
ATOM     63  C   UNL A   1      38.816  34.834  39.210  1.00  0.00     0.020 A 
ATOM     64  C   UNL A   1      39.988  36.451  37.825  1.00  0.00     0.020 A 
ATOM     65  C   UNL A   1      39.310  36.125  39.002  1.00  0.00     0.054 A 
BRANCH  65  66
ATOM     66  S   UNL A   1      39.082  37.367  40.305  1.00  0.00     0.124 S 
ATOM     67  O   UNL A   1      40.462  37.720  40.629  1.00  0.00    -0.237 OA
ATOM     68  O   UNL A   1      38.310  38.405  39.628  1.00  0.00    -0.237 OA
ATOM     69  O   UNL A   1      38.363  36.643  41.352  1.00  0.00    -0.744 OA
ENDBRANCH  65  66
ENDBRANCH  46  60
BRANCH  47  70
ATOM     70  C   UNL A   1      40.881  27.656  29.552  1.00  0.00    -0.014 A 
ATOM     71  C   UNL A   1      41.814  27.941  28.540  1.00  0.00     0.010 A 
ATOM     72  C   UNL A   1      40.151  26.454  29.492  1.00  0.00     0.010 A 
ATOM     73  C   UNL A   1      42.005  27.046  27.483  1.00  0.00     0.020 A 
ATOM     74  C   UNL A   1      40.360  25.545  28.453  1.00  0.00     0.020 A 
ATOM     75  C   UNL A   1      41.279  25.851  27.448  1.00  0.00     0.054 A 
BRANCH  75  76
ATOM     76  S   UNL A   1      41.586  24.677  26.099  1.00  0.00     0.124 S 
ATOM     77  O   UNL A   1      41.912  25.568  24.990  1.00  0.00    -0.237 OA
ATOM     78  O   UNL A   1      42.693  23.881  26.620  1.00  0.00    -0.237 OA
ATOM     79  O   UNL A   1      40.317  23.961  25.976  1.00  0.00    -0.744 OA
ENDBRANCH  75  76
ENDBRANCH  47  70
BRANCH  59  80
ATOM     80  C   UNL A   1      44.151  28.715  35.630  1.00  0.00    -0.014 A 
ATOM     81  C   UNL A   1      45.470  29.165  35.449  1.00  0.00     0.010 A 
ATOM     82  C   UNL A   1      43.907  27.637  36.503  1.00  0.00     0.010 A 
ATOM     83  C   UNL A   1      46.529  28.530  36.107  1.00  0.00     0.020 A 
ATOM     84  C   UNL A   1      44.959  27.019  37.183  1.00  0.00     0.020 A 
ATOM     85  C   UNL A   1      46.266  27.462  36.969  1.00  0.00     0.054 A 
BRANCH  85  86
ATOM     86  S   UNL A   1      47.652  26.684  37.845  1.00  0.00     0.124 S 
ATOM     87  O   UNL A   1      48.102  25.687  36.877  1.00  0.00    -0.237 OA
ATOM     88  O   UNL A   1      48.563  27.805  38.063  1.00  0.00    -0.237 OA
ATOM     89  O   UNL A   1      47.037  26.144  39.056  1.00  0.00    -0.744 OA
ENDBRANCH  85  86
ENDBRANCH  59  80
ENDBRANCH  33  34
ENDBRANCH  26  28
ENDBRANCH  25  26
ENDBRANCH  24  25
ENDBRANCH  23  24
ENDBRANCH   1  23
TORSDOF 20
ENDMDL
