MODEL 1
REMARK VINA RESULT:     -10.2      0.000      0.000
REMARK SMILES Nc1nc(Nc2ccc(C(=O)OCCOCCOC(=O)c3ccc(-c4c5nc(c(-c6ccc(S(=O)(=O)[O-])cc6)c6ccc([nH]6)c(-c6ccc(S(=O)(=O)[O-])cc6)c6nc(c(-c7ccc(S(=O)(=O)[O-])cc7)c7ccc4[nH]7)C=C6)C=C5)cc3)cc2)ccc1[N+](=O)[O-]
REMARK SMILES IDX 15 1 14 2 13 3 12 4 10 5 11 6 9 7 6 8 7 9 82 10 8 11 81 12
REMARK SMILES IDX 5 13 4 15 2 16 3 17 85 18 84 19 83 20 1 21 86 24 87 25 88 26
REMARK SMILES IDX 16 27 17 28 18 29 19 30 20 31 21 32 22 33 80 34 23 35 79 36
REMARK SMILES IDX 24 37 25 38 26 39 73 40 27 41 78 42 72 43 74 44 28 45 77 46
REMARK SMILES IDX 71 47 70 48 29 50 59 51 40 52 58 53 41 54 44 55 57 56 75 57
REMARK SMILES IDX 42 58 43 59 56 61 76 62 45 63 30 64 31 65 39 66 32 67 38 68
REMARK SMILES IDX 33 69 34 70 35 71 36 72 37 73 60 74 61 75 69 76 62 77 68 78
REMARK SMILES IDX 63 79 64 80 65 81 66 82 67 83 46 84 47 85 55 86 48 87 54 88
REMARK SMILES IDX 49 89 50 90 51 91 52 92 53 93
REMARK H PARENT 5 14 1 22 1 23 74 49 44 60
REMARK Flexibility Score: inf
ROOT
ATOM      1  O   UNL A   1      39.078  21.773  25.590  1.00  0.00    -0.374 OA
ENDROOT
BRANCH   1   2
ATOM      2  C   UNL A   1      37.775  22.341  25.739  1.00  0.00     0.202 C 
BRANCH   2   3
ATOM      3  C   UNL A   1      36.674  21.733  24.866  1.00  0.00     0.261 C 
BRANCH   3   4
ATOM      4  O   UNL A   1      35.525  22.593  24.807  1.00  0.00    -0.460 OA
BRANCH   4   5
ATOM      5  C   UNL A   1      34.336  21.966  24.962  1.00  0.00     0.338 C 
ATOM      6  O   UNL A   1      34.154  20.830  25.374  1.00  0.00    -0.246 OA
BRANCH   5   7
ATOM      7  C   UNL A   1      33.221  22.906  24.708  1.00  0.00     0.060 A 
ATOM      8  C   UNL A   1      31.042  24.657  24.490  1.00  0.00     0.040 A 
ATOM      9  C   UNL A   1      32.061  24.914  25.413  1.00  0.00     0.027 A 
ATOM     10  C   UNL A   1      31.165  23.557  23.628  1.00  0.00     0.027 A 
ATOM     11  C   UNL A   1      33.140  24.038  25.529  1.00  0.00     0.018 A 
ATOM     12  C   UNL A   1      32.256  22.687  23.722  1.00  0.00     0.018 A 
BRANCH   8  13
ATOM     13  N   UNL A   1      29.826  25.367  24.597  1.00  0.00    -0.340 N 
ATOM     14  H   UNL A   1      29.127  25.011  25.193  1.00  0.00     0.168 HD
BRANCH  13  15
ATOM     15  C   UNL A   1      29.562  26.560  23.894  1.00  0.00     0.133 A 
ATOM     16  C   UNL A   1      28.000  28.125  23.100  1.00  0.00     0.204 A 
ATOM     17  N   UNL A   1      28.283  26.972  23.736  1.00  0.00    -0.207 NA
ATOM     18  C   UNL A   1      29.016  28.924  22.595  1.00  0.00     0.311 A 
ATOM     19  C   UNL A   1      30.346  28.501  22.729  1.00  0.00     0.093 A 
ATOM     20  C   UNL A   1      30.619  27.298  23.379  1.00  0.00     0.054 A 
BRANCH  16  21
ATOM     21  N   UNL A   1      26.660  28.439  23.113  1.00  0.00    -0.378 N 
ATOM     22  H   UNL A   1      25.994  27.748  23.330  1.00  0.00     0.158 HD
ATOM     23  H   UNL A   1      26.367  29.356  22.905  1.00  0.00     0.158 HD
ENDBRANCH  16  21
BRANCH  18  24
ATOM     24  N   UNL A   1      28.736  30.186  21.921  1.00  0.00     0.066 N 
ATOM     25  O   UNL A   1      29.232  31.213  22.411  1.00  0.00    -0.258 OA
ATOM     26  O   UNL A   1      28.051  30.175  20.888  1.00  0.00    -0.258 OA
ENDBRANCH  18  24
ENDBRANCH  13  15
ENDBRANCH   8  13
ENDBRANCH   5   7
ENDBRANCH   4   5
ENDBRANCH   3   4
ENDBRANCH   2   3
ENDBRANCH   1   2
BRANCH   1  27
ATOM     27  C   UNL A   1      39.968  21.901  26.700  1.00  0.00     0.202 C 
BRANCH  27  28
ATOM     28  C   UNL A   1      41.384  22.396  26.382  1.00  0.00     0.261 C 
BRANCH  28  29
ATOM     29  O   UNL A   1      41.805  23.431  27.290  1.00  0.00    -0.460 OA
BRANCH  29  30
ATOM     30  C   UNL A   1      41.960  24.652  26.727  1.00  0.00     0.338 C 
ATOM     31  O   UNL A   1      42.197  24.897  25.552  1.00  0.00    -0.246 OA
BRANCH  30  32
ATOM     32  C   UNL A   1      41.619  25.704  27.704  1.00  0.00     0.060 A 
ATOM     33  C   UNL A   1      42.537  26.748  27.876  1.00  0.00     0.016 A 
ATOM     34  C   UNL A   1      40.460  25.645  28.481  1.00  0.00     0.016 A 
ATOM     35  C   UNL A   1      42.325  27.709  28.863  1.00  0.00     0.010 A 
ATOM     36  C   UNL A   1      40.253  26.606  29.477  1.00  0.00     0.010 A 
ATOM     37  C   UNL A   1      41.201  27.621  29.694  1.00  0.00    -0.014 A 
BRANCH  37  38
ATOM     38  C   UNL A   1      41.097  28.507  30.882  1.00  0.00     0.031 A 
ATOM     39  C   UNL A   1      40.050  29.588  30.894  1.00  0.00     0.074 A 
ATOM     40  C   UNL A   1      41.895  28.325  31.949  1.00  0.00     0.049 A 
ATOM     41  N   UNL A   1      39.799  30.486  31.811  1.00  0.00    -0.248 NA
ATOM     42  C   UNL A   1      39.166  29.664  29.718  1.00  0.00     0.031 C 
ATOM     43  C   UNL A   1      42.908  27.278  32.082  1.00  0.00     0.029 A 
ATOM     44  N   UNL A   1      41.974  29.020  33.130  1.00  0.00    -0.354 N 
ATOM     45  C   UNL A   1      38.730  31.232  31.327  1.00  0.00     0.074 A 
ATOM     46  C   UNL A   1      38.402  30.704  30.020  1.00  0.00     0.031 C 
ATOM     47  C   UNL A   1      43.508  27.401  33.278  1.00  0.00     0.029 A 
ATOM     48  C   UNL A   1      42.947  28.554  33.981  1.00  0.00     0.049 A 
ATOM     49  H   UNL A   1      41.387  29.780  33.347  1.00  0.00     0.167 HD
ATOM     50  C   UNL A   1      38.072  32.257  31.921  1.00  0.00     0.031 A 
ATOM     51  C   UNL A   1      43.352  29.015  35.181  1.00  0.00     0.031 A 
ATOM     52  C   UNL A   1      38.410  32.794  33.211  1.00  0.00     0.049 A 
ATOM     53  C   UNL A   1      42.668  30.221  35.776  1.00  0.00     0.074 A 
ATOM     54  C   UNL A   1      37.812  33.841  33.891  1.00  0.00     0.029 A 
ATOM     55  N   UNL A   1      39.437  32.328  34.017  1.00  0.00    -0.354 N 
ATOM     56  N   UNL A   1      41.658  30.914  35.305  1.00  0.00    -0.248 NA
ATOM     57  C   UNL A   1      43.178  30.703  37.068  1.00  0.00     0.031 C 
ATOM     58  C   UNL A   1      38.508  34.038  35.089  1.00  0.00     0.029 A 
ATOM     59  C   UNL A   1      39.502  33.077  35.179  1.00  0.00     0.049 A 
ATOM     60  H   UNL A   1      40.031  31.575  33.796  1.00  0.00     0.167 HD
ATOM     61  C   UNL A   1      41.391  31.890  36.260  1.00  0.00     0.074 A 
ATOM     62  C   UNL A   1      42.338  31.693  37.337  1.00  0.00     0.031 C 
ATOM     63  C   UNL A   1      40.446  32.862  36.248  1.00  0.00     0.031 A 
BRANCH  50  64
ATOM     64  C   UNL A   1      36.929  32.880  31.163  1.00  0.00    -0.014 A 
ATOM     65  C   UNL A   1      35.595  32.608  31.516  1.00  0.00     0.010 A 
ATOM     66  C   UNL A   1      37.191  33.781  30.116  1.00  0.00     0.010 A 
ATOM     67  C   UNL A   1      34.543  33.202  30.814  1.00  0.00     0.020 A 
ATOM     68  C   UNL A   1      36.143  34.397  29.428  1.00  0.00     0.020 A 
ATOM     69  C   UNL A   1      34.823  34.092  29.772  1.00  0.00     0.054 A 
BRANCH  69  70
ATOM     70  S   UNL A   1      33.439  34.870  28.897  1.00  0.00     0.124 S 
ATOM     71  O   UNL A   1      33.033  33.811  27.975  1.00  0.00    -0.237 OA
ATOM     72  O   UNL A   1      32.497  35.158  29.976  1.00  0.00    -0.237 OA
ATOM     73  O   UNL A   1      34.041  36.044  28.268  1.00  0.00    -0.744 OA
ENDBRANCH  69  70
ENDBRANCH  50  64
BRANCH  51  74
ATOM     74  C   UNL A   1      44.475  28.356  35.901  1.00  0.00    -0.014 A 
ATOM     75  C   UNL A   1      44.230  27.308  36.806  1.00  0.00     0.010 A 
ATOM     76  C   UNL A   1      45.797  28.796  35.707  1.00  0.00     0.010 A 
ATOM     77  C   UNL A   1      45.282  26.733  37.526  1.00  0.00     0.020 A 
ATOM     78  C   UNL A   1      46.855  28.205  36.404  1.00  0.00     0.020 A 
ATOM     79  C   UNL A   1      46.588  27.187  37.322  1.00  0.00     0.054 A 
BRANCH  79  80
ATOM     80  S   UNL A   1      47.941  26.413  38.248  1.00  0.00     0.124 S 
ATOM     81  O   UNL A   1      48.806  25.933  37.174  1.00  0.00    -0.237 OA
ATOM     82  O   UNL A   1      48.465  27.526  39.034  1.00  0.00    -0.237 OA
ATOM     83  O   UNL A   1      47.270  25.372  39.025  1.00  0.00    -0.744 OA
ENDBRANCH  79  80
ENDBRANCH  51  74
BRANCH  63  84
ATOM     84  C   UNL A   1      40.354  33.759  37.454  1.00  0.00    -0.014 A 
ATOM     85  C   UNL A   1      41.077  34.963  37.527  1.00  0.00     0.010 A 
ATOM     86  C   UNL A   1      39.486  33.415  38.507  1.00  0.00     0.010 A 
ATOM     87  C   UNL A   1      40.958  35.790  38.647  1.00  0.00     0.020 A 
ATOM     88  C   UNL A   1      39.343  34.253  39.615  1.00  0.00     0.020 A 
ATOM     89  C   UNL A   1      40.092  35.430  39.684  1.00  0.00     0.054 A 
BRANCH  89  90
ATOM     90  S   UNL A   1      39.921  36.543  41.107  1.00  0.00     0.124 S 
ATOM     91  O   UNL A   1      39.761  35.602  42.212  1.00  0.00    -0.237 OA
ATOM     92  O   UNL A   1      41.179  37.284  41.088  1.00  0.00    -0.237 OA
ATOM     93  O   UNL A   1      38.734  37.335  40.786  1.00  0.00    -0.744 OA
ENDBRANCH  89  90
ENDBRANCH  63  84
ENDBRANCH  37  38
ENDBRANCH  30  32
ENDBRANCH  29  30
ENDBRANCH  28  29
ENDBRANCH  27  28
ENDBRANCH   1  27
TORSDOF 21
ENDMDL
MODEL 2
REMARK VINA RESULT:     -10.1      6.366     12.063
REMARK SMILES Nc1nc(Nc2ccc(C(=O)OCCOCCOC(=O)c3ccc(-c4c5nc(c(-c6ccc(S(=O)(=O)[O-])cc6)c6ccc([nH]6)c(-c6ccc(S(=O)(=O)[O-])cc6)c6nc(c(-c7ccc(S(=O)(=O)[O-])cc7)c7ccc4[nH]7)C=C6)C=C5)cc3)cc2)ccc1[N+](=O)[O-]
REMARK SMILES IDX 15 1 14 2 13 3 12 4 10 5 11 6 9 7 6 8 7 9 82 10 8 11 81 12
REMARK SMILES IDX 5 13 4 15 2 16 3 17 85 18 84 19 83 20 1 21 86 24 87 25 88 26
REMARK SMILES IDX 16 27 17 28 18 29 19 30 20 31 21 32 22 33 80 34 23 35 79 36
REMARK SMILES IDX 24 37 25 38 26 39 73 40 27 41 78 42 72 43 74 44 28 45 77 46
REMARK SMILES IDX 71 47 70 48 29 50 59 51 40 52 58 53 41 54 44 55 57 56 75 57
REMARK SMILES IDX 42 58 43 59 56 61 76 62 45 63 30 64 31 65 39 66 32 67 38 68
REMARK SMILES IDX 33 69 34 70 35 71 36 72 37 73 60 74 61 75 69 76 62 77 68 78
REMARK SMILES IDX 63 79 64 80 65 81 66 82 67 83 46 84 47 85 55 86 48 87 54 88
REMARK SMILES IDX 49 89 50 90 51 91 52 92 53 93
REMARK H PARENT 5 14 1 22 1 23 74 49 44 60
REMARK Flexibility Score: inf
ROOT
ATOM      1  O   UNL A   1      34.763  31.058  28.525  1.00  0.00    -0.374 OA
ENDROOT
BRANCH   1   2
ATOM      2  C   UNL A   1      33.952  30.750  27.390  1.00  0.00     0.202 C 
BRANCH   2   3
ATOM      3  C   UNL A   1      34.179  29.375  26.756  1.00  0.00     0.261 C 
BRANCH   3   4
ATOM      4  O   UNL A   1      32.982  28.892  26.125  1.00  0.00    -0.460 OA
BRANCH   4   5
ATOM      5  C   UNL A   1      33.127  28.535  24.828  1.00  0.00     0.338 C 
ATOM      6  O   UNL A   1      33.137  29.279  23.859  1.00  0.00    -0.246 OA
BRANCH   5   7
ATOM      7  C   UNL A   1      33.437  27.091  24.723  1.00  0.00     0.060 A 
ATOM      8  C   UNL A   1      34.230  24.401  24.698  1.00  0.00     0.040 A 
ATOM      9  C   UNL A   1      33.882  25.021  25.903  1.00  0.00     0.027 A 
ATOM     10  C   UNL A   1      34.102  25.121  23.500  1.00  0.00     0.027 A 
ATOM     11  C   UNL A   1      33.498  26.361  25.917  1.00  0.00     0.018 A 
ATOM     12  C   UNL A   1      33.695  26.459  23.504  1.00  0.00     0.018 A 
BRANCH   8  13
ATOM     13  N   UNL A   1      34.903  23.161  24.735  1.00  0.00    -0.340 N 
ATOM     14  H   UNL A   1      35.867  23.158  24.935  1.00  0.00     0.168 HD
BRANCH  13  15
ATOM     15  C   UNL A   1      34.264  21.926  24.499  1.00  0.00     0.133 A 
ATOM     16  C   UNL A   1      34.335  19.578  24.561  1.00  0.00     0.204 A 
ATOM     17  N   UNL A   1      34.930  20.774  24.742  1.00  0.00    -0.207 NA
ATOM     18  C   UNL A   1      33.020  19.500  24.125  1.00  0.00     0.311 A 
ATOM     19  C   UNL A   1      32.322  20.684  23.846  1.00  0.00     0.093 A 
ATOM     20  C   UNL A   1      32.958  21.911  24.027  1.00  0.00     0.054 A 
BRANCH  16  21
ATOM     21  N   UNL A   1      35.120  18.516  24.946  1.00  0.00    -0.378 N 
ATOM     22  H   UNL A   1      36.002  18.379  24.530  1.00  0.00     0.158 HD
ATOM     23  H   UNL A   1      34.800  17.892  25.637  1.00  0.00     0.158 HD
ENDBRANCH  16  21
BRANCH  18  24
ATOM     24  N   UNL A   1      32.348  18.219  23.941  1.00  0.00     0.066 N 
ATOM     25  O   UNL A   1      32.227  17.804  22.777  1.00  0.00    -0.258 OA
ATOM     26  O   UNL A   1      31.959  17.597  24.940  1.00  0.00    -0.258 OA
ENDBRANCH  18  24
ENDBRANCH  13  15
ENDBRANCH   8  13
ENDBRANCH   5   7
ENDBRANCH   4   5
ENDBRANCH   3   4
ENDBRANCH   2   3
ENDBRANCH   1   2
BRANCH   1  27
ATOM     27  C   UNL A   1      34.582  32.346  29.118  1.00  0.00     0.202 C 
BRANCH  27  28
ATOM     28  C   UNL A   1      35.037  32.494  30.574  1.00  0.00     0.261 C 
BRANCH  28  29
ATOM     29  O   UNL A   1      36.463  32.356  30.706  1.00  0.00    -0.460 OA
BRANCH  29  30
ATOM     30  C   UNL A   1      36.866  31.284  31.428  1.00  0.00     0.338 C 
ATOM     31  O   UNL A   1      36.278  30.765  32.368  1.00  0.00    -0.246 OA
BRANCH  30  32
ATOM     32  C   UNL A   1      38.061  30.679  30.808  1.00  0.00     0.060 A 
ATOM     33  C   UNL A   1      39.072  30.225  31.664  1.00  0.00     0.016 A 
ATOM     34  C   UNL A   1      38.222  30.612  29.422  1.00  0.00     0.016 A 
ATOM     35  C   UNL A   1      40.271  29.748  31.137  1.00  0.00     0.010 A 
ATOM     36  C   UNL A   1      39.429  30.140  28.896  1.00  0.00     0.010 A 
ATOM     37  C   UNL A   1      40.471  29.739  29.751  1.00  0.00    -0.014 A 
BRANCH  37  38
ATOM     38  C   UNL A   1      41.822  29.448  29.207  1.00  0.00     0.031 A 
ATOM     39  C   UNL A   1      42.122  28.060  28.709  1.00  0.00     0.074 A 
ATOM     40  C   UNL A   1      42.753  30.415  29.119  1.00  0.00     0.049 A 
ATOM     41  N   UNL A   1      43.236  27.579  28.220  1.00  0.00    -0.248 NA
ATOM     42  C   UNL A   1      41.019  27.084  28.768  1.00  0.00     0.031 C 
ATOM     43  C   UNL A   1      42.565  31.811  29.514  1.00  0.00     0.029 A 
ATOM     44  N   UNL A   1      44.047  30.366  28.664  1.00  0.00    -0.354 N 
ATOM     45  C   UNL A   1      42.971  26.250  27.911  1.00  0.00     0.074 A 
ATOM     46  C   UNL A   1      41.601  25.990  28.299  1.00  0.00     0.031 C 
ATOM     47  C   UNL A   1      43.704  32.486  29.284  1.00  0.00     0.029 A 
ATOM     48  C   UNL A   1      44.711  31.565  28.760  1.00  0.00     0.049 A 
ATOM     49  H   UNL A   1      44.459  29.548  28.302  1.00  0.00     0.167 HD
ATOM     50  C   UNL A   1      43.788  25.331  27.344  1.00  0.00     0.031 A 
ATOM     51  C   UNL A   1      45.990  31.879  28.474  1.00  0.00     0.031 A 
ATOM     52  C   UNL A   1      45.155  25.584  26.974  1.00  0.00     0.049 A 
ATOM     53  C   UNL A   1      46.910  30.811  27.936  1.00  0.00     0.074 A 
ATOM     54  C   UNL A   1      46.069  24.713  26.407  1.00  0.00     0.029 A 
ATOM     55  N   UNL A   1      45.806  26.797  27.137  1.00  0.00    -0.354 N 
ATOM     56  N   UNL A   1      46.642  29.559  27.649  1.00  0.00    -0.248 NA
ATOM     57  C   UNL A   1      48.303  31.202  27.681  1.00  0.00     0.031 C 
ATOM     58  C   UNL A   1      47.287  25.387  26.269  1.00  0.00     0.029 A 
ATOM     59  C   UNL A   1      47.114  26.693  26.698  1.00  0.00     0.049 A 
ATOM     60  H   UNL A   1      45.398  27.612  27.508  1.00  0.00     0.167 HD
ATOM     61  C   UNL A   1      47.825  29.025  27.146  1.00  0.00     0.074 A 
ATOM     62  C   UNL A   1      48.805  30.090  27.161  1.00  0.00     0.031 C 
ATOM     63  C   UNL A   1      48.077  27.766  26.710  1.00  0.00     0.031 A 
BRANCH  50  64
ATOM     64  C   UNL A   1      43.227  23.953  27.108  1.00  0.00    -0.014 A 
ATOM     65  C   UNL A   1      42.741  23.577  25.842  1.00  0.00     0.010 A 
ATOM     66  C   UNL A   1      43.226  23.009  28.150  1.00  0.00     0.010 A 
ATOM     67  C   UNL A   1      42.234  22.293  25.633  1.00  0.00     0.020 A 
ATOM     68  C   UNL A   1      42.744  21.715  27.938  1.00  0.00     0.020 A 
ATOM     69  C   UNL A   1      42.237  21.369  26.683  1.00  0.00     0.054 A 
BRANCH  69  70
ATOM     70  S   UNL A   1      41.599  19.699  26.375  1.00  0.00     0.124 S 
ATOM     71  O   UNL A   1      42.407  19.275  25.233  1.00  0.00    -0.237 OA
ATOM     72  O   UNL A   1      41.880  19.011  27.633  1.00  0.00    -0.237 OA
ATOM     73  O   UNL A   1      40.183  19.915  26.089  1.00  0.00    -0.744 OA
ENDBRANCH  69  70
ENDBRANCH  50  64
BRANCH  51  74
ATOM     74  C   UNL A   1      46.496  33.259  28.707  1.00  0.00    -0.014 A 
ATOM     75  C   UNL A   1      46.443  34.225  27.686  1.00  0.00     0.010 A 
ATOM     76  C   UNL A   1      47.063  33.607  29.946  1.00  0.00     0.010 A 
ATOM     77  C   UNL A   1      46.975  35.502  27.890  1.00  0.00     0.020 A 
ATOM     78  C   UNL A   1      47.571  34.891  30.164  1.00  0.00     0.020 A 
ATOM     79  C   UNL A   1      47.538  35.825  29.127  1.00  0.00     0.054 A 
BRANCH  79  80
ATOM     80  S   UNL A   1      48.202  37.495  29.379  1.00  0.00     0.124 S 
ATOM     81  O   UNL A   1      48.507  37.908  28.013  1.00  0.00    -0.237 OA
ATOM     82  O   UNL A   1      47.086  38.186  30.017  1.00  0.00    -0.237 OA
ATOM     83  O   UNL A   1      49.362  37.273  30.241  1.00  0.00    -0.744 OA
ENDBRANCH  79  80
ENDBRANCH  51  74
BRANCH  63  84
ATOM     84  C   UNL A   1      49.452  27.480  26.168  1.00  0.00    -0.014 A 
ATOM     85  C   UNL A   1      50.494  27.045  27.006  1.00  0.00     0.010 A 
ATOM     86  C   UNL A   1      49.688  27.597  24.785  1.00  0.00     0.010 A 
ATOM     87  C   UNL A   1      51.755  26.764  26.476  1.00  0.00     0.020 A 
ATOM     88  C   UNL A   1      50.940  27.290  24.247  1.00  0.00     0.020 A 
ATOM     89  C   UNL A   1      51.971  26.887  25.099  1.00  0.00     0.054 A 
BRANCH  89  90
ATOM     90  S   UNL A   1      53.605  26.473  24.429  1.00  0.00     0.124 S 
ATOM     91  O   UNL A   1      54.494  26.918  25.500  1.00  0.00    -0.237 OA
ATOM     92  O   UNL A   1      53.518  25.027  24.244  1.00  0.00    -0.237 OA
ATOM     93  O   UNL A   1      53.680  27.251  23.194  1.00  0.00    -0.744 OA
ENDBRANCH  89  90
ENDBRANCH  63  84
ENDBRANCH  37  38
ENDBRANCH  30  32
ENDBRANCH  29  30
ENDBRANCH  28  29
ENDBRANCH  27  28
ENDBRANCH   1  27
TORSDOF 21
ENDMDL
MODEL 3
REMARK VINA RESULT:     -10.1      5.967      8.313
REMARK SMILES Nc1nc(Nc2ccc(C(=O)OCCOCCOC(=O)c3ccc(-c4c5nc(c(-c6ccc(S(=O)(=O)[O-])cc6)c6ccc([nH]6)c(-c6ccc(S(=O)(=O)[O-])cc6)c6nc(c(-c7ccc(S(=O)(=O)[O-])cc7)c7ccc4[nH]7)C=C6)C=C5)cc3)cc2)ccc1[N+](=O)[O-]
REMARK SMILES IDX 15 1 14 2 13 3 12 4 10 5 11 6 9 7 6 8 7 9 82 10 8 11 81 12
REMARK SMILES IDX 5 13 4 15 2 16 3 17 85 18 84 19 83 20 1 21 86 24 87 25 88 26
REMARK SMILES IDX 16 27 17 28 18 29 19 30 20 31 21 32 22 33 80 34 23 35 79 36
REMARK SMILES IDX 24 37 25 38 26 39 73 40 27 41 78 42 72 43 74 44 28 45 77 46
REMARK SMILES IDX 71 47 70 48 29 50 59 51 40 52 58 53 41 54 44 55 57 56 75 57
REMARK SMILES IDX 42 58 43 59 56 61 76 62 45 63 30 64 31 65 39 66 32 67 38 68
REMARK SMILES IDX 33 69 34 70 35 71 36 72 37 73 60 74 61 75 69 76 62 77 68 78
REMARK SMILES IDX 63 79 64 80 65 81 66 82 67 83 46 84 47 85 55 86 48 87 54 88
REMARK SMILES IDX 49 89 50 90 51 91 52 92 53 93
REMARK H PARENT 5 14 1 22 1 23 74 49 44 60
REMARK Flexibility Score: inf
ROOT
ATOM      1  O   UNL A   1      37.582  22.691  26.307  1.00  0.00    -0.374 OA
ENDROOT
BRANCH   1   2
ATOM      2  C   UNL A   1      36.664  23.705  25.893  1.00  0.00     0.202 C 
BRANCH   2   3
ATOM      3  C   UNL A   1      35.659  23.300  24.811  1.00  0.00     0.261 C 
BRANCH   3   4
ATOM      4  O   UNL A   1      34.817  24.404  24.446  1.00  0.00    -0.460 OA
BRANCH   4   5
ATOM      5  C   UNL A   1      34.257  24.312  23.218  1.00  0.00     0.338 C 
ATOM      6  O   UNL A   1      34.502  23.476  22.360  1.00  0.00    -0.246 OA
BRANCH   5   7
ATOM      7  C   UNL A   1      33.156  25.292  23.078  1.00  0.00     0.060 A 
ATOM      8  C   UNL A   1      30.926  26.989  22.984  1.00  0.00     0.040 A 
ATOM      9  C   UNL A   1      31.534  26.694  24.209  1.00  0.00     0.027 A 
ATOM     10  C   UNL A   1      31.494  26.486  21.803  1.00  0.00     0.027 A 
ATOM     11  C   UNL A   1      32.637  25.842  24.257  1.00  0.00     0.018 A 
ATOM     12  C   UNL A   1      32.613  25.649  21.842  1.00  0.00     0.018 A 
BRANCH   8  13
ATOM     13  N   UNL A   1      29.648  27.590  22.981  1.00  0.00    -0.340 N 
ATOM     14  H   UNL A   1      28.858  27.008  23.067  1.00  0.00     0.168 HD
BRANCH  13  15
ATOM     15  C   UNL A   1      29.447  28.980  22.862  1.00  0.00     0.133 A 
ATOM     16  C   UNL A   1      28.681  30.801  21.590  1.00  0.00     0.204 A 
ATOM     17  N   UNL A   1      28.919  29.482  21.721  1.00  0.00    -0.207 NA
ATOM     18  C   UNL A   1      28.969  31.680  22.625  1.00  0.00     0.311 A 
ATOM     19  C   UNL A   1      29.539  31.180  23.805  1.00  0.00     0.093 A 
ATOM     20  C   UNL A   1      29.789  29.814  23.918  1.00  0.00     0.054 A 
BRANCH  16  21
ATOM     21  N   UNL A   1      28.055  31.126  20.408  1.00  0.00    -0.378 N 
ATOM     22  H   UNL A   1      28.583  31.239  19.586  1.00  0.00     0.158 HD
ATOM     23  H   UNL A   1      27.078  31.246  20.386  1.00  0.00     0.158 HD
ENDBRANCH  16  21
BRANCH  18  24
ATOM     24  N   UNL A   1      28.702  33.109  22.514  1.00  0.00     0.066 N 
ATOM     25  O   UNL A   1      29.426  33.873  23.172  1.00  0.00    -0.258 OA
ATOM     26  O   UNL A   1      27.799  33.494  21.758  1.00  0.00    -0.258 OA
ENDBRANCH  18  24
ENDBRANCH  13  15
ENDBRANCH   8  13
ENDBRANCH   5   7
ENDBRANCH   4   5
ENDBRANCH   3   4
ENDBRANCH   2   3
ENDBRANCH   1   2
BRANCH   1  27
ATOM     27  C   UNL A   1      38.178  21.901  25.277  1.00  0.00     0.202 C 
BRANCH  27  28
ATOM     28  C   UNL A   1      38.675  20.510  25.688  1.00  0.00     0.261 C 
BRANCH  28  29
ATOM     29  O   UNL A   1      39.671  20.582  26.724  1.00  0.00    -0.460 OA
BRANCH  29  30
ATOM     30  C   UNL A   1      40.919  20.225  26.339  1.00  0.00     0.338 C 
ATOM     31  O   UNL A   1      41.251  19.178  25.798  1.00  0.00    -0.246 OA
BRANCH  30  32
ATOM     32  C   UNL A   1      41.840  21.366  26.493  1.00  0.00     0.060 A 
ATOM     33  C   UNL A   1      42.231  21.711  27.793  1.00  0.00     0.016 A 
ATOM     34  C   UNL A   1      42.266  22.125  25.400  1.00  0.00     0.016 A 
ATOM     35  C   UNL A   1      43.008  22.847  28.011  1.00  0.00     0.010 A 
ATOM     36  C   UNL A   1      43.040  23.270  25.622  1.00  0.00     0.010 A 
ATOM     37  C   UNL A   1      43.385  23.654  26.930  1.00  0.00    -0.014 A 
BRANCH  37  38
ATOM     38  C   UNL A   1      44.013  24.975  27.186  1.00  0.00     0.031 A 
ATOM     39  C   UNL A   1      43.160  26.097  27.712  1.00  0.00     0.074 A 
ATOM     40  C   UNL A   1      45.331  25.160  26.991  1.00  0.00     0.049 A 
ATOM     41  N   UNL A   1      43.492  27.333  27.982  1.00  0.00    -0.248 NA
ATOM     42  C   UNL A   1      41.744  25.784  27.974  1.00  0.00     0.031 C 
ATOM     43  C   UNL A   1      46.274  24.137  26.539  1.00  0.00     0.029 A 
ATOM     44  N   UNL A   1      46.105  26.282  27.154  1.00  0.00    -0.354 N 
ATOM     45  C   UNL A   1      42.332  27.945  28.445  1.00  0.00     0.074 A 
ATOM     46  C   UNL A   1      41.280  26.953  28.388  1.00  0.00     0.031 C 
ATOM     47  C   UNL A   1      47.501  24.680  26.460  1.00  0.00     0.029 A 
ATOM     48  C   UNL A   1      47.425  26.094  26.821  1.00  0.00     0.049 A 
ATOM     49  H   UNL A   1      45.748  27.140  27.479  1.00  0.00     0.167 HD
ATOM     50  C   UNL A   1      42.160  29.213  28.890  1.00  0.00     0.031 A 
ATOM     51  C   UNL A   1      48.452  26.968  26.794  1.00  0.00     0.031 A 
ATOM     52  C   UNL A   1      43.202  30.203  28.929  1.00  0.00     0.049 A 
ATOM     53  C   UNL A   1      48.211  28.401  27.199  1.00  0.00     0.074 A 
ATOM     54  C   UNL A   1      43.123  31.519  29.349  1.00  0.00     0.029 A 
ATOM     55  N   UNL A   1      44.514  29.987  28.533  1.00  0.00    -0.354 N 
ATOM     56  N   UNL A   1      47.108  28.962  27.635  1.00  0.00    -0.248 NA
ATOM     57  C   UNL A   1      49.358  29.317  27.111  1.00  0.00     0.031 C 
ATOM     58  C   UNL A   1      44.377  32.113  29.163  1.00  0.00     0.029 A 
ATOM     59  C   UNL A   1      45.249  31.150  28.681  1.00  0.00     0.049 A 
ATOM     60  H   UNL A   1      44.869  29.133  28.197  1.00  0.00     0.167 HD
ATOM     61  C   UNL A   1      47.439  30.286  27.906  1.00  0.00     0.074 A 
ATOM     62  C   UNL A   1      48.844  30.439  27.594  1.00  0.00     0.031 C 
ATOM     63  C   UNL A   1      46.651  31.286  28.374  1.00  0.00     0.031 A 
BRANCH  50  64
ATOM     64  C   UNL A   1      40.782  29.606  29.350  1.00  0.00    -0.014 A 
ATOM     65  C   UNL A   1      40.548  30.001  30.680  1.00  0.00     0.010 A 
ATOM     66  C   UNL A   1      39.716  29.625  28.433  1.00  0.00     0.010 A 
ATOM     67  C   UNL A   1      39.268  30.376  31.092  1.00  0.00     0.020 A 
ATOM     68  C   UNL A   1      38.438  30.024  28.835  1.00  0.00     0.020 A 
ATOM     69  C   UNL A   1      38.219  30.383  30.167  1.00  0.00     0.054 A 
BRANCH  69  70
ATOM     70  S   UNL A   1      36.572  30.902  30.722  1.00  0.00     0.124 S 
ATOM     71  O   UNL A   1      36.896  31.766  31.856  1.00  0.00    -0.237 OA
ATOM     72  O   UNL A   1      36.036  31.583  29.546  1.00  0.00    -0.237 OA
ATOM     73  O   UNL A   1      35.911  29.646  31.068  1.00  0.00    -0.744 OA
ENDBRANCH  69  70
ENDBRANCH  50  64
BRANCH  51  74
ATOM     74  C   UNL A   1      49.802  26.529  26.348  1.00  0.00    -0.014 A 
ATOM     75  C   UNL A   1      50.705  25.952  27.258  1.00  0.00     0.010 A 
ATOM     76  C   UNL A   1      50.203  26.714  25.013  1.00  0.00     0.010 A 
ATOM     77  C   UNL A   1      51.994  25.596  26.848  1.00  0.00     0.020 A 
ATOM     78  C   UNL A   1      51.481  26.336  24.592  1.00  0.00     0.020 A 
ATOM     79  C   UNL A   1      52.374  25.794  25.518  1.00  0.00     0.054 A 
BRANCH  79  80
ATOM     80  S   UNL A   1      54.043  25.306  25.001  1.00  0.00     0.124 S 
ATOM     81  O   UNL A   1      54.863  25.832  26.088  1.00  0.00    -0.237 OA
ATOM     82  O   UNL A   1      53.941  23.851  24.932  1.00  0.00    -0.237 OA
ATOM     83  O   UNL A   1      54.209  25.973  23.711  1.00  0.00    -0.744 OA
ENDBRANCH  79  80
ENDBRANCH  51  74
BRANCH  63  84
ATOM     84  C   UNL A   1      47.296  32.623  28.622  1.00  0.00    -0.014 A 
ATOM     85  C   UNL A   1      47.891  32.930  29.859  1.00  0.00     0.010 A 
ATOM     86  C   UNL A   1      47.354  33.567  27.580  1.00  0.00     0.010 A 
ATOM     87  C   UNL A   1      48.504  34.169  30.059  1.00  0.00     0.020 A 
ATOM     88  C   UNL A   1      47.991  34.796  27.767  1.00  0.00     0.020 A 
ATOM     89  C   UNL A   1      48.550  35.095  29.012  1.00  0.00     0.054 A 
BRANCH  89  90
ATOM     90  S   UNL A   1      49.391  36.680  29.282  1.00  0.00     0.124 S 
ATOM     91  O   UNL A   1      48.268  37.612  29.354  1.00  0.00    -0.237 OA
ATOM     92  O   UNL A   1      50.104  36.455  30.537  1.00  0.00    -0.237 OA
ATOM     93  O   UNL A   1      50.245  36.824  28.104  1.00  0.00    -0.744 OA
ENDBRANCH  89  90
ENDBRANCH  63  84
ENDBRANCH  37  38
ENDBRANCH  30  32
ENDBRANCH  29  30
ENDBRANCH  28  29
ENDBRANCH  27  28
ENDBRANCH   1  27
TORSDOF 21
ENDMDL
