MODEL 1
REMARK VINA RESULT:     -12.2      0.000      0.000
REMARK SMILES C[C@]12C(=O)N(c3ccc(C(=O)OCCOCCOC(=O)c4ccc(-c5c6nc(c(-c7ccc(S(=O)(=O)[O-])cc7)c7ccc([nH]7)c(-c7ccc(S(=O)(=O)[O-])cc7)c7nc(c(-c8ccc(S(=O)(=O)[O-])cc8)c8ccc5[nH]8)C=C7)C=C6)cc4)cc3)C(=O)[C@H]1[C@H]1c3ccccc3[C@@H]2c2ccccc21
REMARK SMILES IDX 16 1 15 2 14 3 13 4 12 5 10 6 11 7 9 8 6 9 7 10 82 11 8 12
REMARK SMILES IDX 81 13 5 14 1 15 2 16 3 17 85 18 93 19 4 20 83 21 86 22 92 23
REMARK SMILES IDX 94 24 84 25 87 26 99 27 91 28 95 29 88 30 98 31 90 32 96 33
REMARK SMILES IDX 89 34 97 35 17 36 18 37 19 38 20 39 21 40 22 41 80 42 23 43
REMARK SMILES IDX 79 44 24 45 25 46 26 47 73 48 27 49 78 50 72 51 74 52 28 53
REMARK SMILES IDX 77 54 71 55 70 56 29 58 59 59 40 60 58 61 41 62 44 63 57 64
REMARK SMILES IDX 75 65 42 66 43 67 56 69 76 70 45 71 30 72 31 73 39 74 32 75
REMARK SMILES IDX 38 76 33 77 34 78 35 79 36 80 37 81 60 82 61 83 69 84 62 85
REMARK SMILES IDX 68 86 63 87 64 88 65 89 66 90 67 91 46 92 47 93 55 94 48 95
REMARK SMILES IDX 54 96 49 97 50 98 51 99 52 100 53 101
REMARK H PARENT 74 57 44 68
REMARK Flexibility Score: inf
ROOT
ATOM      1  C   UNL A   1      39.988  21.895  26.597  1.00  0.00     0.202 C 
ENDROOT
BRANCH   1   2
ATOM      2  O   UNL A   1      39.307  20.758  26.067  1.00  0.00    -0.374 OA
BRANCH   2   3
ATOM      3  C   UNL A   1      38.369  20.987  25.011  1.00  0.00     0.202 C 
BRANCH   3   4
ATOM      4  C   UNL A   1      37.156  21.850  25.373  1.00  0.00     0.261 C 
BRANCH   4   5
ATOM      5  O   UNL A   1      37.246  23.135  24.732  1.00  0.00    -0.460 OA
BRANCH   5   6
ATOM      6  C   UNL A   1      36.341  23.328  23.748  1.00  0.00     0.338 C 
ATOM      7  O   UNL A   1      36.415  22.976  22.583  1.00  0.00    -0.246 OA
BRANCH   6   8
ATOM      8  C   UNL A   1      35.088  23.817  24.340  1.00  0.00     0.060 A 
ATOM      9  C   UNL A   1      32.622  24.976  25.031  1.00  0.00     0.052 A 
ATOM     10  C   UNL A   1      32.686  23.829  24.215  1.00  0.00     0.028 A 
ATOM     11  C   UNL A   1      33.819  25.444  25.595  1.00  0.00     0.028 A 
ATOM     12  C   UNL A   1      33.908  23.282  23.836  1.00  0.00     0.018 A 
ATOM     13  C   UNL A   1      35.053  24.858  25.265  1.00  0.00     0.018 A 
BRANCH   9  14
ATOM     14  N   UNL A   1      31.409  25.727  25.051  1.00  0.00    -0.250 N 
ATOM     15  C   UNL A   1      28.260  26.731  23.827  1.00  0.00     0.024 C 
ATOM     16  C   UNL A   1      29.777  26.952  23.911  1.00  0.00     0.071 C 
ATOM     17  C   UNL A   1      30.459  25.625  24.065  1.00  0.00     0.241 C 
ATOM     18  C   UNL A   1      30.164  27.729  25.200  1.00  0.00     0.107 C 
ATOM     19  C   UNL A   1      30.394  27.660  22.648  1.00  0.00     0.066 C 
ATOM     20  O   UNL A   1      30.181  24.653  23.371  1.00  0.00    -0.273 OA
ATOM     21  C   UNL A   1      31.150  26.795  25.891  1.00  0.00     0.238 C 
ATOM     22  C   UNL A   1      30.833  29.093  24.818  1.00  0.00     0.063 C 
ATOM     23  C   UNL A   1      31.884  27.946  22.907  1.00  0.00    -0.036 A 
ATOM     24  C   UNL A   1      29.720  29.024  22.605  1.00  0.00    -0.036 A 
ATOM     25  O   UNL A   1      31.627  27.047  26.988  1.00  0.00    -0.274 OA
ATOM     26  C   UNL A   1      32.115  28.735  24.066  1.00  0.00    -0.036 A 
ATOM     27  C   UNL A   1      29.923  29.786  23.789  1.00  0.00    -0.036 A 
ATOM     28  C   UNL A   1      32.955  27.485  22.156  1.00  0.00     0.005 A 
ATOM     29  C   UNL A   1      28.997  29.523  21.531  1.00  0.00     0.005 A 
ATOM     30  C   UNL A   1      33.403  29.051  24.477  1.00  0.00     0.004 A 
ATOM     31  C   UNL A   1      29.392  31.064  23.883  1.00  0.00     0.004 A 
ATOM     32  C   UNL A   1      34.253  27.794  22.579  1.00  0.00     0.000 A 
ATOM     33  C   UNL A   1      28.463  30.804  21.636  1.00  0.00     0.000 A 
ATOM     34  C   UNL A   1      34.474  28.570  23.728  1.00  0.00     0.000 A 
ATOM     35  C   UNL A   1      28.658  31.566  22.800  1.00  0.00     0.000 A 
ENDBRANCH   9  14
ENDBRANCH   6   8
ENDBRANCH   5   6
ENDBRANCH   4   5
ENDBRANCH   3   4
ENDBRANCH   2   3
ENDBRANCH   1   2
BRANCH   1  36
ATOM     36  C   UNL A   1      41.504  21.951  26.376  1.00  0.00     0.261 C 
BRANCH  36  37
ATOM     37  O   UNL A   1      42.129  22.954  27.192  1.00  0.00    -0.460 OA
BRANCH  37  38
ATOM     38  C   UNL A   1      42.333  24.144  26.573  1.00  0.00     0.338 C 
ATOM     39  O   UNL A   1      42.683  24.315  25.416  1.00  0.00    -0.246 OA
BRANCH  38  40
ATOM     40  C   UNL A   1      41.892  25.252  27.448  1.00  0.00     0.060 A 
ATOM     41  C   UNL A   1      40.693  25.209  28.163  1.00  0.00     0.016 A 
ATOM     42  C   UNL A   1      42.746  26.356  27.566  1.00  0.00     0.016 A 
ATOM     43  C   UNL A   1      40.381  26.252  29.042  1.00  0.00     0.010 A 
ATOM     44  C   UNL A   1      42.432  27.397  28.440  1.00  0.00     0.010 A 
ATOM     45  C   UNL A   1      41.262  27.336  29.208  1.00  0.00    -0.014 A 
BRANCH  45  46
ATOM     46  C   UNL A   1      41.062  28.304  30.316  1.00  0.00     0.031 A 
ATOM     47  C   UNL A   1      40.013  29.372  30.260  1.00  0.00     0.074 A 
ATOM     48  C   UNL A   1      41.883  28.216  31.381  1.00  0.00     0.049 A 
ATOM     49  N   UNL A   1      39.673  30.228  31.189  1.00  0.00    -0.248 NA
ATOM     50  C   UNL A   1      39.249  29.504  29.010  1.00  0.00     0.031 C 
ATOM     51  C   UNL A   1      42.969  27.242  31.524  1.00  0.00     0.029 A 
ATOM     52  N   UNL A   1      41.932  28.943  32.543  1.00  0.00    -0.354 N 
ATOM     53  C   UNL A   1      38.640  30.985  30.653  1.00  0.00     0.074 A 
ATOM     54  C   UNL A   1      38.438  30.518  29.298  1.00  0.00     0.031 C 
ATOM     55  C   UNL A   1      43.549  27.407  32.723  1.00  0.00     0.029 A 
ATOM     56  C   UNL A   1      42.896  28.509  33.423  1.00  0.00     0.049 A 
ATOM     57  H   UNL A   1      41.334  29.702  32.731  1.00  0.00     0.167 HD
ATOM     58  C   UNL A   1      37.918  31.961  31.250  1.00  0.00     0.031 A 
ATOM     59  C   UNL A   1      43.213  28.935  34.660  1.00  0.00     0.031 A 
ATOM     60  C   UNL A   1      38.139  32.430  32.596  1.00  0.00     0.049 A 
ATOM     61  C   UNL A   1      42.422  30.052  35.278  1.00  0.00     0.074 A 
ATOM     62  C   UNL A   1      37.413  33.377  33.302  1.00  0.00     0.029 A 
ATOM     63  N   UNL A   1      39.159  32.007  33.434  1.00  0.00    -0.354 N 
ATOM     64  N   UNL A   1      41.391  30.695  34.787  1.00  0.00    -0.248 NA
ATOM     65  C   UNL A   1      42.828  30.492  36.620  1.00  0.00     0.031 C 
ATOM     66  C   UNL A   1      38.030  33.570  34.540  1.00  0.00     0.029 A 
ATOM     67  C   UNL A   1      39.103  32.698  34.633  1.00  0.00     0.049 A 
ATOM     68  H   UNL A   1      39.823  31.316  33.211  1.00  0.00     0.167 HD
ATOM     69  C   UNL A   1      41.017  31.609  35.766  1.00  0.00     0.074 A 
ATOM     70  C   UNL A   1      41.917  31.419  36.885  1.00  0.00     0.031 C 
ATOM     71  C   UNL A   1      40.016  32.522  35.735  1.00  0.00     0.031 A 
BRANCH  58  72
ATOM     72  C   UNL A   1      36.780  32.586  30.487  1.00  0.00    -0.014 A 
ATOM     73  C   UNL A   1      36.994  33.757  29.736  1.00  0.00     0.010 A 
ATOM     74  C   UNL A   1      35.467  32.114  30.662  1.00  0.00     0.010 A 
ATOM     75  C   UNL A   1      35.911  34.468  29.209  1.00  0.00     0.020 A 
ATOM     76  C   UNL A   1      34.383  32.812  30.120  1.00  0.00     0.020 A 
ATOM     77  C   UNL A   1      34.611  33.999  29.420  1.00  0.00     0.054 A 
BRANCH  77  78
ATOM     78  S   UNL A   1      33.214  34.971  28.791  1.00  0.00     0.124 S 
ATOM     79  O   UNL A   1      33.887  36.054  28.080  1.00  0.00    -0.237 OA
ATOM     80  O   UNL A   1      32.508  34.006  27.950  1.00  0.00    -0.237 OA
ATOM     81  O   UNL A   1      32.499  35.366  30.003  1.00  0.00    -0.744 OA
ENDBRANCH  77  78
ENDBRANCH  58  72
BRANCH  59  82
ATOM     82  C   UNL A   1      44.300  28.253  35.412  1.00  0.00    -0.014 A 
ATOM     83  C   UNL A   1      45.646  28.590  35.188  1.00  0.00     0.010 A 
ATOM     84  C   UNL A   1      43.991  27.220  36.313  1.00  0.00     0.010 A 
ATOM     85  C   UNL A   1      46.668  27.882  35.826  1.00  0.00     0.020 A 
ATOM     86  C   UNL A   1      45.009  26.528  36.974  1.00  0.00     0.020 A 
ATOM     87  C   UNL A   1      46.343  26.848  36.708  1.00  0.00     0.054 A 
BRANCH  87  88
ATOM     88  S   UNL A   1      47.681  25.928  37.515  1.00  0.00     0.124 S 
ATOM     89  O   UNL A   1      47.033  24.653  37.806  1.00  0.00    -0.237 OA
ATOM     90  O   UNL A   1      48.713  25.888  36.482  1.00  0.00    -0.237 OA
ATOM     91  O   UNL A   1      48.003  26.748  38.680  1.00  0.00    -0.744 OA
ENDBRANCH  87  88
ENDBRANCH  59  82
BRANCH  71  92
ATOM     92  C   UNL A   1      39.841  33.410  36.938  1.00  0.00    -0.014 A 
ATOM     93  C   UNL A   1      40.349  34.722  36.924  1.00  0.00     0.010 A 
ATOM     94  C   UNL A   1      39.252  32.916  38.116  1.00  0.00     0.010 A 
ATOM     95  C   UNL A   1      40.290  35.517  38.072  1.00  0.00     0.020 A 
ATOM     96  C   UNL A   1      39.166  33.719  39.257  1.00  0.00     0.020 A 
ATOM     97  C   UNL A   1      39.706  35.008  39.234  1.00  0.00     0.054 A 
BRANCH  97  98
ATOM     98  S   UNL A   1      39.634  36.051  40.716  1.00  0.00     0.124 S 
ATOM     99  O   UNL A   1      38.881  35.215  41.645  1.00  0.00    -0.237 OA
ATOM    100  O   UNL A   1      41.045  36.245  41.044  1.00  0.00    -0.237 OA
ATOM    101  O   UNL A   1      38.943  37.253  40.253  1.00  0.00    -0.744 OA
ENDBRANCH  97  98
ENDBRANCH  71  92
ENDBRANCH  45  46
ENDBRANCH  38  40
ENDBRANCH  37  38
ENDBRANCH  36  37
ENDBRANCH   1  36
TORSDOF 18
ENDMDL
MODEL 2
REMARK VINA RESULT:     -12.2      5.788     11.651
REMARK SMILES C[C@]12C(=O)N(c3ccc(C(=O)OCCOCCOC(=O)c4ccc(-c5c6nc(c(-c7ccc(S(=O)(=O)[O-])cc7)c7ccc([nH]7)c(-c7ccc(S(=O)(=O)[O-])cc7)c7nc(c(-c8ccc(S(=O)(=O)[O-])cc8)c8ccc5[nH]8)C=C7)C=C6)cc4)cc3)C(=O)[C@H]1[C@H]1c3ccccc3[C@@H]2c2ccccc21
REMARK SMILES IDX 16 1 15 2 14 3 13 4 12 5 10 6 11 7 9 8 6 9 7 10 82 11 8 12
REMARK SMILES IDX 81 13 5 14 1 15 2 16 3 17 85 18 93 19 4 20 83 21 86 22 92 23
REMARK SMILES IDX 94 24 84 25 87 26 99 27 91 28 95 29 88 30 98 31 90 32 96 33
REMARK SMILES IDX 89 34 97 35 17 36 18 37 19 38 20 39 21 40 22 41 80 42 23 43
REMARK SMILES IDX 79 44 24 45 25 46 26 47 73 48 27 49 78 50 72 51 74 52 28 53
REMARK SMILES IDX 77 54 71 55 70 56 29 58 59 59 40 60 58 61 41 62 44 63 57 64
REMARK SMILES IDX 75 65 42 66 43 67 56 69 76 70 45 71 30 72 31 73 39 74 32 75
REMARK SMILES IDX 38 76 33 77 34 78 35 79 36 80 37 81 60 82 61 83 69 84 62 85
REMARK SMILES IDX 68 86 63 87 64 88 65 89 66 90 67 91 46 92 47 93 55 94 48 95
REMARK SMILES IDX 54 96 49 97 50 98 51 99 52 100 53 101
REMARK H PARENT 74 57 44 68
REMARK Flexibility Score: inf
ROOT
ATOM      1  C   UNL A   1      35.322  32.790  29.114  1.00  0.00     0.202 C 
ENDROOT
BRANCH   1   2
ATOM      2  O   UNL A   1      34.294  32.338  28.231  1.00  0.00    -0.374 OA
BRANCH   2   3
ATOM      3  C   UNL A   1      34.459  31.047  27.636  1.00  0.00     0.202 C 
BRANCH   3   4
ATOM      4  C   UNL A   1      33.223  30.142  27.657  1.00  0.00     0.261 C 
BRANCH   4   5
ATOM      5  O   UNL A   1      33.473  28.935  26.914  1.00  0.00    -0.460 OA
BRANCH   5   6
ATOM      6  C   UNL A   1      32.547  27.969  27.099  1.00  0.00     0.338 C 
ATOM      7  O   UNL A   1      31.663  27.930  27.938  1.00  0.00    -0.246 OA
BRANCH   6   8
ATOM      8  C   UNL A   1      32.581  27.049  25.954  1.00  0.00     0.060 A 
ATOM      9  C   UNL A   1      32.745  24.939  24.104  1.00  0.00     0.052 A 
ATOM     10  C   UNL A   1      31.603  25.115  24.911  1.00  0.00     0.028 A 
ATOM     11  C   UNL A   1      33.743  25.924  24.160  1.00  0.00     0.028 A 
ATOM     12  C   UNL A   1      31.539  26.132  25.858  1.00  0.00     0.018 A 
ATOM     13  C   UNL A   1      33.658  26.991  25.072  1.00  0.00     0.018 A 
BRANCH   9  14
ATOM     14  N   UNL A   1      32.937  23.678  23.466  1.00  0.00    -0.250 N 
ATOM     15  C   UNL A   1      31.896  20.568  22.172  1.00  0.00     0.024 C 
ATOM     16  C   UNL A   1      32.467  21.391  23.335  1.00  0.00     0.071 C 
ATOM     17  C   UNL A   1      31.912  22.783  23.271  1.00  0.00     0.241 C 
ATOM     18  C   UNL A   1      34.002  21.588  23.188  1.00  0.00     0.107 C 
ATOM     19  C   UNL A   1      32.131  20.810  24.759  1.00  0.00     0.066 C 
ATOM     20  O   UNL A   1      30.721  23.014  23.096  1.00  0.00    -0.273 OA
ATOM     21  C   UNL A   1      34.165  23.102  23.195  1.00  0.00     0.238 C 
ATOM     22  C   UNL A   1      34.742  20.923  24.399  1.00  0.00     0.063 C 
ATOM     23  C   UNL A   1      32.866  21.639  25.828  1.00  0.00    -0.036 A 
ATOM     24  C   UNL A   1      32.792  19.440  24.780  1.00  0.00    -0.036 A 
ATOM     25  O   UNL A   1      35.250  23.642  23.029  1.00  0.00    -0.274 OA
ATOM     26  C   UNL A   1      34.274  21.680  25.642  1.00  0.00    -0.036 A 
ATOM     27  C   UNL A   1      34.196  19.492  24.549  1.00  0.00    -0.036 A 
ATOM     28  C   UNL A   1      32.283  22.335  26.876  1.00  0.00     0.005 A 
ATOM     29  C   UNL A   1      32.137  18.242  25.024  1.00  0.00     0.005 A 
ATOM     30  C   UNL A   1      35.091  22.419  26.487  1.00  0.00     0.004 A 
ATOM     31  C   UNL A   1      34.939  18.322  24.570  1.00  0.00     0.004 A 
ATOM     32  C   UNL A   1      33.106  23.090  27.719  1.00  0.00     0.000 A 
ATOM     33  C   UNL A   1      32.891  17.071  25.037  1.00  0.00     0.000 A 
ATOM     34  C   UNL A   1      34.496  23.131  27.526  1.00  0.00     0.000 A 
ATOM     35  C   UNL A   1      34.276  17.111  24.812  1.00  0.00     0.000 A 
ENDBRANCH   9  14
ENDBRANCH   6   8
ENDBRANCH   5   6
ENDBRANCH   4   5
ENDBRANCH   3   4
ENDBRANCH   2   3
ENDBRANCH   1   2
BRANCH   1  36
ATOM     36  C   UNL A   1      35.182  32.396  30.588  1.00  0.00     0.261 C 
BRANCH  36  37
ATOM     37  O   UNL A   1      36.424  31.929  31.139  1.00  0.00    -0.460 OA
BRANCH  37  38
ATOM     38  C   UNL A   1      36.685  30.616  30.917  1.00  0.00     0.338 C 
ATOM     39  O   UNL A   1      35.878  29.700  30.915  1.00  0.00    -0.246 OA
BRANCH  38  40
ATOM     40  C   UNL A   1      38.089  30.447  30.485  1.00  0.00     0.060 A 
ATOM     41  C   UNL A   1      39.150  30.388  31.392  1.00  0.00     0.016 A 
ATOM     42  C   UNL A   1      38.326  30.311  29.110  1.00  0.00     0.016 A 
ATOM     43  C   UNL A   1      40.443  30.134  30.920  1.00  0.00     0.010 A 
ATOM     44  C   UNL A   1      39.617  30.062  28.641  1.00  0.00     0.010 A 
ATOM     45  C   UNL A   1      40.679  29.941  29.546  1.00  0.00    -0.014 A 
BRANCH  45  46
ATOM     46  C   UNL A   1      41.987  29.422  29.075  1.00  0.00     0.031 A 
ATOM     47  C   UNL A   1      42.177  27.993  28.669  1.00  0.00     0.074 A 
ATOM     48  C   UNL A   1      43.028  30.278  29.050  1.00  0.00     0.049 A 
ATOM     49  N   UNL A   1      43.241  27.426  28.160  1.00  0.00    -0.248 NA
ATOM     50  C   UNL A   1      41.040  27.080  28.859  1.00  0.00     0.031 C 
ATOM     51  C   UNL A   1      42.970  31.682  29.463  1.00  0.00     0.029 A 
ATOM     52  N   UNL A   1      44.331  30.101  28.654  1.00  0.00    -0.354 N 
ATOM     53  C   UNL A   1      42.899  26.099  27.941  1.00  0.00     0.074 A 
ATOM     54  C   UNL A   1      41.541  25.931  28.416  1.00  0.00     0.031 C 
ATOM     55  C   UNL A   1      44.170  32.248  29.262  1.00  0.00     0.029 A 
ATOM     56  C   UNL A   1      45.088  31.246  28.730  1.00  0.00     0.049 A 
ATOM     57  H   UNL A   1      44.688  29.237  28.346  1.00  0.00     0.167 HD
ATOM     58  C   UNL A   1      43.646  25.122  27.374  1.00  0.00     0.031 A 
ATOM     59  C   UNL A   1      46.372  31.474  28.394  1.00  0.00     0.031 A 
ATOM     60  C   UNL A   1      45.003  25.296  26.919  1.00  0.00     0.049 A 
ATOM     61  C   UNL A   1      47.188  30.358  27.810  1.00  0.00     0.074 A 
ATOM     62  C   UNL A   1      45.814  24.374  26.277  1.00  0.00     0.029 A 
ATOM     63  N   UNL A   1      45.754  26.453  27.062  1.00  0.00    -0.354 N 
ATOM     64  N   UNL A   1      46.819  29.132  27.529  1.00  0.00    -0.248 NA
ATOM     65  C   UNL A   1      48.590  30.658  27.486  1.00  0.00     0.031 C 
ATOM     66  C   UNL A   1      47.073  24.951  26.090  1.00  0.00     0.029 A 
ATOM     67  C   UNL A   1      47.028  26.255  26.556  1.00  0.00     0.049 A 
ATOM     68  H   UNL A   1      45.429  27.291  27.464  1.00  0.00     0.167 HD
ATOM     69  C   UNL A   1      47.940  28.517  26.984  1.00  0.00     0.074 A 
ATOM     70  C   UNL A   1      48.992  29.512  26.953  1.00  0.00     0.031 C 
ATOM     71  C   UNL A   1      48.080  27.241  26.550  1.00  0.00     0.031 A 
BRANCH  58  72
ATOM     72  C   UNL A   1      43.023  23.767  27.164  1.00  0.00    -0.014 A 
ATOM     73  C   UNL A   1      43.180  22.761  28.135  1.00  0.00     0.010 A 
ATOM     74  C   UNL A   1      42.439  23.441  25.927  1.00  0.00     0.010 A 
ATOM     75  C   UNL A   1      42.802  21.443  27.858  1.00  0.00     0.020 A 
ATOM     76  C   UNL A   1      42.042  22.129  25.653  1.00  0.00     0.020 A 
ATOM     77  C   UNL A   1      42.252  21.134  26.611  1.00  0.00     0.054 A 
BRANCH  77  78
ATOM     78  S   UNL A   1      41.833  19.407  26.240  1.00  0.00     0.124 S 
ATOM     79  O   UNL A   1      42.672  19.128  25.078  1.00  0.00    -0.237 OA
ATOM     80  O   UNL A   1      42.211  18.717  27.472  1.00  0.00    -0.237 OA
ATOM     81  O   UNL A   1      40.396  19.452  25.979  1.00  0.00    -0.744 OA
ENDBRANCH  77  78
ENDBRANCH  58  72
BRANCH  59  82
ATOM     82  C   UNL A   1      46.937  32.841  28.554  1.00  0.00    -0.014 A 
ATOM     83  C   UNL A   1      47.532  33.233  29.766  1.00  0.00     0.010 A 
ATOM     84  C   UNL A   1      46.826  33.774  27.509  1.00  0.00     0.010 A 
ATOM     85  C   UNL A   1      47.976  34.545  29.943  1.00  0.00     0.020 A 
ATOM     86  C   UNL A   1      47.294  35.081  27.674  1.00  0.00     0.020 A 
ATOM     87  C   UNL A   1      47.845  35.464  28.899  1.00  0.00     0.054 A 
BRANCH  87  88
ATOM     88  S   UNL A   1      48.412  37.168  29.152  1.00  0.00     0.124 S 
ATOM     89  O   UNL A   1      49.404  37.314  28.090  1.00  0.00    -0.237 OA
ATOM     90  O   UNL A   1      47.187  37.945  28.978  1.00  0.00    -0.237 OA
ATOM     91  O   UNL A   1      48.946  37.152  30.511  1.00  0.00    -0.744 OA
ENDBRANCH  87  88
ENDBRANCH  59  82
BRANCH  71  92
ATOM     92  C   UNL A   1      49.425  26.826  26.016  1.00  0.00    -0.014 A 
ATOM     93  C   UNL A   1      50.396  26.300  26.887  1.00  0.00     0.010 A 
ATOM     94  C   UNL A   1      49.760  27.040  24.667  1.00  0.00     0.010 A 
ATOM     95  C   UNL A   1      51.684  26.015  26.425  1.00  0.00     0.020 A 
ATOM     96  C   UNL A   1      51.038  26.730  24.194  1.00  0.00     0.020 A 
ATOM     97  C   UNL A   1      51.999  26.239  25.083  1.00  0.00     0.054 A 
BRANCH  97  98
ATOM     98  S   UNL A   1      53.674  25.862  24.495  1.00  0.00     0.124 S 
ATOM     99  O   UNL A   1      54.492  26.762  25.302  1.00  0.00    -0.237 OA
ATOM    100  O   UNL A   1      53.812  24.440  24.801  1.00  0.00    -0.237 OA
ATOM    101  O   UNL A   1      53.614  26.180  23.070  1.00  0.00    -0.744 OA
ENDBRANCH  97  98
ENDBRANCH  71  92
ENDBRANCH  45  46
ENDBRANCH  38  40
ENDBRANCH  37  38
ENDBRANCH  36  37
ENDBRANCH   1  36
TORSDOF 18
ENDMDL
MODEL 3
REMARK VINA RESULT:     -12.1      1.355      1.986
REMARK SMILES C[C@]12C(=O)N(c3ccc(C(=O)OCCOCCOC(=O)c4ccc(-c5c6nc(c(-c7ccc(S(=O)(=O)[O-])cc7)c7ccc([nH]7)c(-c7ccc(S(=O)(=O)[O-])cc7)c7nc(c(-c8ccc(S(=O)(=O)[O-])cc8)c8ccc5[nH]8)C=C7)C=C6)cc4)cc3)C(=O)[C@H]1[C@H]1c3ccccc3[C@@H]2c2ccccc21
REMARK SMILES IDX 16 1 15 2 14 3 13 4 12 5 10 6 11 7 9 8 6 9 7 10 82 11 8 12
REMARK SMILES IDX 81 13 5 14 1 15 2 16 3 17 85 18 93 19 4 20 83 21 86 22 92 23
REMARK SMILES IDX 94 24 84 25 87 26 99 27 91 28 95 29 88 30 98 31 90 32 96 33
REMARK SMILES IDX 89 34 97 35 17 36 18 37 19 38 20 39 21 40 22 41 80 42 23 43
REMARK SMILES IDX 79 44 24 45 25 46 26 47 73 48 27 49 78 50 72 51 74 52 28 53
REMARK SMILES IDX 77 54 71 55 70 56 29 58 59 59 40 60 58 61 41 62 44 63 57 64
REMARK SMILES IDX 75 65 42 66 43 67 56 69 76 70 45 71 30 72 31 73 39 74 32 75
REMARK SMILES IDX 38 76 33 77 34 78 35 79 36 80 37 81 60 82 61 83 69 84 62 85
REMARK SMILES IDX 68 86 63 87 64 88 65 89 66 90 67 91 46 92 47 93 55 94 48 95
REMARK SMILES IDX 54 96 49 97 50 98 51 99 52 100 53 101
REMARK H PARENT 74 57 44 68
REMARK Flexibility Score: inf
ROOT
ATOM      1  C   UNL A   1      39.481  22.962  26.720  1.00  0.00     0.202 C 
ENDROOT
BRANCH   1   2
ATOM      2  O   UNL A   1      39.260  21.587  26.407  1.00  0.00    -0.374 OA
BRANCH   2   3
ATOM      3  C   UNL A   1      38.396  21.295  25.304  1.00  0.00     0.202 C 
BRANCH   3   4
ATOM      4  C   UNL A   1      37.045  22.018  25.307  1.00  0.00     0.261 C 
BRANCH   4   5
ATOM      5  O   UNL A   1      37.133  23.246  24.561  1.00  0.00    -0.460 OA
BRANCH   5   6
ATOM      6  C   UNL A   1      36.230  23.353  23.562  1.00  0.00     0.338 C 
ATOM      7  O   UNL A   1      36.343  22.976  22.407  1.00  0.00    -0.246 OA
BRANCH   6   8
ATOM      8  C   UNL A   1      34.940  23.772  24.126  1.00  0.00     0.060 A 
ATOM      9  C   UNL A   1      32.456  24.891  24.819  1.00  0.00     0.052 A 
ATOM     10  C   UNL A   1      32.566  23.945  23.780  1.00  0.00     0.028 A 
ATOM     11  C   UNL A   1      33.602  25.159  25.583  1.00  0.00     0.028 A 
ATOM     12  C   UNL A   1      33.801  23.425  23.407  1.00  0.00     0.018 A 
ATOM     13  C   UNL A   1      34.844  24.590  25.249  1.00  0.00     0.018 A 
BRANCH   9  14
ATOM     14  N   UNL A   1      31.274  25.687  24.889  1.00  0.00    -0.250 N 
ATOM     15  C   UNL A   1      28.144  26.854  23.764  1.00  0.00     0.024 C 
ATOM     16  C   UNL A   1      29.669  27.014  23.825  1.00  0.00     0.071 C 
ATOM     17  C   UNL A   1      30.302  25.656  23.919  1.00  0.00     0.241 C 
ATOM     18  C   UNL A   1      30.112  27.729  25.132  1.00  0.00     0.107 C 
ATOM     19  C   UNL A   1      30.290  27.741  22.575  1.00  0.00     0.066 C 
ATOM     20  O   UNL A   1      29.973  24.721  23.198  1.00  0.00    -0.273 OA
ATOM     21  C   UNL A   1      31.073  26.734  25.770  1.00  0.00     0.238 C 
ATOM     22  C   UNL A   1      30.826  29.079  24.784  1.00  0.00     0.063 C 
ATOM     23  C   UNL A   1      31.795  27.960  22.814  1.00  0.00    -0.036 A 
ATOM     24  C   UNL A   1      29.669  29.130  22.593  1.00  0.00    -0.036 A 
ATOM     25  O   UNL A   1      31.579  26.929  26.866  1.00  0.00    -0.274 OA
ATOM     26  C   UNL A   1      32.078  28.699  23.995  1.00  0.00    -0.036 A 
ATOM     27  C   UNL A   1      29.924  29.843  23.798  1.00  0.00    -0.036 A 
ATOM     28  C   UNL A   1      32.833  27.485  22.026  1.00  0.00     0.005 A 
ATOM     29  C   UNL A   1      28.946  29.694  21.551  1.00  0.00     0.005 A 
ATOM     30  C   UNL A   1      33.385  28.950  24.390  1.00  0.00     0.004 A 
ATOM     31  C   UNL A   1      29.446  31.135  23.946  1.00  0.00     0.004 A 
ATOM     32  C   UNL A   1      34.149  27.729  22.433  1.00  0.00     0.000 A 
ATOM     33  C   UNL A   1      28.465  30.991  21.711  1.00  0.00     0.000 A 
ATOM     34  C   UNL A   1      34.422  28.454  23.603  1.00  0.00     0.000 A 
ATOM     35  C   UNL A   1      28.712  31.703  22.896  1.00  0.00     0.000 A 
ENDBRANCH   9  14
ENDBRANCH   6   8
ENDBRANCH   5   6
ENDBRANCH   4   5
ENDBRANCH   3   4
ENDBRANCH   2   3
ENDBRANCH   1   2
BRANCH   1  36
ATOM     36  C   UNL A   1      40.931  23.456  26.657  1.00  0.00     0.261 C 
BRANCH  36  37
ATOM     37  O   UNL A   1      41.144  24.603  27.494  1.00  0.00    -0.460 OA
BRANCH  37  38
ATOM     38  C   UNL A   1      40.689  25.773  26.980  1.00  0.00     0.338 C 
ATOM     39  O   UNL A   1      40.386  25.993  25.818  1.00  0.00    -0.246 OA
BRANCH  38  40
ATOM     40  C   UNL A   1      40.424  26.736  28.071  1.00  0.00     0.060 A 
ATOM     41  C   UNL A   1      39.518  26.469  29.101  1.00  0.00     0.016 A 
ATOM     42  C   UNL A   1      41.148  27.935  28.060  1.00  0.00     0.016 A 
ATOM     43  C   UNL A   1      39.384  27.385  30.151  1.00  0.00     0.010 A 
ATOM     44  C   UNL A   1      41.010  28.849  29.105  1.00  0.00     0.010 A 
ATOM     45  C   UNL A   1      40.150  28.565  30.174  1.00  0.00    -0.014 A 
BRANCH  45  46
ATOM     46  C   UNL A   1      40.200  29.404  31.397  1.00  0.00     0.031 A 
ATOM     47  C   UNL A   1      39.179  30.462  31.679  1.00  0.00     0.074 A 
ATOM     48  C   UNL A   1      41.225  29.208  32.250  1.00  0.00     0.049 A 
ATOM     49  N   UNL A   1      39.053  31.209  32.746  1.00  0.00    -0.248 NA
ATOM     50  C   UNL A   1      38.172  30.724  30.639  1.00  0.00     0.031 C 
ATOM     51  C   UNL A   1      42.302  28.233  32.056  1.00  0.00     0.029 A 
ATOM     52  N   UNL A   1      41.527  29.804  33.449  1.00  0.00    -0.354 N 
ATOM     53  C   UNL A   1      37.942  32.010  32.524  1.00  0.00     0.074 A 
ATOM     54  C   UNL A   1      37.453  31.693  31.199  1.00  0.00     0.031 C 
ATOM     55  C   UNL A   1      43.123  28.271  33.117  1.00  0.00     0.029 A 
ATOM     56  C   UNL A   1      42.647  29.285  34.053  1.00  0.00     0.049 A 
ATOM     57  H   UNL A   1      40.992  30.532  33.839  1.00  0.00     0.167 HD
ATOM     58  C   UNL A   1      37.375  32.910  33.362  1.00  0.00     0.031 A 
ATOM     59  C   UNL A   1      43.222  29.576  35.236  1.00  0.00     0.031 A 
ATOM     60  C   UNL A   1      37.880  33.230  34.674  1.00  0.00     0.049 A 
ATOM     61  C   UNL A   1      42.594  30.611  36.124  1.00  0.00     0.074 A 
ATOM     62  C   UNL A   1      37.331  34.088  35.615  1.00  0.00     0.029 A 
ATOM     63  N   UNL A   1      39.046  32.727  35.229  1.00  0.00    -0.354 N 
ATOM     64  N   UNL A   1      41.493  31.295  35.933  1.00  0.00    -0.248 NA
ATOM     65  C   UNL A   1      43.279  30.905  37.390  1.00  0.00     0.031 C 
ATOM     66  C   UNL A   1      38.197  34.150  36.710  1.00  0.00     0.029 A 
ATOM     67  C   UNL A   1      39.252  33.283  36.481  1.00  0.00     0.049 A 
ATOM     68  H   UNL A   1      39.639  32.070  34.797  1.00  0.00     0.167 HD
ATOM     69  C   UNL A   1      41.345  32.093  37.061  1.00  0.00     0.074 A 
ATOM     70  C   UNL A   1      42.457  31.790  37.939  1.00  0.00     0.031 C 
ATOM     71  C   UNL A   1      40.374  32.995  37.341  1.00  0.00     0.031 A 
BRANCH  58  72
ATOM     72  C   UNL A   1      36.111  33.604  32.927  1.00  0.00    -0.014 A 
ATOM     73  C   UNL A   1      36.154  34.947  32.506  1.00  0.00     0.010 A 
ATOM     74  C   UNL A   1      34.864  32.981  33.108  1.00  0.00     0.010 A 
ATOM     75  C   UNL A   1      34.970  35.666  32.314  1.00  0.00     0.020 A 
ATOM     76  C   UNL A   1      33.678  33.693  32.898  1.00  0.00     0.020 A 
ATOM     77  C   UNL A   1      33.740  35.038  32.529  1.00  0.00     0.054 A 
BRANCH  77  78
ATOM     78  S   UNL A   1      32.216  36.007  32.345  1.00  0.00     0.124 S 
ATOM     79  O   UNL A   1      31.200  35.078  32.829  1.00  0.00    -0.237 OA
ATOM     80  O   UNL A   1      32.471  37.166  33.198  1.00  0.00    -0.237 OA
ATOM     81  O   UNL A   1      32.167  36.298  30.914  1.00  0.00    -0.744 OA
ENDBRANCH  77  78
ENDBRANCH  58  72
BRANCH  59  82
ATOM     82  C   UNL A   1      44.433  28.825  35.664  1.00  0.00    -0.014 A 
ATOM     83  C   UNL A   1      44.314  27.640  36.412  1.00  0.00     0.010 A 
ATOM     84  C   UNL A   1      45.712  29.327  35.372  1.00  0.00     0.010 A 
ATOM     85  C   UNL A   1      45.453  26.989  36.893  1.00  0.00     0.020 A 
ATOM     86  C   UNL A   1      46.855  28.664  35.828  1.00  0.00     0.020 A 
ATOM     87  C   UNL A   1      46.717  27.511  36.606  1.00  0.00     0.054 A 
BRANCH  87  88
ATOM     88  S   UNL A   1      48.185  26.664  37.250  1.00  0.00     0.124 S 
ATOM     89  O   UNL A   1      48.475  25.714  36.180  1.00  0.00    -0.237 OA
ATOM     90  O   UNL A   1      49.146  27.753  37.402  1.00  0.00    -0.237 OA
ATOM     91  O   UNL A   1      47.715  26.074  38.501  1.00  0.00    -0.744 OA
ENDBRANCH  87  88
ENDBRANCH  59  82
BRANCH  71  92
ATOM     92  C   UNL A   1      40.467  33.745  38.643  1.00  0.00    -0.014 A 
ATOM     93  C   UNL A   1      40.023  33.144  39.835  1.00  0.00     0.010 A 
ATOM     94  C   UNL A   1      40.910  35.080  38.673  1.00  0.00     0.010 A 
ATOM     95  C   UNL A   1      40.001  33.869  41.030  1.00  0.00     0.020 A 
ATOM     96  C   UNL A   1      40.916  35.799  39.872  1.00  0.00     0.020 A 
ATOM     97  C   UNL A   1      40.441  35.194  41.039  1.00  0.00     0.054 A 
BRANCH  97  98
ATOM     98  S   UNL A   1      40.410  36.123  42.597  1.00  0.00     0.124 S 
ATOM     99  O   UNL A   1      41.348  37.207  42.328  1.00  0.00    -0.237 OA
ATOM    100  O   UNL A   1      39.007  36.517  42.711  1.00  0.00    -0.237 OA
ATOM    101  O   UNL A   1      40.852  35.143  43.586  1.00  0.00    -0.744 OA
ENDBRANCH  97  98
ENDBRANCH  71  92
ENDBRANCH  45  46
ENDBRANCH  38  40
ENDBRANCH  37  38
ENDBRANCH  36  37
ENDBRANCH   1  36
TORSDOF 18
ENDMDL
