MODEL 1
REMARK VINA RESULT:     -10.3      0.000      0.000
REMARK SMILES O=C(OCCOCCOC(=O)[C@H]1CCCN(C(=O)c2cc(Br)ccc2Cl)C1)c1ccc(-c2c3nc(c(-c4ccc(S(=O)(=O)[O-])cc4)c4ccc([nH]4)c(-c4ccc(S(=O)(=O)[O-])cc4)c4nc(c(-c5ccc(S(=O)(=O)[O-])cc5)c5ccc2[nH]5)C=C4)C=C3)cc1
REMARK SMILES IDX 5 1 4 2 3 3 2 4 1 5 28 6 29 7 87 8 30 9 86 10 31 11 32 12
REMARK SMILES IDX 33 13 80 14 34 15 85 16 79 17 81 18 35 19 84 20 78 21 77 22
REMARK SMILES IDX 36 24 66 25 47 26 65 27 48 28 51 29 64 30 82 31 49 32 50 33
REMARK SMILES IDX 63 35 83 36 52 37 37 38 38 39 46 40 39 41 45 42 40 43 41 44
REMARK SMILES IDX 42 45 43 46 44 47 67 48 68 49 76 50 69 51 75 52 70 53 71 54
REMARK SMILES IDX 72 55 73 56 74 57 53 58 54 59 62 60 55 61 61 62 56 63 57 64
REMARK SMILES IDX 58 65 59 66 60 67 6 68 7 69 8 70 9 71 10 72 11 73 12 74
REMARK SMILES IDX 13 75 27 76 14 77 16 78 15 79 17 80 18 81 19 82 20 83 25 84
REMARK SMILES IDX 21 85 24 86 26 87 22 88 23 89
REMARK H PARENT 81 23 51 34
REMARK Flexibility Score: inf
ROOT
ATOM      1  C   UNL A   1      33.065  28.675  25.463  1.00  0.00     0.202 C 
ENDROOT
BRANCH   1   2
ATOM      2  C   UNL A   1      33.729  28.513  26.832  1.00  0.00     0.261 C 
BRANCH   2   3
ATOM      3  O   UNL A   1      33.565  29.709  27.608  1.00  0.00    -0.460 OA
BRANCH   3   4
ATOM      4  C   UNL A   1      34.527  30.545  28.064  1.00  0.00     0.338 C 
ATOM      5  O   UNL A   1      34.244  31.731  28.224  1.00  0.00    -0.246 OA
BRANCH   4   6
ATOM      6  C   UNL A   1      35.915  30.103  28.394  1.00  0.00     0.060 A 
ATOM      7  C   UNL A   1      36.313  29.546  29.611  1.00  0.00     0.016 A 
ATOM      8  C   UNL A   1      36.865  30.174  27.361  1.00  0.00     0.016 A 
ATOM      9  C   UNL A   1      37.615  29.136  29.833  1.00  0.00     0.010 A 
ATOM     10  C   UNL A   1      38.172  29.725  27.559  1.00  0.00     0.010 A 
ATOM     11  C   UNL A   1      38.549  29.222  28.808  1.00  0.00    -0.014 A 
BRANCH  11  12
ATOM     12  C   UNL A   1      39.937  28.866  29.131  1.00  0.00     0.031 A 
ATOM     13  C   UNL A   1      40.735  29.828  29.952  1.00  0.00     0.074 A 
ATOM     14  C   UNL A   1      40.389  27.638  28.819  1.00  0.00     0.049 A 
ATOM     15  N   UNL A   1      41.971  29.739  30.354  1.00  0.00    -0.248 NA
ATOM     16  C   UNL A   1      40.039  31.049  30.399  1.00  0.00     0.031 C 
ATOM     17  C   UNL A   1      39.605  26.597  28.147  1.00  0.00     0.029 A 
ATOM     18  N   UNL A   1      41.594  27.042  29.062  1.00  0.00    -0.354 N 
ATOM     19  C   UNL A   1      42.211  30.900  31.078  1.00  0.00     0.074 A 
ATOM     20  C   UNL A   1      40.997  31.682  31.059  1.00  0.00     0.031 C 
ATOM     21  C   UNL A   1      40.346  25.481  28.053  1.00  0.00     0.029 A 
ATOM     22  C   UNL A   1      41.672  25.752  28.593  1.00  0.00     0.049 A 
ATOM     23  H   UNL A   1      42.335  27.493  29.528  1.00  0.00     0.167 HD
ATOM     24  C   UNL A   1      43.357  31.274  31.691  1.00  0.00     0.031 A 
ATOM     25  C   UNL A   1      42.719  24.906  28.576  1.00  0.00     0.031 A 
ATOM     26  C   UNL A   1      44.551  30.475  31.664  1.00  0.00     0.049 A 
ATOM     27  C   UNL A   1      44.015  25.396  29.162  1.00  0.00     0.074 A 
ATOM     28  C   UNL A   1      45.803  30.771  32.165  1.00  0.00     0.029 A 
ATOM     29  N   UNL A   1      44.630  29.210  31.096  1.00  0.00    -0.354 N 
ATOM     30  N   UNL A   1      44.264  26.533  29.771  1.00  0.00    -0.248 NA
ATOM     31  C   UNL A   1      45.175  24.504  29.047  1.00  0.00     0.031 C 
ATOM     32  C   UNL A   1      46.652  29.702  31.856  1.00  0.00     0.029 A 
ATOM     33  C   UNL A   1      45.913  28.715  31.216  1.00  0.00     0.049 A 
ATOM     34  H   UNL A   1      43.880  28.734  30.669  1.00  0.00     0.167 HD
ATOM     35  C   UNL A   1      45.605  26.489  30.126  1.00  0.00     0.074 A 
ATOM     36  C   UNL A   1      46.107  25.201  29.681  1.00  0.00     0.031 C 
ATOM     37  C   UNL A   1      46.361  27.424  30.756  1.00  0.00     0.031 A 
BRANCH  24  38
ATOM     38  C   UNL A   1      43.373  32.629  32.344  1.00  0.00    -0.014 A 
ATOM     39  C   UNL A   1      43.021  32.801  33.695  1.00  0.00     0.010 A 
ATOM     40  C   UNL A   1      43.709  33.758  31.576  1.00  0.00     0.010 A 
ATOM     41  C   UNL A   1      42.961  34.082  34.253  1.00  0.00     0.020 A 
ATOM     42  C   UNL A   1      43.674  35.038  32.137  1.00  0.00     0.020 A 
ATOM     43  C   UNL A   1      43.280  35.193  33.466  1.00  0.00     0.054 A 
BRANCH  43  44
ATOM     44  S   UNL A   1      43.183  36.846  34.209  1.00  0.00     0.124 S 
ATOM     45  O   UNL A   1      44.319  36.830  35.127  1.00  0.00    -0.237 OA
ATOM     46  O   UNL A   1      43.323  37.727  33.052  1.00  0.00    -0.237 OA
ATOM     47  O   UNL A   1      41.868  36.863  34.846  1.00  0.00    -0.744 OA
ENDBRANCH  43  44
ENDBRANCH  24  38
BRANCH  25  48
ATOM     48  C   UNL A   1      42.600  23.568  27.929  1.00  0.00    -0.014 A 
ATOM     49  C   UNL A   1      42.955  23.374  26.583  1.00  0.00     0.010 A 
ATOM     50  C   UNL A   1      42.124  22.469  28.670  1.00  0.00     0.010 A 
ATOM     51  C   UNL A   1      42.813  22.115  25.986  1.00  0.00     0.020 A 
ATOM     52  C   UNL A   1      42.012  21.203  28.087  1.00  0.00     0.020 A 
ATOM     53  C   UNL A   1      42.341  21.037  26.742  1.00  0.00     0.054 A 
BRANCH  53  54
ATOM     54  S   UNL A   1      42.186  19.409  25.957  1.00  0.00     0.124 S 
ATOM     55  O   UNL A   1      42.733  18.525  26.982  1.00  0.00    -0.237 OA
ATOM     56  O   UNL A   1      40.748  19.302  25.728  1.00  0.00    -0.237 OA
ATOM     57  O   UNL A   1      42.994  19.534  24.745  1.00  0.00    -0.744 OA
ENDBRANCH  53  54
ENDBRANCH  25  48
BRANCH  37  58
ATOM     58  C   UNL A   1      47.794  27.065  31.025  1.00  0.00    -0.014 A 
ATOM     59  C   UNL A   1      48.147  26.259  32.121  1.00  0.00     0.010 A 
ATOM     60  C   UNL A   1      48.789  27.489  30.125  1.00  0.00     0.010 A 
ATOM     61  C   UNL A   1      49.480  25.903  32.326  1.00  0.00     0.020 A 
ATOM     62  C   UNL A   1      50.117  27.110  30.313  1.00  0.00     0.020 A 
ATOM     63  C   UNL A   1      50.456  26.329  31.419  1.00  0.00     0.054 A 
BRANCH  63  64
ATOM     64  S   UNL A   1      52.172  25.804  31.676  1.00  0.00     0.124 S 
ATOM     65  O   UNL A   1      52.622  26.736  32.706  1.00  0.00    -0.237 OA
ATOM     66  O   UNL A   1      52.022  24.416  32.104  1.00  0.00    -0.237 OA
ATOM     67  O   UNL A   1      52.787  25.981  30.362  1.00  0.00    -0.744 OA
ENDBRANCH  63  64
ENDBRANCH  37  58
ENDBRANCH  11  12
ENDBRANCH   4   6
ENDBRANCH   3   4
ENDBRANCH   2   3
ENDBRANCH   1   2
BRANCH   1  68
ATOM     68  O   UNL A   1      33.866  28.310  24.336  1.00  0.00    -0.374 OA
BRANCH  68  69
ATOM     69  C   UNL A   1      33.377  28.710  23.048  1.00  0.00     0.202 C 
BRANCH  69  70
ATOM     70  C   UNL A   1      33.606  27.582  22.040  1.00  0.00     0.261 C 
BRANCH  70  71
ATOM     71  O   UNL A   1      32.432  26.759  22.056  1.00  0.00    -0.463 OA
BRANCH  71  72
ATOM     72  C   UNL A   1      32.654  25.486  22.486  1.00  0.00     0.310 C 
ATOM     73  O   UNL A   1      33.180  24.605  21.819  1.00  0.00    -0.252 OA
BRANCH  72  74
ATOM     74  C   UNL A   1      32.284  25.339  23.949  1.00  0.00     0.119 C 
ATOM     75  C   UNL A   1      30.920  25.964  24.292  1.00  0.00     0.019 C 
ATOM     76  C   UNL A   1      32.364  23.868  24.331  1.00  0.00     0.135 C 
ATOM     77  C   UNL A   1      30.509  25.664  25.727  1.00  0.00     0.022 C 
ATOM     78  N   UNL A   1      31.863  23.636  25.686  1.00  0.00    -0.338 N 
ATOM     79  C   UNL A   1      30.529  24.163  25.971  1.00  0.00     0.120 C 
BRANCH  78  80
ATOM     80  C   UNL A   1      32.659  22.944  26.592  1.00  0.00     0.255 C 
ATOM     81  O   UNL A   1      32.397  22.802  27.781  1.00  0.00    -0.269 OA
BRANCH  80  82
ATOM     82  C   UNL A   1      33.906  22.340  26.095  1.00  0.00     0.059 A 
ATOM     83  C   UNL A   1      35.094  23.066  26.251  1.00  0.00     0.031 A 
ATOM     84  C   UNL A   1      33.910  21.090  25.463  1.00  0.00     0.053 A 
ATOM     85  C   UNL A   1      36.292  22.505  25.816  1.00  0.00     0.018 A 
ATOM     86  C   UNL A   1      35.120  20.535  25.046  1.00  0.00     0.022 A 
ATOM     87  Cl  UNL A   1      32.470  20.186  25.153  1.00  0.00    -0.083 Cl
ATOM     88  Br  UNL A   1      37.910  23.460  26.025  1.00  0.00    -0.051 Br
ATOM     89  C   UNL A   1      36.314  21.240  25.227  1.00  0.00     0.017 A 
ENDBRANCH  80  82
ENDBRANCH  78  80
ENDBRANCH  72  74
ENDBRANCH  71  72
ENDBRANCH  70  71
ENDBRANCH  69  70
ENDBRANCH  68  69
ENDBRANCH   1  68
TORSDOF 19
ENDMDL
MODEL 2
REMARK VINA RESULT:     -10.1      1.111      8.302
REMARK SMILES O=C(OCCOCCOC(=O)[C@H]1CCCN(C(=O)c2cc(Br)ccc2Cl)C1)c1ccc(-c2c3nc(c(-c4ccc(S(=O)(=O)[O-])cc4)c4ccc([nH]4)c(-c4ccc(S(=O)(=O)[O-])cc4)c4nc(c(-c5ccc(S(=O)(=O)[O-])cc5)c5ccc2[nH]5)C=C4)C=C3)cc1
REMARK SMILES IDX 5 1 4 2 3 3 2 4 1 5 28 6 29 7 87 8 30 9 86 10 31 11 32 12
REMARK SMILES IDX 33 13 80 14 34 15 85 16 79 17 81 18 35 19 84 20 78 21 77 22
REMARK SMILES IDX 36 24 66 25 47 26 65 27 48 28 51 29 64 30 82 31 49 32 50 33
REMARK SMILES IDX 63 35 83 36 52 37 37 38 38 39 46 40 39 41 45 42 40 43 41 44
REMARK SMILES IDX 42 45 43 46 44 47 67 48 68 49 76 50 69 51 75 52 70 53 71 54
REMARK SMILES IDX 72 55 73 56 74 57 53 58 54 59 62 60 55 61 61 62 56 63 57 64
REMARK SMILES IDX 58 65 59 66 60 67 6 68 7 69 8 70 9 71 10 72 11 73 12 74
REMARK SMILES IDX 13 75 27 76 14 77 16 78 15 79 17 80 18 81 19 82 20 83 25 84
REMARK SMILES IDX 21 85 24 86 26 87 22 88 23 89
REMARK H PARENT 81 23 51 34
REMARK Flexibility Score: inf
ROOT
ATOM      1  C   UNL A   1      32.158  29.627  25.335  1.00  0.00     0.202 C 
ENDROOT
BRANCH   1   2
ATOM      2  C   UNL A   1      32.308  29.739  26.855  1.00  0.00     0.261 C 
BRANCH   2   3
ATOM      3  O   UNL A   1      33.673  29.522  27.237  1.00  0.00    -0.460 OA
BRANCH   3   4
ATOM      4  C   UNL A   1      34.482  30.347  27.943  1.00  0.00     0.338 C 
ATOM      5  O   UNL A   1      34.039  31.440  28.293  1.00  0.00    -0.246 OA
BRANCH   4   6
ATOM      6  C   UNL A   1      35.882  30.000  28.327  1.00  0.00     0.060 A 
ATOM      7  C   UNL A   1      36.279  29.542  29.586  1.00  0.00     0.016 A 
ATOM      8  C   UNL A   1      36.851  30.054  27.311  1.00  0.00     0.016 A 
ATOM      9  C   UNL A   1      37.595  29.215  29.860  1.00  0.00     0.010 A 
ATOM     10  C   UNL A   1      38.174  29.686  27.563  1.00  0.00     0.010 A 
ATOM     11  C   UNL A   1      38.547  29.284  28.850  1.00  0.00    -0.014 A 
BRANCH  11  12
ATOM     12  C   UNL A   1      39.943  29.022  29.222  1.00  0.00     0.031 A 
ATOM     13  C   UNL A   1      40.535  27.702  28.844  1.00  0.00     0.074 A 
ATOM     14  C   UNL A   1      40.681  30.020  29.742  1.00  0.00     0.049 A 
ATOM     15  N   UNL A   1      41.734  27.243  29.070  1.00  0.00    -0.248 NA
ATOM     16  C   UNL A   1      39.665  26.780  28.091  1.00  0.00     0.031 C 
ATOM     17  C   UNL A   1      40.197  31.381  29.998  1.00  0.00     0.029 A 
ATOM     18  N   UNL A   1      41.997  30.060  30.108  1.00  0.00    -0.354 N 
ATOM     19  C   UNL A   1      41.755  25.971  28.511  1.00  0.00     0.074 A 
ATOM     20  C   UNL A   1      40.452  25.726  27.939  1.00  0.00     0.031 C 
ATOM     21  C   UNL A   1      41.214  32.128  30.458  1.00  0.00     0.029 A 
ATOM     22  C   UNL A   1      42.394  31.283  30.593  1.00  0.00     0.049 A 
ATOM     23  H   UNL A   1      42.602  29.288  30.031  1.00  0.00     0.167 HD
ATOM     24  C   UNL A   1      42.780  25.089  28.495  1.00  0.00     0.031 A 
ATOM     25  C   UNL A   1      43.574  31.656  31.121  1.00  0.00     0.031 A 
ATOM     26  C   UNL A   1      44.054  25.364  29.098  1.00  0.00     0.049 A 
ATOM     27  C   UNL A   1      44.659  30.616  31.196  1.00  0.00     0.074 A 
ATOM     28  C   UNL A   1      45.147  24.532  29.234  1.00  0.00     0.029 A 
ATOM     29  N   UNL A   1      44.398  26.583  29.672  1.00  0.00    -0.354 N 
ATOM     30  N   UNL A   1      44.648  29.383  30.743  1.00  0.00    -0.248 NA
ATOM     31  C   UNL A   1      45.906  31.005  31.864  1.00  0.00     0.031 C 
ATOM     32  C   UNL A   1      46.136  25.234  29.933  1.00  0.00     0.029 A 
ATOM     33  C   UNL A   1      45.681  26.522  30.179  1.00  0.00     0.049 A 
ATOM     34  H   UNL A   1      43.813  27.374  29.711  1.00  0.00     0.167 HD
ATOM     35  C   UNL A   1      45.890  28.851  31.058  1.00  0.00     0.074 A 
ATOM     36  C   UNL A   1      46.635  29.907  31.721  1.00  0.00     0.031 C 
ATOM     37  C   UNL A   1      46.377  27.605  30.830  1.00  0.00     0.031 A 
BRANCH  24  38
ATOM     38  C   UNL A   1      42.511  23.738  27.889  1.00  0.00    -0.014 A 
ATOM     39  C   UNL A   1      41.979  22.681  28.650  1.00  0.00     0.010 A 
ATOM     40  C   UNL A   1      42.836  23.514  26.539  1.00  0.00     0.010 A 
ATOM     41  C   UNL A   1      41.819  21.413  28.084  1.00  0.00     0.020 A 
ATOM     42  C   UNL A   1      42.654  22.254  25.963  1.00  0.00     0.020 A 
ATOM     43  C   UNL A   1      42.166  21.206  26.744  1.00  0.00     0.054 A 
BRANCH  43  44
ATOM     44  S   UNL A   1      41.961  19.548  26.035  1.00  0.00     0.124 S 
ATOM     45  O   UNL A   1      42.425  18.695  27.127  1.00  0.00    -0.237 OA
ATOM     46  O   UNL A   1      40.528  19.492  25.760  1.00  0.00    -0.237 OA
ATOM     47  O   UNL A   1      42.820  19.568  24.853  1.00  0.00    -0.744 OA
ENDBRANCH  43  44
ENDBRANCH  24  38
BRANCH  25  48
ATOM     48  C   UNL A   1      43.757  33.029  31.673  1.00  0.00    -0.014 A 
ATOM     49  C   UNL A   1      43.485  33.316  33.021  1.00  0.00     0.010 A 
ATOM     50  C   UNL A   1      44.210  34.069  30.838  1.00  0.00     0.010 A 
ATOM     51  C   UNL A   1      43.639  34.617  33.516  1.00  0.00     0.020 A 
ATOM     52  C   UNL A   1      44.396  35.362  31.334  1.00  0.00     0.020 A 
ATOM     53  C   UNL A   1      44.093  35.633  32.669  1.00  0.00     0.054 A 
BRANCH  53  54
ATOM     54  S   UNL A   1      44.308  37.307  33.334  1.00  0.00     0.124 S 
ATOM     55  O   UNL A   1      42.959  37.628  33.791  1.00  0.00    -0.237 OA
ATOM     56  O   UNL A   1      45.302  37.106  34.383  1.00  0.00    -0.237 OA
ATOM     57  O   UNL A   1      44.776  38.076  32.181  1.00  0.00    -0.744 OA
ENDBRANCH  53  54
ENDBRANCH  25  48
BRANCH  37  58
ATOM     58  C   UNL A   1      47.787  27.339  31.272  1.00  0.00    -0.014 A 
ATOM     59  C   UNL A   1      48.057  26.753  32.522  1.00  0.00     0.010 A 
ATOM     60  C   UNL A   1      48.848  27.619  30.393  1.00  0.00     0.010 A 
ATOM     61  C   UNL A   1      49.372  26.475  32.894  1.00  0.00     0.020 A 
ATOM     62  C   UNL A   1      50.161  27.315  30.751  1.00  0.00     0.020 A 
ATOM     63  C   UNL A   1      50.416  26.756  32.005  1.00  0.00     0.054 A 
BRANCH  63  64
ATOM     64  S   UNL A   1      52.110  26.331  32.488  1.00  0.00     0.124 S 
ATOM     65  O   UNL A   1      51.887  25.293  33.490  1.00  0.00    -0.237 OA
ATOM     66  O   UNL A   1      52.697  25.876  31.230  1.00  0.00    -0.237 OA
ATOM     67  O   UNL A   1      52.649  27.589  33.000  1.00  0.00    -0.744 OA
ENDBRANCH  63  64
ENDBRANCH  37  58
ENDBRANCH  11  12
ENDBRANCH   4   6
ENDBRANCH   3   4
ENDBRANCH   2   3
ENDBRANCH   1   2
BRANCH   1  68
ATOM     68  O   UNL A   1      30.845  29.325  24.860  1.00  0.00    -0.374 OA
BRANCH  68  69
ATOM     69  C   UNL A   1      30.590  29.591  23.473  1.00  0.00     0.202 C 
BRANCH  69  70
ATOM     70  C   UNL A   1      29.549  28.602  22.945  1.00  0.00     0.261 C 
BRANCH  70  71
ATOM     71  O   UNL A   1      30.243  27.387  22.634  1.00  0.00    -0.463 OA
BRANCH  71  72
ATOM     72  C   UNL A   1      30.031  26.383  23.528  1.00  0.00     0.310 C 
ATOM     73  O   UNL A   1      29.024  26.258  24.212  1.00  0.00    -0.252 OA
BRANCH  72  74
ATOM     74  C   UNL A   1      31.150  25.362  23.469  1.00  0.00     0.119 C 
ATOM     75  C   UNL A   1      31.929  25.396  22.141  1.00  0.00     0.019 C 
ATOM     76  C   UNL A   1      32.053  25.550  24.679  1.00  0.00     0.135 C 
ATOM     77  C   UNL A   1      33.138  24.472  22.174  1.00  0.00     0.022 C 
ATOM     78  N   UNL A   1      33.244  24.704  24.599  1.00  0.00    -0.338 N 
ATOM     79  C   UNL A   1      34.021  24.811  23.365  1.00  0.00     0.120 C 
BRANCH  78  80
ATOM     80  C   UNL A   1      33.560  23.878  25.672  1.00  0.00     0.255 C 
ATOM     81  O   UNL A   1      32.998  23.907  26.761  1.00  0.00    -0.269 OA
BRANCH  80  82
ATOM     82  C   UNL A   1      34.648  22.903  25.496  1.00  0.00     0.059 A 
ATOM     83  C   UNL A   1      35.944  23.292  25.857  1.00  0.00     0.031 A 
ATOM     84  C   UNL A   1      34.408  21.630  24.961  1.00  0.00     0.053 A 
ATOM     85  C   UNL A   1      36.987  22.379  25.727  1.00  0.00     0.018 A 
ATOM     86  C   UNL A   1      35.460  20.721  24.851  1.00  0.00     0.022 A 
ATOM     87  Cl  UNL A   1      32.852  21.120  24.406  1.00  0.00    -0.083 Cl
ATOM     88  Br  UNL A   1      38.743  22.878  26.219  1.00  0.00    -0.051 Br
ATOM     89  C   UNL A   1      36.750  21.093  25.239  1.00  0.00     0.017 A 
ENDBRANCH  80  82
ENDBRANCH  78  80
ENDBRANCH  72  74
ENDBRANCH  71  72
ENDBRANCH  70  71
ENDBRANCH  69  70
ENDBRANCH  68  69
ENDBRANCH   1  68
TORSDOF 19
ENDMDL
MODEL 3
REMARK VINA RESULT:     -10.1      4.435      9.571
REMARK SMILES O=C(OCCOCCOC(=O)[C@H]1CCCN(C(=O)c2cc(Br)ccc2Cl)C1)c1ccc(-c2c3nc(c(-c4ccc(S(=O)(=O)[O-])cc4)c4ccc([nH]4)c(-c4ccc(S(=O)(=O)[O-])cc4)c4nc(c(-c5ccc(S(=O)(=O)[O-])cc5)c5ccc2[nH]5)C=C4)C=C3)cc1
REMARK SMILES IDX 5 1 4 2 3 3 2 4 1 5 28 6 29 7 87 8 30 9 86 10 31 11 32 12
REMARK SMILES IDX 33 13 80 14 34 15 85 16 79 17 81 18 35 19 84 20 78 21 77 22
REMARK SMILES IDX 36 24 66 25 47 26 65 27 48 28 51 29 64 30 82 31 49 32 50 33
REMARK SMILES IDX 63 35 83 36 52 37 37 38 38 39 46 40 39 41 45 42 40 43 41 44
REMARK SMILES IDX 42 45 43 46 44 47 67 48 68 49 76 50 69 51 75 52 70 53 71 54
REMARK SMILES IDX 72 55 73 56 74 57 53 58 54 59 62 60 55 61 61 62 56 63 57 64
REMARK SMILES IDX 58 65 59 66 60 67 6 68 7 69 8 70 9 71 10 72 11 73 12 74
REMARK SMILES IDX 13 75 27 76 14 77 16 78 15 79 17 80 18 81 19 82 20 83 25 84
REMARK SMILES IDX 21 85 24 86 26 87 22 88 23 89
REMARK H PARENT 81 23 51 34
REMARK Flexibility Score: inf
ROOT
ATOM      1  C   UNL A   1      39.489  21.780  26.357  1.00  0.00     0.202 C 
ENDROOT
BRANCH   1   2
ATOM      2  C   UNL A   1      40.305  22.907  26.994  1.00  0.00     0.261 C 
BRANCH   2   3
ATOM      3  O   UNL A   1      39.927  24.172  26.433  1.00  0.00    -0.460 OA
BRANCH   3   4
ATOM      4  C   UNL A   1      40.628  25.330  26.441  1.00  0.00     0.338 C 
ATOM      5  O   UNL A   1      41.326  25.597  25.465  1.00  0.00    -0.246 OA
BRANCH   4   6
ATOM      6  C   UNL A   1      40.594  26.308  27.570  1.00  0.00     0.060 A 
ATOM      7  C   UNL A   1      41.371  27.466  27.653  1.00  0.00     0.016 A 
ATOM      8  C   UNL A   1      39.637  26.083  28.574  1.00  0.00     0.016 A 
ATOM      9  C   UNL A   1      41.264  28.339  28.720  1.00  0.00     0.010 A 
ATOM     10  C   UNL A   1      39.491  26.979  29.635  1.00  0.00     0.010 A 
ATOM     11  C   UNL A   1      40.322  28.100  29.714  1.00  0.00    -0.014 A 
BRANCH  11  12
ATOM     12  C   UNL A   1      40.323  29.005  30.871  1.00  0.00     0.031 A 
ATOM     13  C   UNL A   1      39.293  30.088  30.917  1.00  0.00     0.074 A 
ATOM     14  C   UNL A   1      41.133  28.737  31.912  1.00  0.00     0.049 A 
ATOM     15  N   UNL A   1      39.102  31.004  31.823  1.00  0.00    -0.248 NA
ATOM     16  C   UNL A   1      38.334  30.134  29.797  1.00  0.00     0.031 C 
ATOM     17  C   UNL A   1      42.059  27.602  31.989  1.00  0.00     0.029 A 
ATOM     18  N   UNL A   1      41.279  29.368  33.115  1.00  0.00    -0.354 N 
ATOM     19  C   UNL A   1      38.021  31.751  31.374  1.00  0.00     0.074 A 
ATOM     20  C   UNL A   1      37.597  31.187  30.114  1.00  0.00     0.031 C 
ATOM     21  C   UNL A   1      42.659  27.607  33.190  1.00  0.00     0.029 A 
ATOM     22  C   UNL A   1      42.213  28.779  33.933  1.00  0.00     0.049 A 
ATOM     23  H   UNL A   1      40.765  30.168  33.371  1.00  0.00     0.167 HD
ATOM     24  C   UNL A   1      37.447  32.823  31.968  1.00  0.00     0.031 A 
ATOM     25  C   UNL A   1      42.675  29.175  35.134  1.00  0.00     0.031 A 
ATOM     26  C   UNL A   1      37.917  33.367  33.211  1.00  0.00     0.049 A 
ATOM     27  C   UNL A   1      42.100  30.438  35.716  1.00  0.00     0.074 A 
ATOM     28  C   UNL A   1      37.489  34.497  33.880  1.00  0.00     0.029 A 
ATOM     29  N   UNL A   1      38.933  32.804  33.975  1.00  0.00    -0.354 N 
ATOM     30  N   UNL A   1      41.133  31.193  35.246  1.00  0.00    -0.248 NA
ATOM     31  C   UNL A   1      42.682  30.913  36.976  1.00  0.00     0.031 C 
ATOM     32  C   UNL A   1      38.281  34.643  35.024  1.00  0.00     0.029 A 
ATOM     33  C   UNL A   1      39.161  33.572  35.099  1.00  0.00     0.049 A 
ATOM     34  H   UNL A   1      39.420  31.979  33.747  1.00  0.00     0.167 HD
ATOM     35  C   UNL A   1      40.979  32.227  36.158  1.00  0.00     0.074 A 
ATOM     36  C   UNL A   1      41.940  31.984  37.221  1.00  0.00     0.031 C 
ATOM     37  C   UNL A   1      40.131  33.285  36.128  1.00  0.00     0.031 A 
BRANCH  24  38
ATOM     38  C   UNL A   1      36.330  33.501  31.223  1.00  0.00    -0.014 A 
ATOM     39  C   UNL A   1      36.438  33.812  29.855  1.00  0.00     0.010 A 
ATOM     40  C   UNL A   1      35.165  33.871  31.919  1.00  0.00     0.010 A 
ATOM     41  C   UNL A   1      35.420  34.520  29.209  1.00  0.00     0.020 A 
ATOM     42  C   UNL A   1      34.134  34.557  31.270  1.00  0.00     0.020 A 
ATOM     43  C   UNL A   1      34.277  34.895  29.924  1.00  0.00     0.054 A 
BRANCH  43  44
ATOM     44  S   UNL A   1      32.975  35.823  29.067  1.00  0.00     0.124 S 
ATOM     45  O   UNL A   1      32.140  36.267  30.179  1.00  0.00    -0.237 OA
ATOM     46  O   UNL A   1      33.727  36.876  28.387  1.00  0.00    -0.237 OA
ATOM     47  O   UNL A   1      32.364  34.831  28.186  1.00  0.00    -0.744 OA
ENDBRANCH  43  44
ENDBRANCH  24  38
BRANCH  25  48
ATOM     48  C   UNL A   1      43.768  28.420  35.811  1.00  0.00    -0.014 A 
ATOM     49  C   UNL A   1      43.492  27.309  36.625  1.00  0.00     0.010 A 
ATOM     50  C   UNL A   1      45.108  28.819  35.641  1.00  0.00     0.010 A 
ATOM     51  C   UNL A   1      44.530  26.627  37.272  1.00  0.00     0.020 A 
ATOM     52  C   UNL A   1      46.151  28.123  36.260  1.00  0.00     0.020 A 
ATOM     53  C   UNL A   1      45.853  27.040  37.087  1.00  0.00     0.054 A 
BRANCH  53  54
ATOM     54  S   UNL A   1      47.187  26.130  37.916  1.00  0.00     0.124 S 
ATOM     55  O   UNL A   1      47.219  24.882  37.159  1.00  0.00    -0.237 OA
ATOM     56  O   UNL A   1      48.335  27.013  37.732  1.00  0.00    -0.237 OA
ATOM     57  O   UNL A   1      46.716  26.013  39.295  1.00  0.00    -0.744 OA
ENDBRANCH  53  54
ENDBRANCH  25  48
BRANCH  37  58
ATOM     58  C   UNL A   1      40.188  34.231  37.292  1.00  0.00    -0.014 A 
ATOM     59  C   UNL A   1      41.034  35.354  37.274  1.00  0.00     0.010 A 
ATOM     60  C   UNL A   1      39.331  34.025  38.389  1.00  0.00     0.010 A 
ATOM     61  C   UNL A   1      41.038  36.244  38.348  1.00  0.00     0.020 A 
ATOM     62  C   UNL A   1      39.313  34.929  39.450  1.00  0.00     0.020 A 
ATOM     63  C   UNL A   1      40.177  36.026  39.428  1.00  0.00     0.054 A 
BRANCH  63  64
ATOM     64  S   UNL A   1      40.159  37.228  40.785  1.00  0.00     0.124 S 
ATOM     65  O   UNL A   1      39.946  38.485  40.073  1.00  0.00    -0.237 OA
ATOM     66  O   UNL A   1      39.040  36.771  41.604  1.00  0.00    -0.237 OA
ATOM     67  O   UNL A   1      41.476  37.074  41.399  1.00  0.00    -0.744 OA
ENDBRANCH  63  64
ENDBRANCH  37  58
ENDBRANCH  11  12
ENDBRANCH   4   6
ENDBRANCH   3   4
ENDBRANCH   2   3
ENDBRANCH   1   2
BRANCH   1  68
ATOM     68  O   UNL A   1      38.325  22.186  25.634  1.00  0.00    -0.374 OA
BRANCH  68  69
ATOM     69  C   UNL A   1      37.662  21.170  24.868  1.00  0.00     0.202 C 
BRANCH  69  70
ATOM     70  C   UNL A   1      36.228  21.001  25.375  1.00  0.00     0.261 C 
BRANCH  70  71
ATOM     71  O   UNL A   1      35.461  22.088  24.840  1.00  0.00    -0.463 OA
BRANCH  71  72
ATOM     72  C   UNL A   1      34.465  22.520  25.661  1.00  0.00     0.310 C 
ATOM     73  O   UNL A   1      34.322  22.177  26.827  1.00  0.00    -0.252 OA
BRANCH  72  74
ATOM     74  C   UNL A   1      33.630  23.588  24.981  1.00  0.00     0.119 C 
ATOM     75  C   UNL A   1      33.528  23.394  23.457  1.00  0.00     0.019 C 
ATOM     76  C   UNL A   1      32.267  23.651  25.654  1.00  0.00     0.135 C 
ATOM     77  C   UNL A   1      32.560  24.387  22.828  1.00  0.00     0.022 C 
ATOM     78  N   UNL A   1      31.356  24.548  24.943  1.00  0.00    -0.338 N 
ATOM     79  C   UNL A   1      31.204  24.297  23.510  1.00  0.00     0.120 C 
BRANCH  78  80
ATOM     80  C   UNL A   1      30.704  25.551  25.651  1.00  0.00     0.255 C 
ATOM     81  O   UNL A   1      29.772  25.362  26.425  1.00  0.00    -0.269 OA
BRANCH  80  82
ATOM     82  C   UNL A   1      31.157  26.938  25.459  1.00  0.00     0.059 A 
ATOM     83  C   UNL A   1      32.177  27.416  26.292  1.00  0.00     0.031 A 
ATOM     84  C   UNL A   1      30.575  27.769  24.493  1.00  0.00     0.053 A 
ATOM     85  C   UNL A   1      32.644  28.716  26.113  1.00  0.00     0.018 A 
ATOM     86  C   UNL A   1      31.064  29.063  24.316  1.00  0.00     0.022 A 
ATOM     87  Cl  UNL A   1      29.251  27.273  23.499  1.00  0.00    -0.083 Cl
ATOM     88  Br  UNL A   1      34.027  29.381  27.217  1.00  0.00    -0.051 Br
ATOM     89  C   UNL A   1      32.103  29.537  25.122  1.00  0.00     0.017 A 
ENDBRANCH  80  82
ENDBRANCH  78  80
ENDBRANCH  72  74
ENDBRANCH  71  72
ENDBRANCH  70  71
ENDBRANCH  69  70
ENDBRANCH  68  69
ENDBRANCH   1  68
TORSDOF 19
ENDMDL
