MODEL 1
REMARK VINA RESULT:     -10.0      0.000      0.000
REMARK SMILES Cc1n[nH]c(C)c1CC(=O)N1CC[C@H](C(=O)OCCOCCOC(=O)c2ccc(-c3c4nc(c(-c5ccc(S(=O)(=O)[O-])cc5)c5ccc([nH]5)c(-c5ccc(S(=O)(=O)[O-])cc5)c5nc(c(-c6ccc(S(=O)(=O)[O-])cc6)c6ccc3[nH]6)C=C5)C=C4)cc2)[C@H]1C
REMARK SMILES IDX 20 1 19 2 18 3 17 4 15 5 16 6 14 7 11 8 12 9 86 10 13 11
REMARK SMILES IDX 87 12 9 13 10 14 8 15 7 16 1 17 2 18 3 19 4 20 5 21 6 23
REMARK SMILES IDX 21 24 22 25 23 26 24 27 25 28 26 29 27 30 85 31 28 32 84 33
REMARK SMILES IDX 29 34 30 35 31 36 78 37 32 38 83 39 77 40 79 41 33 42 82 43
REMARK SMILES IDX 76 44 75 45 34 47 64 48 45 49 63 50 46 51 49 52 62 53 80 54
REMARK SMILES IDX 47 55 48 56 61 58 81 59 50 60 35 61 36 62 44 63 37 64 43 65
REMARK SMILES IDX 38 66 39 67 40 68 41 69 42 70 65 71 66 72 74 73 67 74 73 75
REMARK SMILES IDX 68 76 69 77 70 78 71 79 72 80 51 81 52 82 60 83 53 84 59 85
REMARK SMILES IDX 54 86 55 87 56 88 57 89 58 90
REMARK H PARENT 4 22 79 46 49 57
REMARK Flexibility Score: inf
ROOT
ATOM      1  O   UNL A   1      37.040  22.054  26.269  1.00  0.00    -0.374 OA
ENDROOT
BRANCH   1   2
ATOM      2  C   UNL A   1      35.797  22.304  25.614  1.00  0.00     0.202 C 
BRANCH   2   3
ATOM      3  C   UNL A   1      34.876  21.102  25.375  1.00  0.00     0.261 C 
BRANCH   3   4
ATOM      4  O   UNL A   1      33.856  21.361  24.386  1.00  0.00    -0.463 OA
BRANCH   4   5
ATOM      5  C   UNL A   1      32.591  21.146  24.816  1.00  0.00     0.311 C 
ATOM      6  O   UNL A   1      32.145  20.047  25.138  1.00  0.00    -0.252 OA
BRANCH   5   7
ATOM      7  C   UNL A   1      31.704  22.373  24.858  1.00  0.00     0.123 C 
ATOM      8  N   UNL A   1      32.612  24.601  24.919  1.00  0.00    -0.339 N 
ATOM      9  C   UNL A   1      32.585  24.117  26.286  1.00  0.00     0.121 C 
ATOM     10  C   UNL A   1      31.990  23.629  24.001  1.00  0.00     0.096 C 
ATOM     11  C   UNL A   1      31.649  22.923  26.290  1.00  0.00     0.039 C 
ATOM     12  C   UNL A   1      30.640  24.143  23.496  1.00  0.00     0.032 C 
BRANCH   8  13
ATOM     13  C   UNL A   1      33.348  25.741  24.643  1.00  0.00     0.227 C 
ATOM     14  O   UNL A   1      33.930  25.827  23.550  1.00  0.00    -0.275 OA
BRANCH  13  15
ATOM     15  C   UNL A   1      33.705  26.769  25.716  1.00  0.00     0.139 C 
BRANCH  15  16
ATOM     16  C   UNL A   1      33.148  28.148  25.652  1.00  0.00     0.005 A 
ATOM     17  C   UNL A   1      34.604  29.378  27.424  1.00  0.00     0.069 C 
ATOM     18  C   UNL A   1      33.567  29.293  26.376  1.00  0.00     0.063 A 
ATOM     19  N   UNL A   1      32.842  30.372  26.075  1.00  0.00    -0.181 NA
ATOM     20  N   UNL A   1      31.886  29.910  25.266  1.00  0.00    -0.282 N 
ATOM     21  C   UNL A   1      31.966  28.563  25.050  1.00  0.00     0.036 A 
ATOM     22  H   UNL A   1      31.193  30.483  24.864  1.00  0.00     0.190 HD
ATOM     23  C   UNL A   1      30.888  27.829  24.344  1.00  0.00     0.066 C 
ENDBRANCH  15  16
ENDBRANCH  13  15
ENDBRANCH   8  13
ENDBRANCH   5   7
ENDBRANCH   4   5
ENDBRANCH   3   4
ENDBRANCH   2   3
ENDBRANCH   1   2
BRANCH   1  24
ATOM     24  C   UNL A   1      38.176  22.759  25.774  1.00  0.00     0.202 C 
BRANCH  24  25
ATOM     25  C   UNL A   1      38.321  24.236  26.159  1.00  0.00     0.261 C 
BRANCH  25  26
ATOM     26  O   UNL A   1      39.497  24.484  26.945  1.00  0.00    -0.460 OA
BRANCH  26  27
ATOM     27  C   UNL A   1      40.119  25.658  26.686  1.00  0.00     0.338 C 
ATOM     28  O   UNL A   1      40.655  25.999  25.639  1.00  0.00    -0.246 OA
BRANCH  27  29
ATOM     29  C   UNL A   1      39.905  26.579  27.815  1.00  0.00     0.060 A 
ATOM     30  C   UNL A   1      40.470  27.856  27.748  1.00  0.00     0.016 A 
ATOM     31  C   UNL A   1      39.188  26.184  28.942  1.00  0.00     0.016 A 
ATOM     32  C   UNL A   1      40.351  28.725  28.831  1.00  0.00     0.010 A 
ATOM     33  C   UNL A   1      39.029  27.071  30.009  1.00  0.00     0.010 A 
ATOM     34  C   UNL A   1      39.657  28.328  29.983  1.00  0.00    -0.014 A 
BRANCH  34  35
ATOM     35  C   UNL A   1      39.747  29.144  31.222  1.00  0.00     0.031 A 
ATOM     36  C   UNL A   1      40.885  28.883  32.177  1.00  0.00     0.074 A 
ATOM     37  C   UNL A   1      38.861  30.124  31.477  1.00  0.00     0.049 A 
ATOM     38  N   UNL A   1      41.154  29.453  33.324  1.00  0.00    -0.248 NA
ATOM     39  C   UNL A   1      41.842  27.829  31.796  1.00  0.00     0.031 C 
ATOM     40  C   UNL A   1      37.723  30.481  30.629  1.00  0.00     0.029 A 
ATOM     41  N   UNL A   1      38.783  31.004  32.528  1.00  0.00    -0.354 N 
ATOM     42  C   UNL A   1      42.298  28.823  33.800  1.00  0.00     0.074 A 
ATOM     43  C   UNL A   1      42.643  27.791  32.850  1.00  0.00     0.031 C 
ATOM     44  C   UNL A   1      37.064  31.510  31.191  1.00  0.00     0.029 A 
ATOM     45  C   UNL A   1      37.712  31.862  32.453  1.00  0.00     0.049 A 
ATOM     46  H   UNL A   1      39.432  31.018  33.268  1.00  0.00     0.167 HD
ATOM     47  C   UNL A   1      43.017  29.093  34.915  1.00  0.00     0.031 A 
ATOM     48  C   UNL A   1      37.293  32.815  33.311  1.00  0.00     0.031 A 
ATOM     49  C   UNL A   1      42.681  30.127  35.856  1.00  0.00     0.049 A 
ATOM     50  C   UNL A   1      38.086  33.074  34.566  1.00  0.00     0.074 A 
ATOM     51  C   UNL A   1      43.350  30.490  37.010  1.00  0.00     0.029 A 
ATOM     52  N   UNL A   1      41.586  30.969  35.742  1.00  0.00    -0.354 N 
ATOM     53  N   UNL A   1      39.180  32.482  34.987  1.00  0.00    -0.248 NA
ATOM     54  C   UNL A   1      37.598  34.137  35.455  1.00  0.00     0.031 C 
ATOM     55  C   UNL A   1      42.633  31.525  37.621  1.00  0.00     0.029 A 
ATOM     56  C   UNL A   1      41.552  31.844  36.814  1.00  0.00     0.049 A 
ATOM     57  H   UNL A   1      40.928  30.948  35.010  1.00  0.00     0.167 HD
ATOM     58  C   UNL A   1      39.523  33.120  36.176  1.00  0.00     0.074 A 
ATOM     59  C   UNL A   1      38.532  34.154  36.395  1.00  0.00     0.031 C 
ATOM     60  C   UNL A   1      40.561  32.871  37.011  1.00  0.00     0.031 A 
BRANCH  47  61
ATOM     61  C   UNL A   1      44.239  28.252  35.175  1.00  0.00    -0.014 A 
ATOM     62  C   UNL A   1      45.515  28.684  34.768  1.00  0.00     0.010 A 
ATOM     63  C   UNL A   1      44.118  27.033  35.865  1.00  0.00     0.010 A 
ATOM     64  C   UNL A   1      46.641  27.894  35.012  1.00  0.00     0.020 A 
ATOM     65  C   UNL A   1      45.247  26.254  36.138  1.00  0.00     0.020 A 
ATOM     66  C   UNL A   1      46.500  26.684  35.696  1.00  0.00     0.054 A 
BRANCH  66  67
ATOM     67  S   UNL A   1      47.986  25.696  36.029  1.00  0.00     0.124 S 
ATOM     68  O   UNL A   1      47.943  24.714  34.949  1.00  0.00    -0.237 OA
ATOM     69  O   UNL A   1      49.055  26.686  35.937  1.00  0.00    -0.237 OA
ATOM     70  O   UNL A   1      47.752  25.159  37.368  1.00  0.00    -0.744 OA
ENDBRANCH  66  67
ENDBRANCH  47  61
BRANCH  48  71
ATOM     71  C   UNL A   1      36.047  33.582  33.025  1.00  0.00    -0.014 A 
ATOM     72  C   UNL A   1      36.089  34.800  32.323  1.00  0.00     0.010 A 
ATOM     73  C   UNL A   1      34.804  33.097  33.473  1.00  0.00     0.010 A 
ATOM     74  C   UNL A   1      34.917  35.530  32.098  1.00  0.00     0.020 A 
ATOM     75  C   UNL A   1      33.627  33.809  33.224  1.00  0.00     0.020 A 
ATOM     76  C   UNL A   1      33.693  35.030  32.551  1.00  0.00     0.054 A 
BRANCH  76  77
ATOM     77  S   UNL A   1      32.179  35.974  32.218  1.00  0.00     0.124 S 
ATOM     78  O   UNL A   1      32.301  36.250  30.791  1.00  0.00    -0.237 OA
ATOM     79  O   UNL A   1      31.130  35.031  32.594  1.00  0.00    -0.237 OA
ATOM     80  O   UNL A   1      32.304  37.138  33.095  1.00  0.00    -0.744 OA
ENDBRANCH  76  77
ENDBRANCH  48  71
BRANCH  60  81
ATOM     81  C   UNL A   1      40.708  33.756  38.221  1.00  0.00    -0.014 A 
ATOM     82  C   UNL A   1      41.387  34.984  38.150  1.00  0.00     0.010 A 
ATOM     83  C   UNL A   1      40.101  33.377  39.433  1.00  0.00     0.010 A 
ATOM     84  C   UNL A   1      41.483  35.803  39.278  1.00  0.00     0.020 A 
ATOM     85  C   UNL A   1      40.169  34.206  40.554  1.00  0.00     0.020 A 
ATOM     86  C   UNL A   1      40.873  35.409  40.473  1.00  0.00     0.054 A 
BRANCH  86  87
ATOM     87  S   UNL A   1      40.975  36.511  41.910  1.00  0.00     0.124 S 
ATOM     88  O   UNL A   1      41.851  37.571  41.420  1.00  0.00    -0.237 OA
ATOM     89  O   UNL A   1      39.581  36.894  42.119  1.00  0.00    -0.237 OA
ATOM     90  O   UNL A   1      41.545  35.665  42.957  1.00  0.00    -0.744 OA
ENDBRANCH  86  87
ENDBRANCH  60  81
ENDBRANCH  34  35
ENDBRANCH  27  29
ENDBRANCH  26  27
ENDBRANCH  25  26
ENDBRANCH  24  25
ENDBRANCH   1  24
TORSDOF 20
ENDMDL
MODEL 2
REMARK VINA RESULT:      -9.7      2.037      2.781
REMARK SMILES Cc1n[nH]c(C)c1CC(=O)N1CC[C@H](C(=O)OCCOCCOC(=O)c2ccc(-c3c4nc(c(-c5ccc(S(=O)(=O)[O-])cc5)c5ccc([nH]5)c(-c5ccc(S(=O)(=O)[O-])cc5)c5nc(c(-c6ccc(S(=O)(=O)[O-])cc6)c6ccc3[nH]6)C=C5)C=C4)cc2)[C@H]1C
REMARK SMILES IDX 20 1 19 2 18 3 17 4 15 5 16 6 14 7 11 8 12 9 86 10 13 11
REMARK SMILES IDX 87 12 9 13 10 14 8 15 7 16 1 17 2 18 3 19 4 20 5 21 6 23
REMARK SMILES IDX 21 24 22 25 23 26 24 27 25 28 26 29 27 30 85 31 28 32 84 33
REMARK SMILES IDX 29 34 30 35 31 36 78 37 32 38 83 39 77 40 79 41 33 42 82 43
REMARK SMILES IDX 76 44 75 45 34 47 64 48 45 49 63 50 46 51 49 52 62 53 80 54
REMARK SMILES IDX 47 55 48 56 61 58 81 59 50 60 35 61 36 62 44 63 37 64 43 65
REMARK SMILES IDX 38 66 39 67 40 68 41 69 42 70 65 71 66 72 74 73 67 74 73 75
REMARK SMILES IDX 68 76 69 77 70 78 71 79 72 80 51 81 52 82 60 83 53 84 59 85
REMARK SMILES IDX 54 86 55 87 56 88 57 89 58 90
REMARK H PARENT 4 22 79 46 49 57
REMARK Flexibility Score: inf
ROOT
ATOM      1  O   UNL A   1      40.293  20.468  26.371  1.00  0.00    -0.374 OA
ENDROOT
BRANCH   1   2
ATOM      2  C   UNL A   1      39.469  21.609  26.134  1.00  0.00     0.202 C 
BRANCH   2   3
ATOM      3  C   UNL A   1      38.037  21.351  25.651  1.00  0.00     0.261 C 
BRANCH   3   4
ATOM      4  O   UNL A   1      37.559  22.364  24.739  1.00  0.00    -0.463 OA
BRANCH   4   5
ATOM      5  C   UNL A   1      36.664  23.225  25.276  1.00  0.00     0.311 C 
ATOM      6  O   UNL A   1      36.946  24.101  26.091  1.00  0.00    -0.252 OA
BRANCH   5   7
ATOM      7  C   UNL A   1      35.230  23.033  24.825  1.00  0.00     0.123 C 
ATOM      8  N   UNL A   1      33.737  24.891  24.496  1.00  0.00    -0.339 N 
ATOM      9  C   UNL A   1      33.695  24.558  25.908  1.00  0.00     0.121 C 
ATOM     10  C   UNL A   1      34.574  23.933  23.751  1.00  0.00     0.096 C 
ATOM     11  C   UNL A   1      34.287  23.167  26.028  1.00  0.00     0.039 C 
ATOM     12  C   UNL A   1      33.713  23.024  22.872  1.00  0.00     0.032 C 
BRANCH   8  13
ATOM     13  C   UNL A   1      33.190  26.097  24.092  1.00  0.00     0.227 C 
ATOM     14  O   UNL A   1      33.887  26.874  23.418  1.00  0.00    -0.275 OA
BRANCH  13  15
ATOM     15  C   UNL A   1      31.879  26.638  24.662  1.00  0.00     0.139 C 
BRANCH  15  16
ATOM     16  C   UNL A   1      31.704  28.099  24.892  1.00  0.00     0.005 A 
ATOM     17  C   UNL A   1      32.200  28.284  27.440  1.00  0.00     0.069 C 
ATOM     18  C   UNL A   1      31.879  28.818  26.102  1.00  0.00     0.063 A 
ATOM     19  N   UNL A   1      31.635  30.121  25.952  1.00  0.00    -0.181 NA
ATOM     20  N   UNL A   1      31.186  30.229  24.700  1.00  0.00    -0.282 N 
ATOM     21  C   UNL A   1      31.119  29.031  24.045  1.00  0.00     0.036 A 
ATOM     22  H   UNL A   1      30.929  31.087  24.288  1.00  0.00     0.190 HD
ATOM     23  C   UNL A   1      30.464  28.912  22.719  1.00  0.00     0.066 C 
ENDBRANCH  15  16
ENDBRANCH  13  15
ENDBRANCH   8  13
ENDBRANCH   5   7
ENDBRANCH   4   5
ENDBRANCH   3   4
ENDBRANCH   2   3
ENDBRANCH   1   2
BRANCH   1  24
ATOM     24  C   UNL A   1      41.691  20.709  26.512  1.00  0.00     0.202 C 
BRANCH  24  25
ATOM     25  C   UNL A   1      42.294  21.884  25.734  1.00  0.00     0.261 C 
BRANCH  25  26
ATOM     26  O   UNL A   1      42.873  22.874  26.598  1.00  0.00    -0.460 OA
BRANCH  26  27
ATOM     27  C   UNL A   1      43.025  24.098  26.040  1.00  0.00     0.338 C 
ATOM     28  O   UNL A   1      43.371  24.353  24.893  1.00  0.00    -0.246 OA
BRANCH  27  29
ATOM     29  C   UNL A   1      42.533  25.122  26.976  1.00  0.00     0.060 A 
ATOM     30  C   UNL A   1      43.182  26.360  27.009  1.00  0.00     0.016 A 
ATOM     31  C   UNL A   1      41.469  24.862  27.836  1.00  0.00     0.016 A 
ATOM     32  C   UNL A   1      42.790  27.324  27.936  1.00  0.00     0.010 A 
ATOM     33  C   UNL A   1      41.046  25.844  28.733  1.00  0.00     0.010 A 
ATOM     34  C   UNL A   1      41.739  27.062  28.827  1.00  0.00    -0.014 A 
BRANCH  34  35
ATOM     35  C   UNL A   1      41.491  27.977  29.972  1.00  0.00     0.031 A 
ATOM     36  C   UNL A   1      42.379  27.870  31.187  1.00  0.00     0.074 A 
ATOM     37  C   UNL A   1      40.525  28.911  29.921  1.00  0.00     0.049 A 
ATOM     38  N   UNL A   1      42.339  28.545  32.307  1.00  0.00    -0.248 NA
ATOM     39  C   UNL A   1      43.449  26.857  31.140  1.00  0.00     0.031 C 
ATOM     40  C   UNL A   1      39.606  29.122  28.801  1.00  0.00     0.029 A 
ATOM     41  N   UNL A   1      40.155  29.863  30.839  1.00  0.00    -0.354 N 
ATOM     42  C   UNL A   1      43.365  28.034  33.094  1.00  0.00     0.074 A 
ATOM     43  C   UNL A   1      43.975  26.956  32.350  1.00  0.00     0.031 C 
ATOM     44  C   UNL A   1      38.784  30.144  29.096  1.00  0.00     0.029 A 
ATOM     45  C   UNL A   1      39.094  30.638  30.436  1.00  0.00     0.049 A 
ATOM     46  H   UNL A   1      40.608  29.980  31.706  1.00  0.00     0.167 HD
ATOM     47  C   UNL A   1      43.783  28.439  34.316  1.00  0.00     0.031 A 
ATOM     48  C   UNL A   1      38.436  31.624  31.080  1.00  0.00     0.031 A 
ATOM     49  C   UNL A   1      43.182  29.518  35.053  1.00  0.00     0.049 A 
ATOM     50  C   UNL A   1      38.894  32.034  32.457  1.00  0.00     0.074 A 
ATOM     51  C   UNL A   1      43.538  30.016  36.293  1.00  0.00     0.029 A 
ATOM     52  N   UNL A   1      42.107  30.272  34.609  1.00  0.00    -0.354 N 
ATOM     53  N   UNL A   1      39.882  31.553  33.175  1.00  0.00    -0.248 NA
ATOM     54  C   UNL A   1      38.157  33.128  33.105  1.00  0.00     0.031 C 
ATOM     55  C   UNL A   1      42.647  31.043  36.621  1.00  0.00     0.029 A 
ATOM     56  C   UNL A   1      41.776  31.224  35.557  1.00  0.00     0.049 A 
ATOM     57  H   UNL A   1      41.645  30.149  33.748  1.00  0.00     0.167 HD
ATOM     58  C   UNL A   1      39.900  32.304  34.347  1.00  0.00     0.074 A 
ATOM     59  C   UNL A   1      38.837  33.282  34.232  1.00  0.00     0.031 C 
ATOM     60  C   UNL A   1      40.719  32.193  35.421  1.00  0.00     0.031 A 
BRANCH  47  61
ATOM     61  C   UNL A   1      44.946  27.706  34.932  1.00  0.00    -0.014 A 
ATOM     62  C   UNL A   1      46.241  28.257  34.910  1.00  0.00     0.010 A 
ATOM     63  C   UNL A   1      44.738  26.471  35.571  1.00  0.00     0.010 A 
ATOM     64  C   UNL A   1      47.313  27.567  35.481  1.00  0.00     0.020 A 
ATOM     65  C   UNL A   1      45.804  25.792  36.171  1.00  0.00     0.020 A 
ATOM     66  C   UNL A   1      47.087  26.338  36.108  1.00  0.00     0.054 A 
BRANCH  66  67
ATOM     67  S   UNL A   1      48.493  25.482  36.873  1.00  0.00     0.124 S 
ATOM     68  O   UNL A   1      48.087  25.431  38.275  1.00  0.00    -0.237 OA
ATOM     69  O   UNL A   1      48.505  24.200  36.174  1.00  0.00    -0.237 OA
ATOM     70  O   UNL A   1      49.629  26.355  36.585  1.00  0.00    -0.744 OA
ENDBRANCH  66  67
ENDBRANCH  47  61
BRANCH  48  71
ATOM     71  C   UNL A   1      37.260  32.280  30.442  1.00  0.00    -0.014 A 
ATOM     72  C   UNL A   1      37.418  33.400  29.606  1.00  0.00     0.010 A 
ATOM     73  C   UNL A   1      35.963  31.787  30.683  1.00  0.00     0.010 A 
ATOM     74  C   UNL A   1      36.301  34.030  29.047  1.00  0.00     0.020 A 
ATOM     75  C   UNL A   1      34.848  32.396  30.102  1.00  0.00     0.020 A 
ATOM     76  C   UNL A   1      35.023  33.524  29.299  1.00  0.00     0.054 A 
BRANCH  76  77
ATOM     77  S   UNL A   1      33.590  34.335  28.534  1.00  0.00     0.124 S 
ATOM     78  O   UNL A   1      34.220  35.397  27.757  1.00  0.00    -0.237 OA
ATOM     79  O   UNL A   1      32.991  33.252  27.759  1.00  0.00    -0.237 OA
ATOM     80  O   UNL A   1      32.800  34.782  29.681  1.00  0.00    -0.744 OA
ENDBRANCH  76  77
ENDBRANCH  48  71
BRANCH  60  81
ATOM     81  C   UNL A   1      40.530  33.178  36.546  1.00  0.00    -0.014 A 
ATOM     82  C   UNL A   1      39.701  32.883  37.642  1.00  0.00     0.010 A 
ATOM     83  C   UNL A   1      41.243  34.391  36.531  1.00  0.00     0.010 A 
ATOM     84  C   UNL A   1      39.566  33.798  38.690  1.00  0.00     0.020 A 
ATOM     85  C   UNL A   1      41.134  35.294  37.590  1.00  0.00     0.020 A 
ATOM     86  C   UNL A   1      40.283  34.998  38.657  1.00  0.00     0.054 A 
BRANCH  86  87
ATOM     87  S   UNL A   1      40.124  36.148  40.050  1.00  0.00     0.124 S 
ATOM     88  O   UNL A   1      38.825  36.762  39.790  1.00  0.00    -0.237 OA
ATOM     89  O   UNL A   1      40.179  35.259  41.208  1.00  0.00    -0.237 OA
ATOM     90  O   UNL A   1      41.275  37.037  39.900  1.00  0.00    -0.744 OA
ENDBRANCH  86  87
ENDBRANCH  60  81
ENDBRANCH  34  35
ENDBRANCH  27  29
ENDBRANCH  26  27
ENDBRANCH  25  26
ENDBRANCH  24  25
ENDBRANCH   1  24
TORSDOF 20
ENDMDL
MODEL 3
REMARK VINA RESULT:      -9.6      1.988      8.569
REMARK SMILES Cc1n[nH]c(C)c1CC(=O)N1CC[C@H](C(=O)OCCOCCOC(=O)c2ccc(-c3c4nc(c(-c5ccc(S(=O)(=O)[O-])cc5)c5ccc([nH]5)c(-c5ccc(S(=O)(=O)[O-])cc5)c5nc(c(-c6ccc(S(=O)(=O)[O-])cc6)c6ccc3[nH]6)C=C5)C=C4)cc2)[C@H]1C
REMARK SMILES IDX 20 1 19 2 18 3 17 4 15 5 16 6 14 7 11 8 12 9 86 10 13 11
REMARK SMILES IDX 87 12 9 13 10 14 8 15 7 16 1 17 2 18 3 19 4 20 5 21 6 23
REMARK SMILES IDX 21 24 22 25 23 26 24 27 25 28 26 29 27 30 85 31 28 32 84 33
REMARK SMILES IDX 29 34 30 35 31 36 78 37 32 38 83 39 77 40 79 41 33 42 82 43
REMARK SMILES IDX 76 44 75 45 34 47 64 48 45 49 63 50 46 51 49 52 62 53 80 54
REMARK SMILES IDX 47 55 48 56 61 58 81 59 50 60 35 61 36 62 44 63 37 64 43 65
REMARK SMILES IDX 38 66 39 67 40 68 41 69 42 70 65 71 66 72 74 73 67 74 73 75
REMARK SMILES IDX 68 76 69 77 70 78 71 79 72 80 51 81 52 82 60 83 53 84 59 85
REMARK SMILES IDX 54 86 55 87 56 88 57 89 58 90
REMARK H PARENT 4 22 79 46 49 57
REMARK Flexibility Score: inf
ROOT
ATOM      1  O   UNL A   1      39.970  21.917  26.657  1.00  0.00    -0.374 OA
ENDROOT
BRANCH   1   2
ATOM      2  C   UNL A   1      38.985  21.500  25.712  1.00  0.00     0.202 C 
BRANCH   2   3
ATOM      3  C   UNL A   1      37.626  22.206  25.758  1.00  0.00     0.261 C 
BRANCH   3   4
ATOM      4  O   UNL A   1      37.073  22.451  24.447  1.00  0.00    -0.463 OA
BRANCH   4   5
ATOM      5  C   UNL A   1      35.903  23.132  24.449  1.00  0.00     0.311 C 
ATOM      6  O   UNL A   1      35.303  23.484  23.437  1.00  0.00    -0.252 OA
BRANCH   5   7
ATOM      7  C   UNL A   1      35.358  23.476  25.820  1.00  0.00     0.123 C 
ATOM      8  N   UNL A   1      33.042  24.026  26.171  1.00  0.00    -0.339 N 
ATOM      9  C   UNL A   1      33.709  25.245  25.756  1.00  0.00     0.121 C 
ATOM     10  C   UNL A   1      34.007  22.924  26.335  1.00  0.00     0.096 C 
ATOM     11  C   UNL A   1      35.193  24.996  25.945  1.00  0.00     0.039 C 
ATOM     12  C   UNL A   1      34.198  22.582  27.815  1.00  0.00     0.032 C 
BRANCH   8  13
ATOM     13  C   UNL A   1      31.657  24.002  26.162  1.00  0.00     0.227 C 
ATOM     14  O   UNL A   1      31.050  24.117  27.239  1.00  0.00    -0.275 OA
BRANCH  13  15
ATOM     15  C   UNL A   1      30.849  23.570  24.939  1.00  0.00     0.139 C 
BRANCH  15  16
ATOM     16  C   UNL A   1      31.532  23.297  23.644  1.00  0.00     0.005 A 
ATOM     17  C   UNL A   1      32.277  20.824  23.962  1.00  0.00     0.069 C 
ATOM     18  C   UNL A   1      32.124  22.084  23.209  1.00  0.00     0.063 A 
ATOM     19  N   UNL A   1      32.653  22.193  21.988  1.00  0.00    -0.181 NA
ATOM     20  N   UNL A   1      32.521  23.486  21.687  1.00  0.00    -0.282 N 
ATOM     21  C   UNL A   1      31.937  24.216  22.684  1.00  0.00     0.036 A 
ATOM     22  H   UNL A   1      32.814  23.876  20.831  1.00  0.00     0.190 HD
ATOM     23  C   UNL A   1      31.880  25.697  22.624  1.00  0.00     0.066 C 
ENDBRANCH  15  16
ENDBRANCH  13  15
ENDBRANCH   8  13
ENDBRANCH   5   7
ENDBRANCH   4   5
ENDBRANCH   3   4
ENDBRANCH   2   3
ENDBRANCH   1   2
BRANCH   1  24
ATOM     24  C   UNL A   1      41.324  21.921  26.209  1.00  0.00     0.202 C 
BRANCH  24  25
ATOM     25  C   UNL A   1      42.015  23.279  26.042  1.00  0.00     0.261 C 
BRANCH  25  26
ATOM     26  O   UNL A   1      41.132  24.380  26.304  1.00  0.00    -0.460 OA
BRANCH  26  27
ATOM     27  C   UNL A   1      41.664  25.604  26.077  1.00  0.00     0.338 C 
ATOM     28  O   UNL A   1      42.251  25.984  25.072  1.00  0.00    -0.246 OA
BRANCH  27  29
ATOM     29  C   UNL A   1      41.275  26.511  27.171  1.00  0.00     0.060 A 
ATOM     30  C   UNL A   1      41.786  27.813  27.168  1.00  0.00     0.016 A 
ATOM     31  C   UNL A   1      40.447  26.081  28.205  1.00  0.00     0.016 A 
ATOM     32  C   UNL A   1      41.500  28.672  28.227  1.00  0.00     0.010 A 
ATOM     33  C   UNL A   1      40.122  26.957  29.242  1.00  0.00     0.010 A 
ATOM     34  C   UNL A   1      40.691  28.241  29.289  1.00  0.00    -0.014 A 
BRANCH  34  35
ATOM     35  C   UNL A   1      40.596  29.056  30.527  1.00  0.00     0.031 A 
ATOM     36  C   UNL A   1      39.544  30.135  30.603  1.00  0.00     0.074 A 
ATOM     37  C   UNL A   1      41.398  28.819  31.581  1.00  0.00     0.049 A 
ATOM     38  N   UNL A   1      39.288  30.979  31.570  1.00  0.00    -0.248 NA
ATOM     39  C   UNL A   1      38.670  30.293  29.427  1.00  0.00     0.031 C 
ATOM     40  C   UNL A   1      42.448  27.800  31.637  1.00  0.00     0.029 A 
ATOM     41  N   UNL A   1      41.453  29.422  32.814  1.00  0.00    -0.354 N 
ATOM     42  C   UNL A   1      38.238  31.769  31.115  1.00  0.00     0.074 A 
ATOM     43  C   UNL A   1      37.938  31.342  29.767  1.00  0.00     0.031 C 
ATOM     44  C   UNL A   1      43.038  27.845  32.844  1.00  0.00     0.029 A 
ATOM     45  C   UNL A   1      42.433  28.915  33.634  1.00  0.00     0.049 A 
ATOM     46  H   UNL A   1      40.849  30.151  33.084  1.00  0.00     0.167 HD
ATOM     47  C   UNL A   1      37.562  32.744  31.765  1.00  0.00     0.031 A 
ATOM     48  C   UNL A   1      42.809  29.282  34.877  1.00  0.00     0.031 A 
ATOM     49  C   UNL A   1      37.853  33.161  33.110  1.00  0.00     0.049 A 
ATOM     50  C   UNL A   1      42.068  30.397  35.569  1.00  0.00     0.074 A 
ATOM     51  C   UNL A   1      37.220  34.132  33.866  1.00  0.00     0.029 A 
ATOM     52  N   UNL A   1      38.855  32.624  33.902  1.00  0.00    -0.354 N 
ATOM     53  N   UNL A   1      41.061  31.115  35.131  1.00  0.00    -0.248 NA
ATOM     54  C   UNL A   1      42.503  30.741  36.930  1.00  0.00     0.031 C 
ATOM     55  C   UNL A   1      37.870  34.213  35.101  1.00  0.00     0.029 A 
ATOM     56  C   UNL A   1      38.868  33.252  35.135  1.00  0.00     0.049 A 
ATOM     57  H   UNL A   1      39.469  31.904  33.629  1.00  0.00     0.167 HD
ATOM     58  C   UNL A   1      40.728  31.978  36.170  1.00  0.00     0.074 A 
ATOM     59  C   UNL A   1      41.628  31.678  37.266  1.00  0.00     0.031 C 
ATOM     60  C   UNL A   1      39.767  32.933  36.215  1.00  0.00     0.031 A 
BRANCH  47  61
ATOM     61  C   UNL A   1      36.442  33.427  31.025  1.00  0.00    -0.014 A 
ATOM     62  C   UNL A   1      35.157  33.529  31.592  1.00  0.00     0.010 A 
ATOM     63  C   UNL A   1      36.681  34.003  29.766  1.00  0.00     0.010 A 
ATOM     64  C   UNL A   1      34.125  34.162  30.896  1.00  0.00     0.020 A 
ATOM     65  C   UNL A   1      35.658  34.664  29.079  1.00  0.00     0.020 A 
ATOM     66  C   UNL A   1      34.382  34.725  29.643  1.00  0.00     0.054 A 
BRANCH  66  67
ATOM     67  S   UNL A   1      33.029  35.571  28.777  1.00  0.00     0.124 S 
ATOM     68  O   UNL A   1      32.222  36.065  29.891  1.00  0.00    -0.237 OA
ATOM     69  O   UNL A   1      33.733  36.595  28.009  1.00  0.00    -0.237 OA
ATOM     70  O   UNL A   1      32.411  34.514  27.981  1.00  0.00    -0.744 OA
ENDBRANCH  66  67
ENDBRANCH  47  61
BRANCH  48  71
ATOM     71  C   UNL A   1      43.958  28.603  35.540  1.00  0.00    -0.014 A 
ATOM     72  C   UNL A   1      43.763  27.469  36.349  1.00  0.00     0.010 A 
ATOM     73  C   UNL A   1      45.263  29.105  35.374  1.00  0.00     0.010 A 
ATOM     74  C   UNL A   1      44.847  26.868  36.999  1.00  0.00     0.020 A 
ATOM     75  C   UNL A   1      46.351  28.489  35.997  1.00  0.00     0.020 A 
ATOM     76  C   UNL A   1      46.134  27.382  36.820  1.00  0.00     0.054 A 
BRANCH  76  77
ATOM     77  S   UNL A   1      47.530  26.566  37.643  1.00  0.00     0.124 S 
ATOM     78  O   UNL A   1      47.677  25.346  36.855  1.00  0.00    -0.237 OA
ATOM     79  O   UNL A   1      48.601  27.547  37.497  1.00  0.00    -0.237 OA
ATOM     80  O   UNL A   1      47.053  26.374  39.012  1.00  0.00    -0.744 OA
ENDBRANCH  76  77
ENDBRANCH  48  71
BRANCH  60  81
ATOM     81  C   UNL A   1      39.607  33.700  37.502  1.00  0.00    -0.014 A 
ATOM     82  C   UNL A   1      38.705  33.281  38.495  1.00  0.00     0.010 A 
ATOM     83  C   UNL A   1      40.421  34.823  37.744  1.00  0.00     0.010 A 
ATOM     84  C   UNL A   1      38.596  33.990  39.694  1.00  0.00     0.020 A 
ATOM     85  C   UNL A   1      40.337  35.516  38.953  1.00  0.00     0.020 A 
ATOM     86  C   UNL A   1      39.413  35.102  39.916  1.00  0.00     0.054 A 
BRANCH  86  87
ATOM     87  S   UNL A   1      39.284  35.979  41.498  1.00  0.00     0.124 S 
ATOM     88  O   UNL A   1      40.608  35.765  42.074  1.00  0.00    -0.237 OA
ATOM     89  O   UNL A   1      38.993  37.349  41.083  1.00  0.00    -0.237 OA
ATOM     90  O   UNL A   1      38.188  35.297  42.185  1.00  0.00    -0.744 OA
ENDBRANCH  86  87
ENDBRANCH  60  81
ENDBRANCH  34  35
ENDBRANCH  27  29
ENDBRANCH  26  27
ENDBRANCH  25  26
ENDBRANCH  24  25
ENDBRANCH   1  24
TORSDOF 20
ENDMDL
