MODEL 1
REMARK VINA RESULT:     -10.2      0.000      0.000
REMARK SMILES O=C(OCCOCCOC(=O)[C@@H]1C[NH2+]CCN1C(=O)N[C@H]1CCOC1)c1ccc(-c2c3nc(c(-c4ccc(S(=O)(=O)[O-])cc4)c4ccc([nH]4)c(-c4ccc(S(=O)(=O)[O-])cc4)c4nc(c(-c5ccc(S(=O)(=O)[O-])cc5)c5ccc2[nH]5)C=C4)C=C3)cc1
REMARK SMILES IDX 5 1 4 2 3 3 2 4 1 5 26 6 27 7 85 8 28 9 84 10 29 11 30 12
REMARK SMILES IDX 31 13 78 14 32 15 83 16 77 17 79 18 33 19 82 20 76 21 75 22
REMARK SMILES IDX 34 24 64 25 45 26 63 27 46 28 49 29 62 30 80 31 47 32 48 33
REMARK SMILES IDX 61 35 81 36 50 37 35 38 36 39 44 40 37 41 43 42 38 43 39 44
REMARK SMILES IDX 40 45 41 46 42 47 65 48 66 49 74 50 67 51 73 52 68 53 69 54
REMARK SMILES IDX 70 55 71 56 72 57 51 58 52 59 60 60 53 61 59 62 54 63 55 64
REMARK SMILES IDX 56 65 57 66 58 67 6 68 7 69 8 70 9 71 10 72 11 73 12 74
REMARK SMILES IDX 13 75 17 76 14 77 16 78 15 79 18 82 19 83 20 84 21 86 22 87
REMARK SMILES IDX 25 88 23 89 24 90
REMARK H PARENT 79 23 49 34 14 80 14 81 20 85
REMARK Flexibility Score: inf
ROOT
ATOM      1  C   UNL A   1      36.947  21.846  24.471  1.00  0.00     0.202 C 
ENDROOT
BRANCH   1   2
ATOM      2  C   UNL A   1      37.742  22.410  25.644  1.00  0.00     0.261 C 
BRANCH   2   3
ATOM      3  O   UNL A   1      39.067  21.874  25.702  1.00  0.00    -0.460 OA
BRANCH   3   4
ATOM      4  C   UNL A   1      40.172  22.500  26.177  1.00  0.00     0.338 C 
ATOM      5  O   UNL A   1      41.234  21.876  26.141  1.00  0.00    -0.246 OA
BRANCH   4   6
ATOM      6  C   UNL A   1      40.209  23.922  26.683  1.00  0.00     0.060 A 
ATOM      7  C   UNL A   1      40.963  24.993  26.177  1.00  0.00     0.016 A 
ATOM      8  C   UNL A   1      39.356  24.191  27.769  1.00  0.00     0.016 A 
ATOM      9  C   UNL A   1      40.920  26.263  26.754  1.00  0.00     0.010 A 
ATOM     10  C   UNL A   1      39.324  25.447  28.373  1.00  0.00     0.010 A 
ATOM     11  C   UNL A   1      40.151  26.467  27.894  1.00  0.00    -0.014 A 
BRANCH  11  12
ATOM     12  C   UNL A   1      40.468  27.605  28.771  1.00  0.00     0.031 A 
ATOM     13  C   UNL A   1      41.717  27.482  29.596  1.00  0.00     0.074 A 
ATOM     14  C   UNL A   1      39.679  28.687  28.831  1.00  0.00     0.049 A 
ATOM     15  N   UNL A   1      42.163  28.252  30.548  1.00  0.00    -0.248 NA
ATOM     16  C   UNL A   1      42.579  26.322  29.303  1.00  0.00     0.031 C 
ATOM     17  C   UNL A   1      38.505  28.924  27.993  1.00  0.00     0.029 A 
ATOM     18  N   UNL A   1      39.742  29.782  29.649  1.00  0.00    -0.354 N 
ATOM     19  C   UNL A   1      43.339  27.653  30.986  1.00  0.00     0.074 A 
ATOM     20  C   UNL A   1      43.542  26.462  30.198  1.00  0.00     0.031 C 
ATOM     21  C   UNL A   1      37.936  30.084  28.364  1.00  0.00     0.029 A 
ATOM     22  C   UNL A   1      38.675  30.634  29.500  1.00  0.00     0.049 A 
ATOM     23  H   UNL A   1      40.478  29.943  30.283  1.00  0.00     0.167 HD
ATOM     24  C   UNL A   1      44.161  28.051  31.982  1.00  0.00     0.031 A 
ATOM     25  C   UNL A   1      38.318  31.703  30.239  1.00  0.00     0.031 A 
ATOM     26  C   UNL A   1      43.890  29.202  32.794  1.00  0.00     0.049 A 
ATOM     27  C   UNL A   1      39.192  32.085  31.405  1.00  0.00     0.074 A 
ATOM     28  C   UNL A   1      44.606  29.691  33.868  1.00  0.00     0.029 A 
ATOM     29  N   UNL A   1      42.790  30.034  32.623  1.00  0.00    -0.354 N 
ATOM     30  N   UNL A   1      40.293  31.507  31.830  1.00  0.00    -0.248 NA
ATOM     31  C   UNL A   1      38.782  33.253  32.196  1.00  0.00     0.031 C 
ATOM     32  C   UNL A   1      43.904  30.785  34.384  1.00  0.00     0.029 A 
ATOM     33  C   UNL A   1      42.792  31.021  33.587  1.00  0.00     0.049 A 
ATOM     34  H   UNL A   1      42.109  29.932  31.920  1.00  0.00     0.167 HD
ATOM     35  C   UNL A   1      40.723  32.254  32.921  1.00  0.00     0.074 A 
ATOM     36  C   UNL A   1      39.761  33.327  33.091  1.00  0.00     0.031 C 
ATOM     37  C   UNL A   1      41.814  32.078  33.708  1.00  0.00     0.031 A 
BRANCH  24  38
ATOM     38  C   UNL A   1      45.337  27.163  32.288  1.00  0.00    -0.014 A 
ATOM     39  C   UNL A   1      45.259  26.142  33.253  1.00  0.00     0.010 A 
ATOM     40  C   UNL A   1      46.567  27.410  31.653  1.00  0.00     0.010 A 
ATOM     41  C   UNL A   1      46.405  25.436  33.630  1.00  0.00     0.020 A 
ATOM     42  C   UNL A   1      47.709  26.685  32.004  1.00  0.00     0.020 A 
ATOM     43  C   UNL A   1      47.627  25.723  33.013  1.00  0.00     0.054 A 
BRANCH  43  44
ATOM     44  S   UNL A   1      49.109  24.828  33.554  1.00  0.00     0.124 S 
ATOM     45  O   UNL A   1      49.698  25.771  34.503  1.00  0.00    -0.237 OA
ATOM     46  O   UNL A   1      48.554  23.612  34.141  1.00  0.00    -0.237 OA
ATOM     47  O   UNL A   1      49.866  24.632  32.320  1.00  0.00    -0.744 OA
ENDBRANCH  43  44
ENDBRANCH  24  38
BRANCH  25  48
ATOM     48  C   UNL A   1      37.059  32.430  29.916  1.00  0.00    -0.014 A 
ATOM     49  C   UNL A   1      35.860  32.141  30.587  1.00  0.00     0.010 A 
ATOM     50  C   UNL A   1      37.074  33.480  28.975  1.00  0.00     0.010 A 
ATOM     51  C   UNL A   1      34.705  32.894  30.336  1.00  0.00     0.020 A 
ATOM     52  C   UNL A   1      35.932  34.250  28.740  1.00  0.00     0.020 A 
ATOM     53  C   UNL A   1      34.752  33.951  29.423  1.00  0.00     0.054 A 
BRANCH  53  54
ATOM     54  S   UNL A   1      33.270  34.975  29.185  1.00  0.00     0.124 S 
ATOM     55  O   UNL A   1      32.695  34.994  30.527  1.00  0.00    -0.237 OA
ATOM     56  O   UNL A   1      33.833  36.240  28.721  1.00  0.00    -0.237 OA
ATOM     57  O   UNL A   1      32.500  34.239  28.185  1.00  0.00    -0.744 OA
ENDBRANCH  53  54
ENDBRANCH  25  48
BRANCH  37  58
ATOM     58  C   UNL A   1      42.066  33.089  34.792  1.00  0.00    -0.014 A 
ATOM     59  C   UNL A   1      42.795  34.263  34.540  1.00  0.00     0.010 A 
ATOM     60  C   UNL A   1      41.430  32.919  36.036  1.00  0.00     0.010 A 
ATOM     61  C   UNL A   1      42.878  35.257  35.518  1.00  0.00     0.020 A 
ATOM     62  C   UNL A   1      41.491  33.922  37.005  1.00  0.00     0.020 A 
ATOM     63  C   UNL A   1      42.217  35.084  36.741  1.00  0.00     0.054 A 
BRANCH  63  64
ATOM     64  S   UNL A   1      42.249  36.436  37.949  1.00  0.00     0.124 S 
ATOM     65  O   UNL A   1      43.191  37.367  37.336  1.00  0.00    -0.237 OA
ATOM     66  O   UNL A   1      40.856  36.874  37.974  1.00  0.00    -0.237 OA
ATOM     67  O   UNL A   1      42.716  35.793  39.175  1.00  0.00    -0.744 OA
ENDBRANCH  63  64
ENDBRANCH  37  58
ENDBRANCH  11  12
ENDBRANCH   4   6
ENDBRANCH   3   4
ENDBRANCH   2   3
ENDBRANCH   1   2
BRANCH   1  68
ATOM     68  O   UNL A   1      36.115  20.755  24.866  1.00  0.00    -0.374 OA
BRANCH  68  69
ATOM     69  C   UNL A   1      35.049  21.075  25.750  1.00  0.00     0.202 C 
BRANCH  69  70
ATOM     70  C   UNL A   1      33.767  21.407  24.997  1.00  0.00     0.261 C 
BRANCH  70  71
ATOM     71  O   UNL A   1      32.634  21.645  25.840  1.00  0.00    -0.462 OA
BRANCH  71  72
ATOM     72  C   UNL A   1      32.748  22.468  26.914  1.00  0.00     0.334 C 
ATOM     73  O   UNL A   1      33.425  22.323  27.933  1.00  0.00    -0.250 OA
BRANCH  72  74
ATOM     74  C   UNL A   1      31.980  23.705  26.692  1.00  0.00     0.252 C 
ATOM     75  C   UNL A   1      30.787  23.541  25.729  1.00  0.00     0.298 C 
ATOM     76  N   UNL A   1      32.758  24.885  26.349  1.00  0.00    -0.300 N 
ATOM     77  N   UNL A   1      29.861  24.701  25.827  1.00  0.00    -0.343 N 
ATOM     78  C   UNL A   1      31.902  26.068  26.570  1.00  0.00     0.183 C 
ATOM     79  C   UNL A   1      30.620  25.970  25.686  1.00  0.00     0.282 C 
ATOM     80  H   UNL A   1      29.395  24.685  26.735  1.00  0.00     0.346 HD
ATOM     81  H   UNL A   1      29.168  24.641  25.081  1.00  0.00     0.346 HD
BRANCH  76  82
ATOM     82  C   UNL A   1      33.704  25.013  25.388  1.00  0.00     0.318 C 
ATOM     83  O   UNL A   1      34.899  24.866  25.701  1.00  0.00    -0.249 OA
ATOM     84  N   UNL A   1      33.597  25.279  24.091  1.00  0.00    -0.333 N 
ATOM     85  H   UNL A   1      34.412  25.795  23.895  1.00  0.00     0.165 HD
BRANCH  84  86
ATOM     86  C   UNL A   1      32.895  25.214  22.763  1.00  0.00     0.112 C 
ATOM     87  C   UNL A   1      33.018  26.215  21.622  1.00  0.00     0.056 C 
ATOM     88  C   UNL A   1      33.524  24.018  21.995  1.00  0.00     0.185 C 
ATOM     89  C   UNL A   1      32.669  25.404  20.383  1.00  0.00     0.162 C 
ATOM     90  O   UNL A   1      33.123  24.079  20.628  1.00  0.00    -0.379 OA
ENDBRANCH  84  86
ENDBRANCH  76  82
ENDBRANCH  72  74
ENDBRANCH  71  72
ENDBRANCH  70  71
ENDBRANCH  69  70
ENDBRANCH  68  69
ENDBRANCH   1  68
TORSDOF 19
ENDMDL
MODEL 2
REMARK VINA RESULT:     -10.1      1.117      2.087
REMARK SMILES O=C(OCCOCCOC(=O)[C@@H]1C[NH2+]CCN1C(=O)N[C@H]1CCOC1)c1ccc(-c2c3nc(c(-c4ccc(S(=O)(=O)[O-])cc4)c4ccc([nH]4)c(-c4ccc(S(=O)(=O)[O-])cc4)c4nc(c(-c5ccc(S(=O)(=O)[O-])cc5)c5ccc2[nH]5)C=C4)C=C3)cc1
REMARK SMILES IDX 5 1 4 2 3 3 2 4 1 5 26 6 27 7 85 8 28 9 84 10 29 11 30 12
REMARK SMILES IDX 31 13 78 14 32 15 83 16 77 17 79 18 33 19 82 20 76 21 75 22
REMARK SMILES IDX 34 24 64 25 45 26 63 27 46 28 49 29 62 30 80 31 47 32 48 33
REMARK SMILES IDX 61 35 81 36 50 37 35 38 36 39 44 40 37 41 43 42 38 43 39 44
REMARK SMILES IDX 40 45 41 46 42 47 65 48 66 49 74 50 67 51 73 52 68 53 69 54
REMARK SMILES IDX 70 55 71 56 72 57 51 58 52 59 60 60 53 61 59 62 54 63 55 64
REMARK SMILES IDX 56 65 57 66 58 67 6 68 7 69 8 70 9 71 10 72 11 73 12 74
REMARK SMILES IDX 13 75 17 76 14 77 16 78 15 79 18 82 19 83 20 84 21 86 22 87
REMARK SMILES IDX 25 88 23 89 24 90
REMARK H PARENT 79 23 49 34 14 80 14 81 20 85
REMARK Flexibility Score: inf
ROOT
ATOM      1  C   UNL A   1      36.623  21.940  25.575  1.00  0.00     0.202 C 
ENDROOT
BRANCH   1   2
ATOM      2  C   UNL A   1      38.027  22.266  25.079  1.00  0.00     0.261 C 
BRANCH   2   3
ATOM      3  O   UNL A   1      39.034  21.853  26.008  1.00  0.00    -0.460 OA
BRANCH   3   4
ATOM      4  C   UNL A   1      40.175  22.519  26.313  1.00  0.00     0.338 C 
ATOM      5  O   UNL A   1      41.241  21.929  26.125  1.00  0.00    -0.246 OA
BRANCH   4   6
ATOM      6  C   UNL A   1      40.239  23.947  26.800  1.00  0.00     0.060 A 
ATOM      7  C   UNL A   1      41.116  24.959  26.378  1.00  0.00     0.016 A 
ATOM      8  C   UNL A   1      39.275  24.290  27.766  1.00  0.00     0.016 A 
ATOM      9  C   UNL A   1      41.081  26.242  26.928  1.00  0.00     0.010 A 
ATOM     10  C   UNL A   1      39.247  25.559  28.344  1.00  0.00     0.010 A 
ATOM     11  C   UNL A   1      40.189  26.516  27.959  1.00  0.00    -0.014 A 
BRANCH  11  12
ATOM     12  C   UNL A   1      40.466  27.651  28.854  1.00  0.00     0.031 A 
ATOM     13  C   UNL A   1      41.690  27.537  29.716  1.00  0.00     0.074 A 
ATOM     14  C   UNL A   1      39.662  28.724  28.896  1.00  0.00     0.049 A 
ATOM     15  N   UNL A   1      42.097  28.305  30.687  1.00  0.00    -0.248 NA
ATOM     16  C   UNL A   1      42.575  26.389  29.442  1.00  0.00     0.031 C 
ATOM     17  C   UNL A   1      38.512  28.953  28.024  1.00  0.00     0.029 A 
ATOM     18  N   UNL A   1      39.686  29.813  29.724  1.00  0.00    -0.354 N 
ATOM     19  C   UNL A   1      43.266  27.716  31.157  1.00  0.00     0.074 A 
ATOM     20  C   UNL A   1      43.507  26.533  30.368  1.00  0.00     0.031 C 
ATOM     21  C   UNL A   1      37.918  30.103  28.385  1.00  0.00     0.029 A 
ATOM     22  C   UNL A   1      38.615  30.654  29.547  1.00  0.00     0.049 A 
ATOM     23  H   UNL A   1      40.400  29.978  30.382  1.00  0.00     0.167 HD
ATOM     24  C   UNL A   1      44.051  28.117  32.181  1.00  0.00     0.031 A 
ATOM     25  C   UNL A   1      38.222  31.713  30.282  1.00  0.00     0.031 A 
ATOM     26  C   UNL A   1      43.742  29.259  32.993  1.00  0.00     0.049 A 
ATOM     27  C   UNL A   1      39.055  32.096  31.478  1.00  0.00     0.074 A 
ATOM     28  C   UNL A   1      44.418  29.748  34.092  1.00  0.00     0.029 A 
ATOM     29  N   UNL A   1      42.637  30.078  32.793  1.00  0.00    -0.354 N 
ATOM     30  N   UNL A   1      40.149  31.528  31.933  1.00  0.00    -0.248 NA
ATOM     31  C   UNL A   1      38.606  33.253  32.264  1.00  0.00     0.031 C 
ATOM     32  C   UNL A   1      43.687  30.830  34.594  1.00  0.00     0.029 A 
ATOM     33  C   UNL A   1      42.598  31.059  33.764  1.00  0.00     0.049 A 
ATOM     34  H   UNL A   1      41.980  29.974  32.068  1.00  0.00     0.167 HD
ATOM     35  C   UNL A   1      40.536  32.272  33.042  1.00  0.00     0.074 A 
ATOM     36  C   UNL A   1      39.557  33.332  33.189  1.00  0.00     0.031 C 
ATOM     37  C   UNL A   1      41.605  32.103  33.861  1.00  0.00     0.031 A 
BRANCH  24  38
ATOM     38  C   UNL A   1      45.228  27.240  32.517  1.00  0.00    -0.014 A 
ATOM     39  C   UNL A   1      45.101  26.134  33.378  1.00  0.00     0.010 A 
ATOM     40  C   UNL A   1      46.501  27.581  32.026  1.00  0.00     0.010 A 
ATOM     41  C   UNL A   1      46.234  25.431  33.798  1.00  0.00     0.020 A 
ATOM     42  C   UNL A   1      47.632  26.861  32.418  1.00  0.00     0.020 A 
ATOM     43  C   UNL A   1      47.495  25.810  33.326  1.00  0.00     0.054 A 
BRANCH  43  44
ATOM     44  S   UNL A   1      48.956  24.914  33.924  1.00  0.00     0.124 S 
ATOM     45  O   UNL A   1      48.348  23.809  34.661  1.00  0.00    -0.237 OA
ATOM     46  O   UNL A   1      49.635  24.545  32.685  1.00  0.00    -0.237 OA
ATOM     47  O   UNL A   1      49.656  25.900  34.744  1.00  0.00    -0.744 OA
ENDBRANCH  43  44
ENDBRANCH  24  38
BRANCH  25  48
ATOM     48  C   UNL A   1      36.965  32.428  29.925  1.00  0.00    -0.014 A 
ATOM     49  C   UNL A   1      35.789  32.244  30.670  1.00  0.00     0.010 A 
ATOM     50  C   UNL A   1      36.963  33.363  28.870  1.00  0.00     0.010 A 
ATOM     51  C   UNL A   1      34.640  32.991  30.377  1.00  0.00     0.020 A 
ATOM     52  C   UNL A   1      35.827  34.128  28.591  1.00  0.00     0.020 A 
ATOM     53  C   UNL A   1      34.670  33.936  29.348  1.00  0.00     0.054 A 
BRANCH  53  54
ATOM     54  S   UNL A   1      33.199  34.960  29.050  1.00  0.00     0.124 S 
ATOM     55  O   UNL A   1      33.790  36.219  28.606  1.00  0.00    -0.237 OA
ATOM     56  O   UNL A   1      32.488  34.199  28.025  1.00  0.00    -0.237 OA
ATOM     57  O   UNL A   1      32.541  35.004  30.354  1.00  0.00    -0.744 OA
ENDBRANCH  53  54
ENDBRANCH  25  48
BRANCH  37  58
ATOM     58  C   UNL A   1      41.810  33.109  34.960  1.00  0.00    -0.014 A 
ATOM     59  C   UNL A   1      42.358  34.375  34.697  1.00  0.00     0.010 A 
ATOM     60  C   UNL A   1      41.304  32.824  36.242  1.00  0.00     0.010 A 
ATOM     61  C   UNL A   1      42.391  35.345  35.702  1.00  0.00     0.020 A 
ATOM     62  C   UNL A   1      41.313  33.799  37.239  1.00  0.00     0.020 A 
ATOM     63  C   UNL A   1      41.859  35.053  36.964  1.00  0.00     0.054 A 
BRANCH  63  64
ATOM     64  S   UNL A   1      41.813  36.364  38.215  1.00  0.00     0.124 S 
ATOM     65  O   UNL A   1      43.062  37.074  37.956  1.00  0.00    -0.237 OA
ATOM     66  O   UNL A   1      40.593  37.091  37.873  1.00  0.00    -0.237 OA
ATOM     67  O   UNL A   1      41.762  35.635  39.480  1.00  0.00    -0.744 OA
ENDBRANCH  63  64
ENDBRANCH  37  58
ENDBRANCH  11  12
ENDBRANCH   4   6
ENDBRANCH   3   4
ENDBRANCH   2   3
ENDBRANCH   1   2
BRANCH   1  68
ATOM     68  O   UNL A   1      35.863  21.231  24.597  1.00  0.00    -0.374 OA
BRANCH  68  69
ATOM     69  C   UNL A   1      34.993  20.223  25.095  1.00  0.00     0.202 C 
BRANCH  69  70
ATOM     70  C   UNL A   1      33.543  20.481  24.705  1.00  0.00     0.261 C 
BRANCH  70  71
ATOM     71  O   UNL A   1      33.329  21.719  24.016  1.00  0.00    -0.462 OA
BRANCH  71  72
ATOM     72  C   UNL A   1      32.541  22.676  24.569  1.00  0.00     0.334 C 
ATOM     73  O   UNL A   1      32.056  22.722  25.701  1.00  0.00    -0.250 OA
BRANCH  72  74
ATOM     74  C   UNL A   1      32.368  23.798  23.631  1.00  0.00     0.252 C 
ATOM     75  C   UNL A   1      33.073  23.599  22.274  1.00  0.00     0.298 C 
ATOM     76  N   UNL A   1      32.647  25.122  24.165  1.00  0.00    -0.300 N 
ATOM     77  N   UNL A   1      32.573  24.574  21.268  1.00  0.00    -0.343 N 
ATOM     78  C   UNL A   1      32.041  26.111  23.251  1.00  0.00     0.183 C 
ATOM     79  C   UNL A   1      32.638  25.951  21.820  1.00  0.00     0.282 C 
ATOM     80  H   UNL A   1      31.606  24.350  21.032  1.00  0.00     0.346 HD
ATOM     81  H   UNL A   1      33.155  24.520  20.432  1.00  0.00     0.346 HD
BRANCH  76  82
ATOM     82  C   UNL A   1      33.746  25.538  24.839  1.00  0.00     0.318 C 
ATOM     83  O   UNL A   1      34.820  24.936  24.661  1.00  0.00    -0.249 OA
ATOM     84  N   UNL A   1      33.913  26.531  25.706  1.00  0.00    -0.333 N 
ATOM     85  H   UNL A   1      34.600  26.185  26.320  1.00  0.00     0.165 HD
BRANCH  84  86
ATOM     86  C   UNL A   1      33.611  27.899  26.251  1.00  0.00     0.112 C 
ATOM     87  C   UNL A   1      33.214  29.128  25.445  1.00  0.00     0.056 C 
ATOM     88  C   UNL A   1      32.270  27.774  27.024  1.00  0.00     0.185 C 
ATOM     89  C   UNL A   1      32.438  29.982  26.437  1.00  0.00     0.162 C 
ATOM     90  O   UNL A   1      31.773  29.079  27.311  1.00  0.00    -0.379 OA
ENDBRANCH  84  86
ENDBRANCH  76  82
ENDBRANCH  72  74
ENDBRANCH  71  72
ENDBRANCH  70  71
ENDBRANCH  69  70
ENDBRANCH  68  69
ENDBRANCH   1  68
TORSDOF 19
ENDMDL
MODEL 3
REMARK VINA RESULT:     -10.1      3.150      9.532
REMARK SMILES O=C(OCCOCCOC(=O)[C@@H]1C[NH2+]CCN1C(=O)N[C@H]1CCOC1)c1ccc(-c2c3nc(c(-c4ccc(S(=O)(=O)[O-])cc4)c4ccc([nH]4)c(-c4ccc(S(=O)(=O)[O-])cc4)c4nc(c(-c5ccc(S(=O)(=O)[O-])cc5)c5ccc2[nH]5)C=C4)C=C3)cc1
REMARK SMILES IDX 5 1 4 2 3 3 2 4 1 5 26 6 27 7 85 8 28 9 84 10 29 11 30 12
REMARK SMILES IDX 31 13 78 14 32 15 83 16 77 17 79 18 33 19 82 20 76 21 75 22
REMARK SMILES IDX 34 24 64 25 45 26 63 27 46 28 49 29 62 30 80 31 47 32 48 33
REMARK SMILES IDX 61 35 81 36 50 37 35 38 36 39 44 40 37 41 43 42 38 43 39 44
REMARK SMILES IDX 40 45 41 46 42 47 65 48 66 49 74 50 67 51 73 52 68 53 69 54
REMARK SMILES IDX 70 55 71 56 72 57 51 58 52 59 60 60 53 61 59 62 54 63 55 64
REMARK SMILES IDX 56 65 57 66 58 67 6 68 7 69 8 70 9 71 10 72 11 73 12 74
REMARK SMILES IDX 13 75 17 76 14 77 16 78 15 79 18 82 19 83 20 84 21 86 22 87
REMARK SMILES IDX 25 88 23 89 24 90
REMARK H PARENT 79 23 49 34 14 80 14 81 20 85
REMARK Flexibility Score: inf
ROOT
ATOM      1  C   UNL A   1      31.981  30.111  26.458  1.00  0.00     0.202 C 
ENDROOT
BRANCH   1   2
ATOM      2  C   UNL A   1      33.451  30.417  26.726  1.00  0.00     0.261 C 
BRANCH   2   3
ATOM      3  O   UNL A   1      33.643  31.065  27.987  1.00  0.00    -0.460 OA
BRANCH   3   4
ATOM      4  C   UNL A   1      34.827  31.449  28.525  1.00  0.00     0.338 C 
ATOM      5  O   UNL A   1      34.920  32.616  28.910  1.00  0.00    -0.246 OA
BRANCH   4   6
ATOM      6  C   UNL A   1      36.011  30.540  28.748  1.00  0.00     0.060 A 
ATOM      7  C   UNL A   1      36.306  29.780  29.891  1.00  0.00     0.016 A 
ATOM      8  C   UNL A   1      36.891  30.429  27.656  1.00  0.00     0.016 A 
ATOM      9  C   UNL A   1      37.452  28.988  29.975  1.00  0.00     0.010 A 
ATOM     10  C   UNL A   1      38.055  29.665  27.736  1.00  0.00     0.010 A 
ATOM     11  C   UNL A   1      38.359  28.988  28.921  1.00  0.00    -0.014 A 
BRANCH  11  12
ATOM     12  C   UNL A   1      39.749  28.582  29.179  1.00  0.00     0.031 A 
ATOM     13  C   UNL A   1      40.654  29.631  29.758  1.00  0.00     0.074 A 
ATOM     14  C   UNL A   1      40.180  27.342  28.904  1.00  0.00     0.049 A 
ATOM     15  N   UNL A   1      41.942  29.602  29.952  1.00  0.00    -0.248 NA
ATOM     16  C   UNL A   1      40.008  30.891  30.172  1.00  0.00     0.031 C 
ATOM     17  C   UNL A   1      39.343  26.241  28.432  1.00  0.00     0.029 A 
ATOM     18  N   UNL A   1      41.440  26.811  28.968  1.00  0.00    -0.354 N 
ATOM     19  C   UNL A   1      42.262  30.848  30.481  1.00  0.00     0.074 A 
ATOM     20  C   UNL A   1      41.040  31.607  30.582  1.00  0.00     0.031 C 
ATOM     21  C   UNL A   1      40.122  25.166  28.218  1.00  0.00     0.029 A 
ATOM     22  C   UNL A   1      41.514  25.528  28.484  1.00  0.00     0.049 A 
ATOM     23  H   UNL A   1      42.217  27.300  29.325  1.00  0.00     0.167 HD
ATOM     24  C   UNL A   1      43.480  31.323  30.824  1.00  0.00     0.031 A 
ATOM     25  C   UNL A   1      42.595  24.763  28.237  1.00  0.00     0.031 A 
ATOM     26  C   UNL A   1      44.685  30.567  30.642  1.00  0.00     0.049 A 
ATOM     27  C   UNL A   1      43.956  25.337  28.536  1.00  0.00     0.074 A 
ATOM     28  C   UNL A   1      45.989  30.941  30.896  1.00  0.00     0.029 A 
ATOM     29  N   UNL A   1      44.722  29.274  30.133  1.00  0.00    -0.354 N 
ATOM     30  N   UNL A   1      44.260  26.521  29.019  1.00  0.00    -0.248 NA
ATOM     31  C   UNL A   1      45.119  24.485  28.257  1.00  0.00     0.031 C 
ATOM     32  C   UNL A   1      46.820  29.895  30.483  1.00  0.00     0.029 A 
ATOM     33  C   UNL A   1      46.030  28.842  30.042  1.00  0.00     0.049 A 
ATOM     34  H   UNL A   1      43.933  28.745  29.875  1.00  0.00     0.167 HD
ATOM     35  C   UNL A   1      45.645  26.548  29.127  1.00  0.00     0.074 A 
ATOM     36  C   UNL A   1      46.120  25.260  28.658  1.00  0.00     0.031 C 
ATOM     37  C   UNL A   1      46.454  27.541  29.577  1.00  0.00     0.031 A 
BRANCH  24  38
ATOM     38  C   UNL A   1      43.541  32.746  31.311  1.00  0.00    -0.014 A 
ATOM     39  C   UNL A   1      43.630  33.829  30.415  1.00  0.00     0.010 A 
ATOM     40  C   UNL A   1      43.592  32.998  32.693  1.00  0.00     0.010 A 
ATOM     41  C   UNL A   1      43.843  35.125  30.892  1.00  0.00     0.020 A 
ATOM     42  C   UNL A   1      43.772  34.297  33.175  1.00  0.00     0.020 A 
ATOM     43  C   UNL A   1      43.928  35.349  32.270  1.00  0.00     0.054 A 
BRANCH  43  44
ATOM     44  S   UNL A   1      44.253  37.032  32.863  1.00  0.00     0.124 S 
ATOM     45  O   UNL A   1      45.263  36.797  33.893  1.00  0.00    -0.237 OA
ATOM     46  O   UNL A   1      44.729  37.710  31.661  1.00  0.00    -0.237 OA
ATOM     47  O   UNL A   1      42.954  37.483  33.357  1.00  0.00    -0.744 OA
ENDBRANCH  43  44
ENDBRANCH  24  38
BRANCH  25  48
ATOM     48  C   UNL A   1      42.416  23.413  27.633  1.00  0.00    -0.014 A 
ATOM     49  C   UNL A   1      42.671  23.187  26.270  1.00  0.00     0.010 A 
ATOM     50  C   UNL A   1      42.058  22.320  28.448  1.00  0.00     0.010 A 
ATOM     51  C   UNL A   1      42.584  21.894  25.737  1.00  0.00     0.020 A 
ATOM     52  C   UNL A   1      41.995  21.025  27.925  1.00  0.00     0.020 A 
ATOM     53  C   UNL A   1      42.259  20.820  26.570  1.00  0.00     0.054 A 
BRANCH  53  54
ATOM     54  S   UNL A   1      42.248  19.141  25.878  1.00  0.00     0.124 S 
ATOM     55  O   UNL A   1      43.092  19.293  24.697  1.00  0.00    -0.237 OA
ATOM     56  O   UNL A   1      42.818  18.349  26.964  1.00  0.00    -0.237 OA
ATOM     57  O   UNL A   1      40.834  18.889  25.607  1.00  0.00    -0.744 OA
ENDBRANCH  53  54
ENDBRANCH  25  48
BRANCH  37  58
ATOM     58  C   UNL A   1      47.931  27.267  29.640  1.00  0.00    -0.014 A 
ATOM     59  C   UNL A   1      48.779  27.593  28.570  1.00  0.00     0.010 A 
ATOM     60  C   UNL A   1      48.484  26.813  30.852  1.00  0.00     0.010 A 
ATOM     61  C   UNL A   1      50.164  27.475  28.714  1.00  0.00     0.020 A 
ATOM     62  C   UNL A   1      49.867  26.719  31.007  1.00  0.00     0.020 A 
ATOM     63  C   UNL A   1      50.699  27.048  29.936  1.00  0.00     0.054 A 
BRANCH  63  64
ATOM     64  S   UNL A   1      52.501  27.011  30.133  1.00  0.00     0.124 S 
ATOM     65  O   UNL A   1      52.954  26.851  28.755  1.00  0.00    -0.237 OA
ATOM     66  O   UNL A   1      52.783  28.308  30.743  1.00  0.00    -0.237 OA
ATOM     67  O   UNL A   1      52.730  25.858  31.002  1.00  0.00    -0.744 OA
ENDBRANCH  63  64
ENDBRANCH  37  58
ENDBRANCH  11  12
ENDBRANCH   4   6
ENDBRANCH   3   4
ENDBRANCH   2   3
ENDBRANCH   1   2
BRANCH   1  68
ATOM     68  O   UNL A   1      31.666  28.743  26.717  1.00  0.00    -0.374 OA
BRANCH  68  69
ATOM     69  C   UNL A   1      32.184  27.800  25.788  1.00  0.00     0.202 C 
BRANCH  69  70
ATOM     70  C   UNL A   1      32.508  26.467  26.453  1.00  0.00     0.261 C 
BRANCH  70  71
ATOM     71  O   UNL A   1      32.050  25.320  25.728  1.00  0.00    -0.462 OA
BRANCH  71  72
ATOM     72  C   UNL A   1      31.199  24.441  26.316  1.00  0.00     0.334 C 
ATOM     73  O   UNL A   1      30.077  24.644  26.784  1.00  0.00    -0.250 OA
BRANCH  72  74
ATOM     74  C   UNL A   1      31.757  23.079  26.266  1.00  0.00     0.252 C 
ATOM     75  C   UNL A   1      32.997  22.874  27.159  1.00  0.00     0.298 C 
ATOM     76  N   UNL A   1      31.984  22.533  24.937  1.00  0.00    -0.300 N 
ATOM     77  N   UNL A   1      33.288  21.427  27.341  1.00  0.00    -0.343 N 
ATOM     78  C   UNL A   1      32.141  21.071  25.074  1.00  0.00     0.183 C 
ATOM     79  C   UNL A   1      33.337  20.749  26.021  1.00  0.00     0.282 C 
ATOM     80  H   UNL A   1      32.554  21.005  27.910  1.00  0.00     0.346 HD
ATOM     81  H   UNL A   1      34.189  21.322  27.806  1.00  0.00     0.346 HD
BRANCH  76  82
ATOM     82  C   UNL A   1      32.645  23.101  23.901  1.00  0.00     0.318 C 
ATOM     83  O   UNL A   1      31.994  23.469  22.906  1.00  0.00    -0.249 OA
ATOM     84  N   UNL A   1      33.935  23.365  23.729  1.00  0.00    -0.333 N 
ATOM     85  H   UNL A   1      34.066  23.250  22.760  1.00  0.00     0.165 HD
BRANCH  84  86
ATOM     86  C   UNL A   1      35.304  23.743  24.225  1.00  0.00     0.112 C 
ATOM     87  C   UNL A   1      35.708  23.987  25.672  1.00  0.00     0.056 C 
ATOM     88  C   UNL A   1      36.204  22.495  24.015  1.00  0.00     0.185 C 
ATOM     89  C   UNL A   1      37.202  23.698  25.689  1.00  0.00     0.162 C 
ATOM     90  O   UNL A   1      37.425  22.674  24.728  1.00  0.00    -0.379 OA
ENDBRANCH  84  86
ENDBRANCH  76  82
ENDBRANCH  72  74
ENDBRANCH  71  72
ENDBRANCH  70  71
ENDBRANCH  69  70
ENDBRANCH  68  69
ENDBRANCH   1  68
TORSDOF 19
ENDMDL
