MODEL 1
REMARK VINA RESULT:     -10.4      0.000      0.000
REMARK SMILES COc1ccc(-c2nc(NCC(=O)OCCOCCOC(=O)c3ccc(-c4c5nc(c(-c6ccc(S(=O)(=O)[O-])cc6)c6ccc([nH]6)c(-c6ccc(S(=O)(=O)[O-])cc6)c6nc(c(-c7ccc(S(=O)(=O)[O-])cc7)c7ccc4[nH]7)C=C6)C=C5)cc3)sc2-c2ccc(OC)cc2)cc1
REMARK SMILES IDX 16 1 15 2 14 3 12 4 13 5 11 6 10 7 9 9 7 10 8 11 84 12 83 13
REMARK SMILES IDX 6 14 3 15 4 16 94 17 5 18 93 19 2 20 1 21 85 22 86 23 92 24
REMARK SMILES IDX 87 25 91 26 88 27 89 28 90 29 17 30 18 31 19 32 20 33 21 34
REMARK SMILES IDX 22 35 23 36 24 37 82 38 25 39 81 40 26 41 27 42 28 43 75 44
REMARK SMILES IDX 29 45 80 46 74 47 76 48 30 49 79 50 73 51 72 52 31 54 61 55
REMARK SMILES IDX 42 56 60 57 43 58 46 59 59 60 77 61 44 62 45 63 58 65 78 66
REMARK SMILES IDX 47 67 32 68 33 69 41 70 34 71 40 72 35 73 36 74 37 75 38 76
REMARK SMILES IDX 39 77 62 78 63 79 71 80 64 81 70 82 65 83 66 84 67 85 68 86
REMARK SMILES IDX 69 87 48 88 49 89 57 90 50 91 56 92 51 93 52 94 53 95 54 96
REMARK SMILES IDX 55 97
REMARK H PARENT 10 8 76 53 46 64
REMARK Flexibility Score: inf
ROOT
ATOM      1  C   UNL A   1      37.246  20.982  24.740  1.00  0.00     0.202 C 
ENDROOT
BRANCH   1   2
ATOM      2  C   UNL A   1      36.172  22.041  24.475  1.00  0.00     0.261 C 
BRANCH   2   3
ATOM      3  O   UNL A   1      34.863  21.514  24.742  1.00  0.00    -0.462 OA
BRANCH   3   4
ATOM      4  C   UNL A   1      33.824  22.175  24.165  1.00  0.00     0.325 C 
ATOM      5  O   UNL A   1      33.874  22.748  23.081  1.00  0.00    -0.250 OA
BRANCH   4   6
ATOM      6  C   UNL A   1      32.519  22.039  24.942  1.00  0.00     0.238 C 
BRANCH   6   7
ATOM      7  N   UNL A   1      32.213  23.130  25.858  1.00  0.00    -0.351 N 
ATOM      8  H   UNL A   1      32.137  22.915  26.816  1.00  0.00     0.163 HD
BRANCH   7   9
ATOM      9  C   UNL A   1      32.026  24.413  25.487  1.00  0.00     0.184 A 
ATOM     10  C   UNL A   1      32.218  26.619  25.589  1.00  0.00     0.091 A 
ATOM     11  N   UNL A   1      32.630  25.401  26.110  1.00  0.00    -0.220 NA
ATOM     12  C   UNL A   1      31.352  26.537  24.510  1.00  0.00     0.064 A 
ATOM     13  S   UNL A   1      31.007  24.893  24.189  1.00  0.00    -0.096 S 
BRANCH  10  14
ATOM     14  C   UNL A   1      32.692  27.887  26.128  1.00  0.00     0.002 A 
ATOM     15  C   UNL A   1      33.579  30.213  27.425  1.00  0.00     0.118 A 
ATOM     16  C   UNL A   1      34.500  29.258  26.995  1.00  0.00     0.047 A 
ATOM     17  C   UNL A   1      32.222  30.040  27.148  1.00  0.00     0.047 A 
ATOM     18  C   UNL A   1      34.059  28.098  26.354  1.00  0.00     0.014 A 
ATOM     19  C   UNL A   1      31.780  28.882  26.496  1.00  0.00     0.014 A 
BRANCH  15  20
ATOM     20  O   UNL A   1      34.110  31.296  28.073  1.00  0.00    -0.497 OA
ATOM     21  C   UNL A   1      35.535  31.337  28.082  1.00  0.00     0.278 C 
ENDBRANCH  15  20
ENDBRANCH  10  14
BRANCH  12  22
ATOM     22  C   UNL A   1      30.780  27.569  23.652  1.00  0.00    -0.006 A 
ATOM     23  C   UNL A   1      31.593  28.349  22.822  1.00  0.00     0.013 A 
ATOM     24  C   UNL A   1      29.397  27.783  23.647  1.00  0.00     0.013 A 
ATOM     25  C   UNL A   1      31.025  29.327  22.005  1.00  0.00     0.047 A 
ATOM     26  C   UNL A   1      28.831  28.763  22.827  1.00  0.00     0.047 A 
ATOM     27  C   UNL A   1      29.644  29.539  22.002  1.00  0.00     0.118 A 
BRANCH  27  28
ATOM     28  O   UNL A   1      29.219  30.524  21.155  1.00  0.00    -0.497 OA
ATOM     29  C   UNL A   1      27.843  30.879  21.237  1.00  0.00     0.278 C 
ENDBRANCH  27  28
ENDBRANCH  12  22
ENDBRANCH   7   9
ENDBRANCH   6   7
ENDBRANCH   4   6
ENDBRANCH   3   4
ENDBRANCH   2   3
ENDBRANCH   1   2
BRANCH   1  30
ATOM     30  O   UNL A   1      38.442  21.445  25.372  1.00  0.00    -0.374 OA
BRANCH  30  31
ATOM     31  C   UNL A   1      38.366  22.657  26.122  1.00  0.00     0.202 C 
BRANCH  31  32
ATOM     32  C   UNL A   1      39.657  23.151  26.788  1.00  0.00     0.261 C 
BRANCH  32  33
ATOM     33  O   UNL A   1      39.427  24.231  27.709  1.00  0.00    -0.460 OA
BRANCH  33  34
ATOM     34  C   UNL A   1      39.863  25.442  27.286  1.00  0.00     0.338 C 
ATOM     35  O   UNL A   1      40.174  25.753  26.141  1.00  0.00    -0.246 OA
BRANCH  34  36
ATOM     36  C   UNL A   1      39.750  26.436  28.366  1.00  0.00     0.060 A 
ATOM     37  C   UNL A   1      40.569  27.570  28.292  1.00  0.00     0.016 A 
ATOM     38  C   UNL A   1      38.918  26.236  29.470  1.00  0.00     0.016 A 
ATOM     39  C   UNL A   1      40.583  28.495  29.335  1.00  0.00     0.010 A 
ATOM     40  C   UNL A   1      38.943  27.158  30.523  1.00  0.00     0.010 A 
ATOM     41  C   UNL A   1      39.792  28.279  30.472  1.00  0.00    -0.014 A 
BRANCH  41  42
ATOM     42  C   UNL A   1      39.929  29.175  31.646  1.00  0.00     0.031 A 
ATOM     43  C   UNL A   1      41.052  28.950  32.622  1.00  0.00     0.074 A 
ATOM     44  C   UNL A   1      39.066  30.191  31.833  1.00  0.00     0.049 A 
ATOM     45  N   UNL A   1      41.322  29.588  33.731  1.00  0.00    -0.248 NA
ATOM     46  C   UNL A   1      41.996  27.868  32.304  1.00  0.00     0.031 C 
ATOM     47  C   UNL A   1      37.964  30.539  30.937  1.00  0.00     0.029 A 
ATOM     48  N   UNL A   1      38.981  31.113  32.847  1.00  0.00    -0.354 N 
ATOM     49  C   UNL A   1      42.461  28.983  34.249  1.00  0.00     0.074 A 
ATOM     50  C   UNL A   1      42.819  27.913  33.342  1.00  0.00     0.031 C 
ATOM     51  C   UNL A   1      37.303  31.592  31.449  1.00  0.00     0.029 A 
ATOM     52  C   UNL A   1      37.912  31.968  32.723  1.00  0.00     0.049 A 
ATOM     53  H   UNL A   1      39.624  31.157  33.592  1.00  0.00     0.167 HD
ATOM     54  C   UNL A   1      43.146  29.289  35.377  1.00  0.00     0.031 A 
ATOM     55  C   UNL A   1      37.459  32.927  33.555  1.00  0.00     0.031 A 
ATOM     56  C   UNL A   1      42.781  30.344  36.286  1.00  0.00     0.049 A 
ATOM     57  C   UNL A   1      38.191  33.195  34.844  1.00  0.00     0.074 A 
ATOM     58  C   UNL A   1      43.425  30.742  37.445  1.00  0.00     0.029 A 
ATOM     59  N   UNL A   1      41.670  31.162  36.145  1.00  0.00    -0.354 N 
ATOM     60  N   UNL A   1      39.279  32.628  35.306  1.00  0.00    -0.248 NA
ATOM     61  C   UNL A   1      37.633  34.233  35.723  1.00  0.00     0.031 C 
ATOM     62  C   UNL A   1      42.672  31.762  38.035  1.00  0.00     0.029 A 
ATOM     63  C   UNL A   1      41.591  32.038  37.215  1.00  0.00     0.049 A 
ATOM     64  H   UNL A   1      41.032  31.125  35.397  1.00  0.00     0.167 HD
ATOM     65  C   UNL A   1      39.547  33.255  36.519  1.00  0.00     0.074 A 
ATOM     66  C   UNL A   1      38.517  34.255  36.710  1.00  0.00     0.031 C 
ATOM     67  C   UNL A   1      40.556  33.024  37.397  1.00  0.00     0.031 A 
BRANCH  54  68
ATOM     68  C   UNL A   1      44.347  28.447  35.715  1.00  0.00    -0.014 A 
ATOM     69  C   UNL A   1      45.636  28.812  35.290  1.00  0.00     0.010 A 
ATOM     70  C   UNL A   1      44.188  27.303  36.517  1.00  0.00     0.010 A 
ATOM     71  C   UNL A   1      46.742  28.031  35.637  1.00  0.00     0.020 A 
ATOM     72  C   UNL A   1      45.293  26.531  36.886  1.00  0.00     0.020 A 
ATOM     73  C   UNL A   1      46.563  26.894  36.432  1.00  0.00     0.054 A 
BRANCH  73  74
ATOM     74  S   UNL A   1      48.020  25.916  36.895  1.00  0.00     0.124 S 
ATOM     75  O   UNL A   1      48.712  26.823  37.807  1.00  0.00    -0.237 OA
ATOM     76  O   UNL A   1      47.429  24.733  37.513  1.00  0.00    -0.237 OA
ATOM     77  O   UNL A   1      48.697  25.679  35.622  1.00  0.00    -0.744 OA
ENDBRANCH  73  74
ENDBRANCH  54  68
BRANCH  55  78
ATOM     78  C   UNL A   1      36.221  33.681  33.217  1.00  0.00    -0.014 A 
ATOM     79  C   UNL A   1      34.954  33.182  33.564  1.00  0.00     0.010 A 
ATOM     80  C   UNL A   1      36.309  34.905  32.528  1.00  0.00     0.010 A 
ATOM     81  C   UNL A   1      33.797  33.884  33.214  1.00  0.00     0.020 A 
ATOM     82  C   UNL A   1      35.156  35.623  32.200  1.00  0.00     0.020 A 
ATOM     83  C   UNL A   1      33.906  35.100  32.533  1.00  0.00     0.054 A 
BRANCH  83  84
ATOM     84  S   UNL A   1      32.394  36.016  32.125  1.00  0.00     0.124 S 
ATOM     85  O   UNL A   1      32.522  37.202  32.965  1.00  0.00    -0.237 OA
ATOM     86  O   UNL A   1      32.535  36.236  30.687  1.00  0.00    -0.237 OA
ATOM     87  O   UNL A   1      31.325  35.093  32.503  1.00  0.00    -0.744 OA
ENDBRANCH  83  84
ENDBRANCH  55  78
BRANCH  67  88
ATOM     88  C   UNL A   1      40.609  33.880  38.634  1.00  0.00    -0.014 A 
ATOM     89  C   UNL A   1      41.303  35.102  38.644  1.00  0.00     0.010 A 
ATOM     90  C   UNL A   1      39.909  33.480  39.787  1.00  0.00     0.010 A 
ATOM     91  C   UNL A   1      41.322  35.895  39.795  1.00  0.00     0.020 A 
ATOM     92  C   UNL A   1      39.905  34.282  40.932  1.00  0.00     0.020 A 
ATOM     93  C   UNL A   1      40.624  35.479  40.933  1.00  0.00     0.054 A 
BRANCH  93  94
ATOM     94  S   UNL A   1      40.629  36.545  42.400  1.00  0.00     0.124 S 
ATOM     95  O   UNL A   1      40.933  35.595  43.466  1.00  0.00    -0.237 OA
ATOM     96  O   UNL A   1      41.686  37.507  42.095  1.00  0.00    -0.237 OA
ATOM     97  O   UNL A   1      39.278  37.102  42.429  1.00  0.00    -0.744 OA
ENDBRANCH  93  94
ENDBRANCH  67  88
ENDBRANCH  41  42
ENDBRANCH  34  36
ENDBRANCH  33  34
ENDBRANCH  32  33
ENDBRANCH  31  32
ENDBRANCH  30  31
ENDBRANCH   1  30
TORSDOF 23
ENDMDL
MODEL 2
REMARK VINA RESULT:      -9.9      1.386      8.284
REMARK SMILES COc1ccc(-c2nc(NCC(=O)OCCOCCOC(=O)c3ccc(-c4c5nc(c(-c6ccc(S(=O)(=O)[O-])cc6)c6ccc([nH]6)c(-c6ccc(S(=O)(=O)[O-])cc6)c6nc(c(-c7ccc(S(=O)(=O)[O-])cc7)c7ccc4[nH]7)C=C6)C=C5)cc3)sc2-c2ccc(OC)cc2)cc1
REMARK SMILES IDX 16 1 15 2 14 3 12 4 13 5 11 6 10 7 9 9 7 10 8 11 84 12 83 13
REMARK SMILES IDX 6 14 3 15 4 16 94 17 5 18 93 19 2 20 1 21 85 22 86 23 92 24
REMARK SMILES IDX 87 25 91 26 88 27 89 28 90 29 17 30 18 31 19 32 20 33 21 34
REMARK SMILES IDX 22 35 23 36 24 37 82 38 25 39 81 40 26 41 27 42 28 43 75 44
REMARK SMILES IDX 29 45 80 46 74 47 76 48 30 49 79 50 73 51 72 52 31 54 61 55
REMARK SMILES IDX 42 56 60 57 43 58 46 59 59 60 77 61 44 62 45 63 58 65 78 66
REMARK SMILES IDX 47 67 32 68 33 69 41 70 34 71 40 72 35 73 36 74 37 75 38 76
REMARK SMILES IDX 39 77 62 78 63 79 71 80 64 81 70 82 65 83 66 84 67 85 68 86
REMARK SMILES IDX 69 87 48 88 49 89 57 90 50 91 56 92 51 93 52 94 53 95 54 96
REMARK SMILES IDX 55 97
REMARK H PARENT 10 8 76 53 46 64
REMARK Flexibility Score: inf
ROOT
ATOM      1  C   UNL A   1      37.413  20.671  25.133  1.00  0.00     0.202 C 
ENDROOT
BRANCH   1   2
ATOM      2  C   UNL A   1      36.435  21.847  25.062  1.00  0.00     0.261 C 
BRANCH   2   3
ATOM      3  O   UNL A   1      35.077  21.380  25.082  1.00  0.00    -0.462 OA
BRANCH   3   4
ATOM      4  C   UNL A   1      34.258  21.886  24.121  1.00  0.00     0.325 C 
ATOM      5  O   UNL A   1      34.620  22.621  23.207  1.00  0.00    -0.250 OA
BRANCH   4   6
ATOM      6  C   UNL A   1      32.833  21.350  24.204  1.00  0.00     0.238 C 
BRANCH   6   7
ATOM      7  N   UNL A   1      31.928  22.096  25.069  1.00  0.00    -0.351 N 
ATOM      8  H   UNL A   1      31.321  21.580  25.649  1.00  0.00     0.163 HD
BRANCH   7   9
ATOM      9  C   UNL A   1      31.863  23.441  25.134  1.00  0.00     0.184 A 
ATOM     10  C   UNL A   1      31.210  25.486  24.577  1.00  0.00     0.091 A 
ATOM     11  N   UNL A   1      31.035  24.125  24.375  1.00  0.00    -0.220 NA
ATOM     12  C   UNL A   1      32.130  25.822  25.559  1.00  0.00     0.064 A 
ATOM     13  S   UNL A   1      32.825  24.395  26.192  1.00  0.00    -0.096 S 
BRANCH  10  14
ATOM     14  C   UNL A   1      30.456  26.480  23.826  1.00  0.00     0.002 A 
ATOM     15  C   UNL A   1      29.043  28.571  22.598  1.00  0.00     0.118 A 
ATOM     16  C   UNL A   1      30.409  28.418  22.364  1.00  0.00     0.047 A 
ATOM     17  C   UNL A   1      28.368  27.640  23.391  1.00  0.00     0.047 A 
ATOM     18  C   UNL A   1      31.114  27.381  22.978  1.00  0.00     0.014 A 
ATOM     19  C   UNL A   1      29.072  26.594  23.999  1.00  0.00     0.014 A 
BRANCH  15  20
ATOM     20  O   UNL A   1      28.452  29.639  21.977  1.00  0.00    -0.497 OA
ATOM     21  C   UNL A   1      29.042  30.900  22.285  1.00  0.00     0.278 C 
ENDBRANCH  15  20
ENDBRANCH  10  14
BRANCH  12  22
ATOM     22  C   UNL A   1      32.518  27.114  26.113  1.00  0.00    -0.006 A 
ATOM     23  C   UNL A   1      31.571  27.962  26.698  1.00  0.00     0.013 A 
ATOM     24  C   UNL A   1      33.858  27.516  26.071  1.00  0.00     0.013 A 
ATOM     25  C   UNL A   1      31.965  29.192  27.228  1.00  0.00     0.047 A 
ATOM     26  C   UNL A   1      34.249  28.748  26.602  1.00  0.00     0.047 A 
ATOM     27  C   UNL A   1      33.303  29.590  27.184  1.00  0.00     0.118 A 
BRANCH  27  28
ATOM     28  O   UNL A   1      33.554  30.814  27.740  1.00  0.00    -0.497 OA
ATOM     29  C   UNL A   1      34.885  31.303  27.620  1.00  0.00     0.278 C 
ENDBRANCH  27  28
ENDBRANCH  12  22
ENDBRANCH   7   9
ENDBRANCH   6   7
ENDBRANCH   4   6
ENDBRANCH   3   4
ENDBRANCH   2   3
ENDBRANCH   1   2
BRANCH   1  30
ATOM     30  O   UNL A   1      38.774  21.001  25.419  1.00  0.00    -0.374 OA
BRANCH  30  31
ATOM     31  C   UNL A   1      39.015  22.051  26.356  1.00  0.00     0.202 C 
BRANCH  31  32
ATOM     32  C   UNL A   1      40.477  22.448  26.602  1.00  0.00     0.261 C 
BRANCH  32  33
ATOM     33  O   UNL A   1      40.608  23.516  27.556  1.00  0.00    -0.460 OA
BRANCH  33  34
ATOM     34  C   UNL A   1      41.165  24.650  27.067  1.00  0.00     0.338 C 
ATOM     35  O   UNL A   1      41.633  24.816  25.946  1.00  0.00    -0.246 OA
BRANCH  34  36
ATOM     36  C   UNL A   1      40.979  25.764  28.013  1.00  0.00     0.060 A 
ATOM     37  C   UNL A   1      42.129  26.397  28.502  1.00  0.00     0.016 A 
ATOM     38  C   UNL A   1      39.715  26.138  28.474  1.00  0.00     0.016 A 
ATOM     39  C   UNL A   1      42.023  27.387  29.478  1.00  0.00     0.010 A 
ATOM     40  C   UNL A   1      39.612  27.122  29.464  1.00  0.00     0.010 A 
ATOM     41  C   UNL A   1      40.765  27.735  29.988  1.00  0.00    -0.014 A 
BRANCH  41  42
ATOM     42  C   UNL A   1      40.668  28.669  31.136  1.00  0.00     0.031 A 
ATOM     43  C   UNL A   1      39.633  29.761  31.116  1.00  0.00     0.074 A 
ATOM     44  C   UNL A   1      41.487  28.534  32.196  1.00  0.00     0.049 A 
ATOM     45  N   UNL A   1      39.413  30.705  31.995  1.00  0.00    -0.248 NA
ATOM     46  C   UNL A   1      38.728  29.792  29.957  1.00  0.00     0.031 C 
ATOM     47  C   UNL A   1      42.499  27.491  32.354  1.00  0.00     0.029 A 
ATOM     48  N   UNL A   1      41.597  29.288  33.338  1.00  0.00    -0.354 N 
ATOM     49  C   UNL A   1      38.349  31.447  31.494  1.00  0.00     0.074 A 
ATOM     50  C   UNL A   1      37.983  30.855  30.225  1.00  0.00     0.031 C 
ATOM     51  C   UNL A   1      43.139  27.679  33.521  1.00  0.00     0.029 A 
ATOM     52  C   UNL A   1      42.607  28.873  34.174  1.00  0.00     0.049 A 
ATOM     53  H   UNL A   1      41.010  30.052  33.539  1.00  0.00     0.167 HD
ATOM     54  C   UNL A   1      37.735  32.523  32.040  1.00  0.00     0.031 A 
ATOM     55  C   UNL A   1      43.069  29.411  35.321  1.00  0.00     0.031 A 
ATOM     56  C   UNL A   1      38.109  33.120  33.296  1.00  0.00     0.049 A 
ATOM     57  C   UNL A   1      42.420  30.656  35.868  1.00  0.00     0.074 A 
ATOM     58  C   UNL A   1      37.532  34.201  33.940  1.00  0.00     0.029 A 
ATOM     59  N   UNL A   1      39.161  32.695  34.093  1.00  0.00    -0.354 N 
ATOM     60  N   UNL A   1      41.401  31.331  35.393  1.00  0.00    -0.248 NA
ATOM     61  C   UNL A   1      42.986  31.211  37.106  1.00  0.00     0.031 C 
ATOM     62  C   UNL A   1      38.271  34.464  35.098  1.00  0.00     0.029 A 
ATOM     63  C   UNL A   1      39.272  33.513  35.204  1.00  0.00     0.049 A 
ATOM     64  H   UNL A   1      39.743  31.925  33.897  1.00  0.00     0.167 HD
ATOM     65  C   UNL A   1      41.191  32.377  36.286  1.00  0.00     0.074 A 
ATOM     66  C   UNL A   1      42.178  32.236  37.336  1.00  0.00     0.031 C 
ATOM     67  C   UNL A   1      40.264  33.366  36.240  1.00  0.00     0.031 A 
BRANCH  54  68
ATOM     68  C   UNL A   1      36.609  33.153  31.265  1.00  0.00    -0.014 A 
ATOM     69  C   UNL A   1      35.280  33.080  31.719  1.00  0.00     0.010 A 
ATOM     70  C   UNL A   1      36.893  33.876  30.093  1.00  0.00     0.010 A 
ATOM     71  C   UNL A   1      34.252  33.694  30.998  1.00  0.00     0.020 A 
ATOM     72  C   UNL A   1      35.872  34.511  29.381  1.00  0.00     0.020 A 
ATOM     73  C   UNL A   1      34.555  34.404  29.832  1.00  0.00     0.054 A 
BRANCH  73  74
ATOM     74  S   UNL A   1      33.206  35.220  28.934  1.00  0.00     0.124 S 
ATOM     75  O   UNL A   1      32.332  35.643  30.025  1.00  0.00    -0.237 OA
ATOM     76  O   UNL A   1      33.894  36.296  28.227  1.00  0.00    -0.237 OA
ATOM     77  O   UNL A   1      32.668  34.162  28.081  1.00  0.00    -0.744 OA
ENDBRANCH  73  74
ENDBRANCH  54  68
BRANCH  55  78
ATOM     78  C   UNL A   1      44.236  28.799  36.012  1.00  0.00    -0.014 A 
ATOM     79  C   UNL A   1      45.547  29.208  35.714  1.00  0.00     0.010 A 
ATOM     80  C   UNL A   1      44.036  27.787  36.969  1.00  0.00     0.010 A 
ATOM     81  C   UNL A   1      46.637  28.604  36.347  1.00  0.00     0.020 A 
ATOM     82  C   UNL A   1      45.121  27.201  37.624  1.00  0.00     0.020 A 
ATOM     83  C   UNL A   1      46.417  27.603  37.298  1.00  0.00     0.054 A 
BRANCH  83  84
ATOM     84  S   UNL A   1      47.843  26.862  38.139  1.00  0.00     0.124 S 
ATOM     85  O   UNL A   1      48.794  27.969  38.156  1.00  0.00    -0.237 OA
ATOM     86  O   UNL A   1      47.286  26.483  39.435  1.00  0.00    -0.237 OA
ATOM     87  O   UNL A   1      48.204  25.740  37.274  1.00  0.00    -0.744 OA
ENDBRANCH  83  84
ENDBRANCH  55  78
BRANCH  67  88
ATOM     88  C   UNL A   1      40.256  34.364  37.367  1.00  0.00    -0.014 A 
ATOM     89  C   UNL A   1      41.079  35.504  37.335  1.00  0.00     0.010 A 
ATOM     90  C   UNL A   1      39.375  34.186  38.449  1.00  0.00     0.010 A 
ATOM     91  C   UNL A   1      41.042  36.432  38.379  1.00  0.00     0.020 A 
ATOM     92  C   UNL A   1      39.317  35.125  39.483  1.00  0.00     0.020 A 
ATOM     93  C   UNL A   1      40.162  36.236  39.447  1.00  0.00     0.054 A 
BRANCH  93  94
ATOM     94  S   UNL A   1      40.103  37.476  40.770  1.00  0.00     0.124 S 
ATOM     95  O   UNL A   1      38.860  38.181  40.471  1.00  0.00    -0.237 OA
ATOM     96  O   UNL A   1      40.084  36.656  41.980  1.00  0.00    -0.237 OA
ATOM     97  O   UNL A   1      41.324  38.253  40.571  1.00  0.00    -0.744 OA
ENDBRANCH  93  94
ENDBRANCH  67  88
ENDBRANCH  41  42
ENDBRANCH  34  36
ENDBRANCH  33  34
ENDBRANCH  32  33
ENDBRANCH  31  32
ENDBRANCH  30  31
ENDBRANCH   1  30
TORSDOF 23
ENDMDL
MODEL 3
REMARK VINA RESULT:      -9.7      0.730      7.883
REMARK SMILES COc1ccc(-c2nc(NCC(=O)OCCOCCOC(=O)c3ccc(-c4c5nc(c(-c6ccc(S(=O)(=O)[O-])cc6)c6ccc([nH]6)c(-c6ccc(S(=O)(=O)[O-])cc6)c6nc(c(-c7ccc(S(=O)(=O)[O-])cc7)c7ccc4[nH]7)C=C6)C=C5)cc3)sc2-c2ccc(OC)cc2)cc1
REMARK SMILES IDX 16 1 15 2 14 3 12 4 13 5 11 6 10 7 9 9 7 10 8 11 84 12 83 13
REMARK SMILES IDX 6 14 3 15 4 16 94 17 5 18 93 19 2 20 1 21 85 22 86 23 92 24
REMARK SMILES IDX 87 25 91 26 88 27 89 28 90 29 17 30 18 31 19 32 20 33 21 34
REMARK SMILES IDX 22 35 23 36 24 37 82 38 25 39 81 40 26 41 27 42 28 43 75 44
REMARK SMILES IDX 29 45 80 46 74 47 76 48 30 49 79 50 73 51 72 52 31 54 61 55
REMARK SMILES IDX 42 56 60 57 43 58 46 59 59 60 77 61 44 62 45 63 58 65 78 66
REMARK SMILES IDX 47 67 32 68 33 69 41 70 34 71 40 72 35 73 36 74 37 75 38 76
REMARK SMILES IDX 39 77 62 78 63 79 71 80 64 81 70 82 65 83 66 84 67 85 68 86
REMARK SMILES IDX 69 87 48 88 49 89 57 90 50 91 56 92 51 93 52 94 53 95 54 96
REMARK SMILES IDX 55 97
REMARK H PARENT 10 8 76 53 46 64
REMARK Flexibility Score: inf
ROOT
ATOM      1  C   UNL A   1      36.552  21.280  25.408  1.00  0.00     0.202 C 
ENDROOT
BRANCH   1   2
ATOM      2  C   UNL A   1      35.247  21.984  25.790  1.00  0.00     0.261 C 
BRANCH   2   3
ATOM      3  O   UNL A   1      34.117  21.140  25.522  1.00  0.00    -0.462 OA
BRANCH   3   4
ATOM      4  C   UNL A   1      33.127  21.688  24.768  1.00  0.00     0.325 C 
ATOM      5  O   UNL A   1      33.201  21.899  23.561  1.00  0.00    -0.250 OA
BRANCH   4   6
ATOM      6  C   UNL A   1      31.836  21.915  25.546  1.00  0.00     0.238 C 
BRANCH   6   7
ATOM      7  N   UNL A   1      31.801  23.112  26.377  1.00  0.00    -0.351 N 
ATOM      8  H   UNL A   1      31.866  22.993  27.353  1.00  0.00     0.163 HD
BRANCH   7   9
ATOM      9  C   UNL A   1      31.686  24.370  25.906  1.00  0.00     0.184 A 
ATOM     10  C   UNL A   1      32.023  26.559  25.820  1.00  0.00     0.091 A 
ATOM     11  N   UNL A   1      32.371  25.363  26.430  1.00  0.00    -0.220 NA
ATOM     12  C   UNL A   1      31.122  26.448  24.773  1.00  0.00     0.064 A 
ATOM     13  S   UNL A   1      30.663  24.810  24.597  1.00  0.00    -0.096 S 
BRANCH  10  14
ATOM     14  C   UNL A   1      32.593  27.832  26.241  1.00  0.00     0.002 A 
ATOM     15  C   UNL A   1      33.702  30.177  27.315  1.00  0.00     0.118 A 
ATOM     16  C   UNL A   1      34.532  29.188  26.789  1.00  0.00     0.047 A 
ATOM     17  C   UNL A   1      32.315  30.027  27.242  1.00  0.00     0.047 A 
ATOM     18  C   UNL A   1      33.982  28.018  26.260  1.00  0.00     0.014 A 
ATOM     19  C   UNL A   1      31.762  28.859  26.701  1.00  0.00     0.014 A 
BRANCH  15  20
ATOM     20  O   UNL A   1      34.340  31.268  27.841  1.00  0.00    -0.497 OA
ATOM     21  C   UNL A   1      35.762  31.162  27.865  1.00  0.00     0.278 C 
ENDBRANCH  15  20
ENDBRANCH  10  14
BRANCH  12  22
ATOM     22  C   UNL A   1      30.592  27.442  23.847  1.00  0.00    -0.006 A 
ATOM     23  C   UNL A   1      29.216  27.558  23.622  1.00  0.00     0.013 A 
ATOM     24  C   UNL A   1      31.467  28.304  23.175  1.00  0.00     0.013 A 
ATOM     25  C   UNL A   1      28.730  28.521  22.736  1.00  0.00     0.047 A 
ATOM     26  C   UNL A   1      30.977  29.266  22.288  1.00  0.00     0.047 A 
ATOM     27  C   UNL A   1      29.605  29.379  22.066  1.00  0.00     0.118 A 
BRANCH  27  28
ATOM     28  O   UNL A   1      29.000  30.276  21.231  1.00  0.00    -0.497 OA
ATOM     29  C   UNL A   1      28.610  31.516  21.809  1.00  0.00     0.278 C 
ENDBRANCH  27  28
ENDBRANCH  12  22
ENDBRANCH   7   9
ENDBRANCH   6   7
ENDBRANCH   4   6
ENDBRANCH   3   4
ENDBRANCH   2   3
ENDBRANCH   1   2
BRANCH   1  30
ATOM     30  O   UNL A   1      37.754  22.025  25.620  1.00  0.00    -0.374 OA
BRANCH  30  31
ATOM     31  C   UNL A   1      37.646  23.268  26.314  1.00  0.00     0.202 C 
BRANCH  31  32
ATOM     32  C   UNL A   1      38.739  24.313  26.054  1.00  0.00     0.261 C 
BRANCH  32  33
ATOM     33  O   UNL A   1      38.791  25.326  27.073  1.00  0.00    -0.460 OA
BRANCH  33  34
ATOM     34  C   UNL A   1      39.996  25.463  27.678  1.00  0.00     0.338 C 
ATOM     35  O   UNL A   1      41.065  24.992  27.304  1.00  0.00    -0.246 OA
BRANCH  34  36
ATOM     36  C   UNL A   1      39.909  26.430  28.785  1.00  0.00     0.060 A 
ATOM     37  C   UNL A   1      40.894  27.423  28.859  1.00  0.00     0.016 A 
ATOM     38  C   UNL A   1      38.931  26.330  29.778  1.00  0.00     0.016 A 
ATOM     39  C   UNL A   1      40.926  28.301  29.940  1.00  0.00     0.010 A 
ATOM     40  C   UNL A   1      38.972  27.204  30.870  1.00  0.00     0.010 A 
ATOM     41  C   UNL A   1      39.982  28.178  30.969  1.00  0.00    -0.014 A 
BRANCH  41  42
ATOM     42  C   UNL A   1      40.115  29.006  32.193  1.00  0.00     0.031 A 
ATOM     43  C   UNL A   1      39.140  30.125  32.439  1.00  0.00     0.074 A 
ATOM     44  C   UNL A   1      41.089  28.751  33.087  1.00  0.00     0.049 A 
ATOM     45  N   UNL A   1      39.107  30.991  33.419  1.00  0.00    -0.248 NA
ATOM     46  C   UNL A   1      38.060  30.288  31.453  1.00  0.00     0.031 C 
ATOM     47  C   UNL A   1      42.067  27.669  32.984  1.00  0.00     0.029 A 
ATOM     48  N   UNL A   1      41.417  29.394  34.254  1.00  0.00    -0.354 N 
ATOM     49  C   UNL A   1      38.009  31.807  33.167  1.00  0.00     0.074 A 
ATOM     50  C   UNL A   1      37.415  31.344  31.931  1.00  0.00     0.031 C 
ATOM     51  C   UNL A   1      42.896  27.731  34.041  1.00  0.00     0.029 A 
ATOM     52  C   UNL A   1      42.530  28.875  34.872  1.00  0.00     0.049 A 
ATOM     53  H   UNL A   1      40.904  30.153  34.615  1.00  0.00     0.167 HD
ATOM     54  C   UNL A   1      37.540  32.845  33.898  1.00  0.00     0.031 A 
ATOM     55  C   UNL A   1      43.196  29.293  35.968  1.00  0.00     0.031 A 
ATOM     56  C   UNL A   1      38.140  33.314  35.120  1.00  0.00     0.049 A 
ATOM     57  C   UNL A   1      42.701  30.501  36.719  1.00  0.00     0.074 A 
ATOM     58  C   UNL A   1      37.723  34.348  35.941  1.00  0.00     0.029 A 
ATOM     59  N   UNL A   1      39.288  32.787  35.692  1.00  0.00    -0.354 N 
ATOM     60  N   UNL A   1      41.648  31.245  36.480  1.00  0.00    -0.248 NA
ATOM     61  C   UNL A   1      43.484  30.924  37.889  1.00  0.00     0.031 C 
ATOM     62  C   UNL A   1      38.652  34.483  36.978  1.00  0.00     0.029 A 
ATOM     63  C   UNL A   1      39.615  33.497  36.835  1.00  0.00     0.049 A 
ATOM     64  H   UNL A   1      39.796  32.022  35.337  1.00  0.00     0.167 HD
ATOM     65  C   UNL A   1      41.633  32.212  37.481  1.00  0.00     0.074 A 
ATOM     66  C   UNL A   1      42.770  31.947  38.337  1.00  0.00     0.031 C 
ATOM     67  C   UNL A   1      40.754  33.227  37.675  1.00  0.00     0.031 A 
BRANCH  54  68
ATOM     68  C   UNL A   1      36.331  33.576  33.377  1.00  0.00    -0.014 A 
ATOM     69  C   UNL A   1      36.457  34.620  32.444  1.00  0.00     0.010 A 
ATOM     70  C   UNL A   1      35.048  33.173  33.786  1.00  0.00     0.010 A 
ATOM     71  C   UNL A   1      35.320  35.268  31.952  1.00  0.00     0.020 A 
ATOM     72  C   UNL A   1      33.907  33.803  33.280  1.00  0.00     0.020 A 
ATOM     73  C   UNL A   1      34.052  34.856  32.375  1.00  0.00     0.054 A 
BRANCH  73  74
ATOM     74  S   UNL A   1      32.593  35.693  31.696  1.00  0.00     0.124 S 
ATOM     75  O   UNL A   1      32.550  35.165  30.335  1.00  0.00    -0.237 OA
ATOM     76  O   UNL A   1      31.522  35.239  32.579  1.00  0.00    -0.237 OA
ATOM     77  O   UNL A   1      32.925  37.112  31.802  1.00  0.00    -0.744 OA
ENDBRANCH  73  74
ENDBRANCH  54  68
BRANCH  55  78
ATOM     78  C   UNL A   1      44.432  28.586  36.400  1.00  0.00    -0.014 A 
ATOM     79  C   UNL A   1      45.694  28.985  35.928  1.00  0.00     0.010 A 
ATOM     80  C   UNL A   1      44.346  27.494  37.285  1.00  0.00     0.010 A 
ATOM     81  C   UNL A   1      46.845  28.294  36.317  1.00  0.00     0.020 A 
ATOM     82  C   UNL A   1      45.497  26.819  37.698  1.00  0.00     0.020 A 
ATOM     83  C   UNL A   1      46.739  27.215  37.200  1.00  0.00     0.054 A 
BRANCH  83  84
ATOM     84  S   UNL A   1      48.250  26.358  37.725  1.00  0.00     0.124 S 
ATOM     85  O   UNL A   1      48.750  25.826  36.463  1.00  0.00    -0.237 OA
ATOM     86  O   UNL A   1      49.037  27.438  38.316  1.00  0.00    -0.237 OA
ATOM     87  O   UNL A   1      47.762  25.361  38.677  1.00  0.00    -0.744 OA
ENDBRANCH  83  84
ENDBRANCH  55  78
BRANCH  67  88
ATOM     88  C   UNL A   1      40.975  34.118  38.868  1.00  0.00    -0.014 A 
ATOM     89  C   UNL A   1      40.423  33.803  40.122  1.00  0.00     0.010 A 
ATOM     90  C   UNL A   1      41.790  35.257  38.745  1.00  0.00     0.010 A 
ATOM     91  C   UNL A   1      40.657  34.629  41.226  1.00  0.00     0.020 A 
ATOM     92  C   UNL A   1      42.048  36.072  39.852  1.00  0.00     0.020 A 
ATOM     93  C   UNL A   1      41.468  35.759  41.083  1.00  0.00     0.054 A 
BRANCH  93  94
ATOM     94  S   UNL A   1      41.792  36.792  42.538  1.00  0.00     0.124 S 
ATOM     95  O   UNL A   1      41.291  38.093  42.106  1.00  0.00    -0.237 OA
ATOM     96  O   UNL A   1      41.009  36.132  43.582  1.00  0.00    -0.237 OA
ATOM     97  O   UNL A   1      43.241  36.707  42.708  1.00  0.00    -0.744 OA
ENDBRANCH  93  94
ENDBRANCH  67  88
ENDBRANCH  41  42
ENDBRANCH  34  36
ENDBRANCH  33  34
ENDBRANCH  32  33
ENDBRANCH  31  32
ENDBRANCH  30  31
ENDBRANCH   1  30
TORSDOF 23
ENDMDL
