MODEL 1
REMARK VINA RESULT:      -9.5      0.000      0.000
REMARK SMILES CCCOc1ccc(N[C@H](C)[C@H](C)C(=O)OCCOCCOC(=O)c2ccc(-c3c4nc(c(-c5ccc(S(=O)(=O)[O-])cc5)c5ccc([nH]5)c(-c5ccc(S(=O)(=O)[O-])cc5)c5nc(c(-c6ccc(S(=O)(=O)[O-])cc6)c6ccc3[nH]6)C=C5)C=C4)cc2)cc1
REMARK SMILES IDX 17 1 16 2 14 3 15 4 12 5 13 6 10 7 11 8 9 9 8 11 5 12 6 13
REMARK SMILES IDX 86 14 7 15 85 16 4 17 3 18 2 19 1 20 18 21 19 22 20 23 21 24
REMARK SMILES IDX 22 25 23 26 24 27 25 28 26 29 84 30 27 31 83 32 28 33 29 34
REMARK SMILES IDX 30 35 77 36 31 37 82 38 76 39 78 40 32 41 81 42 75 43 74 44
REMARK SMILES IDX 33 46 63 47 44 48 62 49 45 50 48 51 61 52 79 53 46 54 47 55
REMARK SMILES IDX 60 57 80 58 49 59 34 60 35 61 43 62 36 63 42 64 37 65 38 66
REMARK SMILES IDX 39 67 40 68 41 69 64 70 65 71 73 72 66 73 72 74 67 75 68 76
REMARK SMILES IDX 69 77 70 78 71 79 50 80 51 81 59 82 52 83 58 84 53 85 54 86
REMARK SMILES IDX 55 87 56 88 57 89
REMARK H PARENT 9 10 78 45 48 56
REMARK Flexibility Score: inf
ROOT
ATOM      1  C   UNL A   1      32.121  26.319  26.528  1.00  0.00     0.261 C 
ENDROOT
BRANCH   1   2
ATOM      2  O   UNL A   1      31.287  25.243  26.990  1.00  0.00    -0.463 OA
BRANCH   2   3
ATOM      3  C   UNL A   1      31.323  24.091  26.270  1.00  0.00     0.310 C 
ATOM      4  O   UNL A   1      30.579  23.130  26.429  1.00  0.00    -0.252 OA
BRANCH   3   5
ATOM      5  C   UNL A   1      32.449  24.094  25.254  1.00  0.00     0.118 C 
ATOM      6  C   UNL A   1      33.487  22.992  25.471  1.00  0.00     0.022 C 
BRANCH   5   7
ATOM      7  C   UNL A   1      31.872  24.083  23.825  1.00  0.00     0.090 C 
ATOM      8  C   UNL A   1      31.914  22.713  23.137  1.00  0.00     0.031 C 
BRANCH   7   9
ATOM      9  N   UNL A   1      30.490  24.550  23.884  1.00  0.00    -0.382 N 
ATOM     10  H   UNL A   1      29.802  23.909  24.177  1.00  0.00     0.160 HD
BRANCH   9  11
ATOM     11  C   UNL A   1      30.078  25.828  23.555  1.00  0.00     0.034 A 
ATOM     12  C   UNL A   1      29.331  28.412  22.765  1.00  0.00     0.119 A 
ATOM     13  C   UNL A   1      28.502  27.686  23.611  1.00  0.00     0.048 A 
ATOM     14  C   UNL A   1      30.553  27.893  22.357  1.00  0.00     0.048 A 
ATOM     15  C   UNL A   1      28.875  26.396  23.995  1.00  0.00     0.029 A 
ATOM     16  C   UNL A   1      30.905  26.597  22.726  1.00  0.00     0.029 A 
BRANCH  12  17
ATOM     17  O   UNL A   1      28.973  29.659  22.340  1.00  0.00    -0.494 OA
BRANCH  17  18
ATOM     18  C   UNL A   1      27.653  30.000  22.792  1.00  0.00     0.229 C 
BRANCH  18  19
ATOM     19  C   UNL A   1      27.654  31.323  23.565  1.00  0.00     0.038 C 
ATOM     20  C   UNL A   1      28.520  32.390  22.907  1.00  0.00     0.007 C 
ENDBRANCH  18  19
ENDBRANCH  17  18
ENDBRANCH  12  17
ENDBRANCH   9  11
ENDBRANCH   7   9
ENDBRANCH   5   7
ENDBRANCH   3   5
ENDBRANCH   2   3
ENDBRANCH   1   2
BRANCH   1  21
ATOM     21  C   UNL A   1      31.379  27.655  26.577  1.00  0.00     0.202 C 
BRANCH  21  22
ATOM     22  O   UNL A   1      31.743  28.615  25.586  1.00  0.00    -0.374 OA
BRANCH  22  23
ATOM     23  C   UNL A   1      32.976  29.311  25.755  1.00  0.00     0.202 C 
BRANCH  23  24
ATOM     24  C   UNL A   1      33.290  29.837  27.160  1.00  0.00     0.261 C 
BRANCH  24  25
ATOM     25  O   UNL A   1      34.190  30.960  27.156  1.00  0.00    -0.460 OA
BRANCH  25  26
ATOM     26  C   UNL A   1      34.835  31.163  28.330  1.00  0.00     0.338 C 
ATOM     27  O   UNL A   1      34.428  31.808  29.289  1.00  0.00    -0.246 OA
BRANCH  26  28
ATOM     28  C   UNL A   1      36.074  30.368  28.398  1.00  0.00     0.060 A 
ATOM     29  C   UNL A   1      36.417  29.820  29.641  1.00  0.00     0.016 A 
ATOM     30  C   UNL A   1      36.949  30.269  27.315  1.00  0.00     0.016 A 
ATOM     31  C   UNL A   1      37.664  29.229  29.824  1.00  0.00     0.010 A 
ATOM     32  C   UNL A   1      38.206  29.681  27.502  1.00  0.00     0.010 A 
ATOM     33  C   UNL A   1      38.586  29.199  28.769  1.00  0.00    -0.014 A 
BRANCH  33  34
ATOM     34  C   UNL A   1      39.992  28.819  29.047  1.00  0.00     0.031 A 
ATOM     35  C   UNL A   1      40.899  29.817  29.719  1.00  0.00     0.074 A 
ATOM     36  C   UNL A   1      40.445  27.587  28.756  1.00  0.00     0.049 A 
ATOM     37  N   UNL A   1      42.154  29.692  30.066  1.00  0.00    -0.248 NA
ATOM     38  C   UNL A   1      40.311  31.127  30.046  1.00  0.00     0.031 C 
ATOM     39  C   UNL A   1      39.654  26.517  28.148  1.00  0.00     0.029 A 
ATOM     40  N   UNL A   1      41.685  27.028  28.938  1.00  0.00    -0.354 N 
ATOM     41  C   UNL A   1      42.508  30.905  30.647  1.00  0.00     0.074 A 
ATOM     42  C   UNL A   1      41.343  31.761  30.581  1.00  0.00     0.031 C 
ATOM     43  C   UNL A   1      40.432  25.429  28.003  1.00  0.00     0.029 A 
ATOM     44  C   UNL A   1      41.779  25.734  28.484  1.00  0.00     0.049 A 
ATOM     45  H   UNL A   1      42.437  27.509  29.354  1.00  0.00     0.167 HD
ATOM     46  C   UNL A   1      43.692  31.273  31.193  1.00  0.00     0.031 A 
ATOM     47  C   UNL A   1      42.834  24.896  28.446  1.00  0.00     0.031 A 
ATOM     48  C   UNL A   1      44.854  30.426  31.249  1.00  0.00     0.049 A 
ATOM     49  C   UNL A   1      44.159  25.350  28.997  1.00  0.00     0.074 A 
ATOM     50  C   UNL A   1      46.097  30.705  31.790  1.00  0.00     0.029 A 
ATOM     51  N   UNL A   1      44.918  29.137  30.742  1.00  0.00    -0.354 N 
ATOM     52  N   UNL A   1      44.471  26.493  29.560  1.00  0.00    -0.248 NA
ATOM     53  C   UNL A   1      45.274  24.394  28.916  1.00  0.00     0.031 C 
ATOM     54  C   UNL A   1      46.928  29.601  31.567  1.00  0.00     0.029 A 
ATOM     55  C   UNL A   1      46.186  28.616  30.934  1.00  0.00     0.049 A 
ATOM     56  H   UNL A   1      44.172  28.663  30.309  1.00  0.00     0.167 HD
ATOM     57  C   UNL A   1      45.810  26.385  29.921  1.00  0.00     0.074 A 
ATOM     58  C   UNL A   1      46.246  25.062  29.524  1.00  0.00     0.031 C 
ATOM     59  C   UNL A   1      46.606  27.298  30.531  1.00  0.00     0.031 A 
BRANCH  46  60
ATOM     60  C   UNL A   1      43.797  32.670  31.742  1.00  0.00    -0.014 A 
ATOM     61  C   UNL A   1      44.151  33.752  30.915  1.00  0.00     0.010 A 
ATOM     62  C   UNL A   1      43.509  32.909  33.097  1.00  0.00     0.010 A 
ATOM     63  C   UNL A   1      44.254  35.041  31.445  1.00  0.00     0.020 A 
ATOM     64  C   UNL A   1      43.588  34.201  33.625  1.00  0.00     0.020 A 
ATOM     65  C   UNL A   1      43.978  35.256  32.799  1.00  0.00     0.054 A 
BRANCH  65  66
ATOM     66  S   UNL A   1      44.107  36.941  33.460  1.00  0.00     0.124 S 
ATOM     67  O   UNL A   1      44.325  37.723  32.246  1.00  0.00    -0.237 OA
ATOM     68  O   UNL A   1      42.811  37.133  34.107  1.00  0.00    -0.237 OA
ATOM     69  O   UNL A   1      45.248  36.869  34.368  1.00  0.00    -0.744 OA
ENDBRANCH  65  66
ENDBRANCH  46  60
BRANCH  47  70
ATOM     70  C   UNL A   1      42.682  23.543  27.848  1.00  0.00    -0.014 A 
ATOM     71  C   UNL A   1      42.290  22.447  28.636  1.00  0.00     0.010 A 
ATOM     72  C   UNL A   1      42.925  23.347  26.475  1.00  0.00     0.010 A 
ATOM     73  C   UNL A   1      42.155  21.178  28.066  1.00  0.00     0.020 A 
ATOM     74  C   UNL A   1      42.768  22.085  25.898  1.00  0.00     0.020 A 
ATOM     75  C   UNL A   1      42.394  21.005  26.700  1.00  0.00     0.054 A 
BRANCH  75  76
ATOM     76  S   UNL A   1      42.158  19.362  25.967  1.00  0.00     0.124 S 
ATOM     77  O   UNL A   1      42.636  18.485  27.031  1.00  0.00    -0.237 OA
ATOM     78  O   UNL A   1      40.719  19.330  25.718  1.00  0.00    -0.237 OA
ATOM     79  O   UNL A   1      42.989  19.403  24.766  1.00  0.00    -0.744 OA
ENDBRANCH  75  76
ENDBRANCH  47  70
BRANCH  59  80
ATOM     80  C   UNL A   1      48.022  26.891  30.837  1.00  0.00    -0.014 A 
ATOM     81  C   UNL A   1      49.065  27.148  29.931  1.00  0.00     0.010 A 
ATOM     82  C   UNL A   1      48.321  26.298  32.077  1.00  0.00     0.010 A 
ATOM     83  C   UNL A   1      50.379  26.790  30.247  1.00  0.00     0.020 A 
ATOM     84  C   UNL A   1      49.636  25.961  32.406  1.00  0.00     0.020 A 
ATOM     85  C   UNL A   1      50.656  26.197  31.483  1.00  0.00     0.054 A 
BRANCH  85  86
ATOM     86  S   UNL A   1      52.375  25.784  31.890  1.00  0.00     0.124 S 
ATOM     87  O   UNL A   1      52.275  24.364  32.219  1.00  0.00    -0.237 OA
ATOM     88  O   UNL A   1      53.084  26.094  30.652  1.00  0.00    -0.237 OA
ATOM     89  O   UNL A   1      52.685  26.664  33.015  1.00  0.00    -0.744 OA
ENDBRANCH  85  86
ENDBRANCH  59  80
ENDBRANCH  33  34
ENDBRANCH  26  28
ENDBRANCH  25  26
ENDBRANCH  24  25
ENDBRANCH  23  24
ENDBRANCH  22  23
ENDBRANCH  21  22
ENDBRANCH   1  21
TORSDOF 23
ENDMDL
MODEL 2
REMARK VINA RESULT:      -8.4      3.213      8.845
REMARK SMILES CCCOc1ccc(N[C@H](C)[C@H](C)C(=O)OCCOCCOC(=O)c2ccc(-c3c4nc(c(-c5ccc(S(=O)(=O)[O-])cc5)c5ccc([nH]5)c(-c5ccc(S(=O)(=O)[O-])cc5)c5nc(c(-c6ccc(S(=O)(=O)[O-])cc6)c6ccc3[nH]6)C=C5)C=C4)cc2)cc1
REMARK SMILES IDX 17 1 16 2 14 3 15 4 12 5 13 6 10 7 11 8 9 9 8 11 5 12 6 13
REMARK SMILES IDX 86 14 7 15 85 16 4 17 3 18 2 19 1 20 18 21 19 22 20 23 21 24
REMARK SMILES IDX 22 25 23 26 24 27 25 28 26 29 84 30 27 31 83 32 28 33 29 34
REMARK SMILES IDX 30 35 77 36 31 37 82 38 76 39 78 40 32 41 81 42 75 43 74 44
REMARK SMILES IDX 33 46 63 47 44 48 62 49 45 50 48 51 61 52 79 53 46 54 47 55
REMARK SMILES IDX 60 57 80 58 49 59 34 60 35 61 43 62 36 63 42 64 37 65 38 66
REMARK SMILES IDX 39 67 40 68 41 69 64 70 65 71 73 72 66 73 72 74 67 75 68 76
REMARK SMILES IDX 69 77 70 78 71 79 50 80 51 81 59 82 52 83 58 84 53 85 54 86
REMARK SMILES IDX 55 87 56 88 57 89
REMARK H PARENT 9 10 78 45 48 56
REMARK Flexibility Score: inf
ROOT
ATOM      1  C   UNL A   1      33.292  28.665  27.240  1.00  0.00     0.261 C 
ENDROOT
BRANCH   1   2
ATOM      2  O   UNL A   1      31.956  28.276  26.880  1.00  0.00    -0.463 OA
BRANCH   2   3
ATOM      3  C   UNL A   1      31.776  26.980  26.511  1.00  0.00     0.310 C 
ATOM      4  O   UNL A   1      30.862  26.255  26.887  1.00  0.00    -0.252 OA
BRANCH   3   5
ATOM      5  C   UNL A   1      32.887  26.491  25.602  1.00  0.00     0.118 C 
ATOM      6  C   UNL A   1      33.302  25.041  25.850  1.00  0.00     0.022 C 
BRANCH   5   7
ATOM      7  C   UNL A   1      32.518  26.753  24.129  1.00  0.00     0.090 C 
ATOM      8  C   UNL A   1      33.114  25.742  23.140  1.00  0.00     0.031 C 
BRANCH   7   9
ATOM      9  N   UNL A   1      31.063  26.742  24.011  1.00  0.00    -0.382 N 
ATOM     10  H   UNL A   1      30.577  25.981  24.403  1.00  0.00     0.160 HD
BRANCH   9  11
ATOM     11  C   UNL A   1      30.319  27.725  23.385  1.00  0.00     0.034 A 
ATOM     12  C   UNL A   1      28.927  29.740  22.021  1.00  0.00     0.119 A 
ATOM     13  C   UNL A   1      28.220  28.776  22.728  1.00  0.00     0.048 A 
ATOM     14  C   UNL A   1      30.316  29.751  22.035  1.00  0.00     0.048 A 
ATOM     15  C   UNL A   1      28.918  27.768  23.398  1.00  0.00     0.029 A 
ATOM     16  C   UNL A   1      31.002  28.729  22.687  1.00  0.00     0.029 A 
BRANCH  12  17
ATOM     17  O   UNL A   1      28.271  30.712  21.323  1.00  0.00    -0.494 OA
BRANCH  17  18
ATOM     18  C   UNL A   1      27.630  31.643  22.210  1.00  0.00     0.229 C 
BRANCH  18  19
ATOM     19  C   UNL A   1      28.575  32.083  23.333  1.00  0.00     0.038 C 
ATOM     20  C   UNL A   1      29.072  33.514  23.160  1.00  0.00     0.007 C 
ENDBRANCH  18  19
ENDBRANCH  17  18
ENDBRANCH  12  17
ENDBRANCH   9  11
ENDBRANCH   7   9
ENDBRANCH   5   7
ENDBRANCH   3   5
ENDBRANCH   2   3
ENDBRANCH   1   2
BRANCH   1  21
ATOM     21  C   UNL A   1      33.393  30.179  27.436  1.00  0.00     0.202 C 
BRANCH  21  22
ATOM     22  O   UNL A   1      34.699  30.742  27.327  1.00  0.00    -0.374 OA
BRANCH  22  23
ATOM     23  C   UNL A   1      35.813  29.904  27.630  1.00  0.00     0.202 C 
BRANCH  23  24
ATOM     24  C   UNL A   1      36.009  29.513  29.099  1.00  0.00     0.261 C 
BRANCH  24  25
ATOM     25  O   UNL A   1      36.254  30.643  29.957  1.00  0.00    -0.460 OA
BRANCH  25  26
ATOM     26  C   UNL A   1      36.951  30.349  31.081  1.00  0.00     0.338 C 
ATOM     27  O   UNL A   1      36.487  30.026  32.169  1.00  0.00    -0.246 OA
BRANCH  26  28
ATOM     28  C   UNL A   1      38.399  30.312  30.813  1.00  0.00     0.060 A 
ATOM     29  C   UNL A   1      38.852  30.944  29.647  1.00  0.00     0.016 A 
ATOM     30  C   UNL A   1      39.278  29.569  31.603  1.00  0.00     0.016 A 
ATOM     31  C   UNL A   1      40.171  30.780  29.232  1.00  0.00     0.010 A 
ATOM     32  C   UNL A   1      40.602  29.400  31.179  1.00  0.00     0.010 A 
ATOM     33  C   UNL A   1      41.041  29.967  29.969  1.00  0.00    -0.014 A 
BRANCH  33  34
ATOM     34  C   UNL A   1      42.347  29.583  29.379  1.00  0.00     0.031 A 
ATOM     35  C   UNL A   1      42.518  28.191  28.827  1.00  0.00     0.074 A 
ATOM     36  C   UNL A   1      43.351  30.472  29.286  1.00  0.00     0.049 A 
ATOM     37  N   UNL A   1      43.563  27.650  28.257  1.00  0.00    -0.248 NA
ATOM     38  C   UNL A   1      41.353  27.295  28.926  1.00  0.00     0.031 C 
ATOM     39  C   UNL A   1      43.295  31.861  29.740  1.00  0.00     0.029 A 
ATOM     40  N   UNL A   1      44.616  30.336  28.772  1.00  0.00    -0.354 N 
ATOM     41  C   UNL A   1      43.187  26.350  27.935  1.00  0.00     0.074 A 
ATOM     42  C   UNL A   1      41.827  26.177  28.398  1.00  0.00     0.031 C 
ATOM     43  C   UNL A   1      44.478  32.450  29.488  1.00  0.00     0.029 A 
ATOM     44  C   UNL A   1      45.380  31.473  28.879  1.00  0.00     0.049 A 
ATOM     45  H   UNL A   1      44.946  29.502  28.365  1.00  0.00     0.167 HD
ATOM     46  C   UNL A   1      43.905  25.389  27.307  1.00  0.00     0.031 A 
ATOM     47  C   UNL A   1      46.665  31.697  28.540  1.00  0.00     0.031 A 
ATOM     48  C   UNL A   1      45.261  25.556  26.857  1.00  0.00     0.049 A 
ATOM     49  C   UNL A   1      47.465  30.593  27.903  1.00  0.00     0.074 A 
ATOM     50  C   UNL A   1      46.070  24.644  26.202  1.00  0.00     0.029 A 
ATOM     51  N   UNL A   1      46.011  26.710  27.021  1.00  0.00    -0.354 N 
ATOM     52  N   UNL A   1      47.089  29.376  27.589  1.00  0.00    -0.248 NA
ATOM     53  C   UNL A   1      48.865  30.896  27.566  1.00  0.00     0.031 C 
ATOM     54  C   UNL A   1      47.326  25.231  26.012  1.00  0.00     0.029 A 
ATOM     55  C   UNL A   1      47.281  26.526  26.502  1.00  0.00     0.049 A 
ATOM     56  H   UNL A   1      45.688  27.539  27.444  1.00  0.00     0.167 HD
ATOM     57  C   UNL A   1      48.195  28.778  26.996  1.00  0.00     0.074 A 
ATOM     58  C   UNL A   1      49.253  29.768  26.985  1.00  0.00     0.031 C 
ATOM     59  C   UNL A   1      48.324  27.522  26.501  1.00  0.00     0.031 A 
BRANCH  46  60
ATOM     60  C   UNL A   1      43.242  24.053  27.101  1.00  0.00    -0.014 A 
ATOM     61  C   UNL A   1      43.158  23.114  28.145  1.00  0.00     0.010 A 
ATOM     62  C   UNL A   1      42.670  23.745  25.854  1.00  0.00     0.010 A 
ATOM     63  C   UNL A   1      42.548  21.875  27.932  1.00  0.00     0.020 A 
ATOM     64  C   UNL A   1      42.039  22.516  25.645  1.00  0.00     0.020 A 
ATOM     65  C   UNL A   1      41.997  21.581  26.680  1.00  0.00     0.054 A 
BRANCH  65  66
ATOM     66  S   UNL A   1      41.201  19.970  26.433  1.00  0.00     0.124 S 
ATOM     67  O   UNL A   1      39.833  20.359  26.100  1.00  0.00    -0.237 OA
ATOM     68  O   UNL A   1      41.975  19.393  25.336  1.00  0.00    -0.237 OA
ATOM     69  O   UNL A   1      41.362  19.303  27.723  1.00  0.00    -0.744 OA
ENDBRANCH  65  66
ENDBRANCH  46  60
BRANCH  47  70
ATOM     70  C   UNL A   1      47.281  33.024  28.811  1.00  0.00    -0.014 A 
ATOM     71  C   UNL A   1      47.233  34.049  27.851  1.00  0.00     0.010 A 
ATOM     72  C   UNL A   1      47.916  33.268  30.043  1.00  0.00     0.010 A 
ATOM     73  C   UNL A   1      47.819  35.291  28.113  1.00  0.00     0.020 A 
ATOM     74  C   UNL A   1      48.483  34.515  30.317  1.00  0.00     0.020 A 
ATOM     75  C   UNL A   1      48.440  35.516  29.345  1.00  0.00     0.054 A 
BRANCH  75  76
ATOM     76  S   UNL A   1      49.144  37.153  29.688  1.00  0.00     0.124 S 
ATOM     77  O   UNL A   1      48.138  37.737  30.569  1.00  0.00    -0.237 OA
ATOM     78  O   UNL A   1      50.422  36.822  30.316  1.00  0.00    -0.237 OA
ATOM     79  O   UNL A   1      49.250  37.762  28.364  1.00  0.00    -0.744 OA
ENDBRANCH  75  76
ENDBRANCH  47  70
BRANCH  59  80
ATOM     80  C   UNL A   1      49.642  27.152  25.876  1.00  0.00    -0.014 A 
ATOM     81  C   UNL A   1      49.941  27.499  24.547  1.00  0.00     0.010 A 
ATOM     82  C   UNL A   1      50.618  26.501  26.652  1.00  0.00     0.010 A 
ATOM     83  C   UNL A   1      51.184  27.174  23.995  1.00  0.00     0.020 A 
ATOM     84  C   UNL A   1      51.870  26.196  26.111  1.00  0.00     0.020 A 
ATOM     85  C   UNL A   1      52.140  26.522  24.781  1.00  0.00     0.054 A 
BRANCH  85  86
ATOM     86  S   UNL A   1      53.762  26.152  24.058  1.00  0.00     0.124 S 
ATOM     87  O   UNL A   1      54.534  27.339  24.419  1.00  0.00    -0.237 OA
ATOM     88  O   UNL A   1      54.147  24.920  24.742  1.00  0.00    -0.237 OA
ATOM     89  O   UNL A   1      53.479  26.001  22.632  1.00  0.00    -0.744 OA
ENDBRANCH  85  86
ENDBRANCH  59  80
ENDBRANCH  33  34
ENDBRANCH  26  28
ENDBRANCH  25  26
ENDBRANCH  24  25
ENDBRANCH  23  24
ENDBRANCH  22  23
ENDBRANCH  21  22
ENDBRANCH   1  21
TORSDOF 23
ENDMDL
MODEL 3
REMARK VINA RESULT:      -7.9      4.253      9.911
REMARK SMILES CCCOc1ccc(N[C@H](C)[C@H](C)C(=O)OCCOCCOC(=O)c2ccc(-c3c4nc(c(-c5ccc(S(=O)(=O)[O-])cc5)c5ccc([nH]5)c(-c5ccc(S(=O)(=O)[O-])cc5)c5nc(c(-c6ccc(S(=O)(=O)[O-])cc6)c6ccc3[nH]6)C=C5)C=C4)cc2)cc1
REMARK SMILES IDX 17 1 16 2 14 3 15 4 12 5 13 6 10 7 11 8 9 9 8 11 5 12 6 13
REMARK SMILES IDX 86 14 7 15 85 16 4 17 3 18 2 19 1 20 18 21 19 22 20 23 21 24
REMARK SMILES IDX 22 25 23 26 24 27 25 28 26 29 84 30 27 31 83 32 28 33 29 34
REMARK SMILES IDX 30 35 77 36 31 37 82 38 76 39 78 40 32 41 81 42 75 43 74 44
REMARK SMILES IDX 33 46 63 47 44 48 62 49 45 50 48 51 61 52 79 53 46 54 47 55
REMARK SMILES IDX 60 57 80 58 49 59 34 60 35 61 43 62 36 63 42 64 37 65 38 66
REMARK SMILES IDX 39 67 40 68 41 69 64 70 65 71 73 72 66 73 72 74 67 75 68 76
REMARK SMILES IDX 69 77 70 78 71 79 50 80 51 81 59 82 52 83 58 84 53 85 54 86
REMARK SMILES IDX 55 87 56 88 57 89
REMARK H PARENT 9 10 78 45 48 56
REMARK Flexibility Score: inf
ROOT
ATOM      1  C   UNL A   1      31.984  28.679  26.068  1.00  0.00     0.261 C 
ENDROOT
BRANCH   1   2
ATOM      2  O   UNL A   1      32.347  28.043  24.831  1.00  0.00    -0.463 OA
BRANCH   2   3
ATOM      3  C   UNL A   1      32.842  26.780  24.916  1.00  0.00     0.310 C 
ATOM      4  O   UNL A   1      34.008  26.488  25.151  1.00  0.00    -0.252 OA
BRANCH   3   5
ATOM      5  C   UNL A   1      31.779  25.736  24.629  1.00  0.00     0.118 C 
ATOM      6  C   UNL A   1      31.551  25.475  23.140  1.00  0.00     0.022 C 
BRANCH   5   7
ATOM      7  C   UNL A   1      32.082  24.444  25.412  1.00  0.00     0.090 C 
ATOM      8  C   UNL A   1      30.839  23.628  25.787  1.00  0.00     0.031 C 
BRANCH   7   9
ATOM      9  N   UNL A   1      32.976  23.617  24.606  1.00  0.00    -0.382 N 
ATOM     10  H   UNL A   1      33.754  24.055  24.190  1.00  0.00     0.160 HD
BRANCH   9  11
ATOM     11  C   UNL A   1      32.808  22.263  24.386  1.00  0.00     0.034 A 
ATOM     12  C   UNL A   1      32.480  19.543  23.791  1.00  0.00     0.119 A 
ATOM     13  C   UNL A   1      32.934  19.921  25.048  1.00  0.00     0.048 A 
ATOM     14  C   UNL A   1      32.130  20.502  22.848  1.00  0.00     0.048 A 
ATOM     15  C   UNL A   1      33.104  21.277  25.336  1.00  0.00     0.029 A 
ATOM     16  C   UNL A   1      32.324  21.851  23.138  1.00  0.00     0.029 A 
BRANCH  12  17
ATOM     17  O   UNL A   1      32.343  18.225  23.466  1.00  0.00    -0.494 OA
BRANCH  17  18
ATOM     18  C   UNL A   1      33.622  17.575  23.392  1.00  0.00     0.229 C 
BRANCH  18  19
ATOM     19  C   UNL A   1      33.945  16.833  24.693  1.00  0.00     0.038 C 
ATOM     20  C   UNL A   1      32.938  15.734  25.011  1.00  0.00     0.007 C 
ENDBRANCH  18  19
ENDBRANCH  17  18
ENDBRANCH  12  17
ENDBRANCH   9  11
ENDBRANCH   7   9
ENDBRANCH   5   7
ENDBRANCH   3   5
ENDBRANCH   2   3
ENDBRANCH   1   2
BRANCH   1  21
ATOM     21  C   UNL A   1      32.375  30.158  26.065  1.00  0.00     0.202 C 
BRANCH  21  22
ATOM     22  O   UNL A   1      31.302  31.093  25.972  1.00  0.00    -0.374 OA
BRANCH  22  23
ATOM     23  C   UNL A   1      31.446  32.341  26.647  1.00  0.00     0.202 C 
BRANCH  23  24
ATOM     24  C   UNL A   1      32.579  32.448  27.675  1.00  0.00     0.261 C 
BRANCH  24  25
ATOM     25  O   UNL A   1      33.151  33.767  27.751  1.00  0.00    -0.460 OA
BRANCH  25  26
ATOM     26  C   UNL A   1      33.513  34.147  29.000  1.00  0.00     0.338 C 
ATOM     27  O   UNL A   1      32.840  34.794  29.794  1.00  0.00    -0.246 OA
BRANCH  26  28
ATOM     28  C   UNL A   1      34.804  33.550  29.383  1.00  0.00     0.060 A 
ATOM     29  C   UNL A   1      34.767  32.375  30.145  1.00  0.00     0.016 A 
ATOM     30  C   UNL A   1      36.019  34.187  29.123  1.00  0.00     0.016 A 
ATOM     31  C   UNL A   1      35.936  31.868  30.706  1.00  0.00     0.010 A 
ATOM     32  C   UNL A   1      37.193  33.680  29.694  1.00  0.00     0.010 A 
ATOM     33  C   UNL A   1      37.149  32.545  30.525  1.00  0.00    -0.014 A 
BRANCH  33  34
ATOM     34  C   UNL A   1      38.325  32.155  31.341  1.00  0.00     0.031 A 
ATOM     35  C   UNL A   1      39.256  31.092  30.819  1.00  0.00     0.074 A 
ATOM     36  C   UNL A   1      38.593  32.773  32.505  1.00  0.00     0.049 A 
ATOM     37  N   UNL A   1      40.345  30.609  31.358  1.00  0.00    -0.248 NA
ATOM     38  C   UNL A   1      38.915  30.500  29.514  1.00  0.00     0.031 C 
ATOM     39  C   UNL A   1      37.796  33.848  33.095  1.00  0.00     0.029 A 
ATOM     40  N   UNL A   1      39.617  32.583  33.398  1.00  0.00    -0.354 N 
ATOM     41  C   UNL A   1      40.818  29.654  30.465  1.00  0.00     0.074 A 
ATOM     42  C   UNL A   1      39.882  29.607  29.362  1.00  0.00     0.031 C 
ATOM     43  C   UNL A   1      38.360  34.221  34.257  1.00  0.00     0.029 A 
ATOM     44  C   UNL A   1      39.541  33.395  34.505  1.00  0.00     0.049 A 
ATOM     45  H   UNL A   1      40.338  31.927  33.260  1.00  0.00     0.167 HD
ATOM     46  C   UNL A   1      41.932  28.888  30.549  1.00  0.00     0.031 A 
ATOM     47  C   UNL A   1      40.325  33.455  35.599  1.00  0.00     0.031 A 
ATOM     48  C   UNL A   1      42.857  28.926  31.650  1.00  0.00     0.049 A 
ATOM     49  C   UNL A   1      41.522  32.547  35.703  1.00  0.00     0.074 A 
ATOM     50  C   UNL A   1      44.020  28.196  31.823  1.00  0.00     0.029 A 
ATOM     51  N   UNL A   1      42.722  29.733  32.769  1.00  0.00    -0.354 N 
ATOM     52  N   UNL A   1      41.964  31.663  34.840  1.00  0.00    -0.248 NA
ATOM     53  C   UNL A   1      42.331  32.652  36.926  1.00  0.00     0.031 C 
ATOM     54  C   UNL A   1      44.563  28.527  33.069  1.00  0.00     0.029 A 
ATOM     55  C   UNL A   1      43.766  29.502  33.648  1.00  0.00     0.049 A 
ATOM     56  H   UNL A   1      41.990  30.376  32.916  1.00  0.00     0.167 HD
ATOM     57  C   UNL A   1      43.116  31.125  35.405  1.00  0.00     0.074 A 
ATOM     58  C   UNL A   1      43.308  31.789  36.678  1.00  0.00     0.031 C 
ATOM     59  C   UNL A   1      43.943  30.170  34.913  1.00  0.00     0.031 A 
BRANCH  46  60
ATOM     60  C   UNL A   1      42.191  27.917  29.429  1.00  0.00    -0.014 A 
ATOM     61  C   UNL A   1      41.349  26.810  29.217  1.00  0.00     0.010 A 
ATOM     62  C   UNL A   1      43.275  28.131  28.559  1.00  0.00     0.010 A 
ATOM     63  C   UNL A   1      41.611  25.912  28.178  1.00  0.00     0.020 A 
ATOM     64  C   UNL A   1      43.526  27.248  27.505  1.00  0.00     0.020 A 
ATOM     65  C   UNL A   1      42.703  26.134  27.332  1.00  0.00     0.054 A 
BRANCH  65  66
ATOM     66  S   UNL A   1      43.015  24.961  25.984  1.00  0.00     0.124 S 
ATOM     67  O   UNL A   1      43.455  25.847  24.910  1.00  0.00    -0.237 OA
ATOM     68  O   UNL A   1      44.047  24.092  26.545  1.00  0.00    -0.237 OA
ATOM     69  O   UNL A   1      41.717  24.324  25.772  1.00  0.00    -0.744 OA
ENDBRANCH  65  66
ENDBRANCH  46  60
BRANCH  47  70
ATOM     70  C   UNL A   1      39.992  34.403  36.696  1.00  0.00    -0.014 A 
ATOM     71  C   UNL A   1      39.192  33.999  37.778  1.00  0.00     0.010 A 
ATOM     72  C   UNL A   1      40.486  35.720  36.663  1.00  0.00     0.010 A 
ATOM     73  C   UNL A   1      38.880  34.899  38.801  1.00  0.00     0.020 A 
ATOM     74  C   UNL A   1      40.196  36.615  37.696  1.00  0.00     0.020 A 
ATOM     75  C   UNL A   1      39.385  36.202  38.754  1.00  0.00     0.054 A 
BRANCH  75  76
ATOM     76  S   UNL A   1      39.017  37.337  40.121  1.00  0.00     0.124 S 
ATOM     77  O   UNL A   1      38.320  36.465  41.060  1.00  0.00    -0.237 OA
ATOM     78  O   UNL A   1      40.348  37.778  40.533  1.00  0.00    -0.237 OA
ATOM     79  O   UNL A   1      38.195  38.369  39.493  1.00  0.00    -0.744 OA
ENDBRANCH  75  76
ENDBRANCH  47  70
BRANCH  59  80
ATOM     80  C   UNL A   1      45.149  29.804  35.734  1.00  0.00    -0.014 A 
ATOM     81  C   UNL A   1      46.358  30.509  35.605  1.00  0.00     0.010 A 
ATOM     82  C   UNL A   1      45.051  28.778  36.691  1.00  0.00     0.010 A 
ATOM     83  C   UNL A   1      47.459  30.173  36.400  1.00  0.00     0.020 A 
ATOM     84  C   UNL A   1      46.141  28.456  37.503  1.00  0.00     0.020 A 
ATOM     85  C   UNL A   1      47.343  29.147  37.343  1.00  0.00     0.054 A 
BRANCH  85  86
ATOM     86  S   UNL A   1      48.770  28.760  38.395  1.00  0.00     0.124 S 
ATOM     87  O   UNL A   1      49.874  28.810  37.439  1.00  0.00    -0.237 OA
ATOM     88  O   UNL A   1      48.744  29.836  39.383  1.00  0.00    -0.237 OA
ATOM     89  O   UNL A   1      48.461  27.433  38.922  1.00  0.00    -0.744 OA
ENDBRANCH  85  86
ENDBRANCH  59  80
ENDBRANCH  33  34
ENDBRANCH  26  28
ENDBRANCH  25  26
ENDBRANCH  24  25
ENDBRANCH  23  24
ENDBRANCH  22  23
ENDBRANCH  21  22
ENDBRANCH   1  21
TORSDOF 23
ENDMDL
