MODEL 1
REMARK VINA RESULT:     -10.4      0.000      0.000
REMARK SMILES Cc1cc(/C=C2\C(=O)N(Cc3ccco3)C(=O)N=C2OCCOCCOC(=O)c2ccc(-c3c4nc(c(-c5ccc(S(=O)(=O)[O-])cc5)c5ccc([nH]5)c(-c5ccc(S(=O)(=O)[O-])cc5)c5nc(c(-c6ccc(S(=O)(=O)[O-])cc6)c6ccc3[nH]6)C=C5)C=C4)cc2)c(C)n1-c1ccc(Cl)c(C(=O)[O-])c1
REMARK SMILES IDX 24 1 23 2 22 3 21 4 20 5 19 6 5 7 6 8 7 9 8 10 9 11 18 12
REMARK SMILES IDX 16 13 17 14 4 15 1 16 2 17 3 18 91 19 89 20 90 21 92 22
REMARK SMILES IDX 93 23 101 24 94 25 97 26 95 27 96 28 98 29 99 30 100 31
REMARK SMILES IDX 10 32 11 33 12 34 15 35 13 36 14 37 25 38 26 39 27 40 28 41
REMARK SMILES IDX 29 42 30 43 88 44 31 45 87 46 32 47 33 48 34 49 81 50 35 51
REMARK SMILES IDX 86 52 80 53 82 54 36 55 85 56 79 57 78 58 37 60 67 61 48 62
REMARK SMILES IDX 66 63 49 64 52 65 65 66 83 67 50 68 51 69 64 71 84 72 53 73
REMARK SMILES IDX 38 74 39 75 47 76 40 77 46 78 41 79 42 80 43 81 44 82 45 83
REMARK SMILES IDX 68 84 69 85 77 86 70 87 76 88 71 89 72 90 73 91 74 92 75 93
REMARK SMILES IDX 54 94 55 95 63 96 56 97 62 98 57 99 58 100 59 101 60 102
REMARK SMILES IDX 61 103
REMARK H PARENT 82 59 52 70
REMARK Flexibility Score: inf
ROOT
ATOM      1  C   UNL A   1      35.131  33.406  29.185  1.00  0.00     0.202 C 
ENDROOT
BRANCH   1   2
ATOM      2  O   UNL A   1      34.521  32.268  28.547  1.00  0.00    -0.374 OA
BRANCH   2   3
ATOM      3  C   UNL A   1      35.135  31.013  28.850  1.00  0.00     0.202 C 
BRANCH   3   4
ATOM      4  C   UNL A   1      35.278  30.070  27.640  1.00  0.00     0.260 C 
BRANCH   4   5
ATOM      5  O   UNL A   1      34.477  28.872  27.751  1.00  0.00    -0.475 OA
BRANCH   5   6
ATOM      6  C   UNL A   1      33.411  28.775  26.917  1.00  0.00     0.231 C 
ATOM      7  C   UNL A   1      34.205  26.558  26.163  1.00  0.00     0.029 C 
ATOM      8  C   UNL A   1      33.197  27.428  26.371  1.00  0.00     0.103 C 
ATOM      9  C   UNL A   1      31.794  27.219  25.919  1.00  0.00     0.267 C 
ATOM     10  O   UNL A   1      31.207  26.184  26.048  1.00  0.00    -0.268 OA
ATOM     11  N   UNL A   1      31.289  28.373  25.325  1.00  0.00    -0.250 N 
ATOM     12  N   UNL A   1      32.655  29.784  26.652  1.00  0.00    -0.156 NA
ATOM     13  C   UNL A   1      31.690  29.644  25.695  1.00  0.00     0.354 C 
ATOM     14  O   UNL A   1      31.188  30.643  25.173  1.00  0.00    -0.245 OA
BRANCH   7  15
ATOM     15  C   UNL A   1      34.239  25.305  25.451  1.00  0.00    -0.003 A 
ATOM     16  C   UNL A   1      34.201  23.251  22.336  1.00  0.00     0.065 C 
ATOM     17  C   UNL A   1      34.277  23.860  23.694  1.00  0.00     0.020 A 
ATOM     18  C   UNL A   1      34.256  25.199  24.036  1.00  0.00     0.031 A 
ATOM     19  N   UNL A   1      34.273  23.127  24.868  1.00  0.00    -0.318 N 
ATOM     20  C   UNL A   1      34.138  24.009  25.944  1.00  0.00     0.027 A 
ATOM     21  C   UNL A   1      34.031  23.514  27.344  1.00  0.00     0.065 C 
BRANCH  19  22
ATOM     22  C   UNL A   1      34.476  21.724  24.991  1.00  0.00     0.046 A 
ATOM     23  C   UNL A   1      35.765  21.215  25.147  1.00  0.00     0.028 A 
ATOM     24  C   UNL A   1      33.398  20.856  24.772  1.00  0.00     0.038 A 
ATOM     25  C   UNL A   1      35.992  19.849  24.992  1.00  0.00     0.023 A 
ATOM     26  C   UNL A   1      33.617  19.468  24.634  1.00  0.00     0.018 A 
ATOM     27  C   UNL A   1      34.931  18.976  24.718  1.00  0.00     0.050 A 
ATOM     28  Cl  UNL A   1      35.365  17.320  24.475  1.00  0.00    -0.084 Cl
BRANCH  26  29
ATOM     29  C   UNL A   1      32.459  18.569  24.363  1.00  0.00     0.073 C 
ATOM     30  O   UNL A   1      32.095  17.594  24.991  1.00  0.00    -0.545 OA
ATOM     31  O   UNL A   1      31.762  18.951  23.275  1.00  0.00    -0.545 OA
ENDBRANCH  26  29
ENDBRANCH  19  22
ENDBRANCH   7  15
BRANCH  11  32
ATOM     32  C   UNL A   1      30.316  28.235  24.261  1.00  0.00     0.206 C 
BRANCH  32  33
ATOM     33  C   UNL A   1      30.794  27.357  23.172  1.00  0.00     0.123 A 
ATOM     34  C   UNL A   1      30.356  26.153  22.665  1.00  0.00     0.047 A 
ATOM     35  O   UNL A   1      31.847  27.819  22.442  1.00  0.00    -0.467 OA
ATOM     36  C   UNL A   1      31.201  25.856  21.570  1.00  0.00     0.042 A 
ATOM     37  C   UNL A   1      32.092  26.899  21.476  1.00  0.00     0.195 A 
ENDBRANCH  32  33
ENDBRANCH  11  32
ENDBRANCH   5   6
ENDBRANCH   4   5
ENDBRANCH   3   4
ENDBRANCH   2   3
ENDBRANCH   1   2
BRANCH   1  38
ATOM     38  C   UNL A   1      35.177  33.328  30.733  1.00  0.00     0.261 C 
BRANCH  38  39
ATOM     39  O   UNL A   1      36.514  33.137  31.326  1.00  0.00    -0.460 OA
BRANCH  39  40
ATOM     40  C   UNL A   1      36.570  32.300  32.411  1.00  0.00     0.338 C 
ATOM     41  O   UNL A   1      35.682  32.263  33.257  1.00  0.00    -0.246 OA
BRANCH  40  42
ATOM     42  C   UNL A   1      37.722  31.294  32.450  1.00  0.00     0.060 A 
ATOM     43  C   UNL A   1      38.896  31.688  31.824  1.00  0.00     0.016 A 
ATOM     44  C   UNL A   1      37.696  29.947  32.869  1.00  0.00     0.016 A 
ATOM     45  C   UNL A   1      39.987  30.787  31.645  1.00  0.00     0.010 A 
ATOM     46  C   UNL A   1      38.795  28.999  32.599  1.00  0.00     0.010 A 
ATOM     47  C   UNL A   1      39.983  29.380  31.947  1.00  0.00    -0.014 A 
BRANCH  47  48
ATOM     48  C   UNL A   1      41.080  28.477  31.166  1.00  0.00     0.031 A 
ATOM     49  C   UNL A   1      42.309  28.612  32.003  1.00  0.00     0.074 A 
ATOM     50  C   UNL A   1      41.338  27.729  30.016  1.00  0.00     0.049 A 
ATOM     51  N   UNL A   1      42.805  29.788  32.257  1.00  0.00    -0.248 NA
ATOM     52  C   UNL A   1      42.789  27.537  32.875  1.00  0.00     0.031 C 
ATOM     53  C   UNL A   1      40.468  27.486  28.857  1.00  0.00     0.029 A 
ATOM     54  N   UNL A   1      42.494  26.979  29.606  1.00  0.00    -0.354 N 
ATOM     55  C   UNL A   1      43.836  29.585  33.133  1.00  0.00     0.074 A 
ATOM     56  C   UNL A   1      43.650  28.229  33.628  1.00  0.00     0.031 C 
ATOM     57  C   UNL A   1      41.029  26.600  27.977  1.00  0.00     0.029 A 
ATOM     58  C   UNL A   1      42.366  26.191  28.408  1.00  0.00     0.049 A 
ATOM     59  H   UNL A   1      43.333  27.003  30.121  1.00  0.00     0.167 HD
ATOM     60  C   UNL A   1      44.996  30.264  32.918  1.00  0.00     0.031 A 
ATOM     61  C   UNL A   1      43.264  25.342  27.764  1.00  0.00     0.031 A 
ATOM     62  C   UNL A   1      46.039  29.395  32.446  1.00  0.00     0.049 A 
ATOM     63  C   UNL A   1      44.619  25.714  28.210  1.00  0.00     0.074 A 
ATOM     64  C   UNL A   1      46.504  28.152  32.829  1.00  0.00     0.029 A 
ATOM     65  N   UNL A   1      46.412  29.567  31.127  1.00  0.00    -0.354 N 
ATOM     66  N   UNL A   1      45.219  26.759  27.730  1.00  0.00    -0.248 NA
ATOM     67  C   UNL A   1      45.435  24.873  29.080  1.00  0.00     0.031 C 
ATOM     68  C   UNL A   1      46.667  27.436  31.617  1.00  0.00     0.029 A 
ATOM     69  C   UNL A   1      46.568  28.323  30.550  1.00  0.00     0.049 A 
ATOM     70  H   UNL A   1      46.545  30.431  30.675  1.00  0.00     0.167 HD
ATOM     71  C   UNL A   1      46.237  26.969  28.608  1.00  0.00     0.074 A 
ATOM     72  C   UNL A   1      46.493  25.677  29.211  1.00  0.00     0.031 C 
ATOM     73  C   UNL A   1      46.371  28.216  29.122  1.00  0.00     0.031 A 
BRANCH  60  74
ATOM     74  C   UNL A   1      44.852  31.692  32.457  1.00  0.00    -0.014 A 
ATOM     75  C   UNL A   1      44.321  31.945  31.186  1.00  0.00     0.010 A 
ATOM     76  C   UNL A   1      45.296  32.787  33.233  1.00  0.00     0.010 A 
ATOM     77  C   UNL A   1      44.305  33.249  30.677  1.00  0.00     0.020 A 
ATOM     78  C   UNL A   1      45.306  34.085  32.721  1.00  0.00     0.020 A 
ATOM     79  C   UNL A   1      44.819  34.306  31.437  1.00  0.00     0.054 A 
BRANCH  79  80
ATOM     80  S   UNL A   1      44.934  35.951  30.678  1.00  0.00     0.124 S 
ATOM     81  O   UNL A   1      45.874  35.728  29.579  1.00  0.00    -0.237 OA
ATOM     82  O   UNL A   1      43.555  36.196  30.267  1.00  0.00    -0.237 OA
ATOM     83  O   UNL A   1      45.447  36.801  31.747  1.00  0.00    -0.744 OA
ENDBRANCH  79  80
ENDBRANCH  60  74
BRANCH  61  84
ATOM     84  C   UNL A   1      43.409  24.293  26.627  1.00  0.00    -0.014 A 
ATOM     85  C   UNL A   1      44.726  23.893  26.208  1.00  0.00     0.010 A 
ATOM     86  C   UNL A   1      42.389  23.397  26.268  1.00  0.00     0.010 A 
ATOM     87  C   UNL A   1      45.023  22.646  25.611  1.00  0.00     0.020 A 
ATOM     88  C   UNL A   1      42.675  22.149  25.630  1.00  0.00     0.020 A 
ATOM     89  C   UNL A   1      43.991  21.759  25.348  1.00  0.00     0.054 A 
BRANCH  89  90
ATOM     90  S   UNL A   1      44.404  20.069  24.767  1.00  0.00     0.124 S 
ATOM     91  O   UNL A   1      45.672  19.793  25.436  1.00  0.00    -0.237 OA
ATOM     92  O   UNL A   1      43.265  19.281  25.236  1.00  0.00    -0.237 OA
ATOM     93  O   UNL A   1      44.487  20.215  23.315  1.00  0.00    -0.744 OA
ENDBRANCH  89  90
ENDBRANCH  61  84
BRANCH  73  94
ATOM     94  C   UNL A   1      46.001  29.384  28.211  1.00  0.00    -0.014 A 
ATOM     95  C   UNL A   1      46.926  30.330  27.705  1.00  0.00     0.010 A 
ATOM     96  C   UNL A   1      44.648  29.581  27.892  1.00  0.00     0.010 A 
ATOM     97  C   UNL A   1      46.512  31.477  27.015  1.00  0.00     0.020 A 
ATOM     98  C   UNL A   1      44.228  30.700  27.155  1.00  0.00     0.020 A 
ATOM     99  C   UNL A   1      45.158  31.665  26.761  1.00  0.00     0.054 A 
BRANCH  99 100
ATOM    100  S   UNL A   1      44.624  33.186  25.925  1.00  0.00     0.124 S 
ATOM    101  O   UNL A   1      43.926  33.895  26.996  1.00  0.00    -0.237 OA
ATOM    102  O   UNL A   1      45.884  33.789  25.502  1.00  0.00    -0.237 OA
ATOM    103  O   UNL A   1      43.763  32.702  24.849  1.00  0.00    -0.744 OA
ENDBRANCH  99 100
ENDBRANCH  73  94
ENDBRANCH  47  48
ENDBRANCH  40  42
ENDBRANCH  39  40
ENDBRANCH  38  39
ENDBRANCH   1  38
TORSDOF 21
ENDMDL
MODEL 2
REMARK VINA RESULT:     -10.4      4.173      9.536
REMARK SMILES Cc1cc(/C=C2\C(=O)N(Cc3ccco3)C(=O)N=C2OCCOCCOC(=O)c2ccc(-c3c4nc(c(-c5ccc(S(=O)(=O)[O-])cc5)c5ccc([nH]5)c(-c5ccc(S(=O)(=O)[O-])cc5)c5nc(c(-c6ccc(S(=O)(=O)[O-])cc6)c6ccc3[nH]6)C=C5)C=C4)cc2)c(C)n1-c1ccc(Cl)c(C(=O)[O-])c1
REMARK SMILES IDX 24 1 23 2 22 3 21 4 20 5 19 6 5 7 6 8 7 9 8 10 9 11 18 12
REMARK SMILES IDX 16 13 17 14 4 15 1 16 2 17 3 18 91 19 89 20 90 21 92 22
REMARK SMILES IDX 93 23 101 24 94 25 97 26 95 27 96 28 98 29 99 30 100 31
REMARK SMILES IDX 10 32 11 33 12 34 15 35 13 36 14 37 25 38 26 39 27 40 28 41
REMARK SMILES IDX 29 42 30 43 88 44 31 45 87 46 32 47 33 48 34 49 81 50 35 51
REMARK SMILES IDX 86 52 80 53 82 54 36 55 85 56 79 57 78 58 37 60 67 61 48 62
REMARK SMILES IDX 66 63 49 64 52 65 65 66 83 67 50 68 51 69 64 71 84 72 53 73
REMARK SMILES IDX 38 74 39 75 47 76 40 77 46 78 41 79 42 80 43 81 44 82 45 83
REMARK SMILES IDX 68 84 69 85 77 86 70 87 76 88 71 89 72 90 73 91 74 92 75 93
REMARK SMILES IDX 54 94 55 95 63 96 56 97 62 98 57 99 58 100 59 101 60 102
REMARK SMILES IDX 61 103
REMARK H PARENT 82 59 52 70
REMARK Flexibility Score: inf
ROOT
ATOM      1  C   UNL A   1      40.566  22.029  26.703  1.00  0.00     0.202 C 
ENDROOT
BRANCH   1   2
ATOM      2  O   UNL A   1      39.429  21.642  25.907  1.00  0.00    -0.374 OA
BRANCH   2   3
ATOM      3  C   UNL A   1      38.213  22.319  26.234  1.00  0.00     0.202 C 
BRANCH   3   4
ATOM      4  C   UNL A   1      37.997  23.636  25.465  1.00  0.00     0.260 C 
BRANCH   4   5
ATOM      5  O   UNL A   1      37.258  23.465  24.234  1.00  0.00    -0.475 OA
BRANCH   5   6
ATOM      6  C   UNL A   1      36.083  22.792  24.321  1.00  0.00     0.231 C 
ATOM      7  C   UNL A   1      34.905  24.914  24.795  1.00  0.00     0.029 C 
ATOM      8  C   UNL A   1      34.894  23.656  24.312  1.00  0.00     0.103 C 
ATOM      9  C   UNL A   1      33.670  22.927  23.883  1.00  0.00     0.267 C 
ATOM     10  O   UNL A   1      32.813  23.418  23.207  1.00  0.00    -0.268 OA
ATOM     11  N   UNL A   1      33.666  21.629  24.386  1.00  0.00    -0.250 N 
ATOM     12  N   UNL A   1      36.033  21.506  24.388  1.00  0.00    -0.156 NA
ATOM     13  C   UNL A   1      34.825  20.910  24.618  1.00  0.00     0.354 C 
ATOM     14  O   UNL A   1      34.777  19.747  25.025  1.00  0.00    -0.245 OA
BRANCH   7  15
ATOM     15  C   UNL A   1      33.825  25.827  25.076  1.00  0.00    -0.003 A 
ATOM     16  C   UNL A   1      31.117  27.206  27.242  1.00  0.00     0.065 C 
ATOM     17  C   UNL A   1      32.157  26.853  26.234  1.00  0.00     0.020 A 
ATOM     18  C   UNL A   1      33.132  25.877  26.313  1.00  0.00     0.031 A 
ATOM     19  N   UNL A   1      32.227  27.414  24.970  1.00  0.00    -0.318 N 
ATOM     20  C   UNL A   1      33.176  26.711  24.222  1.00  0.00     0.027 A 
ATOM     21  C   UNL A   1      33.430  27.035  22.792  1.00  0.00     0.065 C 
BRANCH  19  22
ATOM     22  C   UNL A   1      31.538  28.575  24.520  1.00  0.00     0.046 A 
ATOM     23  C   UNL A   1      31.795  29.813  25.111  1.00  0.00     0.028 A 
ATOM     24  C   UNL A   1      30.479  28.433  23.614  1.00  0.00     0.038 A 
ATOM     25  C   UNL A   1      30.937  30.885  24.867  1.00  0.00     0.023 A 
ATOM     26  C   UNL A   1      29.619  29.519  23.346  1.00  0.00     0.018 A 
ATOM     27  C   UNL A   1      29.842  30.740  24.006  1.00  0.00     0.050 A 
ATOM     28  Cl  UNL A   1      28.819  32.127  23.854  1.00  0.00    -0.084 Cl
BRANCH  26  29
ATOM     29  C   UNL A   1      28.476  29.333  22.408  1.00  0.00     0.073 C 
ATOM     30  O   UNL A   1      28.374  29.706  21.256  1.00  0.00    -0.545 OA
ATOM     31  O   UNL A   1      27.463  28.643  22.971  1.00  0.00    -0.545 OA
ENDBRANCH  26  29
ENDBRANCH  19  22
ENDBRANCH   7  15
BRANCH  11  32
ATOM     32  C   UNL A   1      32.393  21.011  24.698  1.00  0.00     0.206 C 
BRANCH  32  33
ATOM     33  C   UNL A   1      31.599  21.811  25.654  1.00  0.00     0.123 A 
ATOM     34  C   UNL A   1      30.279  22.203  25.694  1.00  0.00     0.047 A 
ATOM     35  O   UNL A   1      32.244  22.215  26.784  1.00  0.00    -0.467 OA
ATOM     36  C   UNL A   1      30.112  22.901  26.912  1.00  0.00     0.042 A 
ATOM     37  C   UNL A   1      31.336  22.882  27.539  1.00  0.00     0.195 A 
ENDBRANCH  32  33
ENDBRANCH  11  32
ENDBRANCH   5   6
ENDBRANCH   4   5
ENDBRANCH   3   4
ENDBRANCH   2   3
ENDBRANCH   1   2
BRANCH   1  38
ATOM     38  C   UNL A   1      41.566  22.970  25.982  1.00  0.00     0.261 C 
BRANCH  38  39
ATOM     39  O   UNL A   1      42.737  22.314  25.370  1.00  0.00    -0.460 OA
BRANCH  39  40
ATOM     40  C   UNL A   1      43.923  22.466  26.041  1.00  0.00     0.338 C 
ATOM     41  O   UNL A   1      44.786  21.595  26.052  1.00  0.00    -0.246 OA
BRANCH  40  42
ATOM     42  C   UNL A   1      44.198  23.839  26.658  1.00  0.00     0.060 A 
ATOM     43  C   UNL A   1      43.809  24.002  27.980  1.00  0.00     0.016 A 
ATOM     44  C   UNL A   1      44.620  25.021  26.013  1.00  0.00     0.016 A 
ATOM     45  C   UNL A   1      43.857  25.274  28.622  1.00  0.00     0.010 A 
ATOM     46  C   UNL A   1      44.581  26.347  26.660  1.00  0.00     0.010 A 
ATOM     47  C   UNL A   1      44.169  26.530  27.993  1.00  0.00    -0.014 A 
BRANCH  47  48
ATOM     48  C   UNL A   1      43.628  27.861  28.745  1.00  0.00     0.031 A 
ATOM     49  C   UNL A   1      44.868  28.483  29.298  1.00  0.00     0.074 A 
ATOM     50  C   UNL A   1      42.494  28.573  29.139  1.00  0.00     0.049 A 
ATOM     51  N   UNL A   1      45.641  27.807  30.097  1.00  0.00    -0.248 NA
ATOM     52  C   UNL A   1      45.478  29.677  28.709  1.00  0.00     0.031 C 
ATOM     53  C   UNL A   1      41.076  28.230  28.953  1.00  0.00     0.029 A 
ATOM     54  N   UNL A   1      42.346  29.827  29.825  1.00  0.00    -0.354 N 
ATOM     55  C   UNL A   1      46.735  28.597  30.325  1.00  0.00     0.074 A 
ATOM     56  C   UNL A   1      46.677  29.628  29.300  1.00  0.00     0.031 C 
ATOM     57  C   UNL A   1      40.251  29.238  29.370  1.00  0.00     0.029 A 
ATOM     58  C   UNL A   1      41.010  30.351  29.940  1.00  0.00     0.049 A 
ATOM     59  H   UNL A   1      43.122  30.306  30.197  1.00  0.00     0.167 HD
ATOM     60  C   UNL A   1      47.199  28.686  31.601  1.00  0.00     0.031 A 
ATOM     61  C   UNL A   1      40.529  31.531  30.506  1.00  0.00     0.031 A 
ATOM     62  C   UNL A   1      46.918  29.972  32.179  1.00  0.00     0.049 A 
ATOM     63  C   UNL A   1      41.549  32.012  31.455  1.00  0.00     0.074 A 
ATOM     64  C   UNL A   1      47.045  31.275  31.738  1.00  0.00     0.029 A 
ATOM     65  N   UNL A   1      45.964  29.985  33.178  1.00  0.00    -0.354 N 
ATOM     66  N   UNL A   1      41.682  31.472  32.626  1.00  0.00    -0.248 NA
ATOM     67  C   UNL A   1      42.359  33.205  31.224  1.00  0.00     0.031 C 
ATOM     68  C   UNL A   1      45.830  31.905  32.108  1.00  0.00     0.029 A 
ATOM     69  C   UNL A   1      45.137  31.072  32.980  1.00  0.00     0.049 A 
ATOM     70  H   UNL A   1      45.887  29.330  33.909  1.00  0.00     0.167 HD
ATOM     71  C   UNL A   1      42.901  31.914  33.041  1.00  0.00     0.074 A 
ATOM     72  C   UNL A   1      43.125  33.149  32.316  1.00  0.00     0.031 C 
ATOM     73  C   UNL A   1      43.784  30.986  33.483  1.00  0.00     0.031 A 
BRANCH  60  74
ATOM     74  C   UNL A   1      47.184  27.411  32.404  1.00  0.00    -0.014 A 
ATOM     75  C   UNL A   1      45.952  26.862  32.783  1.00  0.00     0.010 A 
ATOM     76  C   UNL A   1      48.368  26.780  32.847  1.00  0.00     0.010 A 
ATOM     77  C   UNL A   1      45.908  25.758  33.643  1.00  0.00     0.020 A 
ATOM     78  C   UNL A   1      48.331  25.696  33.726  1.00  0.00     0.020 A 
ATOM     79  C   UNL A   1      47.096  25.197  34.128  1.00  0.00     0.054 A 
BRANCH  79  80
ATOM     80  S   UNL A   1      46.994  23.878  35.369  1.00  0.00     0.124 S 
ATOM     81  O   UNL A   1      45.897  23.051  34.863  1.00  0.00    -0.237 OA
ATOM     82  O   UNL A   1      48.316  23.267  35.277  1.00  0.00    -0.237 OA
ATOM     83  O   UNL A   1      46.695  24.581  36.612  1.00  0.00    -0.744 OA
ENDBRANCH  79  80
ENDBRANCH  60  74
BRANCH  61  84
ATOM     84  C   UNL A   1      39.270  32.427  30.666  1.00  0.00    -0.014 A 
ATOM     85  C   UNL A   1      38.496  32.761  29.500  1.00  0.00     0.010 A 
ATOM     86  C   UNL A   1      38.585  32.588  31.881  1.00  0.00     0.010 A 
ATOM     87  C   UNL A   1      37.121  33.088  29.528  1.00  0.00     0.020 A 
ATOM     88  C   UNL A   1      37.203  32.955  31.923  1.00  0.00     0.020 A 
ATOM     89  C   UNL A   1      36.467  33.158  30.747  1.00  0.00     0.054 A 
BRANCH  89  90
ATOM     90  S   UNL A   1      34.647  33.378  30.764  1.00  0.00     0.124 S 
ATOM     91  O   UNL A   1      34.257  32.995  29.409  1.00  0.00    -0.237 OA
ATOM     92  O   UNL A   1      34.221  32.461  31.820  1.00  0.00    -0.237 OA
ATOM     93  O   UNL A   1      34.474  34.795  31.082  1.00  0.00    -0.744 OA
ENDBRANCH  89  90
ENDBRANCH  61  84
BRANCH  73  94
ATOM     94  C   UNL A   1      43.209  29.776  34.216  1.00  0.00    -0.014 A 
ATOM     95  C   UNL A   1      43.109  29.666  35.624  1.00  0.00     0.010 A 
ATOM     96  C   UNL A   1      42.803  28.667  33.457  1.00  0.00     0.010 A 
ATOM     97  C   UNL A   1      42.734  28.470  36.249  1.00  0.00     0.020 A 
ATOM     98  C   UNL A   1      42.374  27.480  34.074  1.00  0.00     0.020 A 
ATOM     99  C   UNL A   1      42.386  27.375  35.467  1.00  0.00     0.054 A 
BRANCH  99 100
ATOM    100  S   UNL A   1      41.965  25.809  36.285  1.00  0.00     0.124 S 
ATOM    101  O   UNL A   1      40.659  25.502  35.707  1.00  0.00    -0.237 OA
ATOM    102  O   UNL A   1      43.049  24.921  35.874  1.00  0.00    -0.237 OA
ATOM    103  O   UNL A   1      41.939  26.159  37.704  1.00  0.00    -0.744 OA
ENDBRANCH  99 100
ENDBRANCH  73  94
ENDBRANCH  47  48
ENDBRANCH  40  42
ENDBRANCH  39  40
ENDBRANCH  38  39
ENDBRANCH   1  38
TORSDOF 21
ENDMDL
MODEL 3
REMARK VINA RESULT:     -10.3      7.810     15.748
REMARK SMILES Cc1cc(/C=C2\C(=O)N(Cc3ccco3)C(=O)N=C2OCCOCCOC(=O)c2ccc(-c3c4nc(c(-c5ccc(S(=O)(=O)[O-])cc5)c5ccc([nH]5)c(-c5ccc(S(=O)(=O)[O-])cc5)c5nc(c(-c6ccc(S(=O)(=O)[O-])cc6)c6ccc3[nH]6)C=C5)C=C4)cc2)c(C)n1-c1ccc(Cl)c(C(=O)[O-])c1
REMARK SMILES IDX 24 1 23 2 22 3 21 4 20 5 19 6 5 7 6 8 7 9 8 10 9 11 18 12
REMARK SMILES IDX 16 13 17 14 4 15 1 16 2 17 3 18 91 19 89 20 90 21 92 22
REMARK SMILES IDX 93 23 101 24 94 25 97 26 95 27 96 28 98 29 99 30 100 31
REMARK SMILES IDX 10 32 11 33 12 34 15 35 13 36 14 37 25 38 26 39 27 40 28 41
REMARK SMILES IDX 29 42 30 43 88 44 31 45 87 46 32 47 33 48 34 49 81 50 35 51
REMARK SMILES IDX 86 52 80 53 82 54 36 55 85 56 79 57 78 58 37 60 67 61 48 62
REMARK SMILES IDX 66 63 49 64 52 65 65 66 83 67 50 68 51 69 64 71 84 72 53 73
REMARK SMILES IDX 38 74 39 75 47 76 40 77 46 78 41 79 42 80 43 81 44 82 45 83
REMARK SMILES IDX 68 84 69 85 77 86 70 87 76 88 71 89 72 90 73 91 74 92 75 93
REMARK SMILES IDX 54 94 55 95 63 96 56 97 62 98 57 99 58 100 59 101 60 102
REMARK SMILES IDX 61 103
REMARK H PARENT 82 59 52 70
REMARK Flexibility Score: inf
ROOT
ATOM      1  C   UNL A   1      48.842  39.578  29.179  1.00  0.00     0.202 C 
ENDROOT
BRANCH   1   2
ATOM      2  O   UNL A   1      49.435  40.467  30.143  1.00  0.00    -0.374 OA
BRANCH   2   3
ATOM      3  C   UNL A   1      49.445  41.844  29.757  1.00  0.00     0.202 C 
BRANCH   3   4
ATOM      4  C   UNL A   1      49.145  42.085  28.265  1.00  0.00     0.260 C 
BRANCH   4   5
ATOM      5  O   UNL A   1      48.049  43.000  28.044  1.00  0.00    -0.475 OA
BRANCH   5   6
ATOM      6  C   UNL A   1      46.817  42.450  27.904  1.00  0.00     0.231 C 
ATOM      7  C   UNL A   1      46.887  42.914  25.475  1.00  0.00     0.029 C 
ATOM      8  C   UNL A   1      46.435  42.179  26.511  1.00  0.00     0.103 C 
ATOM      9  C   UNL A   1      45.376  41.138  26.409  1.00  0.00     0.267 C 
ATOM     10  O   UNL A   1      45.339  40.318  25.538  1.00  0.00    -0.268 OA
ATOM     11  N   UNL A   1      44.451  41.271  27.441  1.00  0.00    -0.250 N 
ATOM     12  N   UNL A   1      46.067  42.181  28.917  1.00  0.00    -0.156 NA
ATOM     13  C   UNL A   1      44.786  41.762  28.690  1.00  0.00     0.354 C 
ATOM     14  O   UNL A   1      43.947  41.825  29.592  1.00  0.00    -0.245 OA
BRANCH   7  15
ATOM     15  C   UNL A   1      46.475  42.954  24.095  1.00  0.00    -0.003 A 
ATOM     16  C   UNL A   1      46.877  42.121  20.480  1.00  0.00     0.065 C 
ATOM     17  C   UNL A   1      46.491  42.535  21.859  1.00  0.00     0.020 A 
ATOM     18  C   UNL A   1      47.143  42.268  23.049  1.00  0.00     0.031 A 
ATOM     19  N   UNL A   1      45.428  43.375  22.143  1.00  0.00    -0.318 N 
ATOM     20  C   UNL A   1      45.482  43.721  23.495  1.00  0.00     0.027 A 
ATOM     21  C   UNL A   1      44.507  44.676  24.090  1.00  0.00     0.065 C 
BRANCH  19  22
ATOM     22  C   UNL A   1      44.385  43.750  21.250  1.00  0.00     0.046 A 
ATOM     23  C   UNL A   1      43.204  43.009  21.203  1.00  0.00     0.028 A 
ATOM     24  C   UNL A   1      44.626  44.752  20.300  1.00  0.00     0.038 A 
ATOM     25  C   UNL A   1      42.308  43.204  20.154  1.00  0.00     0.023 A 
ATOM     26  C   UNL A   1      43.713  44.969  19.246  1.00  0.00     0.018 A 
ATOM     27  C   UNL A   1      42.564  44.163  19.166  1.00  0.00     0.050 A 
ATOM     28  Cl  UNL A   1      41.406  44.246  17.884  1.00  0.00    -0.084 Cl
BRANCH  26  29
ATOM     29  C   UNL A   1      44.010  46.013  18.225  1.00  0.00     0.073 C 
ATOM     30  O   UNL A   1      44.220  45.871  17.036  1.00  0.00    -0.545 OA
ATOM     31  O   UNL A   1      44.018  47.253  18.754  1.00  0.00    -0.545 OA
ENDBRANCH  26  29
ENDBRANCH  19  22
ENDBRANCH   7  15
BRANCH  11  32
ATOM     32  C   UNL A   1      43.074  40.895  27.191  1.00  0.00     0.206 C 
BRANCH  32  33
ATOM     33  C   UNL A   1      42.821  39.467  27.478  1.00  0.00     0.123 A 
ATOM     34  C   UNL A   1      42.880  38.707  28.626  1.00  0.00     0.047 A 
ATOM     35  O   UNL A   1      42.367  38.714  26.438  1.00  0.00    -0.467 OA
ATOM     36  C   UNL A   1      42.453  37.409  28.261  1.00  0.00     0.042 A 
ATOM     37  C   UNL A   1      42.153  37.464  26.920  1.00  0.00     0.195 A 
ENDBRANCH  32  33
ENDBRANCH  11  32
ENDBRANCH   5   6
ENDBRANCH   4   5
ENDBRANCH   3   4
ENDBRANCH   2   3
ENDBRANCH   1   2
BRANCH   1  38
ATOM     38  C   UNL A   1      47.557  38.860  29.669  1.00  0.00     0.261 C 
BRANCH  38  39
ATOM     39  O   UNL A   1      46.868  38.024  28.668  1.00  0.00    -0.460 OA
BRANCH  39  40
ATOM     40  C   UNL A   1      47.228  36.700  28.647  1.00  0.00     0.338 C 
ATOM     41  O   UNL A   1      48.252  36.309  28.099  1.00  0.00    -0.246 OA
BRANCH  40  42
ATOM     42  C   UNL A   1      46.372  35.737  29.472  1.00  0.00     0.060 A 
ATOM     43  C   UNL A   1      45.248  35.226  28.839  1.00  0.00     0.016 A 
ATOM     44  C   UNL A   1      46.463  35.445  30.850  1.00  0.00     0.016 A 
ATOM     45  C   UNL A   1      44.281  34.450  29.543  1.00  0.00     0.010 A 
ATOM     46  C   UNL A   1      45.411  34.718  31.588  1.00  0.00     0.010 A 
ATOM     47  C   UNL A   1      44.256  34.211  30.962  1.00  0.00    -0.014 A 
BRANCH  47  48
ATOM     48  C   UNL A   1      42.820  33.806  31.596  1.00  0.00     0.031 A 
ATOM     49  C   UNL A   1      43.174  32.872  32.706  1.00  0.00     0.074 A 
ATOM     50  C   UNL A   1      41.435  33.912  31.455  1.00  0.00     0.049 A 
ATOM     51  N   UNL A   1      43.869  31.799  32.465  1.00  0.00    -0.248 NA
ATOM     52  C   UNL A   1      43.115  33.269  34.115  1.00  0.00     0.031 C 
ATOM     53  C   UNL A   1      40.662  34.591  30.404  1.00  0.00     0.029 A 
ATOM     54  N   UNL A   1      40.354  33.416  32.262  1.00  0.00    -0.354 N 
ATOM     55  C   UNL A   1      44.128  31.232  33.683  1.00  0.00     0.074 A 
ATOM     56  C   UNL A   1      43.822  32.270  34.655  1.00  0.00     0.031 C 
ATOM     57  C   UNL A   1      39.320  34.579  30.674  1.00  0.00     0.029 A 
ATOM     58  C   UNL A   1      39.027  33.842  31.903  1.00  0.00     0.049 A 
ATOM     59  H   UNL A   1      40.514  32.813  33.024  1.00  0.00     0.167 HD
ATOM     60  C   UNL A   1      43.984  29.884  33.800  1.00  0.00     0.031 A 
ATOM     61  C   UNL A   1      37.787  33.577  32.481  1.00  0.00     0.031 A 
ATOM     62  C   UNL A   1      42.823  29.539  34.574  1.00  0.00     0.049 A 
ATOM     63  C   UNL A   1      37.928  32.350  33.285  1.00  0.00     0.074 A 
ATOM     64  C   UNL A   1      42.296  29.986  35.770  1.00  0.00     0.029 A 
ATOM     65  N   UNL A   1      41.778  28.972  33.870  1.00  0.00    -0.354 N 
ATOM     66  N   UNL A   1      37.949  31.181  32.725  1.00  0.00    -0.248 NA
ATOM     67  C   UNL A   1      37.896  32.339  34.744  1.00  0.00     0.031 C 
ATOM     68  C   UNL A   1      40.909  30.139  35.522  1.00  0.00     0.029 A 
ATOM     69  C   UNL A   1      40.598  29.536  34.307  1.00  0.00     0.049 A 
ATOM     70  H   UNL A   1      41.862  28.281  33.173  1.00  0.00     0.167 HD
ATOM     71  C   UNL A   1      38.441  30.371  33.702  1.00  0.00     0.074 A 
ATOM     72  C   UNL A   1      38.121  31.040  34.947  1.00  0.00     0.031 C 
ATOM     73  C   UNL A   1      39.487  29.570  33.382  1.00  0.00     0.031 A 
BRANCH  60  74
ATOM     74  C   UNL A   1      44.454  29.063  32.627  1.00  0.00    -0.014 A 
ATOM     75  C   UNL A   1      43.537  28.720  31.625  1.00  0.00     0.010 A 
ATOM     76  C   UNL A   1      45.775  28.566  32.530  1.00  0.00     0.010 A 
ATOM     77  C   UNL A   1      43.910  27.845  30.598  1.00  0.00     0.020 A 
ATOM     78  C   UNL A   1      46.145  27.673  31.523  1.00  0.00     0.020 A 
ATOM     79  C   UNL A   1      45.203  27.309  30.567  1.00  0.00     0.054 A 
BRANCH  79  80
ATOM     80  S   UNL A   1      45.595  26.052  29.319  1.00  0.00     0.124 S 
ATOM     81  O   UNL A   1      45.810  26.856  28.115  1.00  0.00    -0.237 OA
ATOM     82  O   UNL A   1      46.800  25.438  29.869  1.00  0.00    -0.237 OA
ATOM     83  O   UNL A   1      44.405  25.208  29.276  1.00  0.00    -0.744 OA
ENDBRANCH  79  80
ENDBRANCH  60  74
BRANCH  61  84
ATOM     84  C   UNL A   1      36.280  33.958  32.457  1.00  0.00    -0.014 A 
ATOM     85  C   UNL A   1      35.777  34.879  33.441  1.00  0.00     0.010 A 
ATOM     86  C   UNL A   1      35.466  33.820  31.322  1.00  0.00     0.010 A 
ATOM     87  C   UNL A   1      34.639  35.697  33.252  1.00  0.00     0.020 A 
ATOM     88  C   UNL A   1      34.291  34.616  31.137  1.00  0.00     0.020 A 
ATOM     89  C   UNL A   1      33.911  35.582  32.079  1.00  0.00     0.054 A 
BRANCH  89  90
ATOM     90  S   UNL A   1      32.565  36.784  31.751  1.00  0.00     0.124 S 
ATOM     91  O   UNL A   1      32.443  36.751  30.297  1.00  0.00    -0.237 OA
ATOM     92  O   UNL A   1      31.437  36.213  32.487  1.00  0.00    -0.237 OA
ATOM     93  O   UNL A   1      33.080  38.036  32.302  1.00  0.00    -0.744 OA
ENDBRANCH  89  90
ENDBRANCH  61  84
BRANCH  73  94
ATOM     94  C   UNL A   1      39.533  29.027  31.956  1.00  0.00    -0.014 A 
ATOM     95  C   UNL A   1      38.969  27.792  31.551  1.00  0.00     0.010 A 
ATOM     96  C   UNL A   1      40.229  29.761  30.983  1.00  0.00     0.010 A 
ATOM     97  C   UNL A   1      39.186  27.262  30.273  1.00  0.00     0.020 A 
ATOM     98  C   UNL A   1      40.407  29.262  29.683  1.00  0.00     0.020 A 
ATOM     99  C   UNL A   1      39.923  27.995  29.349  1.00  0.00     0.054 A 
BRANCH  99 100
ATOM    100  S   UNL A   1      40.256  27.271  27.718  1.00  0.00     0.124 S 
ATOM    101  O   UNL A   1      40.119  28.427  26.835  1.00  0.00    -0.237 OA
ATOM    102  O   UNL A   1      41.616  26.756  27.857  1.00  0.00    -0.237 OA
ATOM    103  O   UNL A   1      39.211  26.260  27.570  1.00  0.00    -0.744 OA
ENDBRANCH  99 100
ENDBRANCH  73  94
ENDBRANCH  47  48
ENDBRANCH  40  42
ENDBRANCH  39  40
ENDBRANCH  38  39
ENDBRANCH   1  38
TORSDOF 21
ENDMDL
