MODEL 1
REMARK VINA RESULT:     -13.0      0.000      0.000
REMARK SMILES Cc1ccc(-c2ccc(/C=C(\C#N)C3N=c4ccccc4=N3)o2)cc1C(=O)OCCOCCOC(=O)c1ccc(-c2c3nc(c(-c4ccc(S(=O)(=O)[O-])cc4)c4ccc([nH]4)c(-c4ccc(S(=O)(=O)[O-])cc4)c4nc(c(-c5ccc(S(=O)(=O)[O-])cc5)c5ccc2[nH]5)C=C4)C=C3)cc1
REMARK SMILES IDX 31 1 30 2 29 3 28 4 26 5 27 6 25 7 1 8 2 9 3 10 4 11 24 12
REMARK SMILES IDX 5 13 6 14 7 15 23 16 8 17 9 18 10 19 11 20 12 21 13 22 14 23
REMARK SMILES IDX 15 24 22 25 16 26 21 27 17 28 20 29 18 30 19 31 32 32 33 33
REMARK SMILES IDX 34 34 35 35 36 36 37 37 38 38 96 39 39 40 95 41 40 42 41 43
REMARK SMILES IDX 42 44 89 45 43 46 94 47 88 48 90 49 44 50 93 51 87 52 86 53
REMARK SMILES IDX 45 55 75 56 56 57 74 58 57 59 60 60 73 61 91 62 58 63 59 64
REMARK SMILES IDX 72 66 92 67 61 68 46 69 47 70 55 71 48 72 54 73 49 74 50 75
REMARK SMILES IDX 51 76 52 77 53 78 76 79 77 80 85 81 78 82 84 83 79 84 80 85
REMARK SMILES IDX 81 86 82 87 83 88 62 89 63 90 71 91 64 92 70 93 65 94 66 95
REMARK SMILES IDX 67 96 68 97 69 98
REMARK H PARENT 90 54 60 65
REMARK Flexibility Score: inf
ROOT
ATOM      1  O   UNL A   1      34.595  23.636  22.500  1.00  0.00    -0.374 OA
ENDROOT
BRANCH   1   2
ATOM      2  C   UNL A   1      33.182  23.761  22.419  1.00  0.00     0.202 C 
BRANCH   2   3
ATOM      3  C   UNL A   1      32.914  25.052  23.085  1.00  0.00     0.261 C 
BRANCH   3   4
ATOM      4  O   UNL A   1      31.556  25.088  23.548  1.00  0.00    -0.460 OA
BRANCH   4   5
ATOM      5  C   UNL A   1      31.203  25.376  24.808  1.00  0.00     0.338 C 
ATOM      6  O   UNL A   1      31.051  24.625  25.754  1.00  0.00    -0.246 OA
BRANCH   5   7
ATOM      7  C   UNL A   1      31.195  26.851  24.898  1.00  0.00     0.063 A 
ATOM      8  C   UNL A   1      29.227  27.357  23.236  1.00  0.00     0.045 C 
ATOM      9  C   UNL A   1      30.345  27.728  24.182  1.00  0.00    -0.037 A 
ATOM     10  C   UNL A   1      30.578  29.108  24.304  1.00  0.00     0.005 A 
ATOM     11  C   UNL A   1      31.642  29.601  25.058  1.00  0.00     0.012 A 
ATOM     12  C   UNL A   1      32.248  27.359  25.673  1.00  0.00     0.028 A 
ATOM     13  C   UNL A   1      32.501  28.723  25.715  1.00  0.00     0.018 A 
BRANCH  13  14
ATOM     14  C   UNL A   1      33.669  29.200  26.411  1.00  0.00     0.134 A 
ATOM     15  C   UNL A   1      34.803  28.608  26.909  1.00  0.00     0.051 A 
ATOM     16  O   UNL A   1      33.658  30.514  26.707  1.00  0.00    -0.457 OA
ATOM     17  C   UNL A   1      35.513  29.639  27.569  1.00  0.00     0.051 A 
ATOM     18  C   UNL A   1      34.759  30.804  27.468  1.00  0.00     0.128 A 
BRANCH  18  19
ATOM     19  C   UNL A   1      35.019  32.089  28.008  1.00  0.00     0.066 C 
ATOM     20  C   UNL A   1      35.588  32.305  29.214  1.00  0.00     0.080 C 
BRANCH  20  21
ATOM     21  C   UNL A   1      36.021  31.263  30.089  1.00  0.00     0.099 C 
ATOM     22  N   UNL A   1      36.364  30.356  30.741  1.00  0.00    -0.193 NA
ENDBRANCH  20  21
BRANCH  20  23
ATOM     23  C   UNL A   1      35.746  33.717  29.720  1.00  0.00     0.263 C 
ATOM     24  N   UNL A   1      34.702  34.581  29.100  1.00  0.00    -0.251 NA
ATOM     25  N   UNL A   1      35.664  33.776  31.201  1.00  0.00    -0.251 NA
ATOM     26  C   UNL A   1      34.065  35.023  30.128  1.00  0.00     0.086 A 
ATOM     27  C   UNL A   1      34.653  34.547  31.399  1.00  0.00     0.086 A 
ATOM     28  C   UNL A   1      32.898  35.906  30.156  1.00  0.00     0.030 A 
ATOM     29  C   UNL A   1      34.074  34.993  32.668  1.00  0.00     0.030 A 
ATOM     30  C   UNL A   1      32.432  36.270  31.360  1.00  0.00     0.002 A 
ATOM     31  C   UNL A   1      33.021  35.822  32.607  1.00  0.00     0.002 A 
ENDBRANCH  20  23
ENDBRANCH  18  19
ENDBRANCH  13  14
ENDBRANCH   5   7
ENDBRANCH   4   5
ENDBRANCH   3   4
ENDBRANCH   2   3
ENDBRANCH   1   2
BRANCH   1  32
ATOM     32  C   UNL A   1      35.108  23.377  23.774  1.00  0.00     0.202 C 
BRANCH  32  33
ATOM     33  C   UNL A   1      36.401  22.568  23.698  1.00  0.00     0.261 C 
BRANCH  33  34
ATOM     34  O   UNL A   1      36.626  21.789  24.906  1.00  0.00    -0.460 OA
BRANCH  34  35
ATOM     35  C   UNL A   1      37.912  21.492  25.288  1.00  0.00     0.338 C 
ATOM     36  O   UNL A   1      38.583  20.627  24.752  1.00  0.00    -0.246 OA
BRANCH  35  37
ATOM     37  C   UNL A   1      38.450  22.482  26.275  1.00  0.00     0.060 A 
ATOM     38  C   UNL A   1      37.855  23.742  26.497  1.00  0.00     0.016 A 
ATOM     39  C   UNL A   1      39.672  22.196  26.863  1.00  0.00     0.016 A 
ATOM     40  C   UNL A   1      38.569  24.768  27.154  1.00  0.00     0.010 A 
ATOM     41  C   UNL A   1      40.415  23.232  27.380  1.00  0.00     0.010 A 
ATOM     42  C   UNL A   1      39.892  24.533  27.514  1.00  0.00    -0.014 A 
BRANCH  42  43
ATOM     43  C   UNL A   1      40.890  25.500  27.998  1.00  0.00     0.031 A 
ATOM     44  C   UNL A   1      40.331  26.795  28.449  1.00  0.00     0.074 A 
ATOM     45  C   UNL A   1      42.144  25.109  28.362  1.00  0.00     0.049 A 
ATOM     46  N   UNL A   1      41.041  27.764  28.890  1.00  0.00    -0.248 NA
ATOM     47  C   UNL A   1      38.900  27.134  28.428  1.00  0.00     0.031 C 
ATOM     48  C   UNL A   1      43.037  25.648  29.396  1.00  0.00     0.029 A 
ATOM     49  N   UNL A   1      42.901  24.044  27.877  1.00  0.00    -0.354 N 
ATOM     50  C   UNL A   1      40.202  28.649  29.522  1.00  0.00     0.074 A 
ATOM     51  C   UNL A   1      38.876  28.285  29.106  1.00  0.00     0.031 C 
ATOM     52  C   UNL A   1      44.273  25.119  29.264  1.00  0.00     0.029 A 
ATOM     53  C   UNL A   1      44.265  24.274  28.078  1.00  0.00     0.049 A 
ATOM     54  H   UNL A   1      42.527  23.239  27.452  1.00  0.00     0.167 HD
ATOM     55  C   UNL A   1      40.753  29.495  30.430  1.00  0.00     0.031 A 
ATOM     56  C   UNL A   1      45.086  24.295  26.996  1.00  0.00     0.031 A 
ATOM     57  C   UNL A   1      42.217  29.357  30.411  1.00  0.00     0.049 A 
ATOM     58  C   UNL A   1      45.433  25.748  26.824  1.00  0.00     0.074 A 
ATOM     59  C   UNL A   1      43.123  28.747  31.258  1.00  0.00     0.029 A 
ATOM     60  N   UNL A   1      42.878  29.536  29.195  1.00  0.00    -0.354 N 
ATOM     61  N   UNL A   1      44.641  26.712  27.223  1.00  0.00    -0.248 NA
ATOM     62  C   UNL A   1      46.757  26.222  26.437  1.00  0.00     0.031 C 
ATOM     63  C   UNL A   1      44.298  28.457  30.489  1.00  0.00     0.029 A 
ATOM     64  C   UNL A   1      44.108  28.903  29.187  1.00  0.00     0.049 A 
ATOM     65  H   UNL A   1      42.514  30.048  28.437  1.00  0.00     0.167 HD
ATOM     66  C   UNL A   1      45.373  27.847  27.361  1.00  0.00     0.074 A 
ATOM     67  C   UNL A   1      46.668  27.519  26.777  1.00  0.00     0.031 C 
ATOM     68  C   UNL A   1      44.953  28.977  27.996  1.00  0.00     0.031 A 
BRANCH  55  69
ATOM     69  C   UNL A   1      39.997  30.311  31.452  1.00  0.00    -0.014 A 
ATOM     70  C   UNL A   1      39.514  29.658  32.603  1.00  0.00     0.010 A 
ATOM     71  C   UNL A   1      39.673  31.680  31.337  1.00  0.00     0.010 A 
ATOM     72  C   UNL A   1      38.762  30.325  33.582  1.00  0.00     0.020 A 
ATOM     73  C   UNL A   1      38.936  32.368  32.320  1.00  0.00     0.020 A 
ATOM     74  C   UNL A   1      38.483  31.681  33.440  1.00  0.00     0.054 A 
BRANCH  74  75
ATOM     75  S   UNL A   1      37.536  32.521  34.735  1.00  0.00     0.124 S 
ATOM     76  O   UNL A   1      38.216  33.811  34.835  1.00  0.00    -0.237 OA
ATOM     77  O   UNL A   1      36.192  32.562  34.166  1.00  0.00    -0.237 OA
ATOM     78  O   UNL A   1      37.687  31.652  35.901  1.00  0.00    -0.744 OA
ENDBRANCH  74  75
ENDBRANCH  55  69
BRANCH  56  79
ATOM     79  C   UNL A   1      44.700  23.237  25.987  1.00  0.00    -0.014 A 
ATOM     80  C   UNL A   1      45.681  22.899  25.014  1.00  0.00     0.010 A 
ATOM     81  C   UNL A   1      43.720  22.269  26.276  1.00  0.00     0.010 A 
ATOM     82  C   UNL A   1      45.773  21.600  24.478  1.00  0.00     0.020 A 
ATOM     83  C   UNL A   1      43.823  20.957  25.756  1.00  0.00     0.020 A 
ATOM     84  C   UNL A   1      44.873  20.619  24.893  1.00  0.00     0.054 A 
BRANCH  84  85
ATOM     85  S   UNL A   1      45.297  18.857  24.589  1.00  0.00     0.124 S 
ATOM     86  O   UNL A   1      46.385  18.625  25.530  1.00  0.00    -0.237 OA
ATOM     87  O   UNL A   1      44.046  18.162  24.896  1.00  0.00    -0.237 OA
ATOM     88  O   UNL A   1      45.660  18.840  23.177  1.00  0.00    -0.744 OA
ENDBRANCH  84  85
ENDBRANCH  56  79
BRANCH  68  89
ATOM     89  C   UNL A   1      45.363  30.315  27.465  1.00  0.00    -0.014 A 
ATOM     90  C   UNL A   1      44.525  31.072  26.631  1.00  0.00     0.010 A 
ATOM     91  C   UNL A   1      46.540  30.927  27.944  1.00  0.00     0.010 A 
ATOM     92  C   UNL A   1      44.908  32.327  26.179  1.00  0.00     0.020 A 
ATOM     93  C   UNL A   1      46.890  32.218  27.567  1.00  0.00     0.020 A 
ATOM     94  C   UNL A   1      46.097  32.884  26.640  1.00  0.00     0.054 A 
BRANCH  94  95
ATOM     95  S   UNL A   1      46.591  34.491  26.004  1.00  0.00     0.124 S 
ATOM     96  O   UNL A   1      48.015  34.278  25.752  1.00  0.00    -0.237 OA
ATOM     97  O   UNL A   1      45.758  34.636  24.812  1.00  0.00    -0.237 OA
ATOM     98  O   UNL A   1      46.276  35.408  27.095  1.00  0.00    -0.744 OA
ENDBRANCH  94  95
ENDBRANCH  68  89
ENDBRANCH  42  43
ENDBRANCH  35  37
ENDBRANCH  34  35
ENDBRANCH  33  34
ENDBRANCH  32  33
ENDBRANCH   1  32
TORSDOF 21
ENDMDL
MODEL 2
REMARK VINA RESULT:     -12.7      3.698     10.921
REMARK SMILES Cc1ccc(-c2ccc(/C=C(\C#N)C3N=c4ccccc4=N3)o2)cc1C(=O)OCCOCCOC(=O)c1ccc(-c2c3nc(c(-c4ccc(S(=O)(=O)[O-])cc4)c4ccc([nH]4)c(-c4ccc(S(=O)(=O)[O-])cc4)c4nc(c(-c5ccc(S(=O)(=O)[O-])cc5)c5ccc2[nH]5)C=C4)C=C3)cc1
REMARK SMILES IDX 31 1 30 2 29 3 28 4 26 5 27 6 25 7 1 8 2 9 3 10 4 11 24 12
REMARK SMILES IDX 5 13 6 14 7 15 23 16 8 17 9 18 10 19 11 20 12 21 13 22 14 23
REMARK SMILES IDX 15 24 22 25 16 26 21 27 17 28 20 29 18 30 19 31 32 32 33 33
REMARK SMILES IDX 34 34 35 35 36 36 37 37 38 38 96 39 39 40 95 41 40 42 41 43
REMARK SMILES IDX 42 44 89 45 43 46 94 47 88 48 90 49 44 50 93 51 87 52 86 53
REMARK SMILES IDX 45 55 75 56 56 57 74 58 57 59 60 60 73 61 91 62 58 63 59 64
REMARK SMILES IDX 72 66 92 67 61 68 46 69 47 70 55 71 48 72 54 73 49 74 50 75
REMARK SMILES IDX 51 76 52 77 53 78 76 79 77 80 85 81 78 82 84 83 79 84 80 85
REMARK SMILES IDX 81 86 82 87 83 88 62 89 63 90 71 91 64 92 70 93 65 94 66 95
REMARK SMILES IDX 67 96 68 97 69 98
REMARK H PARENT 90 54 60 65
REMARK Flexibility Score: inf
ROOT
ATOM      1  O   UNL A   1      32.182  28.949  25.321  1.00  0.00    -0.374 OA
ENDROOT
BRANCH   1   2
ATOM      2  C   UNL A   1      31.021  28.354  24.758  1.00  0.00     0.202 C 
BRANCH   2   3
ATOM      3  C   UNL A   1      31.534  27.108  24.152  1.00  0.00     0.261 C 
BRANCH   3   4
ATOM      4  O   UNL A   1      32.129  26.283  25.165  1.00  0.00    -0.460 OA
BRANCH   4   5
ATOM      5  C   UNL A   1      31.427  25.530  26.023  1.00  0.00     0.338 C 
ATOM      6  O   UNL A   1      30.546  25.862  26.793  1.00  0.00    -0.246 OA
BRANCH   5   7
ATOM      7  C   UNL A   1      31.810  24.131  25.738  1.00  0.00     0.063 A 
ATOM      8  C   UNL A   1      29.785  22.908  26.874  1.00  0.00     0.045 C 
ATOM      9  C   UNL A   1      31.103  22.972  26.139  1.00  0.00    -0.037 A 
ATOM     10  C   UNL A   1      31.696  21.725  25.883  1.00  0.00     0.005 A 
ATOM     11  C   UNL A   1      32.961  21.626  25.307  1.00  0.00     0.012 A 
ATOM     12  C   UNL A   1      33.072  24.020  25.136  1.00  0.00     0.028 A 
ATOM     13  C   UNL A   1      33.667  22.777  24.965  1.00  0.00     0.018 A 
BRANCH  13  14
ATOM     14  C   UNL A   1      35.017  22.707  24.468  1.00  0.00     0.134 A 
ATOM     15  C   UNL A   1      35.625  23.027  23.279  1.00  0.00     0.051 A 
ATOM     16  O   UNL A   1      35.908  22.157  25.317  1.00  0.00    -0.457 OA
ATOM     17  C   UNL A   1      36.973  22.619  23.419  1.00  0.00     0.051 A 
ATOM     18  C   UNL A   1      37.114  22.041  24.677  1.00  0.00     0.128 A 
BRANCH  18  19
ATOM     19  C   UNL A   1      38.255  21.439  25.264  1.00  0.00     0.066 C 
ATOM     20  C   UNL A   1      39.092  22.069  26.115  1.00  0.00     0.080 C 
BRANCH  20  21
ATOM     21  C   UNL A   1      38.919  23.417  26.553  1.00  0.00     0.099 C 
ATOM     22  N   UNL A   1      38.757  24.541  26.830  1.00  0.00    -0.193 NA
ENDBRANCH  20  21
BRANCH  20  23
ATOM     23  C   UNL A   1      40.320  21.352  26.619  1.00  0.00     0.263 C 
ATOM     24  N   UNL A   1      41.471  21.664  25.726  1.00  0.00    -0.251 NA
ATOM     25  N   UNL A   1      40.629  21.723  28.023  1.00  0.00    -0.251 NA
ATOM     26  C   UNL A   1      42.308  22.211  26.537  1.00  0.00     0.086 A 
ATOM     27  C   UNL A   1      41.805  22.236  27.928  1.00  0.00     0.086 A 
ATOM     28  C   UNL A   1      43.630  22.762  26.235  1.00  0.00     0.030 A 
ATOM     29  C   UNL A   1      42.654  22.787  28.987  1.00  0.00     0.030 A 
ATOM     30  C   UNL A   1      44.344  23.244  27.262  1.00  0.00     0.002 A 
ATOM     31  C   UNL A   1      43.862  23.249  28.630  1.00  0.00     0.002 A 
ENDBRANCH  20  23
ENDBRANCH  18  19
ENDBRANCH  13  14
ENDBRANCH   5   7
ENDBRANCH   4   5
ENDBRANCH   3   4
ENDBRANCH   2   3
ENDBRANCH   1   2
BRANCH   1  32
ATOM     32  C   UNL A   1      32.047  30.283  25.716  1.00  0.00     0.202 C 
BRANCH  32  33
ATOM     33  C   UNL A   1      32.699  30.528  27.074  1.00  0.00     0.261 C 
BRANCH  33  34
ATOM     34  O   UNL A   1      34.080  30.070  27.104  1.00  0.00    -0.460 OA
BRANCH  34  35
ATOM     35  C   UNL A   1      35.065  30.922  27.539  1.00  0.00     0.338 C 
ATOM     36  O   UNL A   1      34.930  32.134  27.576  1.00  0.00    -0.246 OA
BRANCH  35  37
ATOM     37  C   UNL A   1      36.218  30.186  28.149  1.00  0.00     0.060 A 
ATOM     38  C   UNL A   1      36.115  29.471  29.361  1.00  0.00     0.016 A 
ATOM     39  C   UNL A   1      37.466  30.362  27.570  1.00  0.00     0.016 A 
ATOM     40  C   UNL A   1      37.275  29.097  30.075  1.00  0.00     0.010 A 
ATOM     41  C   UNL A   1      38.587  30.118  28.328  1.00  0.00     0.010 A 
ATOM     42  C   UNL A   1      38.514  29.506  29.595  1.00  0.00    -0.014 A 
BRANCH  42  43
ATOM     43  C   UNL A   1      39.821  29.432  30.266  1.00  0.00     0.031 A 
ATOM     44  C   UNL A   1      40.740  28.404  29.723  1.00  0.00     0.074 A 
ATOM     45  C   UNL A   1      40.286  30.455  31.038  1.00  0.00     0.049 A 
ATOM     46  N   UNL A   1      41.913  28.181  30.183  1.00  0.00    -0.248 NA
ATOM     47  C   UNL A   1      40.411  27.504  28.608  1.00  0.00     0.031 C 
ATOM     48  C   UNL A   1      41.662  30.918  31.260  1.00  0.00     0.029 A 
ATOM     49  N   UNL A   1      39.563  31.377  31.791  1.00  0.00    -0.354 N 
ATOM     50  C   UNL A   1      42.592  27.428  29.256  1.00  0.00     0.074 A 
ATOM     51  C   UNL A   1      41.590  26.928  28.357  1.00  0.00     0.031 C 
ATOM     52  C   UNL A   1      41.695  31.807  32.276  1.00  0.00     0.029 A 
ATOM     53  C   UNL A   1      40.348  31.896  32.825  1.00  0.00     0.049 A 
ATOM     54  H   UNL A   1      38.628  31.631  31.619  1.00  0.00     0.167 HD
ATOM     55  C   UNL A   1      43.950  27.448  29.309  1.00  0.00     0.031 A 
ATOM     56  C   UNL A   1      39.923  31.737  34.106  1.00  0.00     0.031 A 
ATOM     57  C   UNL A   1      44.389  28.190  30.499  1.00  0.00     0.049 A 
ATOM     58  C   UNL A   1      40.849  30.695  34.673  1.00  0.00     0.074 A 
ATOM     59  C   UNL A   1      44.918  29.453  30.688  1.00  0.00     0.029 A 
ATOM     60  N   UNL A   1      43.913  27.776  31.744  1.00  0.00    -0.354 N 
ATOM     61  N   UNL A   1      41.437  29.795  33.926  1.00  0.00    -0.248 NA
ATOM     62  C   UNL A   1      41.370  30.735  36.035  1.00  0.00     0.031 C 
ATOM     63  C   UNL A   1      44.642  29.833  32.042  1.00  0.00     0.029 A 
ATOM     64  C   UNL A   1      43.962  28.799  32.674  1.00  0.00     0.049 A 
ATOM     65  H   UNL A   1      43.584  26.869  31.937  1.00  0.00     0.167 HD
ATOM     66  C   UNL A   1      42.515  29.312  34.595  1.00  0.00     0.074 A 
ATOM     67  C   UNL A   1      42.387  29.861  35.939  1.00  0.00     0.031 C 
ATOM     68  C   UNL A   1      43.506  28.558  34.041  1.00  0.00     0.031 A 
BRANCH  55  69
ATOM     69  C   UNL A   1      44.884  26.967  28.223  1.00  0.00    -0.014 A 
ATOM     70  C   UNL A   1      44.504  27.162  26.880  1.00  0.00     0.010 A 
ATOM     71  C   UNL A   1      46.099  26.278  28.427  1.00  0.00     0.010 A 
ATOM     72  C   UNL A   1      45.286  26.708  25.808  1.00  0.00     0.020 A 
ATOM     73  C   UNL A   1      46.903  25.833  27.362  1.00  0.00     0.020 A 
ATOM     74  C   UNL A   1      46.488  26.052  26.053  1.00  0.00     0.054 A 
BRANCH  74  75
ATOM     75  S   UNL A   1      47.490  25.502  24.648  1.00  0.00     0.124 S 
ATOM     76  O   UNL A   1      47.336  26.605  23.702  1.00  0.00    -0.237 OA
ATOM     77  O   UNL A   1      48.817  25.364  25.241  1.00  0.00    -0.237 OA
ATOM     78  O   UNL A   1      46.862  24.247  24.239  1.00  0.00    -0.744 OA
ENDBRANCH  74  75
ENDBRANCH  55  69
BRANCH  56  79
ATOM     79  C   UNL A   1      38.425  31.905  34.218  1.00  0.00    -0.014 A 
ATOM     80  C   UNL A   1      37.950  33.221  34.472  1.00  0.00     0.010 A 
ATOM     81  C   UNL A   1      37.536  31.010  33.592  1.00  0.00     0.010 A 
ATOM     82  C   UNL A   1      36.710  33.668  33.978  1.00  0.00     0.020 A 
ATOM     83  C   UNL A   1      36.299  31.461  33.076  1.00  0.00     0.020 A 
ATOM     84  C   UNL A   1      35.912  32.798  33.235  1.00  0.00     0.054 A 
BRANCH  84  85
ATOM     85  S   UNL A   1      34.575  33.510  32.195  1.00  0.00     0.124 S 
ATOM     86  O   UNL A   1      35.079  34.844  31.899  1.00  0.00    -0.237 OA
ATOM     87  O   UNL A   1      34.524  32.593  31.055  1.00  0.00    -0.237 OA
ATOM     88  O   UNL A   1      33.406  33.448  33.065  1.00  0.00    -0.744 OA
ENDBRANCH  84  85
ENDBRANCH  56  79
BRANCH  68  89
ATOM     89  C   UNL A   1      44.136  27.465  34.848  1.00  0.00    -0.014 A 
ATOM     90  C   UNL A   1      43.392  26.382  35.341  1.00  0.00     0.010 A 
ATOM     91  C   UNL A   1      45.539  27.411  34.976  1.00  0.00     0.010 A 
ATOM     92  C   UNL A   1      44.000  25.359  36.054  1.00  0.00     0.020 A 
ATOM     93  C   UNL A   1      46.167  26.347  35.613  1.00  0.00     0.020 A 
ATOM     94  C   UNL A   1      45.385  25.358  36.197  1.00  0.00     0.054 A 
BRANCH  94  95
ATOM     95  S   UNL A   1      46.142  24.046  37.164  1.00  0.00     0.124 S 
ATOM     96  O   UNL A   1      45.321  24.067  38.373  1.00  0.00    -0.237 OA
ATOM     97  O   UNL A   1      45.970  22.874  36.309  1.00  0.00    -0.237 OA
ATOM     98  O   UNL A   1      47.522  24.492  37.334  1.00  0.00    -0.744 OA
ENDBRANCH  94  95
ENDBRANCH  68  89
ENDBRANCH  42  43
ENDBRANCH  35  37
ENDBRANCH  34  35
ENDBRANCH  33  34
ENDBRANCH  32  33
ENDBRANCH   1  32
TORSDOF 21
ENDMDL
MODEL 3
REMARK VINA RESULT:     -12.6      1.530      2.244
REMARK SMILES Cc1ccc(-c2ccc(/C=C(\C#N)C3N=c4ccccc4=N3)o2)cc1C(=O)OCCOCCOC(=O)c1ccc(-c2c3nc(c(-c4ccc(S(=O)(=O)[O-])cc4)c4ccc([nH]4)c(-c4ccc(S(=O)(=O)[O-])cc4)c4nc(c(-c5ccc(S(=O)(=O)[O-])cc5)c5ccc2[nH]5)C=C4)C=C3)cc1
REMARK SMILES IDX 31 1 30 2 29 3 28 4 26 5 27 6 25 7 1 8 2 9 3 10 4 11 24 12
REMARK SMILES IDX 5 13 6 14 7 15 23 16 8 17 9 18 10 19 11 20 12 21 13 22 14 23
REMARK SMILES IDX 15 24 22 25 16 26 21 27 17 28 20 29 18 30 19 31 32 32 33 33
REMARK SMILES IDX 34 34 35 35 36 36 37 37 38 38 96 39 39 40 95 41 40 42 41 43
REMARK SMILES IDX 42 44 89 45 43 46 94 47 88 48 90 49 44 50 93 51 87 52 86 53
REMARK SMILES IDX 45 55 75 56 56 57 74 58 57 59 60 60 73 61 91 62 58 63 59 64
REMARK SMILES IDX 72 66 92 67 61 68 46 69 47 70 55 71 48 72 54 73 49 74 50 75
REMARK SMILES IDX 51 76 52 77 53 78 76 79 77 80 85 81 78 82 84 83 79 84 80 85
REMARK SMILES IDX 81 86 82 87 83 88 62 89 63 90 71 91 64 92 70 93 65 94 66 95
REMARK SMILES IDX 67 96 68 97 69 98
REMARK H PARENT 90 54 60 65
REMARK Flexibility Score: inf
ROOT
ATOM      1  O   UNL A   1      34.068  22.096  25.406  1.00  0.00    -0.374 OA
ENDROOT
BRANCH   1   2
ATOM      2  C   UNL A   1      33.895  22.247  24.004  1.00  0.00     0.202 C 
BRANCH   2   3
ATOM      3  C   UNL A   1      32.427  22.298  23.844  1.00  0.00     0.261 C 
BRANCH   3   4
ATOM      4  O   UNL A   1      32.084  23.220  22.800  1.00  0.00    -0.460 OA
BRANCH   4   5
ATOM      5  C   UNL A   1      31.092  24.117  22.890  1.00  0.00     0.338 C 
ATOM      6  O   UNL A   1      29.906  23.932  23.091  1.00  0.00    -0.246 OA
BRANCH   5   7
ATOM      7  C   UNL A   1      31.743  25.443  22.873  1.00  0.00     0.063 A 
ATOM      8  C   UNL A   1      32.830  25.339  20.486  1.00  0.00     0.045 C 
ATOM      9  C   UNL A   1      32.537  25.972  21.826  1.00  0.00    -0.037 A 
ATOM     10  C   UNL A   1      33.179  27.200  22.050  1.00  0.00     0.005 A 
ATOM     11  C   UNL A   1      33.090  27.853  23.279  1.00  0.00     0.012 A 
ATOM     12  C   UNL A   1      31.640  26.121  24.097  1.00  0.00     0.028 A 
ATOM     13  C   UNL A   1      32.348  27.295  24.317  1.00  0.00     0.018 A 
BRANCH  13  14
ATOM     14  C   UNL A   1      32.326  27.893  25.627  1.00  0.00     0.134 A 
ATOM     15  C   UNL A   1      31.808  27.528  26.845  1.00  0.00     0.051 A 
ATOM     16  O   UNL A   1      32.886  29.117  25.704  1.00  0.00    -0.457 OA
ATOM     17  C   UNL A   1      32.057  28.622  27.708  1.00  0.00     0.051 A 
ATOM     18  C   UNL A   1      32.688  29.614  26.964  1.00  0.00     0.128 A 
BRANCH  18  19
ATOM     19  C   UNL A   1      33.094  30.913  27.364  1.00  0.00     0.066 C 
ATOM     20  C   UNL A   1      34.361  31.245  27.691  1.00  0.00     0.080 C 
BRANCH  20  21
ATOM     21  C   UNL A   1      35.460  30.333  27.653  1.00  0.00     0.099 C 
ATOM     22  N   UNL A   1      36.312  29.538  27.569  1.00  0.00    -0.193 NA
ENDBRANCH  20  21
BRANCH  20  23
ATOM     23  C   UNL A   1      34.663  32.640  28.177  1.00  0.00     0.263 C 
ATOM     24  N   UNL A   1      34.492  32.693  29.656  1.00  0.00    -0.251 NA
ATOM     25  N   UNL A   1      36.033  33.066  27.792  1.00  0.00    -0.251 NA
ATOM     26  C   UNL A   1      35.663  33.048  30.056  1.00  0.00     0.086 A 
ATOM     27  C   UNL A   1      36.592  33.286  28.929  1.00  0.00     0.086 A 
ATOM     28  C   UNL A   1      36.129  33.240  31.431  1.00  0.00     0.030 A 
ATOM     29  C   UNL A   1      37.956  33.738  29.209  1.00  0.00     0.030 A 
ATOM     30  C   UNL A   1      37.391  33.659  31.599  1.00  0.00     0.002 A 
ATOM     31  C   UNL A   1      38.296  33.914  30.494  1.00  0.00     0.002 A 
ENDBRANCH  20  23
ENDBRANCH  18  19
ENDBRANCH  13  14
ENDBRANCH   5   7
ENDBRANCH   4   5
ENDBRANCH   3   4
ENDBRANCH   2   3
ENDBRANCH   1   2
BRANCH   1  32
ATOM     32  C   UNL A   1      35.350  21.723  25.822  1.00  0.00     0.202 C 
BRANCH  32  33
ATOM     33  C   UNL A   1      36.193  21.235  24.646  1.00  0.00     0.261 C 
BRANCH  33  34
ATOM     34  O   UNL A   1      37.511  21.852  24.630  1.00  0.00    -0.460 OA
BRANCH  34  35
ATOM     35  C   UNL A   1      38.473  21.414  25.508  1.00  0.00     0.338 C 
ATOM     36  O   UNL A   1      39.032  20.336  25.401  1.00  0.00    -0.246 OA
BRANCH  35  37
ATOM     37  C   UNL A   1      38.894  22.488  26.464  1.00  0.00     0.060 A 
ATOM     38  C   UNL A   1      38.319  23.776  26.471  1.00  0.00     0.016 A 
ATOM     39  C   UNL A   1      40.006  22.238  27.254  1.00  0.00     0.016 A 
ATOM     40  C   UNL A   1      38.965  24.848  27.125  1.00  0.00     0.010 A 
ATOM     41  C   UNL A   1      40.701  23.305  27.774  1.00  0.00     0.010 A 
ATOM     42  C   UNL A   1      40.210  24.623  27.701  1.00  0.00    -0.014 A 
BRANCH  42  43
ATOM     43  C   UNL A   1      41.160  25.613  28.233  1.00  0.00     0.031 A 
ATOM     44  C   UNL A   1      40.533  26.789  28.880  1.00  0.00     0.074 A 
ATOM     45  C   UNL A   1      42.467  25.299  28.459  1.00  0.00     0.049 A 
ATOM     46  N   UNL A   1      41.193  27.760  29.389  1.00  0.00    -0.248 NA
ATOM     47  C   UNL A   1      39.082  26.995  28.998  1.00  0.00     0.031 C 
ATOM     48  C   UNL A   1      43.391  25.791  29.489  1.00  0.00     0.029 A 
ATOM     49  N   UNL A   1      43.269  24.373  27.794  1.00  0.00    -0.354 N 
ATOM     50  C   UNL A   1      40.335  28.483  30.182  1.00  0.00     0.074 A 
ATOM     51  C   UNL A   1      39.016  28.051  29.815  1.00  0.00     0.031 C 
ATOM     52  C   UNL A   1      44.652  25.397  29.209  1.00  0.00     0.029 A 
ATOM     53  C   UNL A   1      44.620  24.702  27.929  1.00  0.00     0.049 A 
ATOM     54  H   UNL A   1      42.931  23.593  27.298  1.00  0.00     0.167 HD
ATOM     55  C   UNL A   1      40.885  29.262  31.150  1.00  0.00     0.031 A 
ATOM     56  C   UNL A   1      45.350  24.926  26.805  1.00  0.00     0.031 A 
ATOM     57  C   UNL A   1      42.349  29.262  31.014  1.00  0.00     0.049 A 
ATOM     58  C   UNL A   1      45.560  26.415  26.793  1.00  0.00     0.074 A 
ATOM     59  C   UNL A   1      43.366  28.641  31.714  1.00  0.00     0.029 A 
ATOM     60  N   UNL A   1      42.896  29.644  29.788  1.00  0.00    -0.354 N 
ATOM     61  N   UNL A   1      44.725  27.248  27.363  1.00  0.00    -0.248 NA
ATOM     62  C   UNL A   1      46.806  27.051  26.380  1.00  0.00     0.031 C 
ATOM     63  C   UNL A   1      44.497  28.553  30.837  1.00  0.00     0.029 A 
ATOM     64  C   UNL A   1      44.169  29.131  29.617  1.00  0.00     0.049 A 
ATOM     65  H   UNL A   1      42.432  30.207  29.127  1.00  0.00     0.167 HD
ATOM     66  C   UNL A   1      45.369  28.421  27.592  1.00  0.00     0.074 A 
ATOM     67  C   UNL A   1      46.637  28.285  26.885  1.00  0.00     0.031 C 
ATOM     68  C   UNL A   1      44.908  29.424  28.391  1.00  0.00     0.031 A 
BRANCH  55  69
ATOM     69  C   UNL A   1      40.147  29.878  32.316  1.00  0.00    -0.014 A 
ATOM     70  C   UNL A   1      40.835  30.795  33.133  1.00  0.00     0.010 A 
ATOM     71  C   UNL A   1      38.824  29.575  32.706  1.00  0.00     0.010 A 
ATOM     72  C   UNL A   1      40.245  31.381  34.263  1.00  0.00     0.020 A 
ATOM     73  C   UNL A   1      38.212  30.168  33.825  1.00  0.00     0.020 A 
ATOM     74  C   UNL A   1      38.931  31.071  34.600  1.00  0.00     0.054 A 
BRANCH  74  75
ATOM     75  S   UNL A   1      38.187  31.865  36.047  1.00  0.00     0.124 S 
ATOM     76  O   UNL A   1      37.828  30.722  36.884  1.00  0.00    -0.237 OA
ATOM     77  O   UNL A   1      39.279  32.694  36.549  1.00  0.00    -0.237 OA
ATOM     78  O   UNL A   1      37.052  32.605  35.496  1.00  0.00    -0.744 OA
ENDBRANCH  74  75
ENDBRANCH  55  69
BRANCH  56  79
ATOM     79  C   UNL A   1      44.974  23.965  25.700  1.00  0.00    -0.014 A 
ATOM     80  C   UNL A   1      46.040  23.465  24.902  1.00  0.00     0.010 A 
ATOM     81  C   UNL A   1      43.803  23.186  25.770  1.00  0.00     0.010 A 
ATOM     82  C   UNL A   1      46.000  22.176  24.337  1.00  0.00     0.020 A 
ATOM     83  C   UNL A   1      43.768  21.882  25.221  1.00  0.00     0.020 A 
ATOM     84  C   UNL A   1      44.882  21.369  24.545  1.00  0.00     0.054 A 
BRANCH  84  85
ATOM     85  S   UNL A   1      45.039  19.563  24.247  1.00  0.00     0.124 S 
ATOM     86  O   UNL A   1      44.678  19.440  22.841  1.00  0.00    -0.237 OA
ATOM     87  O   UNL A   1      46.445  19.301  24.557  1.00  0.00    -0.237 OA
ATOM     88  O   UNL A   1      44.099  18.984  25.200  1.00  0.00    -0.744 OA
ENDBRANCH  84  85
ENDBRANCH  56  79
BRANCH  68  89
ATOM     89  C   UNL A   1      45.164  30.848  28.004  1.00  0.00    -0.014 A 
ATOM     90  C   UNL A   1      44.230  31.598  27.272  1.00  0.00     0.010 A 
ATOM     91  C   UNL A   1      46.283  31.525  28.531  1.00  0.00     0.010 A 
ATOM     92  C   UNL A   1      44.469  32.927  26.955  1.00  0.00     0.020 A 
ATOM     93  C   UNL A   1      46.487  32.879  28.294  1.00  0.00     0.020 A 
ATOM     94  C   UNL A   1      45.605  33.555  27.458  1.00  0.00     0.054 A 
BRANCH  94  95
ATOM     95  S   UNL A   1      45.912  35.264  26.996  1.00  0.00     0.124 S 
ATOM     96  O   UNL A   1      44.777  35.535  26.117  1.00  0.00    -0.237 OA
ATOM     97  O   UNL A   1      45.888  35.955  28.283  1.00  0.00    -0.237 OA
ATOM     98  O   UNL A   1      47.216  35.218  26.342  1.00  0.00    -0.744 OA
ENDBRANCH  94  95
ENDBRANCH  68  89
ENDBRANCH  42  43
ENDBRANCH  35  37
ENDBRANCH  34  35
ENDBRANCH  33  34
ENDBRANCH  32  33
ENDBRANCH   1  32
TORSDOF 21
ENDMDL
