MODEL 1
REMARK VINA RESULT:     -11.2      0.000      0.000
REMARK SMILES CC(C)c1cc(N2CCC(C(=O)OCCOCCOC(=O)c3ccc(-c4c5nc(c(-c6ccc(S(=O)(=O)[O-])cc6)c6ccc([nH]6)c(-c6ccc(S(=O)(=O)[O-])cc6)c6nc(c(-c7ccc(S(=O)(=O)[O-])cc7)c7ccc4[nH]7)C=C6)C=C5)cc3)CC2)nc(-c2ccc(F)cc2)n1
REMARK SMILES IDX 17 1 16 2 15 3 14 4 13 5 11 6 12 7 10 8 7 9 8 10 83 11 9 12
REMARK SMILES IDX 82 13 6 14 4 15 5 16 93 17 85 18 84 19 2 20 1 21 3 22 86 23
REMARK SMILES IDX 87 24 92 25 88 26 91 27 89 28 90 29 18 30 19 31 20 32 21 33
REMARK SMILES IDX 22 34 23 35 81 36 24 37 80 38 25 39 26 40 27 41 74 42 28 43
REMARK SMILES IDX 79 44 73 45 75 46 29 47 78 48 72 49 71 50 30 52 60 53 41 54
REMARK SMILES IDX 59 55 42 56 45 57 58 58 76 59 43 60 44 61 57 63 77 64 46 65
REMARK SMILES IDX 31 66 32 67 40 68 33 69 39 70 34 71 35 72 36 73 37 74 38 75
REMARK SMILES IDX 61 76 62 77 70 78 63 79 69 80 64 81 65 82 66 83 67 84 68 85
REMARK SMILES IDX 47 86 48 87 56 88 49 89 55 90 50 91 51 92 52 93 53 94 54 95
REMARK H PARENT 75 51 45 62
REMARK Flexibility Score: inf
ROOT
ATOM      1  C   UNL A   1      33.840  29.903  27.240  1.00  0.00     0.202 C 
ENDROOT
BRANCH   1   2
ATOM      2  O   UNL A   1      33.507  29.587  25.891  1.00  0.00    -0.374 OA
BRANCH   2   3
ATOM      3  C   UNL A   1      32.116  29.457  25.580  1.00  0.00     0.202 C 
BRANCH   3   4
ATOM      4  C   UNL A   1      31.610  28.028  25.365  1.00  0.00     0.261 C 
BRANCH   4   5
ATOM      5  O   UNL A   1      31.202  27.833  23.997  1.00  0.00    -0.463 OA
BRANCH   5   6
ATOM      6  C   UNL A   1      30.224  26.919  23.780  1.00  0.00     0.309 C 
ATOM      7  O   UNL A   1      29.021  27.142  23.831  1.00  0.00    -0.252 OA
BRANCH   6   8
ATOM      8  C   UNL A   1      30.773  25.542  23.462  1.00  0.00     0.103 C 
ATOM      9  N   UNL A   1      32.481  23.306  23.758  1.00  0.00    -0.356 N 
ATOM     10  C   UNL A   1      32.633  24.108  22.557  1.00  0.00     0.119 C 
ATOM     11  C   UNL A   1      31.197  23.257  24.429  1.00  0.00     0.119 C 
ATOM     12  C   UNL A   1      32.173  25.532  22.833  1.00  0.00     0.037 C 
ATOM     13  C   UNL A   1      30.742  24.683  24.728  1.00  0.00     0.037 C 
BRANCH   9  14
ATOM     14  C   UNL A   1      33.502  22.443  24.072  1.00  0.00     0.132 A 
ATOM     15  C   UNL A   1      35.754  21.968  24.593  1.00  0.00     0.049 A 
ATOM     16  C   UNL A   1      34.803  22.888  24.196  1.00  0.00     0.071 A 
ATOM     17  N   UNL A   1      35.449  20.676  24.814  1.00  0.00    -0.233 NA
ATOM     18  C   UNL A   1      34.168  20.320  24.617  1.00  0.00     0.161 A 
ATOM     19  N   UNL A   1      33.177  21.159  24.284  1.00  0.00    -0.211 NA
BRANCH  15  20
ATOM     20  C   UNL A   1      37.190  22.398  24.806  1.00  0.00     0.032 C 
ATOM     21  C   UNL A   1      37.251  23.625  25.717  1.00  0.00     0.014 C 
ATOM     22  C   UNL A   1      38.019  21.248  25.377  1.00  0.00     0.014 C 
ENDBRANCH  15  20
BRANCH  18  23
ATOM     23  C   UNL A   1      33.840  18.897  24.723  1.00  0.00     0.019 A 
ATOM     24  C   UNL A   1      32.824  18.448  25.586  1.00  0.00     0.015 A 
ATOM     25  C   UNL A   1      34.556  17.936  23.982  1.00  0.00     0.015 A 
ATOM     26  C   UNL A   1      32.535  17.087  25.706  1.00  0.00     0.040 A 
ATOM     27  C   UNL A   1      34.280  16.572  24.114  1.00  0.00     0.040 A 
ATOM     28  C   UNL A   1      33.271  16.162  24.974  1.00  0.00     0.123 A 
ATOM     29  F   UNL A   1      33.006  14.857  25.109  1.00  0.00    -0.207 F 
ENDBRANCH  18  23
ENDBRANCH   9  14
ENDBRANCH   6   8
ENDBRANCH   5   6
ENDBRANCH   4   5
ENDBRANCH   3   4
ENDBRANCH   2   3
ENDBRANCH   1   2
BRANCH   1  30
ATOM     30  C   UNL A   1      35.023  29.140  27.851  1.00  0.00     0.261 C 
BRANCH  30  31
ATOM     31  O   UNL A   1      36.153  29.988  28.125  1.00  0.00    -0.460 OA
BRANCH  31  32
ATOM     32  C   UNL A   1      36.964  29.535  29.110  1.00  0.00     0.338 C 
ATOM     33  O   UNL A   1      36.661  29.345  30.282  1.00  0.00    -0.246 OA
BRANCH  32  34
ATOM     34  C   UNL A   1      38.273  29.122  28.569  1.00  0.00     0.060 A 
ATOM     35  C   UNL A   1      39.192  28.581  29.477  1.00  0.00     0.016 A 
ATOM     36  C   UNL A   1      38.638  29.339  27.237  1.00  0.00     0.016 A 
ATOM     37  C   UNL A   1      40.494  28.305  29.070  1.00  0.00     0.010 A 
ATOM     38  C   UNL A   1      39.953  29.066  26.834  1.00  0.00     0.010 A 
ATOM     39  C   UNL A   1      40.898  28.583  27.756  1.00  0.00    -0.014 A 
BRANCH  39  40
ATOM     40  C   UNL A   1      42.338  28.471  27.415  1.00  0.00     0.031 A 
ATOM     41  C   UNL A   1      43.248  29.649  27.644  1.00  0.00     0.074 A 
ATOM     42  C   UNL A   1      42.848  27.299  26.990  1.00  0.00     0.049 A 
ATOM     43  N   UNL A   1      44.546  29.730  27.501  1.00  0.00    -0.248 NA
ATOM     44  C   UNL A   1      42.614  30.896  28.105  1.00  0.00     0.031 C 
ATOM     45  C   UNL A   1      42.081  26.074  26.762  1.00  0.00     0.029 A 
ATOM     46  N   UNL A   1      44.141  26.946  26.692  1.00  0.00    -0.354 N 
ATOM     47  C   UNL A   1      44.888  31.029  27.863  1.00  0.00     0.074 A 
ATOM     48  C   UNL A   1      43.657  31.710  28.198  1.00  0.00     0.031 C 
ATOM     49  C   UNL A   1      42.919  25.101  26.366  1.00  0.00     0.029 A 
ATOM     50  C   UNL A   1      44.278  25.637  26.295  1.00  0.00     0.049 A 
ATOM     51  H   UNL A   1      44.899  27.571  26.756  1.00  0.00     0.167 HD
ATOM     52  C   UNL A   1      46.116  31.600  27.924  1.00  0.00     0.031 A 
ATOM     53  C   UNL A   1      45.372  24.948  25.913  1.00  0.00     0.031 A 
ATOM     54  C   UNL A   1      47.342  30.932  27.575  1.00  0.00     0.049 A 
ATOM     55  C   UNL A   1      46.716  25.628  25.926  1.00  0.00     0.074 A 
ATOM     56  C   UNL A   1      48.633  31.429  27.608  1.00  0.00     0.029 A 
ATOM     57  N   UNL A   1      47.430  29.623  27.126  1.00  0.00    -0.354 N 
ATOM     58  N   UNL A   1      47.021  26.849  26.298  1.00  0.00    -0.248 NA
ATOM     59  C   UNL A   1      47.866  24.829  25.479  1.00  0.00     0.031 C 
ATOM     60  C   UNL A   1      49.499  30.436  27.134  1.00  0.00     0.029 A 
ATOM     61  C   UNL A   1      48.750  29.303  26.857  1.00  0.00     0.049 A 
ATOM     62  H   UNL A   1      46.667  29.012  27.015  1.00  0.00     0.167 HD
ATOM     63  C   UNL A   1      48.400  26.956  26.148  1.00  0.00     0.074 A 
ATOM     64  C   UNL A   1      48.871  25.671  25.676  1.00  0.00     0.031 C 
ATOM     65  C   UNL A   1      49.205  28.024  26.378  1.00  0.00     0.031 A 
BRANCH  52  66
ATOM     66  C   UNL A   1      46.195  33.034  28.376  1.00  0.00    -0.014 A 
ATOM     67  C   UNL A   1      45.937  34.088  27.480  1.00  0.00     0.010 A 
ATOM     68  C   UNL A   1      46.468  33.330  29.723  1.00  0.00     0.010 A 
ATOM     69  C   UNL A   1      45.972  35.414  27.921  1.00  0.00     0.020 A 
ATOM     70  C   UNL A   1      46.483  34.654  30.172  1.00  0.00     0.020 A 
ATOM     71  C   UNL A   1      46.245  35.689  29.264  1.00  0.00     0.054 A 
BRANCH  71  72
ATOM     72  S   UNL A   1      46.241  37.416  29.819  1.00  0.00     0.124 S 
ATOM     73  O   UNL A   1      47.363  37.977  29.068  1.00  0.00    -0.237 OA
ATOM     74  O   UNL A   1      44.918  37.882  29.408  1.00  0.00    -0.237 OA
ATOM     75  O   UNL A   1      46.443  37.319  31.261  1.00  0.00    -0.744 OA
ENDBRANCH  71  72
ENDBRANCH  52  66
BRANCH  53  76
ATOM     76  C   UNL A   1      45.248  23.534  25.463  1.00  0.00    -0.014 A 
ATOM     77  C   UNL A   1      45.092  23.219  24.103  1.00  0.00     0.010 A 
ATOM     78  C   UNL A   1      45.252  22.494  26.412  1.00  0.00     0.010 A 
ATOM     79  C   UNL A   1      44.912  21.892  23.700  1.00  0.00     0.020 A 
ATOM     80  C   UNL A   1      45.100  21.164  26.010  1.00  0.00     0.020 A 
ATOM     81  C   UNL A   1      44.914  20.873  24.658  1.00  0.00     0.054 A 
BRANCH  81  82
ATOM     82  S   UNL A   1      44.705  19.154  24.117  1.00  0.00     0.124 S 
ATOM     83  O   UNL A   1      44.282  19.322  22.731  1.00  0.00    -0.237 OA
ATOM     84  O   UNL A   1      46.042  18.595  24.309  1.00  0.00    -0.237 OA
ATOM     85  O   UNL A   1      43.686  18.634  25.026  1.00  0.00    -0.744 OA
ENDBRANCH  81  82
ENDBRANCH  53  76
BRANCH  65  86
ATOM     86  C   UNL A   1      50.680  27.834  26.143  1.00  0.00    -0.014 A 
ATOM     87  C   UNL A   1      51.521  27.340  27.156  1.00  0.00     0.010 A 
ATOM     88  C   UNL A   1      51.231  28.141  24.885  1.00  0.00     0.010 A 
ATOM     89  C   UNL A   1      52.893  27.204  26.932  1.00  0.00     0.020 A 
ATOM     90  C   UNL A   1      52.598  27.981  24.648  1.00  0.00     0.020 A 
ATOM     91  C   UNL A   1      53.426  27.534  25.681  1.00  0.00     0.054 A 
BRANCH  91  92
ATOM     92  S   UNL A   1      55.209  27.344  25.409  1.00  0.00     0.124 S 
ATOM     93  O   UNL A   1      55.674  26.926  26.728  1.00  0.00    -0.237 OA
ATOM     94  O   UNL A   1      55.270  26.321  24.368  1.00  0.00    -0.237 OA
ATOM     95  O   UNL A   1      55.638  28.675  24.989  1.00  0.00    -0.744 OA
ENDBRANCH  91  92
ENDBRANCH  65  86
ENDBRANCH  39  40
ENDBRANCH  32  34
ENDBRANCH  31  32
ENDBRANCH  30  31
ENDBRANCH   1  30
TORSDOF 20
ENDMDL
MODEL 2
REMARK VINA RESULT:     -11.2      3.359      9.691
REMARK SMILES CC(C)c1cc(N2CCC(C(=O)OCCOCCOC(=O)c3ccc(-c4c5nc(c(-c6ccc(S(=O)(=O)[O-])cc6)c6ccc([nH]6)c(-c6ccc(S(=O)(=O)[O-])cc6)c6nc(c(-c7ccc(S(=O)(=O)[O-])cc7)c7ccc4[nH]7)C=C6)C=C5)cc3)CC2)nc(-c2ccc(F)cc2)n1
REMARK SMILES IDX 17 1 16 2 15 3 14 4 13 5 11 6 12 7 10 8 7 9 8 10 83 11 9 12
REMARK SMILES IDX 82 13 6 14 4 15 5 16 93 17 85 18 84 19 2 20 1 21 3 22 86 23
REMARK SMILES IDX 87 24 92 25 88 26 91 27 89 28 90 29 18 30 19 31 20 32 21 33
REMARK SMILES IDX 22 34 23 35 81 36 24 37 80 38 25 39 26 40 27 41 74 42 28 43
REMARK SMILES IDX 79 44 73 45 75 46 29 47 78 48 72 49 71 50 30 52 60 53 41 54
REMARK SMILES IDX 59 55 42 56 45 57 58 58 76 59 43 60 44 61 57 63 77 64 46 65
REMARK SMILES IDX 31 66 32 67 40 68 33 69 39 70 34 71 35 72 36 73 37 74 38 75
REMARK SMILES IDX 61 76 62 77 70 78 63 79 69 80 64 81 65 82 66 83 67 84 68 85
REMARK SMILES IDX 47 86 48 87 56 88 49 89 55 90 50 91 51 92 52 93 53 94 54 95
REMARK H PARENT 75 51 45 62
REMARK Flexibility Score: inf
ROOT
ATOM      1  C   UNL A   1      38.862  21.873  25.952  1.00  0.00     0.202 C 
ENDROOT
BRANCH   1   2
ATOM      2  O   UNL A   1      37.448  22.050  25.928  1.00  0.00    -0.374 OA
BRANCH   2   3
ATOM      3  C   UNL A   1      36.758  21.593  24.761  1.00  0.00     0.202 C 
BRANCH   3   4
ATOM      4  C   UNL A   1      35.413  20.903  25.009  1.00  0.00     0.261 C 
BRANCH   4   5
ATOM      5  O   UNL A   1      34.346  21.871  25.051  1.00  0.00    -0.463 OA
BRANCH   5   6
ATOM      6  C   UNL A   1      33.297  21.653  24.219  1.00  0.00     0.309 C 
ATOM      7  O   UNL A   1      32.991  20.572  23.731  1.00  0.00    -0.252 OA
BRANCH   6   8
ATOM      8  C   UNL A   1      32.508  22.916  23.932  1.00  0.00     0.103 C 
ATOM      9  N   UNL A   1      31.824  25.650  24.175  1.00  0.00    -0.356 N 
ATOM     10  C   UNL A   1      30.885  24.679  24.704  1.00  0.00     0.119 C 
ATOM     11  C   UNL A   1      32.704  25.278  23.084  1.00  0.00     0.119 C 
ATOM     12  C   UNL A   1      31.629  23.408  25.090  1.00  0.00     0.037 C 
ATOM     13  C   UNL A   1      33.469  24.016  23.476  1.00  0.00     0.037 C 
BRANCH   9  14
ATOM     14  C   UNL A   1      31.675  26.954  24.579  1.00  0.00     0.132 A 
ATOM     15  C   UNL A   1      32.158  28.771  26.005  1.00  0.00     0.049 A 
ATOM     16  C   UNL A   1      32.297  27.427  25.716  1.00  0.00     0.071 A 
ATOM     17  N   UNL A   1      31.414  29.593  25.241  1.00  0.00    -0.233 NA
ATOM     18  C   UNL A   1      30.800  29.034  24.183  1.00  0.00     0.161 A 
ATOM     19  N   UNL A   1      30.926  27.754  23.805  1.00  0.00    -0.211 NA
BRANCH  15  20
ATOM     20  C   UNL A   1      32.860  29.372  27.204  1.00  0.00     0.032 C 
ATOM     21  C   UNL A   1      34.321  28.921  27.249  1.00  0.00     0.014 C 
ATOM     22  C   UNL A   1      32.756  30.897  27.183  1.00  0.00     0.014 C 
ENDBRANCH  15  20
BRANCH  18  23
ATOM     23  C   UNL A   1      29.882  29.878  23.414  1.00  0.00     0.019 A 
ATOM     24  C   UNL A   1      29.376  29.456  22.171  1.00  0.00     0.015 A 
ATOM     25  C   UNL A   1      29.505  31.149  23.890  1.00  0.00     0.015 A 
ATOM     26  C   UNL A   1      28.524  30.277  21.429  1.00  0.00     0.040 A 
ATOM     27  C   UNL A   1      28.666  31.978  23.140  1.00  0.00     0.040 A 
ATOM     28  C   UNL A   1      28.184  31.533  21.917  1.00  0.00     0.123 A 
ATOM     29  F   UNL A   1      27.385  32.326  21.192  1.00  0.00    -0.207 F 
ENDBRANCH  18  23
ENDBRANCH   9  14
ENDBRANCH   6   8
ENDBRANCH   5   6
ENDBRANCH   4   5
ENDBRANCH   3   4
ENDBRANCH   2   3
ENDBRANCH   1   2
BRANCH   1  30
ATOM     30  C   UNL A   1      39.380  20.452  25.695  1.00  0.00     0.261 C 
BRANCH  30  31
ATOM     31  O   UNL A   1      40.297  20.000  26.708  1.00  0.00    -0.460 OA
BRANCH  31  32
ATOM     32  C   UNL A   1      41.570  19.839  26.276  1.00  0.00     0.338 C 
ATOM     33  O   UNL A   1      42.017  18.890  25.643  1.00  0.00    -0.246 OA
BRANCH  32  34
ATOM     34  C   UNL A   1      42.368  21.056  26.518  1.00  0.00     0.060 A 
ATOM     35  C   UNL A   1      42.595  21.411  27.854  1.00  0.00     0.016 A 
ATOM     36  C   UNL A   1      42.804  21.887  25.481  1.00  0.00     0.016 A 
ATOM     37  C   UNL A   1      43.211  22.621  28.159  1.00  0.00     0.010 A 
ATOM     38  C   UNL A   1      43.417  23.109  25.794  1.00  0.00     0.010 A 
ATOM     39  C   UNL A   1      43.591  23.499  27.134  1.00  0.00    -0.014 A 
BRANCH  39  40
ATOM     40  C   UNL A   1      44.054  24.862  27.498  1.00  0.00     0.031 A 
ATOM     41  C   UNL A   1      45.501  25.231  27.300  1.00  0.00     0.074 A 
ATOM     42  C   UNL A   1      43.173  25.792  27.913  1.00  0.00     0.049 A 
ATOM     43  N   UNL A   1      46.088  26.388  27.465  1.00  0.00    -0.248 NA
ATOM     44  C   UNL A   1      46.402  24.158  26.846  1.00  0.00     0.031 C 
ATOM     45  C   UNL A   1      41.740  25.572  28.111  1.00  0.00     0.029 A 
ATOM     46  N   UNL A   1      43.357  27.116  28.228  1.00  0.00    -0.354 N 
ATOM     47  C   UNL A   1      47.423  26.189  27.128  1.00  0.00     0.074 A 
ATOM     48  C   UNL A   1      47.566  24.792  26.782  1.00  0.00     0.031 C 
ATOM     49  C   UNL A   1      41.172  26.725  28.507  1.00  0.00     0.029 A 
ATOM     50  C   UNL A   1      42.202  27.757  28.608  1.00  0.00     0.049 A 
ATOM     51  H   UNL A   1      44.232  27.563  28.185  1.00  0.00     0.167 HD
ATOM     52  C   UNL A   1      48.435  27.089  27.095  1.00  0.00     0.031 A 
ATOM     53  C   UNL A   1      41.997  29.031  28.999  1.00  0.00     0.031 A 
ATOM     54  C   UNL A   1      48.302  28.476  27.454  1.00  0.00     0.049 A 
ATOM     55  C   UNL A   1      43.155  29.995  29.017  1.00  0.00     0.074 A 
ATOM     56  C   UNL A   1      49.272  29.464  27.451  1.00  0.00     0.029 A 
ATOM     57  N   UNL A   1      47.128  29.073  27.886  1.00  0.00    -0.354 N 
ATOM     58  N   UNL A   1      44.403  29.792  28.668  1.00  0.00    -0.248 NA
ATOM     59  C   UNL A   1      42.870  31.363  29.472  1.00  0.00     0.031 C 
ATOM     60  C   UNL A   1      48.695  30.648  27.924  1.00  0.00     0.029 A 
ATOM     61  C   UNL A   1      47.353  30.409  28.173  1.00  0.00     0.049 A 
ATOM     62  H   UNL A   1      46.262  28.615  27.976  1.00  0.00     0.167 HD
ATOM     63  C   UNL A   1      45.047  31.014  28.842  1.00  0.00     0.074 A 
ATOM     64  C   UNL A   1      44.046  31.952  29.304  1.00  0.00     0.031 C 
ATOM     65  C   UNL A   1      46.351  31.330  28.641  1.00  0.00     0.031 A 
BRANCH  52  66
ATOM     66  C   UNL A   1      49.792  26.597  26.665  1.00  0.00    -0.014 A 
ATOM     67  C   UNL A   1      50.701  26.076  27.604  1.00  0.00     0.010 A 
ATOM     68  C   UNL A   1      50.137  26.594  25.302  1.00  0.00     0.010 A 
ATOM     69  C   UNL A   1      51.940  25.582  27.188  1.00  0.00     0.020 A 
ATOM     70  C   UNL A   1      51.367  26.082  24.880  1.00  0.00     0.020 A 
ATOM     71  C   UNL A   1      52.267  25.588  25.828  1.00  0.00     0.054 A 
BRANCH  71  72
ATOM     72  S   UNL A   1      53.863  24.901  25.311  1.00  0.00     0.124 S 
ATOM     73  O   UNL A   1      54.172  25.709  24.133  1.00  0.00    -0.237 OA
ATOM     74  O   UNL A   1      54.711  25.144  26.476  1.00  0.00    -0.237 OA
ATOM     75  O   UNL A   1      53.568  23.496  25.043  1.00  0.00    -0.744 OA
ENDBRANCH  71  72
ENDBRANCH  52  66
BRANCH  53  76
ATOM     76  C   UNL A   1      40.642  29.476  29.426  1.00  0.00    -0.014 A 
ATOM     77  C   UNL A   1      39.697  29.919  28.485  1.00  0.00     0.010 A 
ATOM     78  C   UNL A   1      40.307  29.488  30.793  1.00  0.00     0.010 A 
ATOM     79  C   UNL A   1      38.450  30.395  28.905  1.00  0.00     0.020 A 
ATOM     80  C   UNL A   1      39.052  29.937  31.213  1.00  0.00     0.020 A 
ATOM     81  C   UNL A   1      38.138  30.404  30.268  1.00  0.00     0.054 A 
BRANCH  81  82
ATOM     82  S   UNL A   1      36.507  31.000  30.794  1.00  0.00     0.124 S 
ATOM     83  O   UNL A   1      36.819  32.332  31.300  1.00  0.00    -0.237 OA
ATOM     84  O   UNL A   1      35.737  30.956  29.553  1.00  0.00    -0.237 OA
ATOM     85  O   UNL A   1      36.099  30.024  31.803  1.00  0.00    -0.744 OA
ENDBRANCH  81  82
ENDBRANCH  53  76
BRANCH  65  86
ATOM     86  C   UNL A   1      46.759  32.757  28.898  1.00  0.00    -0.014 A 
ATOM     87  C   UNL A   1      47.225  33.164  30.161  1.00  0.00     0.010 A 
ATOM     88  C   UNL A   1      46.688  33.701  27.857  1.00  0.00     0.010 A 
ATOM     89  C   UNL A   1      47.566  34.499  30.391  1.00  0.00     0.020 A 
ATOM     90  C   UNL A   1      47.053  35.031  28.077  1.00  0.00     0.020 A 
ATOM     91  C   UNL A   1      47.469  35.427  29.350  1.00  0.00     0.054 A 
BRANCH  91  92
ATOM     92  S   UNL A   1      47.922  37.155  29.669  1.00  0.00     0.124 S 
ATOM     93  O   UNL A   1      47.896  37.727  28.327  1.00  0.00    -0.237 OA
ATOM     94  O   UNL A   1      46.861  37.606  30.566  1.00  0.00    -0.237 OA
ATOM     95  O   UNL A   1      49.245  37.058  30.280  1.00  0.00    -0.744 OA
ENDBRANCH  91  92
ENDBRANCH  65  86
ENDBRANCH  39  40
ENDBRANCH  32  34
ENDBRANCH  31  32
ENDBRANCH  30  31
ENDBRANCH   1  30
TORSDOF 20
ENDMDL
MODEL 3
REMARK VINA RESULT:     -11.1      1.351      2.656
REMARK SMILES CC(C)c1cc(N2CCC(C(=O)OCCOCCOC(=O)c3ccc(-c4c5nc(c(-c6ccc(S(=O)(=O)[O-])cc6)c6ccc([nH]6)c(-c6ccc(S(=O)(=O)[O-])cc6)c6nc(c(-c7ccc(S(=O)(=O)[O-])cc7)c7ccc4[nH]7)C=C6)C=C5)cc3)CC2)nc(-c2ccc(F)cc2)n1
REMARK SMILES IDX 17 1 16 2 15 3 14 4 13 5 11 6 12 7 10 8 7 9 8 10 83 11 9 12
REMARK SMILES IDX 82 13 6 14 4 15 5 16 93 17 85 18 84 19 2 20 1 21 3 22 86 23
REMARK SMILES IDX 87 24 92 25 88 26 91 27 89 28 90 29 18 30 19 31 20 32 21 33
REMARK SMILES IDX 22 34 23 35 81 36 24 37 80 38 25 39 26 40 27 41 74 42 28 43
REMARK SMILES IDX 79 44 73 45 75 46 29 47 78 48 72 49 71 50 30 52 60 53 41 54
REMARK SMILES IDX 59 55 42 56 45 57 58 58 76 59 43 60 44 61 57 63 77 64 46 65
REMARK SMILES IDX 31 66 32 67 40 68 33 69 39 70 34 71 35 72 36 73 37 74 38 75
REMARK SMILES IDX 61 76 62 77 70 78 63 79 69 80 64 81 65 82 66 83 67 84 68 85
REMARK SMILES IDX 47 86 48 87 56 88 49 89 55 90 50 91 51 92 52 93 53 94 54 95
REMARK H PARENT 75 51 45 62
REMARK Flexibility Score: inf
ROOT
ATOM      1  C   UNL A   1      34.238  29.026  27.207  1.00  0.00     0.202 C 
ENDROOT
BRANCH   1   2
ATOM      2  O   UNL A   1      32.861  29.135  26.855  1.00  0.00    -0.374 OA
BRANCH   2   3
ATOM      3  C   UNL A   1      32.555  29.830  25.642  1.00  0.00     0.202 C 
BRANCH   3   4
ATOM      4  C   UNL A   1      31.315  29.341  24.888  1.00  0.00     0.261 C 
BRANCH   4   5
ATOM      5  O   UNL A   1      31.541  28.032  24.331  1.00  0.00    -0.463 OA
BRANCH   5   6
ATOM      6  C   UNL A   1      30.442  27.273  24.100  1.00  0.00     0.309 C 
ATOM      7  O   UNL A   1      29.393  27.674  23.610  1.00  0.00    -0.252 OA
BRANCH   6   8
ATOM      8  C   UNL A   1      30.630  25.829  24.522  1.00  0.00     0.103 C 
ATOM      9  N   UNL A   1      32.058  23.424  24.951  1.00  0.00    -0.356 N 
ATOM     10  C   UNL A   1      31.060  23.428  23.897  1.00  0.00     0.119 C 
ATOM     11  C   UNL A   1      31.913  24.324  26.079  1.00  0.00     0.119 C 
ATOM     12  C   UNL A   1      30.880  24.845  23.370  1.00  0.00     0.037 C 
ATOM     13  C   UNL A   1      31.755  25.750  25.556  1.00  0.00     0.037 C 
BRANCH   9  14
ATOM     14  C   UNL A   1      32.974  22.401  24.947  1.00  0.00     0.132 A 
ATOM     15  C   UNL A   1      33.591  20.147  24.622  1.00  0.00     0.049 A 
ATOM     16  C   UNL A   1      32.594  21.101  24.685  1.00  0.00     0.071 A 
ATOM     17  N   UNL A   1      34.883  20.449  24.848  1.00  0.00    -0.233 NA
ATOM     18  C   UNL A   1      35.155  21.731  25.150  1.00  0.00     0.161 A 
ATOM     19  N   UNL A   1      34.255  22.724  25.179  1.00  0.00    -0.211 NA
BRANCH  15  20
ATOM     20  C   UNL A   1      33.254  18.711  24.280  1.00  0.00     0.032 C 
ATOM     21  C   UNL A   1      32.530  18.040  25.448  1.00  0.00     0.014 C 
ATOM     22  C   UNL A   1      32.419  18.642  23.002  1.00  0.00     0.014 C 
ENDBRANCH  15  20
BRANCH  18  23
ATOM     23  C   UNL A   1      36.532  22.056  25.527  1.00  0.00     0.019 A 
ATOM     24  C   UNL A   1      36.883  23.351  25.950  1.00  0.00     0.015 A 
ATOM     25  C   UNL A   1      37.549  21.084  25.447  1.00  0.00     0.015 A 
ATOM     26  C   UNL A   1      38.204  23.663  26.281  1.00  0.00     0.040 A 
ATOM     27  C   UNL A   1      38.873  21.400  25.761  1.00  0.00     0.040 A 
ATOM     28  C   UNL A   1      39.186  22.687  26.175  1.00  0.00     0.123 A 
ATOM     29  F   UNL A   1      40.455  22.996  26.472  1.00  0.00    -0.207 F 
ENDBRANCH  18  23
ENDBRANCH   9  14
ENDBRANCH   6   8
ENDBRANCH   5   6
ENDBRANCH   4   5
ENDBRANCH   3   4
ENDBRANCH   2   3
ENDBRANCH   1   2
BRANCH   1  30
ATOM     30  C   UNL A   1      34.776  30.067  28.198  1.00  0.00     0.261 C 
BRANCH  30  31
ATOM     31  O   UNL A   1      36.195  30.272  28.076  1.00  0.00    -0.460 OA
BRANCH  31  32
ATOM     32  C   UNL A   1      36.927  29.711  29.067  1.00  0.00     0.338 C 
ATOM     33  O   UNL A   1      36.553  29.467  30.208  1.00  0.00    -0.246 OA
BRANCH  32  34
ATOM     34  C   UNL A   1      38.236  29.255  28.564  1.00  0.00     0.060 A 
ATOM     35  C   UNL A   1      39.162  28.813  29.518  1.00  0.00     0.016 A 
ATOM     36  C   UNL A   1      38.595  29.341  27.216  1.00  0.00     0.016 A 
ATOM     37  C   UNL A   1      40.465  28.507  29.135  1.00  0.00     0.010 A 
ATOM     38  C   UNL A   1      39.911  29.038  26.836  1.00  0.00     0.010 A 
ATOM     39  C   UNL A   1      40.862  28.655  27.798  1.00  0.00    -0.014 A 
BRANCH  39  40
ATOM     40  C   UNL A   1      42.302  28.519  27.463  1.00  0.00     0.031 A 
ATOM     41  C   UNL A   1      43.232  29.679  27.704  1.00  0.00     0.074 A 
ATOM     42  C   UNL A   1      42.793  27.341  27.035  1.00  0.00     0.049 A 
ATOM     43  N   UNL A   1      44.532  29.738  27.568  1.00  0.00    -0.248 NA
ATOM     44  C   UNL A   1      42.618  30.934  28.169  1.00  0.00     0.031 C 
ATOM     45  C   UNL A   1      42.005  26.131  26.795  1.00  0.00     0.029 A 
ATOM     46  N   UNL A   1      44.081  26.966  26.740  1.00  0.00    -0.354 N 
ATOM     47  C   UNL A   1      44.895  31.028  27.939  1.00  0.00     0.074 A 
ATOM     48  C   UNL A   1      43.675  31.730  28.272  1.00  0.00     0.031 C 
ATOM     49  C   UNL A   1      42.828  25.145  26.398  1.00  0.00     0.029 A 
ATOM     50  C   UNL A   1      44.196  25.657  26.337  1.00  0.00     0.049 A 
ATOM     51  H   UNL A   1      44.850  27.577  26.812  1.00  0.00     0.167 HD
ATOM     52  C   UNL A   1      46.132  31.577  28.010  1.00  0.00     0.031 A 
ATOM     53  C   UNL A   1      45.280  24.951  25.956  1.00  0.00     0.031 A 
ATOM     54  C   UNL A   1      47.348  30.888  27.663  1.00  0.00     0.049 A 
ATOM     55  C   UNL A   1      46.636  25.607  25.980  1.00  0.00     0.074 A 
ATOM     56  C   UNL A   1      48.648  31.363  27.704  1.00  0.00     0.029 A 
ATOM     57  N   UNL A   1      47.415  29.581  27.207  1.00  0.00    -0.354 N 
ATOM     58  N   UNL A   1      46.960  26.819  26.360  1.00  0.00    -0.248 NA
ATOM     59  C   UNL A   1      47.773  24.790  25.534  1.00  0.00     0.031 C 
ATOM     60  C   UNL A   1      49.498  30.356  27.229  1.00  0.00     0.029 A 
ATOM     61  C   UNL A   1      48.731  29.239  26.942  1.00  0.00     0.049 A 
ATOM     62  H   UNL A   1      46.642  28.984  27.089  1.00  0.00     0.167 HD
ATOM     63  C   UNL A   1      48.342  26.903  26.218  1.00  0.00     0.074 A 
ATOM     64  C   UNL A   1      48.792  25.612  25.741  1.00  0.00     0.031 C 
ATOM     65  C   UNL A   1      49.165  27.955  26.458  1.00  0.00     0.031 A 
BRANCH  52  66
ATOM     66  C   UNL A   1      46.236  33.007  28.470  1.00  0.00    -0.014 A 
ATOM     67  C   UNL A   1      46.393  33.317  29.833  1.00  0.00     0.010 A 
ATOM     68  C   UNL A   1      46.241  34.047  27.525  1.00  0.00     0.010 A 
ATOM     69  C   UNL A   1      46.531  34.645  30.244  1.00  0.00     0.020 A 
ATOM     70  C   UNL A   1      46.400  35.376  27.930  1.00  0.00     0.020 A 
ATOM     71  C   UNL A   1      46.533  35.667  29.290  1.00  0.00     0.054 A 
BRANCH  71  72
ATOM     72  S   UNL A   1      46.758  37.379  29.847  1.00  0.00     0.124 S 
ATOM     73  O   UNL A   1      48.113  37.672  29.383  1.00  0.00    -0.237 OA
ATOM     74  O   UNL A   1      45.690  38.088  29.146  1.00  0.00    -0.237 OA
ATOM     75  O   UNL A   1      46.600  37.297  31.296  1.00  0.00    -0.744 OA
ENDBRANCH  71  72
ENDBRANCH  52  66
BRANCH  53  76
ATOM     76  C   UNL A   1      45.133  23.542  25.498  1.00  0.00    -0.014 A 
ATOM     77  C   UNL A   1      45.142  22.478  26.416  1.00  0.00     0.010 A 
ATOM     78  C   UNL A   1      45.019  23.260  24.123  1.00  0.00     0.010 A 
ATOM     79  C   UNL A   1      45.068  21.155  25.968  1.00  0.00     0.020 A 
ATOM     80  C   UNL A   1      44.918  21.940  23.674  1.00  0.00     0.020 A 
ATOM     81  C   UNL A   1      44.960  20.896  24.598  1.00  0.00     0.054 A 
BRANCH  81  82
ATOM     82  S   UNL A   1      44.840  19.175  24.034  1.00  0.00     0.124 S 
ATOM     83  O   UNL A   1      44.541  19.341  22.616  1.00  0.00    -0.237 OA
ATOM     84  O   UNL A   1      46.165  18.645  24.346  1.00  0.00    -0.237 OA
ATOM     85  O   UNL A   1      43.754  18.629  24.845  1.00  0.00    -0.744 OA
ENDBRANCH  81  82
ENDBRANCH  53  76
BRANCH  65  86
ATOM     86  C   UNL A   1      50.638  27.740  26.229  1.00  0.00    -0.014 A 
ATOM     87  C   UNL A   1      51.237  28.065  24.999  1.00  0.00     0.010 A 
ATOM     88  C   UNL A   1      51.436  27.220  27.264  1.00  0.00     0.010 A 
ATOM     89  C   UNL A   1      52.598  27.826  24.791  1.00  0.00     0.020 A 
ATOM     90  C   UNL A   1      52.803  27.005  27.069  1.00  0.00     0.020 A 
ATOM     91  C   UNL A   1      53.372  27.290  25.825  1.00  0.00     0.054 A 
BRANCH  91  92
ATOM     92  S   UNL A   1      55.138  26.993  25.538  1.00  0.00     0.124 S 
ATOM     93  O   UNL A   1      55.666  26.965  26.898  1.00  0.00    -0.237 OA
ATOM     94  O   UNL A   1      55.141  25.712  24.835  1.00  0.00    -0.237 OA
ATOM     95  O   UNL A   1      55.553  28.138  24.731  1.00  0.00    -0.744 OA
ENDBRANCH  91  92
ENDBRANCH  65  86
ENDBRANCH  39  40
ENDBRANCH  32  34
ENDBRANCH  31  32
ENDBRANCH  30  31
ENDBRANCH   1  30
TORSDOF 20
ENDMDL
