MODEL 1
REMARK VINA RESULT:     -10.4      0.000      0.000
REMARK SMILES O=C(OCCOCCOC(=O)C1([C@H]2CS(=O)(=O)C[C@H]2O)CCCC1)c1ccc(-c2c3nc(c(-c4ccc(S(=O)(=O)[O-])cc4)c4ccc([nH]4)c(-c4ccc(S(=O)(=O)[O-])cc4)c4nc(c(-c5ccc(S(=O)(=O)[O-])cc5)c5ccc2[nH]5)C=C4)C=C3)cc1
REMARK SMILES IDX 5 1 4 2 3 3 2 4 1 5 25 6 26 7 84 8 27 9 83 10 28 11 29 12
REMARK SMILES IDX 30 13 77 14 31 15 82 16 76 17 78 18 32 19 81 20 75 21 74 22
REMARK SMILES IDX 33 24 63 25 44 26 62 27 45 28 48 29 61 30 79 31 46 32 47 33
REMARK SMILES IDX 60 35 80 36 49 37 34 38 35 39 43 40 36 41 42 42 37 43 38 44
REMARK SMILES IDX 39 45 40 46 41 47 64 48 65 49 73 50 66 51 72 52 67 53 68 54
REMARK SMILES IDX 69 55 70 56 71 57 50 58 51 59 59 60 52 61 58 62 53 63 54 64
REMARK SMILES IDX 55 65 56 66 57 67 6 68 7 69 8 70 9 71 10 72 11 73 12 74
REMARK SMILES IDX 21 75 24 76 22 77 23 78 13 79 14 80 19 81 15 82 18 83 16 84
REMARK SMILES IDX 17 85 20 86
REMARK H PARENT 78 23 48 34 20 87
REMARK Flexibility Score: inf
ROOT
ATOM      1  C   UNL A   1      31.720  30.101  25.709  1.00  0.00     0.202 C 
ENDROOT
BRANCH   1   2
ATOM      2  C   UNL A   1      32.159  29.838  27.144  1.00  0.00     0.261 C 
BRANCH   2   3
ATOM      3  O   UNL A   1      33.578  29.664  27.255  1.00  0.00    -0.460 OA
BRANCH   3   4
ATOM      4  C   UNL A   1      34.404  30.535  27.900  1.00  0.00     0.338 C 
ATOM      5  O   UNL A   1      34.006  31.649  28.221  1.00  0.00    -0.246 OA
BRANCH   4   6
ATOM      6  C   UNL A   1      35.789  30.124  28.232  1.00  0.00     0.060 A 
ATOM      7  C   UNL A   1      36.816  30.314  27.323  1.00  0.00     0.016 A 
ATOM      8  C   UNL A   1      36.117  29.597  29.476  1.00  0.00     0.016 A 
ATOM      9  C   UNL A   1      38.054  29.758  27.469  1.00  0.00     0.010 A 
ATOM     10  C   UNL A   1      37.454  29.273  29.747  1.00  0.00     0.010 A 
ATOM     11  C   UNL A   1      38.424  29.348  28.730  1.00  0.00    -0.014 A 
BRANCH  11  12
ATOM     12  C   UNL A   1      39.848  29.024  28.901  1.00  0.00     0.031 A 
ATOM     13  C   UNL A   1      40.724  30.045  29.539  1.00  0.00     0.074 A 
ATOM     14  C   UNL A   1      40.280  27.774  28.617  1.00  0.00     0.049 A 
ATOM     15  N   UNL A   1      42.017  30.034  29.679  1.00  0.00    -0.248 NA
ATOM     16  C   UNL A   1      40.059  31.238  30.095  1.00  0.00     0.031 C 
ATOM     17  C   UNL A   1      39.438  26.664  28.135  1.00  0.00     0.029 A 
ATOM     18  N   UNL A   1      41.516  27.202  28.739  1.00  0.00    -0.354 N 
ATOM     19  C   UNL A   1      42.329  31.241  30.284  1.00  0.00     0.074 A 
ATOM     20  C   UNL A   1      41.095  31.963  30.484  1.00  0.00     0.031 C 
ATOM     21  C   UNL A   1      40.172  25.544  28.058  1.00  0.00     0.029 A 
ATOM     22  C   UNL A   1      41.553  25.880  28.352  1.00  0.00     0.049 A 
ATOM     23  H   UNL A   1      42.305  27.688  29.072  1.00  0.00     0.167 HD
ATOM     24  C   UNL A   1      43.553  31.694  30.625  1.00  0.00     0.031 A 
ATOM     25  C   UNL A   1      42.603  25.055  28.188  1.00  0.00     0.031 A 
ATOM     26  C   UNL A   1      44.749  30.930  30.410  1.00  0.00     0.049 A 
ATOM     27  C   UNL A   1      43.962  25.634  28.466  1.00  0.00     0.074 A 
ATOM     28  C   UNL A   1      46.061  31.297  30.633  1.00  0.00     0.029 A 
ATOM     29  N   UNL A   1      44.767  29.626  29.929  1.00  0.00    -0.354 N 
ATOM     30  N   UNL A   1      44.268  26.822  28.936  1.00  0.00    -0.248 NA
ATOM     31  C   UNL A   1      45.115  24.778  28.176  1.00  0.00     0.031 C 
ATOM     32  C   UNL A   1      46.876  30.232  30.236  1.00  0.00     0.029 A 
ATOM     33  C   UNL A   1      46.069  29.176  29.833  1.00  0.00     0.049 A 
ATOM     34  H   UNL A   1      43.970  29.100  29.692  1.00  0.00     0.167 HD
ATOM     35  C   UNL A   1      45.652  26.853  29.012  1.00  0.00     0.074 A 
ATOM     36  C   UNL A   1      46.117  25.549  28.575  1.00  0.00     0.031 C 
ATOM     37  C   UNL A   1      46.473  27.863  29.394  1.00  0.00     0.031 A 
BRANCH  24  38
ATOM     38  C   UNL A   1      43.638  33.085  31.179  1.00  0.00    -0.014 A 
ATOM     39  C   UNL A   1      43.727  34.209  30.337  1.00  0.00     0.010 A 
ATOM     40  C   UNL A   1      43.643  33.269  32.573  1.00  0.00     0.010 A 
ATOM     41  C   UNL A   1      43.837  35.490  30.882  1.00  0.00     0.020 A 
ATOM     42  C   UNL A   1      43.725  34.550  33.121  1.00  0.00     0.020 A 
ATOM     43  C   UNL A   1      43.830  35.653  32.271  1.00  0.00     0.054 A 
BRANCH  43  44
ATOM     44  S   UNL A   1      43.917  37.331  32.949  1.00  0.00     0.124 S 
ATOM     45  O   UNL A   1      45.243  37.342  33.562  1.00  0.00    -0.237 OA
ATOM     46  O   UNL A   1      43.769  38.162  31.756  1.00  0.00    -0.237 OA
ATOM     47  O   UNL A   1      42.797  37.387  33.886  1.00  0.00    -0.744 OA
ENDBRANCH  43  44
ENDBRANCH  24  38
BRANCH  25  48
ATOM     48  C   UNL A   1      42.431  23.677  27.643  1.00  0.00    -0.014 A 
ATOM     49  C   UNL A   1      42.082  22.600  28.476  1.00  0.00     0.010 A 
ATOM     50  C   UNL A   1      42.663  23.422  26.275  1.00  0.00     0.010 A 
ATOM     51  C   UNL A   1      42.016  21.297  27.967  1.00  0.00     0.020 A 
ATOM     52  C   UNL A   1      42.558  22.128  25.755  1.00  0.00     0.020 A 
ATOM     53  C   UNL A   1      42.261  21.069  26.610  1.00  0.00     0.054 A 
BRANCH  53  54
ATOM     54  S   UNL A   1      42.185  19.371  25.974  1.00  0.00     0.124 S 
ATOM     55  O   UNL A   1      43.015  19.458  24.777  1.00  0.00    -0.237 OA
ATOM     56  O   UNL A   1      42.744  18.595  27.078  1.00  0.00    -0.237 OA
ATOM     57  O   UNL A   1      40.759  19.159  25.732  1.00  0.00    -0.744 OA
ENDBRANCH  53  54
ENDBRANCH  25  48
BRANCH  37  58
ATOM     58  C   UNL A   1      47.944  27.565  29.392  1.00  0.00    -0.014 A 
ATOM     59  C   UNL A   1      48.760  27.933  28.309  1.00  0.00     0.010 A 
ATOM     60  C   UNL A   1      48.517  26.938  30.513  1.00  0.00     0.010 A 
ATOM     61  C   UNL A   1      50.122  27.637  28.329  1.00  0.00     0.020 A 
ATOM     62  C   UNL A   1      49.884  26.677  30.552  1.00  0.00     0.020 A 
ATOM     63  C   UNL A   1      50.675  27.011  29.450  1.00  0.00     0.054 A 
BRANCH  63  64
ATOM     64  S   UNL A   1      52.452  26.667  29.465  1.00  0.00     0.124 S 
ATOM     65  O   UNL A   1      52.644  26.015  28.173  1.00  0.00    -0.237 OA
ATOM     66  O   UNL A   1      53.034  28.001  29.590  1.00  0.00    -0.237 OA
ATOM     67  O   UNL A   1      52.629  25.805  30.631  1.00  0.00    -0.744 OA
ENDBRANCH  63  64
ENDBRANCH  37  58
ENDBRANCH  11  12
ENDBRANCH   4   6
ENDBRANCH   3   4
ENDBRANCH   2   3
ENDBRANCH   1   2
BRANCH   1  68
ATOM     68  O   UNL A   1      31.103  29.073  24.961  1.00  0.00    -0.374 OA
BRANCH  68  69
ATOM     69  C   UNL A   1      31.151  29.114  23.547  1.00  0.00     0.202 C 
BRANCH  69  70
ATOM     70  C   UNL A   1      32.409  28.359  23.130  1.00  0.00     0.261 C 
BRANCH  70  71
ATOM     71  O   UNL A   1      32.039  26.994  22.856  1.00  0.00    -0.463 OA
BRANCH  71  72
ATOM     72  C   UNL A   1      33.032  26.121  22.496  1.00  0.00     0.312 C 
ATOM     73  O   UNL A   1      33.781  26.251  21.540  1.00  0.00    -0.252 OA
BRANCH  72  74
ATOM     74  C   UNL A   1      33.061  24.914  23.467  1.00  0.00     0.074 C 
ATOM     75  C   UNL A   1      33.566  23.649  22.737  1.00  0.00     0.019 C 
ATOM     76  C   UNL A   1      34.209  25.278  24.441  1.00  0.00     0.019 C 
ATOM     77  C   UNL A   1      34.579  22.988  23.647  1.00  0.00     0.001 C 
ATOM     78  C   UNL A   1      35.172  24.099  24.490  1.00  0.00     0.001 C 
BRANCH  74  79
ATOM     79  C   UNL A   1      31.657  24.756  24.200  1.00  0.00     0.051 C 
ATOM     80  C   UNL A   1      31.026  23.346  24.226  1.00  0.00     0.144 C 
ATOM     81  C   UNL A   1      31.479  25.220  25.667  1.00  0.00     0.134 C 
ATOM     82  S   UNL A   1      31.257  22.635  25.848  1.00  0.00     0.153 S 
ATOM     83  C   UNL A   1      31.882  24.099  26.613  1.00  0.00     0.169 C 
ATOM     84  O   UNL A   1      29.962  22.340  26.430  1.00  0.00    -0.229 OA
ATOM     85  O   UNL A   1      32.315  21.652  25.791  1.00  0.00    -0.229 OA
BRANCH  81  86
ATOM     86  O   UNL A   1      32.114  26.444  25.970  1.00  0.00    -0.392 OA
ATOM     87  H   UNL A   1      31.650  26.876  26.705  1.00  0.00     0.211 HD
ENDBRANCH  81  86
ENDBRANCH  74  79
ENDBRANCH  72  74
ENDBRANCH  71  72
ENDBRANCH  70  71
ENDBRANCH  69  70
ENDBRANCH  68  69
ENDBRANCH   1  68
TORSDOF 19
ENDMDL
MODEL 2
REMARK VINA RESULT:      -9.9      3.047      9.510
REMARK SMILES O=C(OCCOCCOC(=O)C1([C@H]2CS(=O)(=O)C[C@H]2O)CCCC1)c1ccc(-c2c3nc(c(-c4ccc(S(=O)(=O)[O-])cc4)c4ccc([nH]4)c(-c4ccc(S(=O)(=O)[O-])cc4)c4nc(c(-c5ccc(S(=O)(=O)[O-])cc5)c5ccc2[nH]5)C=C4)C=C3)cc1
REMARK SMILES IDX 5 1 4 2 3 3 2 4 1 5 25 6 26 7 84 8 27 9 83 10 28 11 29 12
REMARK SMILES IDX 30 13 77 14 31 15 82 16 76 17 78 18 32 19 81 20 75 21 74 22
REMARK SMILES IDX 33 24 63 25 44 26 62 27 45 28 48 29 61 30 79 31 46 32 47 33
REMARK SMILES IDX 60 35 80 36 49 37 34 38 35 39 43 40 36 41 42 42 37 43 38 44
REMARK SMILES IDX 39 45 40 46 41 47 64 48 65 49 73 50 66 51 72 52 67 53 68 54
REMARK SMILES IDX 69 55 70 56 71 57 50 58 51 59 59 60 52 61 58 62 53 63 54 64
REMARK SMILES IDX 55 65 56 66 57 67 6 68 7 69 8 70 9 71 10 72 11 73 12 74
REMARK SMILES IDX 21 75 24 76 22 77 23 78 13 79 14 80 19 81 15 82 18 83 16 84
REMARK SMILES IDX 17 85 20 86
REMARK H PARENT 78 23 48 34 20 87
REMARK Flexibility Score: inf
ROOT
ATOM      1  C   UNL A   1      35.893  21.214  25.275  1.00  0.00     0.202 C 
ENDROOT
BRANCH   1   2
ATOM      2  C   UNL A   1      37.334  21.537  24.902  1.00  0.00     0.261 C 
BRANCH   2   3
ATOM      3  O   UNL A   1      37.830  22.692  25.594  1.00  0.00    -0.460 OA
BRANCH   3   4
ATOM      4  C   UNL A   1      39.114  22.827  26.025  1.00  0.00     0.338 C 
ATOM      5  O   UNL A   1      39.939  21.946  25.813  1.00  0.00    -0.246 OA
BRANCH   4   6
ATOM      6  C   UNL A   1      39.521  24.060  26.742  1.00  0.00     0.060 A 
ATOM      7  C   UNL A   1      39.250  24.211  28.091  1.00  0.00     0.016 A 
ATOM      8  C   UNL A   1      40.237  25.070  26.110  1.00  0.00     0.016 A 
ATOM      9  C   UNL A   1      39.389  25.398  28.752  1.00  0.00     0.010 A 
ATOM     10  C   UNL A   1      40.636  26.190  26.854  1.00  0.00     0.010 A 
ATOM     11  C   UNL A   1      40.199  26.353  28.181  1.00  0.00    -0.014 A 
BRANCH  11  12
ATOM     12  C   UNL A   1      40.548  27.489  29.048  1.00  0.00     0.031 A 
ATOM     13  C   UNL A   1      41.882  27.478  29.709  1.00  0.00     0.074 A 
ATOM     14  C   UNL A   1      39.725  28.561  29.096  1.00  0.00     0.049 A 
ATOM     15  N   UNL A   1      42.353  28.297  30.603  1.00  0.00    -0.248 NA
ATOM     16  C   UNL A   1      42.811  26.403  29.315  1.00  0.00     0.031 C 
ATOM     17  C   UNL A   1      38.466  28.711  28.343  1.00  0.00     0.029 A 
ATOM     18  N   UNL A   1      39.837  29.750  29.761  1.00  0.00    -0.354 N 
ATOM     19  C   UNL A   1      43.609  27.805  30.922  1.00  0.00     0.074 A 
ATOM     20  C   UNL A   1      43.829  26.617  30.132  1.00  0.00     0.031 C 
ATOM     21  C   UNL A   1      37.963  29.937  28.548  1.00  0.00     0.029 A 
ATOM     22  C   UNL A   1      38.779  30.606  29.544  1.00  0.00     0.049 A 
ATOM     23  H   UNL A   1      40.601  29.975  30.340  1.00  0.00     0.167 HD
ATOM     24  C   UNL A   1      44.485  28.313  31.814  1.00  0.00     0.031 A 
ATOM     25  C   UNL A   1      38.474  31.774  30.139  1.00  0.00     0.031 A 
ATOM     26  C   UNL A   1      44.218  29.504  32.569  1.00  0.00     0.049 A 
ATOM     27  C   UNL A   1      39.415  32.248  31.211  1.00  0.00     0.074 A 
ATOM     28  C   UNL A   1      44.980  30.087  33.563  1.00  0.00     0.029 A 
ATOM     29  N   UNL A   1      43.095  30.304  32.396  1.00  0.00    -0.354 N 
ATOM     30  N   UNL A   1      40.555  31.720  31.595  1.00  0.00    -0.248 NA
ATOM     31  C   UNL A   1      39.025  33.455  31.944  1.00  0.00     0.031 C 
ATOM     32  C   UNL A   1      44.289  31.211  34.027  1.00  0.00     0.029 A 
ATOM     33  C   UNL A   1      43.133  31.369  33.275  1.00  0.00     0.049 A 
ATOM     34  H   UNL A   1      42.378  30.137  31.743  1.00  0.00     0.167 HD
ATOM     35  C   UNL A   1      41.029  32.541  32.607  1.00  0.00     0.074 A 
ATOM     36  C   UNL A   1      40.067  33.619  32.746  1.00  0.00     0.031 C 
ATOM     37  C   UNL A   1      42.147  32.417  33.365  1.00  0.00     0.031 A 
BRANCH  24  38
ATOM     38  C   UNL A   1      45.744  27.536  32.055  1.00  0.00    -0.014 A 
ATOM     39  C   UNL A   1      45.771  26.426  32.919  1.00  0.00     0.010 A 
ATOM     40  C   UNL A   1      46.929  27.934  31.410  1.00  0.00     0.010 A 
ATOM     41  C   UNL A   1      46.966  25.742  33.149  1.00  0.00     0.020 A 
ATOM     42  C   UNL A   1      48.120  27.234  31.616  1.00  0.00     0.020 A 
ATOM     43  C   UNL A   1      48.132  26.146  32.491  1.00  0.00     0.054 A 
BRANCH  43  44
ATOM     44  S   UNL A   1      49.656  25.203  32.764  1.00  0.00     0.124 S 
ATOM     45  O   UNL A   1      49.203  24.154  33.675  1.00  0.00    -0.237 OA
ATOM     46  O   UNL A   1      49.999  24.759  31.415  1.00  0.00    -0.237 OA
ATOM     47  O   UNL A   1      50.571  26.181  33.347  1.00  0.00    -0.744 OA
ENDBRANCH  43  44
ENDBRANCH  24  38
BRANCH  25  48
ATOM     48  C   UNL A   1      37.203  32.493  29.832  1.00  0.00    -0.014 A 
ATOM     49  C   UNL A   1      37.172  33.567  28.925  1.00  0.00     0.010 A 
ATOM     50  C   UNL A   1      36.008  32.133  30.489  1.00  0.00     0.010 A 
ATOM     51  C   UNL A   1      35.992  34.292  28.719  1.00  0.00     0.020 A 
ATOM     52  C   UNL A   1      34.818  32.829  30.255  1.00  0.00     0.020 A 
ATOM     53  C   UNL A   1      34.823  33.922  29.390  1.00  0.00     0.054 A 
BRANCH  53  54
ATOM     54  S   UNL A   1      33.309  34.885  29.120  1.00  0.00     0.124 S 
ATOM     55  O   UNL A   1      33.836  36.132  28.575  1.00  0.00    -0.237 OA
ATOM     56  O   UNL A   1      32.565  34.048  28.183  1.00  0.00    -0.237 OA
ATOM     57  O   UNL A   1      32.724  34.985  30.456  1.00  0.00    -0.744 OA
ENDBRANCH  53  54
ENDBRANCH  25  48
BRANCH  37  58
ATOM     58  C   UNL A   1      42.393  33.503  34.372  1.00  0.00    -0.014 A 
ATOM     59  C   UNL A   1      43.034  34.699  34.011  1.00  0.00     0.010 A 
ATOM     60  C   UNL A   1      41.938  33.327  35.692  1.00  0.00     0.010 A 
ATOM     61  C   UNL A   1      43.258  35.688  34.968  1.00  0.00     0.020 A 
ATOM     62  C   UNL A   1      42.125  34.329  36.640  1.00  0.00     0.020 A 
ATOM     63  C   UNL A   1      42.801  35.496  36.276  1.00  0.00     0.054 A 
BRANCH  63  64
ATOM     64  S   UNL A   1      43.075  36.809  37.493  1.00  0.00     0.124 S 
ATOM     65  O   UNL A   1      43.579  37.895  36.657  1.00  0.00    -0.237 OA
ATOM     66  O   UNL A   1      41.740  37.011  38.050  1.00  0.00    -0.237 OA
ATOM     67  O   UNL A   1      44.048  36.229  38.416  1.00  0.00    -0.744 OA
ENDBRANCH  63  64
ENDBRANCH  37  58
ENDBRANCH  11  12
ENDBRANCH   4   6
ENDBRANCH   3   4
ENDBRANCH   2   3
ENDBRANCH   1   2
BRANCH   1  68
ATOM     68  O   UNL A   1      34.850  21.486  24.360  1.00  0.00    -0.374 OA
BRANCH  68  69
ATOM     69  C   UNL A   1      34.178  22.731  24.420  1.00  0.00     0.202 C 
BRANCH  69  70
ATOM     70  C   UNL A   1      34.404  23.284  25.823  1.00  0.00     0.261 C 
BRANCH  70  71
ATOM     71  O   UNL A   1      33.940  24.648  25.843  1.00  0.00    -0.463 OA
BRANCH  71  72
ATOM     72  C   UNL A   1      32.629  24.874  26.175  1.00  0.00     0.312 C 
ATOM     73  O   UNL A   1      31.880  24.068  26.706  1.00  0.00    -0.252 OA
BRANCH  72  74
ATOM     74  C   UNL A   1      32.212  26.306  25.757  1.00  0.00     0.074 C 
ATOM     75  C   UNL A   1      31.390  26.976  26.882  1.00  0.00     0.019 C 
ATOM     76  C   UNL A   1      33.557  27.074  25.754  1.00  0.00     0.019 C 
ATOM     77  C   UNL A   1      31.934  28.379  27.050  1.00  0.00     0.001 C 
ATOM     78  C   UNL A   1      33.384  28.321  26.612  1.00  0.00     0.001 C 
BRANCH  74  79
ATOM     79  C   UNL A   1      31.510  26.286  24.328  1.00  0.00     0.051 C 
ATOM     80  C   UNL A   1      30.243  27.153  24.149  1.00  0.00     0.144 C 
ATOM     81  C   UNL A   1      32.318  26.621  23.050  1.00  0.00     0.134 C 
ATOM     82  S   UNL A   1      30.671  28.626  23.234  1.00  0.00     0.153 S 
ATOM     83  C   UNL A   1      32.313  28.125  22.818  1.00  0.00     0.169 C 
ATOM     84  O   UNL A   1      29.891  28.674  22.012  1.00  0.00    -0.229 OA
ATOM     85  O   UNL A   1      30.743  29.747  24.143  1.00  0.00    -0.229 OA
BRANCH  81  86
ATOM     86  O   UNL A   1      33.617  26.070  23.024  1.00  0.00    -0.392 OA
ATOM     87  H   UNL A   1      34.256  26.733  23.330  1.00  0.00     0.211 HD
ENDBRANCH  81  86
ENDBRANCH  74  79
ENDBRANCH  72  74
ENDBRANCH  71  72
ENDBRANCH  70  71
ENDBRANCH  69  70
ENDBRANCH  68  69
ENDBRANCH   1  68
TORSDOF 19
ENDMDL
MODEL 3
REMARK VINA RESULT:      -9.7      1.296      8.462
REMARK SMILES O=C(OCCOCCOC(=O)C1([C@H]2CS(=O)(=O)C[C@H]2O)CCCC1)c1ccc(-c2c3nc(c(-c4ccc(S(=O)(=O)[O-])cc4)c4ccc([nH]4)c(-c4ccc(S(=O)(=O)[O-])cc4)c4nc(c(-c5ccc(S(=O)(=O)[O-])cc5)c5ccc2[nH]5)C=C4)C=C3)cc1
REMARK SMILES IDX 5 1 4 2 3 3 2 4 1 5 25 6 26 7 84 8 27 9 83 10 28 11 29 12
REMARK SMILES IDX 30 13 77 14 31 15 82 16 76 17 78 18 32 19 81 20 75 21 74 22
REMARK SMILES IDX 33 24 63 25 44 26 62 27 45 28 48 29 61 30 79 31 46 32 47 33
REMARK SMILES IDX 60 35 80 36 49 37 34 38 35 39 43 40 36 41 42 42 37 43 38 44
REMARK SMILES IDX 39 45 40 46 41 47 64 48 65 49 73 50 66 51 72 52 67 53 68 54
REMARK SMILES IDX 69 55 70 56 71 57 50 58 51 59 59 60 52 61 58 62 53 63 54 64
REMARK SMILES IDX 55 65 56 66 57 67 6 68 7 69 8 70 9 71 10 72 11 73 12 74
REMARK SMILES IDX 21 75 24 76 22 77 23 78 13 79 14 80 19 81 15 82 18 83 16 84
REMARK SMILES IDX 17 85 20 86
REMARK H PARENT 78 23 48 34 20 87
REMARK Flexibility Score: inf
ROOT
ATOM      1  C   UNL A   1      31.718  29.327  25.789  1.00  0.00     0.202 C 
ENDROOT
BRANCH   1   2
ATOM      2  C   UNL A   1      32.267  29.135  27.197  1.00  0.00     0.261 C 
BRANCH   2   3
ATOM      3  O   UNL A   1      33.702  29.121  27.225  1.00  0.00    -0.460 OA
BRANCH   3   4
ATOM      4  C   UNL A   1      34.463  30.152  27.686  1.00  0.00     0.338 C 
ATOM      5  O   UNL A   1      34.021  31.295  27.703  1.00  0.00    -0.246 OA
BRANCH   4   6
ATOM      6  C   UNL A   1      35.832  29.884  28.189  1.00  0.00     0.060 A 
ATOM      7  C   UNL A   1      36.935  30.119  27.385  1.00  0.00     0.016 A 
ATOM      8  C   UNL A   1      36.062  29.454  29.491  1.00  0.00     0.016 A 
ATOM      9  C   UNL A   1      38.191  29.685  27.697  1.00  0.00     0.010 A 
ATOM     10  C   UNL A   1      37.382  29.266  29.923  1.00  0.00     0.010 A 
ATOM     11  C   UNL A   1      38.450  29.375  29.013  1.00  0.00    -0.014 A 
BRANCH  11  12
ATOM     12  C   UNL A   1      39.868  29.190  29.355  1.00  0.00     0.031 A 
ATOM     13  C   UNL A   1      40.523  27.915  28.952  1.00  0.00     0.074 A 
ATOM     14  C   UNL A   1      40.562  30.227  29.878  1.00  0.00     0.049 A 
ATOM     15  N   UNL A   1      41.712  27.482  29.250  1.00  0.00    -0.248 NA
ATOM     16  C   UNL A   1      39.736  27.003  28.101  1.00  0.00     0.031 C 
ATOM     17  C   UNL A   1      40.021  31.570  30.154  1.00  0.00     0.029 A 
ATOM     18  N   UNL A   1      41.879  30.341  30.226  1.00  0.00    -0.354 N 
ATOM     19  C   UNL A   1      41.798  26.225  28.675  1.00  0.00     0.074 A 
ATOM     20  C   UNL A   1      40.543  25.959  28.013  1.00  0.00     0.031 C 
ATOM     21  C   UNL A   1      41.008  32.376  30.572  1.00  0.00     0.029 A 
ATOM     22  C   UNL A   1      42.214  31.582  30.722  1.00  0.00     0.049 A 
ATOM     23  H   UNL A   1      42.529  29.606  30.130  1.00  0.00     0.167 HD
ATOM     24  C   UNL A   1      42.844  25.373  28.718  1.00  0.00     0.031 A 
ATOM     25  C   UNL A   1      43.353  32.006  31.299  1.00  0.00     0.031 A 
ATOM     26  C   UNL A   1      44.073  25.691  29.387  1.00  0.00     0.049 A 
ATOM     27  C   UNL A   1      44.455  30.992  31.436  1.00  0.00     0.074 A 
ATOM     28  C   UNL A   1      45.185  24.894  29.579  1.00  0.00     0.029 A 
ATOM     29  N   UNL A   1      44.353  26.924  29.964  1.00  0.00    -0.354 N 
ATOM     30  N   UNL A   1      44.494  29.757  30.988  1.00  0.00    -0.248 NA
ATOM     31  C   UNL A   1      45.651  31.413  32.168  1.00  0.00     0.031 C 
ATOM     32  C   UNL A   1      46.116  25.630  30.318  1.00  0.00     0.029 A 
ATOM     33  C   UNL A   1      45.614  26.907  30.526  1.00  0.00     0.049 A 
ATOM     34  H   UNL A   1      43.743  27.696  29.970  1.00  0.00     0.167 HD
ATOM     35  C   UNL A   1      45.729  29.256  31.371  1.00  0.00     0.074 A 
ATOM     36  C   UNL A   1      46.417  30.337  32.055  1.00  0.00     0.031 C 
ATOM     37  C   UNL A   1      46.250  28.018  31.192  1.00  0.00     0.031 A 
BRANCH  24  38
ATOM     38  C   UNL A   1      42.651  24.021  28.100  1.00  0.00    -0.014 A 
ATOM     39  C   UNL A   1      43.014  23.763  26.765  1.00  0.00     0.010 A 
ATOM     40  C   UNL A   1      42.083  22.990  28.869  1.00  0.00     0.010 A 
ATOM     41  C   UNL A   1      42.792  22.502  26.207  1.00  0.00     0.020 A 
ATOM     42  C   UNL A   1      41.886  21.720  28.323  1.00  0.00     0.020 A 
ATOM     43  C   UNL A   1      42.235  21.487  26.991  1.00  0.00     0.054 A 
BRANCH  43  44
ATOM     44  S   UNL A   1      42.013  19.845  26.257  1.00  0.00     0.124 S 
ATOM     45  O   UNL A   1      42.468  18.967  27.333  1.00  0.00    -0.237 OA
ATOM     46  O   UNL A   1      40.578  19.811  25.983  1.00  0.00    -0.237 OA
ATOM     47  O   UNL A   1      42.870  19.873  25.074  1.00  0.00    -0.744 OA
ENDBRANCH  43  44
ENDBRANCH  24  38
BRANCH  25  48
ATOM     48  C   UNL A   1      43.467  33.376  31.881  1.00  0.00    -0.014 A 
ATOM     49  C   UNL A   1      43.797  34.484  31.080  1.00  0.00     0.010 A 
ATOM     50  C   UNL A   1      43.289  33.575  33.265  1.00  0.00     0.010 A 
ATOM     51  C   UNL A   1      43.992  35.745  31.655  1.00  0.00     0.020 A 
ATOM     52  C   UNL A   1      43.444  34.841  33.838  1.00  0.00     0.020 A 
ATOM     53  C   UNL A   1      43.821  35.915  33.032  1.00  0.00     0.054 A 
BRANCH  53  54
ATOM     54  S   UNL A   1      44.094  37.554  33.759  1.00  0.00     0.124 S 
ATOM     55  O   UNL A   1      44.746  37.222  35.022  1.00  0.00    -0.237 OA
ATOM     56  O   UNL A   1      44.938  38.206  32.762  1.00  0.00    -0.237 OA
ATOM     57  O   UNL A   1      42.745  38.105  33.879  1.00  0.00    -0.744 OA
ENDBRANCH  53  54
ENDBRANCH  25  48
BRANCH  37  58
ATOM     58  C   UNL A   1      47.642  27.798  31.709  1.00  0.00    -0.014 A 
ATOM     59  C   UNL A   1      48.766  28.065  30.910  1.00  0.00     0.010 A 
ATOM     60  C   UNL A   1      47.818  27.352  33.031  1.00  0.00     0.010 A 
ATOM     61  C   UNL A   1      50.048  27.845  31.413  1.00  0.00     0.020 A 
ATOM     62  C   UNL A   1      49.098  27.169  33.549  1.00  0.00     0.020 A 
ATOM     63  C   UNL A   1      50.205  27.399  32.729  1.00  0.00     0.054 A 
BRANCH  63  64
ATOM     64  S   UNL A   1      51.881  27.151  33.368  1.00  0.00     0.124 S 
ATOM     65  O   UNL A   1      52.362  26.053  32.537  1.00  0.00    -0.237 OA
ATOM     66  O   UNL A   1      52.509  28.448  33.124  1.00  0.00    -0.237 OA
ATOM     67  O   UNL A   1      51.670  26.823  34.776  1.00  0.00    -0.744 OA
ENDBRANCH  63  64
ENDBRANCH  37  58
ENDBRANCH  11  12
ENDBRANCH   4   6
ENDBRANCH   3   4
ENDBRANCH   2   3
ENDBRANCH   1   2
BRANCH   1  68
ATOM     68  O   UNL A   1      32.110  28.449  24.753  1.00  0.00    -0.374 OA
BRANCH  68  69
ATOM     69  C   UNL A   1      32.190  28.929  23.424  1.00  0.00     0.202 C 
BRANCH  69  70
ATOM     70  C   UNL A   1      33.532  28.464  22.870  1.00  0.00     0.261 C 
BRANCH  70  71
ATOM     71  O   UNL A   1      33.775  27.129  23.353  1.00  0.00    -0.463 OA
BRANCH  71  72
ATOM     72  C   UNL A   1      33.464  26.082  22.525  1.00  0.00     0.312 C 
ATOM     73  O   UNL A   1      33.437  26.122  21.305  1.00  0.00    -0.252 OA
BRANCH  72  74
ATOM     74  C   UNL A   1      33.120  24.824  23.362  1.00  0.00     0.074 C 
ATOM     75  C   UNL A   1      32.688  23.664  22.436  1.00  0.00     0.019 C 
ATOM     76  C   UNL A   1      34.499  24.383  23.911  1.00  0.00     0.019 C 
ATOM     77  C   UNL A   1      33.412  22.424  22.914  1.00  0.00     0.001 C 
ATOM     78  C   UNL A   1      34.690  22.911  23.567  1.00  0.00     0.001 C 
BRANCH  74  79
ATOM     79  C   UNL A   1      32.086  25.189  24.516  1.00  0.00     0.051 C 
ATOM     80  C   UNL A   1      30.911  24.212  24.749  1.00  0.00     0.144 C 
ATOM     81  C   UNL A   1      32.580  25.456  25.960  1.00  0.00     0.134 C 
ATOM     82  S   UNL A   1      31.247  23.235  26.206  1.00  0.00     0.153 S 
ATOM     83  C   UNL A   1      32.672  24.142  26.722  1.00  0.00     0.169 C 
ATOM     84  O   UNL A   1      30.196  23.453  27.182  1.00  0.00    -0.229 OA
ATOM     85  O   UNL A   1      31.659  21.910  25.806  1.00  0.00    -0.229 OA
BRANCH  81  86
ATOM     86  O   UNL A   1      33.766  26.215  26.035  1.00  0.00    -0.392 OA
ATOM     87  H   UNL A   1      34.002  26.356  26.967  1.00  0.00     0.211 HD
ENDBRANCH  81  86
ENDBRANCH  74  79
ENDBRANCH  72  74
ENDBRANCH  71  72
ENDBRANCH  70  71
ENDBRANCH  69  70
ENDBRANCH  68  69
ENDBRANCH   1  68
TORSDOF 19
ENDMDL
