MODEL 1
REMARK VINA RESULT:      -9.7      0.000      0.000
REMARK SMILES COc1ccccc1C[N@@H+](C)[C@@H](C)c1ccc(C(=O)OCCOCCOC(=O)c2ccc(-c3c4nc(c(-c5ccc(S(=O)(=O)[O-])cc5)c5ccc([nH]5)c(-c5ccc(S(=O)(=O)[O-])cc5)c5nc(c(-c6ccc(S(=O)(=O)[O-])cc6)c6ccc3[nH]6)C=C5)C=C4)cc2)o1
REMARK SMILES IDX 22 1 21 2 20 3 18 4 19 5 17 6 14 7 15 8 89 9 16 10 12 11
REMARK SMILES IDX 13 12 10 13 11 14 9 16 8 17 3 18 4 19 5 20 7 21 6 22 2 23
REMARK SMILES IDX 1 24 23 25 24 26 25 27 26 28 27 29 28 30 29 31 30 32 88 33
REMARK SMILES IDX 31 34 87 35 32 36 33 37 34 38 81 39 35 40 86 41 80 42 82 43
REMARK SMILES IDX 36 44 85 45 79 46 78 47 37 49 67 50 48 51 66 52 49 53 52 54
REMARK SMILES IDX 65 55 83 56 50 57 51 58 64 60 84 61 53 62 38 63 39 64 47 65
REMARK SMILES IDX 40 66 46 67 41 68 42 69 43 70 44 71 45 72 68 73 69 74 77 75
REMARK SMILES IDX 70 76 76 77 71 78 72 79 73 80 74 81 75 82 54 83 55 84 63 85
REMARK SMILES IDX 56 86 62 87 57 88 58 89 59 90 60 91 61 92
REMARK H PARENT 10 15 82 48 52 59
REMARK Flexibility Score: inf
ROOT
ATOM      1  C   UNL A   1      40.741  21.353  26.075  1.00  0.00     0.202 C 
ENDROOT
BRANCH   1   2
ATOM      2  C   UNL A   1      39.722  22.333  26.669  1.00  0.00     0.261 C 
BRANCH   2   3
ATOM      3  O   UNL A   1      38.538  22.295  25.857  1.00  0.00    -0.457 OA
BRANCH   3   4
ATOM      4  C   UNL A   1      37.725  23.387  25.916  1.00  0.00     0.374 C 
ATOM      5  O   UNL A   1      38.003  24.429  26.504  1.00  0.00    -0.242 OA
BRANCH   4   6
ATOM      6  C   UNL A   1      36.591  23.162  25.052  1.00  0.00     0.212 A 
ATOM      7  C   UNL A   1      34.446  23.099  24.552  1.00  0.00     0.162 A 
ATOM      8  C   UNL A   1      35.128  22.925  23.364  1.00  0.00     0.053 A 
ATOM      9  O   UNL A   1      35.334  23.294  25.569  1.00  0.00    -0.448 OA
ATOM     10  C   UNL A   1      36.500  22.909  23.691  1.00  0.00     0.059 A 
BRANCH   7  11
ATOM     11  C   UNL A   1      32.982  23.081  24.890  1.00  0.00     0.248 C 
ATOM     12  C   UNL A   1      32.226  21.931  24.204  1.00  0.00     0.084 C 
BRANCH  11  13
ATOM     13  N   UNL A   1      32.376  24.434  24.740  1.00  0.00    -0.325 N 
ATOM     14  C   UNL A   1      32.355  25.134  26.028  1.00  0.00     0.333 C 
ATOM     15  H   UNL A   1      32.979  24.913  24.072  1.00  0.00     0.348 HD
BRANCH  13  16
ATOM     16  C   UNL A   1      31.018  24.454  24.153  1.00  0.00     0.303 C 
BRANCH  16  17
ATOM     17  C   UNL A   1      30.552  25.785  23.597  1.00  0.00     0.048 A 
ATOM     18  C   UNL A   1      31.363  26.598  22.790  1.00  0.00     0.127 A 
ATOM     19  C   UNL A   1      30.936  27.868  22.389  1.00  0.00     0.047 A 
ATOM     20  C   UNL A   1      29.672  28.330  22.751  1.00  0.00     0.004 A 
ATOM     21  C   UNL A   1      29.270  26.259  23.934  1.00  0.00     0.013 A 
ATOM     22  C   UNL A   1      28.835  27.521  23.516  1.00  0.00     0.001 A 
BRANCH  18  23
ATOM     23  O   UNL A   1      32.650  26.259  22.469  1.00  0.00    -0.496 OA
ATOM     24  C   UNL A   1      33.535  27.372  22.543  1.00  0.00     0.278 C 
ENDBRANCH  18  23
ENDBRANCH  16  17
ENDBRANCH  13  16
ENDBRANCH  11  13
ENDBRANCH   7  11
ENDBRANCH   4   6
ENDBRANCH   3   4
ENDBRANCH   2   3
ENDBRANCH   1   2
BRANCH   1  25
ATOM     25  O   UNL A   1      42.020  21.921  25.756  1.00  0.00    -0.374 OA
BRANCH  25  26
ATOM     26  C   UNL A   1      42.549  22.883  26.666  1.00  0.00     0.202 C 
BRANCH  26  27
ATOM     27  C   UNL A   1      42.533  24.347  26.209  1.00  0.00     0.261 C 
BRANCH  27  28
ATOM     28  O   UNL A   1      42.041  25.240  27.221  1.00  0.00    -0.460 OA
BRANCH  28  29
ATOM     29  C   UNL A   1      41.133  26.135  26.759  1.00  0.00     0.338 C 
ATOM     30  O   UNL A   1      40.671  26.193  25.632  1.00  0.00    -0.246 OA
BRANCH  29  31
ATOM     31  C   UNL A   1      40.636  26.987  27.856  1.00  0.00     0.060 A 
ATOM     32  C   UNL A   1      41.176  28.276  27.948  1.00  0.00     0.016 A 
ATOM     33  C   UNL A   1      39.751  26.518  28.831  1.00  0.00     0.016 A 
ATOM     34  C   UNL A   1      40.901  29.068  29.058  1.00  0.00     0.010 A 
ATOM     35  C   UNL A   1      39.475  27.317  29.947  1.00  0.00     0.010 A 
ATOM     36  C   UNL A   1      40.094  28.572  30.090  1.00  0.00    -0.014 A 
BRANCH  36  37
ATOM     37  C   UNL A   1      40.072  29.298  31.384  1.00  0.00     0.031 A 
ATOM     38  C   UNL A   1      41.175  29.040  32.379  1.00  0.00     0.074 A 
ATOM     39  C   UNL A   1      39.142  30.236  31.637  1.00  0.00     0.049 A 
ATOM     40  N   UNL A   1      41.404  29.618  33.530  1.00  0.00    -0.248 NA
ATOM     41  C   UNL A   1      42.150  27.994  32.026  1.00  0.00     0.031 C 
ATOM     42  C   UNL A   1      38.046  30.603  30.741  1.00  0.00     0.029 A 
ATOM     43  N   UNL A   1      38.982  31.060  32.722  1.00  0.00    -0.354 N 
ATOM     44  C   UNL A   1      42.544  29.007  34.039  1.00  0.00     0.074 A 
ATOM     45  C   UNL A   1      42.939  27.988  33.090  1.00  0.00     0.031 C 
ATOM     46  C   UNL A   1      37.329  31.587  31.312  1.00  0.00     0.029 A 
ATOM     47  C   UNL A   1      37.906  31.907  32.617  1.00  0.00     0.049 A 
ATOM     48  H   UNL A   1      39.583  31.046  33.502  1.00  0.00     0.167 HD
ATOM     49  C   UNL A   1      43.214  29.274  35.187  1.00  0.00     0.031 A 
ATOM     50  C   UNL A   1      37.438  32.834  33.475  1.00  0.00     0.031 A 
ATOM     51  C   UNL A   1      42.819  30.280  36.136  1.00  0.00     0.049 A 
ATOM     52  C   UNL A   1      38.175  33.088  34.764  1.00  0.00     0.074 A 
ATOM     53  C   UNL A   1      43.435  30.631  37.324  1.00  0.00     0.029 A 
ATOM     54  N   UNL A   1      41.705  31.094  36.006  1.00  0.00    -0.354 N 
ATOM     55  N   UNL A   1      39.266  32.518  35.218  1.00  0.00    -0.248 NA
ATOM     56  C   UNL A   1      37.627  34.129  35.647  1.00  0.00     0.031 C 
ATOM     57  C   UNL A   1      42.667  31.630  37.935  1.00  0.00     0.029 A 
ATOM     58  C   UNL A   1      41.605  31.937  37.099  1.00  0.00     0.049 A 
ATOM     59  H   UNL A   1      41.077  31.077  35.248  1.00  0.00     0.167 HD
ATOM     60  C   UNL A   1      39.553  33.153  36.423  1.00  0.00     0.074 A 
ATOM     61  C   UNL A   1      38.526  34.155  36.621  1.00  0.00     0.031 C 
ATOM     62  C   UNL A   1      40.577  32.930  37.284  1.00  0.00     0.031 A 
BRANCH  49  63
ATOM     63  C   UNL A   1      44.428  28.437  35.486  1.00  0.00    -0.014 A 
ATOM     64  C   UNL A   1      44.340  27.285  36.289  1.00  0.00     0.010 A 
ATOM     65  C   UNL A   1      45.674  28.799  34.943  1.00  0.00     0.010 A 
ATOM     66  C   UNL A   1      45.484  26.537  36.581  1.00  0.00     0.020 A 
ATOM     67  C   UNL A   1      46.816  28.039  35.211  1.00  0.00     0.020 A 
ATOM     68  C   UNL A   1      46.717  26.923  36.045  1.00  0.00     0.054 A 
BRANCH  68  69
ATOM     69  S   UNL A   1      48.186  25.933  36.433  1.00  0.00     0.124 S 
ATOM     70  O   UNL A   1      48.351  25.148  35.213  1.00  0.00    -0.237 OA
ATOM     71  O   UNL A   1      49.208  26.950  36.669  1.00  0.00    -0.237 OA
ATOM     72  O   UNL A   1      47.788  25.170  37.614  1.00  0.00    -0.744 OA
ENDBRANCH  68  69
ENDBRANCH  49  63
BRANCH  50  73
ATOM     73  C   UNL A   1      36.209  33.602  33.138  1.00  0.00    -0.014 A 
ATOM     74  C   UNL A   1      36.289  34.935  32.700  1.00  0.00     0.010 A 
ATOM     75  C   UNL A   1      34.945  32.994  33.254  1.00  0.00     0.010 A 
ATOM     76  C   UNL A   1      35.127  35.652  32.397  1.00  0.00     0.020 A 
ATOM     77  C   UNL A   1      33.784  33.698  32.928  1.00  0.00     0.020 A 
ATOM     78  C   UNL A   1      33.881  35.028  32.512  1.00  0.00     0.054 A 
BRANCH  78  79
ATOM     79  S   UNL A   1      32.390  35.956  32.061  1.00  0.00     0.124 S 
ATOM     80  O   UNL A   1      32.659  37.266  32.643  1.00  0.00    -0.237 OA
ATOM     81  O   UNL A   1      32.408  35.895  30.601  1.00  0.00    -0.237 OA
ATOM     82  O   UNL A   1      31.312  35.198  32.694  1.00  0.00    -0.744 OA
ENDBRANCH  78  79
ENDBRANCH  50  73
BRANCH  62  83
ATOM     83  C   UNL A   1      40.665  33.816  38.498  1.00  0.00    -0.014 A 
ATOM     84  C   UNL A   1      40.028  33.474  39.704  1.00  0.00     0.010 A 
ATOM     85  C   UNL A   1      41.426  34.999  38.436  1.00  0.00     0.010 A 
ATOM     86  C   UNL A   1      40.115  34.321  40.813  1.00  0.00     0.020 A 
ATOM     87  C   UNL A   1      41.536  35.834  39.550  1.00  0.00     0.020 A 
ATOM     88  C   UNL A   1      40.863  35.499  40.727  1.00  0.00     0.054 A 
BRANCH  88  89
ATOM     89  S   UNL A   1      40.976  36.576  42.182  1.00  0.00     0.124 S 
ATOM     90  O   UNL A   1      39.570  36.846  42.469  1.00  0.00    -0.237 OA
ATOM     91  O   UNL A   1      41.666  35.733  43.155  1.00  0.00    -0.237 OA
ATOM     92  O   UNL A   1      41.746  37.723  41.705  1.00  0.00    -0.744 OA
ENDBRANCH  88  89
ENDBRANCH  62  83
ENDBRANCH  36  37
ENDBRANCH  29  31
ENDBRANCH  28  29
ENDBRANCH  27  28
ENDBRANCH  26  27
ENDBRANCH  25  26
ENDBRANCH   1  25
TORSDOF 22
ENDMDL
MODEL 2
REMARK VINA RESULT:      -9.5      2.189      3.494
REMARK SMILES COc1ccccc1C[N@@H+](C)[C@@H](C)c1ccc(C(=O)OCCOCCOC(=O)c2ccc(-c3c4nc(c(-c5ccc(S(=O)(=O)[O-])cc5)c5ccc([nH]5)c(-c5ccc(S(=O)(=O)[O-])cc5)c5nc(c(-c6ccc(S(=O)(=O)[O-])cc6)c6ccc3[nH]6)C=C5)C=C4)cc2)o1
REMARK SMILES IDX 22 1 21 2 20 3 18 4 19 5 17 6 14 7 15 8 89 9 16 10 12 11
REMARK SMILES IDX 13 12 10 13 11 14 9 16 8 17 3 18 4 19 5 20 7 21 6 22 2 23
REMARK SMILES IDX 1 24 23 25 24 26 25 27 26 28 27 29 28 30 29 31 30 32 88 33
REMARK SMILES IDX 31 34 87 35 32 36 33 37 34 38 81 39 35 40 86 41 80 42 82 43
REMARK SMILES IDX 36 44 85 45 79 46 78 47 37 49 67 50 48 51 66 52 49 53 52 54
REMARK SMILES IDX 65 55 83 56 50 57 51 58 64 60 84 61 53 62 38 63 39 64 47 65
REMARK SMILES IDX 40 66 46 67 41 68 42 69 43 70 44 71 45 72 68 73 69 74 77 75
REMARK SMILES IDX 70 76 76 77 71 78 72 79 73 80 74 81 75 82 54 83 55 84 63 85
REMARK SMILES IDX 56 86 62 87 57 88 58 89 59 90 60 91 61 92
REMARK H PARENT 10 15 82 48 52 59
REMARK Flexibility Score: inf
ROOT
ATOM      1  C   UNL A   1      40.970  20.944  26.683  1.00  0.00     0.202 C 
ENDROOT
BRANCH   1   2
ATOM      2  C   UNL A   1      40.365  22.284  27.118  1.00  0.00     0.261 C 
BRANCH   2   3
ATOM      3  O   UNL A   1      39.516  22.757  26.061  1.00  0.00    -0.457 OA
BRANCH   3   4
ATOM      4  C   UNL A   1      38.540  23.641  26.413  1.00  0.00     0.374 C 
ATOM      5  O   UNL A   1      38.735  24.676  27.045  1.00  0.00    -0.242 OA
BRANCH   4   6
ATOM      6  C   UNL A   1      37.306  23.235  25.784  1.00  0.00     0.212 A 
ATOM      7  C   UNL A   1      35.116  23.068  25.613  1.00  0.00     0.162 A 
ATOM      8  C   UNL A   1      35.634  22.641  24.407  1.00  0.00     0.053 A 
ATOM      9  O   UNL A   1      36.128  23.477  26.432  1.00  0.00    -0.448 OA
ATOM     10  C   UNL A   1      37.037  22.696  24.535  1.00  0.00     0.059 A 
BRANCH   7  11
ATOM     11  C   UNL A   1      33.713  23.124  26.149  1.00  0.00     0.248 C 
ATOM     12  C   UNL A   1      33.593  22.545  27.568  1.00  0.00     0.084 C 
BRANCH  11  13
ATOM     13  N   UNL A   1      32.734  22.605  25.153  1.00  0.00    -0.325 N 
ATOM     14  C   UNL A   1      31.629  23.551  24.975  1.00  0.00     0.333 C 
ATOM     15  H   UNL A   1      33.272  22.503  24.293  1.00  0.00     0.348 HD
BRANCH  13  16
ATOM     16  C   UNL A   1      32.182  21.264  25.452  1.00  0.00     0.303 C 
BRANCH  16  17
ATOM     17  C   UNL A   1      32.238  20.254  24.323  1.00  0.00     0.048 A 
ATOM     18  C   UNL A   1      32.515  18.893  24.533  1.00  0.00     0.127 A 
ATOM     19  C   UNL A   1      32.666  18.016  23.454  1.00  0.00     0.047 A 
ATOM     20  C   UNL A   1      32.500  18.473  22.149  1.00  0.00     0.004 A 
ATOM     21  C   UNL A   1      32.051  20.692  22.999  1.00  0.00     0.013 A 
ATOM     22  C   UNL A   1      32.183  19.811  21.921  1.00  0.00     0.001 A 
BRANCH  18  23
ATOM     23  O   UNL A   1      32.784  18.384  25.774  1.00  0.00    -0.496 OA
ATOM     24  C   UNL A   1      33.006  16.977  25.743  1.00  0.00     0.278 C 
ENDBRANCH  18  23
ENDBRANCH  16  17
ENDBRANCH  13  16
ENDBRANCH  11  13
ENDBRANCH   7  11
ENDBRANCH   4   6
ENDBRANCH   3   4
ENDBRANCH   2   3
ENDBRANCH   1   2
BRANCH   1  25
ATOM     25  O   UNL A   1      42.020  21.036  25.710  1.00  0.00    -0.374 OA
BRANCH  25  26
ATOM     26  C   UNL A   1      43.044  22.000  25.947  1.00  0.00     0.202 C 
BRANCH  26  27
ATOM     27  C   UNL A   1      43.032  23.252  25.061  1.00  0.00     0.261 C 
BRANCH  27  28
ATOM     28  O   UNL A   1      43.431  24.437  25.768  1.00  0.00    -0.460 OA
BRANCH  28  29
ATOM     29  C   UNL A   1      42.456  25.377  25.843  1.00  0.00     0.338 C 
ATOM     30  O   UNL A   1      41.571  25.579  25.028  1.00  0.00    -0.246 OA
BRANCH  29  31
ATOM     31  C   UNL A   1      42.499  26.071  27.144  1.00  0.00     0.060 A 
ATOM     32  C   UNL A   1      41.682  25.558  28.159  1.00  0.00     0.016 A 
ATOM     33  C   UNL A   1      43.228  27.246  27.346  1.00  0.00     0.016 A 
ATOM     34  C   UNL A   1      41.523  26.263  29.348  1.00  0.00     0.010 A 
ATOM     35  C   UNL A   1      43.067  27.954  28.544  1.00  0.00     0.010 A 
ATOM     36  C   UNL A   1      42.171  27.492  29.525  1.00  0.00    -0.014 A 
BRANCH  36  37
ATOM     37  C   UNL A   1      41.745  28.361  30.650  1.00  0.00     0.031 A 
ATOM     38  C   UNL A   1      42.547  28.338  31.927  1.00  0.00     0.074 A 
ATOM     39  C   UNL A   1      40.720  29.219  30.512  1.00  0.00     0.049 A 
ATOM     40  N   UNL A   1      42.410  29.070  33.002  1.00  0.00    -0.248 NA
ATOM     41  C   UNL A   1      43.649  27.365  31.996  1.00  0.00     0.031 C 
ATOM     42  C   UNL A   1      39.890  29.362  29.317  1.00  0.00     0.029 A 
ATOM     43  N   UNL A   1      40.212  30.146  31.388  1.00  0.00    -0.354 N 
ATOM     44  C   UNL A   1      43.405  28.645  33.876  1.00  0.00     0.074 A 
ATOM     45  C   UNL A   1      44.114  27.568  33.220  1.00  0.00     0.031 C 
ATOM     46  C   UNL A   1      38.979  30.327  29.532  1.00  0.00     0.029 A 
ATOM     47  C   UNL A   1      39.151  30.858  30.884  1.00  0.00     0.049 A 
ATOM     48  H   UNL A   1      40.575  30.287  32.293  1.00  0.00     0.167 HD
ATOM     49  C   UNL A   1      43.714  29.115  35.109  1.00  0.00     0.031 A 
ATOM     50  C   UNL A   1      38.404  31.827  31.447  1.00  0.00     0.031 A 
ATOM     51  C   UNL A   1      43.006  30.180  35.768  1.00  0.00     0.049 A 
ATOM     52  C   UNL A   1      38.739  32.308  32.835  1.00  0.00     0.074 A 
ATOM     53  C   UNL A   1      43.246  30.732  37.014  1.00  0.00     0.029 A 
ATOM     54  N   UNL A   1      41.918  30.853  35.234  1.00  0.00    -0.354 N 
ATOM     55  N   UNL A   1      39.699  31.912  33.636  1.00  0.00    -0.248 NA
ATOM     56  C   UNL A   1      37.901  33.383  33.384  1.00  0.00     0.031 C 
ATOM     57  C   UNL A   1      42.274  31.711  37.251  1.00  0.00     0.029 A 
ATOM     58  C   UNL A   1      41.464  31.805  36.131  1.00  0.00     0.049 A 
ATOM     59  H   UNL A   1      41.526  30.680  34.348  1.00  0.00     0.167 HD
ATOM     60  C   UNL A   1      39.600  32.712  34.771  1.00  0.00     0.074 A 
ATOM     61  C   UNL A   1      38.493  33.619  34.547  1.00  0.00     0.031 C 
ATOM     62  C   UNL A   1      40.361  32.701  35.894  1.00  0.00     0.031 A 
BRANCH  49  63
ATOM     63  C   UNL A   1      44.853  28.450  35.834  1.00  0.00    -0.014 A 
ATOM     64  C   UNL A   1      44.625  27.406  36.749  1.00  0.00     0.010 A 
ATOM     65  C   UNL A   1      46.173  28.866  35.585  1.00  0.00     0.010 A 
ATOM     66  C   UNL A   1      45.692  26.820  37.435  1.00  0.00     0.020 A 
ATOM     67  C   UNL A   1      47.246  28.266  36.250  1.00  0.00     0.020 A 
ATOM     68  C   UNL A   1      46.997  27.260  37.186  1.00  0.00     0.054 A 
BRANCH  68  69
ATOM     69  S   UNL A   1      48.366  26.481  38.085  1.00  0.00     0.124 S 
ATOM     70  O   UNL A   1      48.154  25.067  37.789  1.00  0.00    -0.237 OA
ATOM     71  O   UNL A   1      49.544  27.083  37.464  1.00  0.00    -0.237 OA
ATOM     72  O   UNL A   1      48.133  26.868  39.475  1.00  0.00    -0.744 OA
ENDBRANCH  68  69
ENDBRANCH  49  63
BRANCH  50  73
ATOM     73  C   UNL A   1      37.266  32.418  30.692  1.00  0.00    -0.014 A 
ATOM     74  C   UNL A   1      35.982  31.852  30.766  1.00  0.00     0.010 A 
ATOM     75  C   UNL A   1      37.466  33.559  29.895  1.00  0.00     0.010 A 
ATOM     76  C   UNL A   1      34.921  32.408  30.044  1.00  0.00     0.020 A 
ATOM     77  C   UNL A   1      36.404  34.133  29.192  1.00  0.00     0.020 A 
ATOM     78  C   UNL A   1      35.139  33.546  29.262  1.00  0.00     0.054 A 
BRANCH  78  79
ATOM     79  S   UNL A   1      33.738  34.286  28.378  1.00  0.00     0.124 S 
ATOM     80  O   UNL A   1      34.406  35.004  27.298  1.00  0.00    -0.237 OA
ATOM     81  O   UNL A   1      32.963  33.114  27.975  1.00  0.00    -0.237 OA
ATOM     82  O   UNL A   1      33.101  35.126  29.391  1.00  0.00    -0.744 OA
ENDBRANCH  78  79
ENDBRANCH  50  73
BRANCH  62  83
ATOM     83  C   UNL A   1      40.050  33.729  36.949  1.00  0.00    -0.014 A 
ATOM     84  C   UNL A   1      40.703  34.975  36.976  1.00  0.00     0.010 A 
ATOM     85  C   UNL A   1      39.063  33.452  37.913  1.00  0.00     0.010 A 
ATOM     86  C   UNL A   1      40.406  35.906  37.974  1.00  0.00     0.020 A 
ATOM     87  C   UNL A   1      38.745  34.392  38.897  1.00  0.00     0.020 A 
ATOM     88  C   UNL A   1      39.432  35.606  38.933  1.00  0.00     0.054 A 
BRANCH  88  89
ATOM     89  S   UNL A   1      39.050  36.836  40.210  1.00  0.00     0.124 S 
ATOM     90  O   UNL A   1      38.524  37.943  39.417  1.00  0.00    -0.237 OA
ATOM     91  O   UNL A   1      38.072  36.141  41.045  1.00  0.00    -0.237 OA
ATOM     92  O   UNL A   1      40.340  37.084  40.849  1.00  0.00    -0.744 OA
ENDBRANCH  88  89
ENDBRANCH  62  83
ENDBRANCH  36  37
ENDBRANCH  29  31
ENDBRANCH  28  29
ENDBRANCH  27  28
ENDBRANCH  26  27
ENDBRANCH  25  26
ENDBRANCH   1  25
TORSDOF 22
ENDMDL
MODEL 3
REMARK VINA RESULT:      -9.4      6.667     12.732
REMARK SMILES COc1ccccc1C[N@@H+](C)[C@@H](C)c1ccc(C(=O)OCCOCCOC(=O)c2ccc(-c3c4nc(c(-c5ccc(S(=O)(=O)[O-])cc5)c5ccc([nH]5)c(-c5ccc(S(=O)(=O)[O-])cc5)c5nc(c(-c6ccc(S(=O)(=O)[O-])cc6)c6ccc3[nH]6)C=C5)C=C4)cc2)o1
REMARK SMILES IDX 22 1 21 2 20 3 18 4 19 5 17 6 14 7 15 8 89 9 16 10 12 11
REMARK SMILES IDX 13 12 10 13 11 14 9 16 8 17 3 18 4 19 5 20 7 21 6 22 2 23
REMARK SMILES IDX 1 24 23 25 24 26 25 27 26 28 27 29 28 30 29 31 30 32 88 33
REMARK SMILES IDX 31 34 87 35 32 36 33 37 34 38 81 39 35 40 86 41 80 42 82 43
REMARK SMILES IDX 36 44 85 45 79 46 78 47 37 49 67 50 48 51 66 52 49 53 52 54
REMARK SMILES IDX 65 55 83 56 50 57 51 58 64 60 84 61 53 62 38 63 39 64 47 65
REMARK SMILES IDX 40 66 46 67 41 68 42 69 43 70 44 71 45 72 68 73 69 74 77 75
REMARK SMILES IDX 70 76 76 77 71 78 72 79 73 80 74 81 75 82 54 83 55 84 63 85
REMARK SMILES IDX 56 86 62 87 57 88 58 89 59 90 60 91 61 92
REMARK H PARENT 10 15 82 48 52 59
REMARK Flexibility Score: inf
ROOT
ATOM      1  C   UNL A   1      34.951  33.211  28.184  1.00  0.00     0.202 C 
ENDROOT
BRANCH   1   2
ATOM      2  C   UNL A   1      33.895  32.133  28.455  1.00  0.00     0.261 C 
BRANCH   2   3
ATOM      3  O   UNL A   1      33.929  31.189  27.373  1.00  0.00    -0.457 OA
BRANCH   3   4
ATOM      4  C   UNL A   1      32.744  30.929  26.754  1.00  0.00     0.374 C 
ATOM      5  O   UNL A   1      31.780  31.690  26.751  1.00  0.00    -0.242 OA
BRANCH   4   6
ATOM      6  C   UNL A   1      32.883  29.712  25.990  1.00  0.00     0.212 A 
ATOM      7  C   UNL A   1      32.371  28.300  24.378  1.00  0.00     0.162 A 
ATOM      8  C   UNL A   1      33.551  27.846  24.933  1.00  0.00     0.053 A 
ATOM      9  O   UNL A   1      31.992  29.461  24.986  1.00  0.00    -0.448 OA
ATOM     10  C   UNL A   1      33.850  28.718  26.000  1.00  0.00     0.059 A 
BRANCH   7  11
ATOM     11  C   UNL A   1      31.478  27.744  23.306  1.00  0.00     0.248 C 
ATOM     12  C   UNL A   1      29.984  27.936  23.614  1.00  0.00     0.084 C 
BRANCH  11  13
ATOM     13  N   UNL A   1      31.888  26.363  22.924  1.00  0.00    -0.325 N 
ATOM     14  C   UNL A   1      31.979  26.237  21.466  1.00  0.00     0.333 C 
ATOM     15  H   UNL A   1      32.800  26.236  23.361  1.00  0.00     0.348 HD
BRANCH  13  16
ATOM     16  C   UNL A   1      31.026  25.281  23.453  1.00  0.00     0.303 C 
BRANCH  16  17
ATOM     17  C   UNL A   1      31.557  24.537  24.661  1.00  0.00     0.048 A 
ATOM     18  C   UNL A   1      32.791  23.867  24.661  1.00  0.00     0.127 A 
ATOM     19  C   UNL A   1      33.194  23.099  25.759  1.00  0.00     0.047 A 
ATOM     20  C   UNL A   1      32.390  23.024  26.894  1.00  0.00     0.004 A 
ATOM     21  C   UNL A   1      30.769  24.467  25.826  1.00  0.00     0.013 A 
ATOM     22  C   UNL A   1      31.181  23.716  26.931  1.00  0.00     0.001 A 
BRANCH  18  23
ATOM     23  O   UNL A   1      33.595  23.814  23.554  1.00  0.00    -0.496 OA
ATOM     24  C   UNL A   1      33.611  22.519  22.961  1.00  0.00     0.278 C 
ENDBRANCH  18  23
ENDBRANCH  16  17
ENDBRANCH  13  16
ENDBRANCH  11  13
ENDBRANCH   7  11
ENDBRANCH   4   6
ENDBRANCH   3   4
ENDBRANCH   2   3
ENDBRANCH   1   2
BRANCH   1  25
ATOM     25  O   UNL A   1      36.028  33.261  29.130  1.00  0.00    -0.374 OA
BRANCH  25  26
ATOM     26  C   UNL A   1      37.250  32.627  28.760  1.00  0.00     0.202 C 
BRANCH  26  27
ATOM     27  C   UNL A   1      38.154  32.149  29.903  1.00  0.00     0.261 C 
BRANCH  27  28
ATOM     28  O   UNL A   1      37.653  30.970  30.553  1.00  0.00    -0.460 OA
BRANCH  28  29
ATOM     29  C   UNL A   1      37.336  29.971  29.691  1.00  0.00     0.338 C 
ATOM     30  O   UNL A   1      36.218  29.647  29.326  1.00  0.00    -0.246 OA
BRANCH  29  31
ATOM     31  C   UNL A   1      38.555  29.381  29.106  1.00  0.00     0.060 A 
ATOM     32  C   UNL A   1      39.522  28.913  30.005  1.00  0.00     0.016 A 
ATOM     33  C   UNL A   1      38.803  29.375  27.731  1.00  0.00     0.016 A 
ATOM     34  C   UNL A   1      40.772  28.518  29.538  1.00  0.00     0.010 A 
ATOM     35  C   UNL A   1      40.061  28.976  27.264  1.00  0.00     0.010 A 
ATOM     36  C   UNL A   1      41.067  28.600  28.172  1.00  0.00    -0.014 A 
BRANCH  36  37
ATOM     37  C   UNL A   1      42.483  28.476  27.744  1.00  0.00     0.031 A 
ATOM     38  C   UNL A   1      43.412  29.643  27.963  1.00  0.00     0.074 A 
ATOM     39  C   UNL A   1      42.959  27.318  27.252  1.00  0.00     0.049 A 
ATOM     40  N   UNL A   1      44.698  29.729  27.746  1.00  0.00    -0.248 NA
ATOM     41  C   UNL A   1      42.808  30.874  28.500  1.00  0.00     0.031 C 
ATOM     42  C   UNL A   1      42.172  26.107  27.027  1.00  0.00     0.029 A 
ATOM     43  N   UNL A   1      44.229  26.971  26.866  1.00  0.00    -0.354 N 
ATOM     44  C   UNL A   1      45.058  31.020  28.118  1.00  0.00     0.074 A 
ATOM     45  C   UNL A   1      43.848  31.693  28.538  1.00  0.00     0.031 C 
ATOM     46  C   UNL A   1      42.980  25.145  26.548  1.00  0.00     0.029 A 
ATOM     47  C   UNL A   1      44.336  25.678  26.418  1.00  0.00     0.049 A 
ATOM     48  H   UNL A   1      44.993  27.592  26.908  1.00  0.00     0.167 HD
ATOM     49  C   UNL A   1      46.286  31.594  28.123  1.00  0.00     0.031 A 
ATOM     50  C   UNL A   1      45.404  24.999  25.956  1.00  0.00     0.031 A 
ATOM     51  C   UNL A   1      47.489  30.931  27.697  1.00  0.00     0.049 A 
ATOM     52  C   UNL A   1      46.753  25.669  25.933  1.00  0.00     0.074 A 
ATOM     53  C   UNL A   1      48.781  31.424  27.671  1.00  0.00     0.029 A 
ATOM     54  N   UNL A   1      47.548  29.630  27.221  1.00  0.00    -0.354 N 
ATOM     55  N   UNL A   1      47.079  26.883  26.311  1.00  0.00    -0.248 NA
ATOM     56  C   UNL A   1      47.882  24.868  25.439  1.00  0.00     0.031 C 
ATOM     57  C   UNL A   1      49.616  30.434  27.137  1.00  0.00     0.029 A 
ATOM     58  C   UNL A   1      48.850  29.308  26.884  1.00  0.00     0.049 A 
ATOM     59  H   UNL A   1      46.776  29.024  27.136  1.00  0.00     0.167 HD
ATOM     60  C   UNL A   1      48.456  26.978  26.132  1.00  0.00     0.074 A 
ATOM     61  C   UNL A   1      48.900  25.698  25.620  1.00  0.00     0.031 C 
ATOM     62  C   UNL A   1      49.278  28.029  26.375  1.00  0.00     0.031 A 
BRANCH  49  63
ATOM     63  C   UNL A   1      46.374  33.026  28.577  1.00  0.00    -0.014 A 
ATOM     64  C   UNL A   1      46.636  33.350  29.921  1.00  0.00     0.010 A 
ATOM     65  C   UNL A   1      46.209  34.064  27.642  1.00  0.00     0.010 A 
ATOM     66  C   UNL A   1      46.685  34.685  30.330  1.00  0.00     0.020 A 
ATOM     67  C   UNL A   1      46.282  35.401  28.042  1.00  0.00     0.020 A 
ATOM     68  C   UNL A   1      46.500  35.703  29.388  1.00  0.00     0.054 A 
BRANCH  68  69
ATOM     69  S   UNL A   1      46.573  37.429  29.942  1.00  0.00     0.124 S 
ATOM     70  O   UNL A   1      45.181  37.847  29.808  1.00  0.00    -0.237 OA
ATOM     71  O   UNL A   1      47.064  37.307  31.313  1.00  0.00    -0.237 OA
ATOM     72  O   UNL A   1      47.504  38.054  29.005  1.00  0.00    -0.744 OA
ENDBRANCH  68  69
ENDBRANCH  49  63
BRANCH  50  73
ATOM     73  C   UNL A   1      45.243  23.597  25.484  1.00  0.00    -0.014 A 
ATOM     74  C   UNL A   1      45.316  22.521  26.385  1.00  0.00     0.010 A 
ATOM     75  C   UNL A   1      45.012  23.335  24.122  1.00  0.00     0.010 A 
ATOM     76  C   UNL A   1      45.175  21.206  25.930  1.00  0.00     0.020 A 
ATOM     77  C   UNL A   1      44.846  22.025  23.666  1.00  0.00     0.020 A 
ATOM     78  C   UNL A   1      44.940  20.967  24.572  1.00  0.00     0.054 A 
BRANCH  78  79
ATOM     79  S   UNL A   1      44.704  19.258  24.010  1.00  0.00     0.124 S 
ATOM     80  O   UNL A   1      45.956  18.629  24.417  1.00  0.00    -0.237 OA
ATOM     81  O   UNL A   1      43.515  18.842  24.751  1.00  0.00    -0.237 OA
ATOM     82  O   UNL A   1      44.511  19.398  22.568  1.00  0.00    -0.744 OA
ENDBRANCH  78  79
ENDBRANCH  50  73
BRANCH  62  83
ATOM     83  C   UNL A   1      50.750  27.825  26.133  1.00  0.00    -0.014 A 
ATOM     84  C   UNL A   1      51.331  28.082  24.878  1.00  0.00     0.010 A 
ATOM     85  C   UNL A   1      51.572  27.397  27.193  1.00  0.00     0.010 A 
ATOM     86  C   UNL A   1      52.698  27.872  24.676  1.00  0.00     0.020 A 
ATOM     87  C   UNL A   1      52.943  27.212  27.001  1.00  0.00     0.020 A 
ATOM     88  C   UNL A   1      53.494  27.432  25.738  1.00  0.00     0.054 A 
BRANCH  88  89
ATOM     89  S   UNL A   1      55.269  27.181  25.459  1.00  0.00     0.124 S 
ATOM     90  O   UNL A   1      55.674  28.471  24.907  1.00  0.00    -0.237 OA
ATOM     91  O   UNL A   1      55.768  26.888  26.801  1.00  0.00    -0.237 OA
ATOM     92  O   UNL A   1      55.317  26.060  24.524  1.00  0.00    -0.744 OA
ENDBRANCH  88  89
ENDBRANCH  62  83
ENDBRANCH  36  37
ENDBRANCH  29  31
ENDBRANCH  28  29
ENDBRANCH  27  28
ENDBRANCH  26  27
ENDBRANCH  25  26
ENDBRANCH   1  25
TORSDOF 22
ENDMDL
