MODEL 1
REMARK VINA RESULT:     -10.6      0.000      0.000
REMARK SMILES CC[C@@H](C(=O)Nc1ccc(OC(C)=O)cc1C(=O)OCCOCCOC(=O)c1ccc(-c2c3nc(c(-c4ccc(S(=O)(=O)[O-])cc4)c4ccc([nH]4)c(-c4ccc(S(=O)(=O)[O-])cc4)c4nc(c(-c5ccc(S(=O)(=O)[O-])cc5)c5ccc2[nH]5)C=C4)C=C3)cc1)c1ccccc1
REMARK SMILES IDX 22 1 21 2 20 3 19 4 17 5 18 6 16 7 7 8 8 9 9 10 15 11 10 12
REMARK SMILES IDX 6 13 4 14 5 15 3 17 2 18 1 19 88 20 89 21 93 22 90 23 92 24
REMARK SMILES IDX 91 25 11 26 12 27 13 28 14 29 23 30 24 31 25 32 26 33 27 34
REMARK SMILES IDX 28 35 29 36 87 37 30 38 86 39 31 40 32 41 33 42 80 43 34 44
REMARK SMILES IDX 85 45 79 46 81 47 35 48 84 49 78 50 77 51 36 53 66 54 47 55
REMARK SMILES IDX 65 56 48 57 51 58 64 59 82 60 49 61 50 62 63 64 83 65 52 66
REMARK SMILES IDX 37 67 38 68 46 69 39 70 45 71 40 72 41 73 42 74 43 75 44 76
REMARK SMILES IDX 67 77 68 78 76 79 69 80 75 81 70 82 71 83 72 84 73 85 74 86
REMARK SMILES IDX 53 87 54 88 62 89 55 90 61 91 56 92 57 93 58 94 59 95 60 96
REMARK H PARENT 6 16 81 52 51 63
REMARK Flexibility Score: inf
ROOT
ATOM      1  O   UNL A   1      32.953  32.599  27.856  1.00  0.00    -0.374 OA
ENDROOT
BRANCH   1   2
ATOM      2  C   UNL A   1      33.669  31.536  27.245  1.00  0.00     0.202 C 
BRANCH   2   3
ATOM      3  C   UNL A   1      33.192  30.096  27.458  1.00  0.00     0.261 C 
BRANCH   3   4
ATOM      4  O   UNL A   1      32.240  29.595  26.511  1.00  0.00    -0.460 OA
BRANCH   4   5
ATOM      5  C   UNL A   1      31.712  28.405  26.856  1.00  0.00     0.340 C 
ATOM      6  O   UNL A   1      31.492  28.001  27.993  1.00  0.00    -0.246 OA
BRANCH   5   7
ATOM      7  C   UNL A   1      31.306  27.601  25.696  1.00  0.00     0.087 A 
ATOM      8  C   UNL A   1      31.142  26.203  25.673  1.00  0.00     0.056 A 
ATOM      9  C   UNL A   1      30.570  25.618  24.525  1.00  0.00     0.031 A 
ATOM     10  C   UNL A   1      30.018  26.410  23.516  1.00  0.00     0.049 A 
ATOM     11  C   UNL A   1      30.847  28.382  24.625  1.00  0.00     0.065 A 
ATOM     12  C   UNL A   1      30.110  27.792  23.613  1.00  0.00     0.131 A 
BRANCH   8  13
ATOM     13  N   UNL A   1      31.366  25.299  26.731  1.00  0.00    -0.325 N 
ATOM     14  C   UNL A   1      31.316  23.929  26.700  1.00  0.00     0.231 C 
ATOM     15  O   UNL A   1      30.306  23.375  27.136  1.00  0.00    -0.274 OA
ATOM     16  H   UNL A   1      31.587  25.702  27.601  1.00  0.00     0.169 HD
BRANCH  14  17
ATOM     17  C   UNL A   1      32.677  23.193  26.489  1.00  0.00     0.108 C 
BRANCH  17  18
ATOM     18  C   UNL A   1      33.951  24.067  26.395  1.00  0.00     0.015 C 
ATOM     19  C   UNL A   1      35.068  23.571  25.489  1.00  0.00     0.005 C 
ENDBRANCH  17  18
BRANCH  17  20
ATOM     20  C   UNL A   1      32.568  22.266  25.268  1.00  0.00    -0.036 A 
ATOM     21  C   UNL A   1      32.188  22.722  23.993  1.00  0.00     0.004 A 
ATOM     22  C   UNL A   1      32.786  20.889  25.442  1.00  0.00     0.004 A 
ATOM     23  C   UNL A   1      32.041  21.833  22.928  1.00  0.00     0.000 A 
ATOM     24  C   UNL A   1      32.629  20.001  24.377  1.00  0.00     0.000 A 
ATOM     25  C   UNL A   1      32.259  20.472  23.121  1.00  0.00     0.000 A 
ENDBRANCH  17  20
ENDBRANCH  14  17
ENDBRANCH   8  13
BRANCH  12  26
ATOM     26  O   UNL A   1      29.406  28.565  22.671  1.00  0.00    -0.427 OA
BRANCH  26  27
ATOM     27  C   UNL A   1      28.098  29.029  22.861  1.00  0.00     0.308 C 
ATOM     28  C   UNL A   1      27.805  30.460  22.497  1.00  0.00     0.139 C 
ATOM     29  O   UNL A   1      27.215  28.270  23.255  1.00  0.00    -0.252 OA
ENDBRANCH  26  27
ENDBRANCH  12  26
ENDBRANCH   5   7
ENDBRANCH   4   5
ENDBRANCH   3   4
ENDBRANCH   2   3
ENDBRANCH   1   2
BRANCH   1  30
ATOM     30  C   UNL A   1      33.638  33.817  28.136  1.00  0.00     0.202 C 
BRANCH  30  31
ATOM     31  C   UNL A   1      33.758  34.296  29.586  1.00  0.00     0.261 C 
BRANCH  31  32
ATOM     32  O   UNL A   1      35.012  33.938  30.202  1.00  0.00    -0.460 OA
BRANCH  32  33
ATOM     33  C   UNL A   1      34.963  32.816  30.951  1.00  0.00     0.338 C 
ATOM     34  O   UNL A   1      34.092  32.506  31.755  1.00  0.00    -0.246 OA
BRANCH  33  35
ATOM     35  C   UNL A   1      36.028  31.873  30.574  1.00  0.00     0.060 A 
ATOM     36  C   UNL A   1      36.760  31.274  31.613  1.00  0.00     0.016 A 
ATOM     37  C   UNL A   1      36.423  31.719  29.244  1.00  0.00     0.016 A 
ATOM     38  C   UNL A   1      37.936  30.592  31.330  1.00  0.00     0.010 A 
ATOM     39  C   UNL A   1      37.617  31.047  28.966  1.00  0.00     0.010 A 
ATOM     40  C   UNL A   1      38.404  30.535  30.011  1.00  0.00    -0.014 A 
BRANCH  40  41
ATOM     41  C   UNL A   1      39.820  30.168  29.771  1.00  0.00     0.031 A 
ATOM     42  C   UNL A   1      40.875  31.218  29.999  1.00  0.00     0.074 A 
ATOM     43  C   UNL A   1      40.165  28.922  29.405  1.00  0.00     0.049 A 
ATOM     44  N   UNL A   1      42.173  31.140  29.846  1.00  0.00    -0.248 NA
ATOM     45  C   UNL A   1      40.405  32.534  30.468  1.00  0.00     0.031 C 
ATOM     46  C   UNL A   1      39.240  27.807  29.213  1.00  0.00     0.029 A 
ATOM     47  N   UNL A   1      41.400  28.392  29.132  1.00  0.00    -0.354 N 
ATOM     48  C   UNL A   1      42.670  32.389  30.196  1.00  0.00     0.074 A 
ATOM     49  C   UNL A   1      41.537  33.216  30.548  1.00  0.00     0.031 C 
ATOM     50  C   UNL A   1      39.943  26.723  28.841  1.00  0.00     0.029 A 
ATOM     51  C   UNL A   1      41.358  27.075  28.744  1.00  0.00     0.049 A 
ATOM     52  H   UNL A   1      42.237  28.906  29.206  1.00  0.00     0.167 HD
ATOM     53  C   UNL A   1      43.955  32.814  30.225  1.00  0.00     0.031 A 
ATOM     54  C   UNL A   1      42.349  26.257  28.339  1.00  0.00     0.031 A 
ATOM     55  C   UNL A   1      45.079  32.000  29.852  1.00  0.00     0.049 A 
ATOM     56  C   UNL A   1      43.764  26.774  28.299  1.00  0.00     0.074 A 
ATOM     57  C   UNL A   1      46.421  32.337  29.835  1.00  0.00     0.029 A 
ATOM     58  N   UNL A   1      44.989  30.685  29.421  1.00  0.00    -0.354 N 
ATOM     59  N   UNL A   1      44.221  27.957  28.636  1.00  0.00    -0.248 NA
ATOM     60  C   UNL A   1      44.798  25.842  27.825  1.00  0.00     0.031 C 
ATOM     61  C   UNL A   1      47.139  31.237  29.351  1.00  0.00     0.029 A 
ATOM     62  C   UNL A   1      46.248  30.201  29.114  1.00  0.00     0.049 A 
ATOM     63  H   UNL A   1      44.153  30.171  29.346  1.00  0.00     0.167 HD
ATOM     64  C   UNL A   1      45.596  27.904  28.438  1.00  0.00     0.074 A 
ATOM     65  C   UNL A   1      45.899  26.570  27.960  1.00  0.00     0.031 C 
ATOM     66  C   UNL A   1      46.527  28.871  28.639  1.00  0.00     0.031 A 
BRANCH  53  67
ATOM     67  C   UNL A   1      44.200  34.240  30.638  1.00  0.00    -0.014 A 
ATOM     68  C   UNL A   1      44.198  35.281  29.691  1.00  0.00     0.010 A 
ATOM     69  C   UNL A   1      44.431  34.543  31.991  1.00  0.00     0.010 A 
ATOM     70  C   UNL A   1      44.465  36.594  30.086  1.00  0.00     0.020 A 
ATOM     71  C   UNL A   1      44.677  35.859  32.393  1.00  0.00     0.020 A 
ATOM     72  C   UNL A   1      44.711  36.874  31.435  1.00  0.00     0.054 A 
BRANCH  72  73
ATOM     73  S   UNL A   1      45.053  38.587  31.925  1.00  0.00     0.124 S 
ATOM     74  O   UNL A   1      46.104  38.965  30.983  1.00  0.00    -0.237 OA
ATOM     75  O   UNL A   1      43.764  39.244  31.725  1.00  0.00    -0.237 OA
ATOM     76  O   UNL A   1      45.478  38.469  33.318  1.00  0.00    -0.744 OA
ENDBRANCH  72  73
ENDBRANCH  53  67
BRANCH  54  77
ATOM     77  C   UNL A   1      42.033  24.867  27.916  1.00  0.00    -0.014 A 
ATOM     78  C   UNL A   1      42.258  23.783  28.781  1.00  0.00     0.010 A 
ATOM     79  C   UNL A   1      41.494  24.624  26.639  1.00  0.00     0.010 A 
ATOM     80  C   UNL A   1      41.957  22.479  28.374  1.00  0.00     0.020 A 
ATOM     81  C   UNL A   1      41.171  23.326  26.237  1.00  0.00     0.020 A 
ATOM     82  C   UNL A   1      41.413  22.260  27.104  1.00  0.00     0.054 A 
BRANCH  82  83
ATOM     83  S   UNL A   1      40.968  20.569  26.618  1.00  0.00     0.124 S 
ATOM     84  O   UNL A   1      40.967  19.875  27.901  1.00  0.00    -0.237 OA
ATOM     85  O   UNL A   1      39.660  20.752  25.994  1.00  0.00    -0.237 OA
ATOM     86  O   UNL A   1      42.038  20.188  25.699  1.00  0.00    -0.744 OA
ENDBRANCH  82  83
ENDBRANCH  54  77
BRANCH  66  87
ATOM     87  C   UNL A   1      47.964  28.516  28.369  1.00  0.00    -0.014 A 
ATOM     88  C   UNL A   1      48.767  27.932  29.364  1.00  0.00     0.010 A 
ATOM     89  C   UNL A   1      48.496  28.710  27.082  1.00  0.00     0.010 A 
ATOM     90  C   UNL A   1      50.087  27.571  29.082  1.00  0.00     0.020 A 
ATOM     91  C   UNL A   1      49.808  28.330  26.790  1.00  0.00     0.020 A 
ATOM     92  C   UNL A   1      50.600  27.775  27.797  1.00  0.00     0.054 A 
BRANCH  92  93
ATOM     93  S   UNL A   1      52.301  27.254  27.439  1.00  0.00     0.124 S 
ATOM     94  O   UNL A   1      52.483  27.732  26.071  1.00  0.00    -0.237 OA
ATOM     95  O   UNL A   1      53.077  27.956  28.459  1.00  0.00    -0.237 OA
ATOM     96  O   UNL A   1      52.256  25.802  27.591  1.00  0.00    -0.744 OA
ENDBRANCH  92  93
ENDBRANCH  66  87
ENDBRANCH  40  41
ENDBRANCH  33  35
ENDBRANCH  32  33
ENDBRANCH  31  32
ENDBRANCH  30  31
ENDBRANCH   1  30
TORSDOF 23
ENDMDL
MODEL 2
REMARK VINA RESULT:     -10.5      4.244     10.496
REMARK SMILES CC[C@@H](C(=O)Nc1ccc(OC(C)=O)cc1C(=O)OCCOCCOC(=O)c1ccc(-c2c3nc(c(-c4ccc(S(=O)(=O)[O-])cc4)c4ccc([nH]4)c(-c4ccc(S(=O)(=O)[O-])cc4)c4nc(c(-c5ccc(S(=O)(=O)[O-])cc5)c5ccc2[nH]5)C=C4)C=C3)cc1)c1ccccc1
REMARK SMILES IDX 22 1 21 2 20 3 19 4 17 5 18 6 16 7 7 8 8 9 9 10 15 11 10 12
REMARK SMILES IDX 6 13 4 14 5 15 3 17 2 18 1 19 88 20 89 21 93 22 90 23 92 24
REMARK SMILES IDX 91 25 11 26 12 27 13 28 14 29 23 30 24 31 25 32 26 33 27 34
REMARK SMILES IDX 28 35 29 36 87 37 30 38 86 39 31 40 32 41 33 42 80 43 34 44
REMARK SMILES IDX 85 45 79 46 81 47 35 48 84 49 78 50 77 51 36 53 66 54 47 55
REMARK SMILES IDX 65 56 48 57 51 58 64 59 82 60 49 61 50 62 63 64 83 65 52 66
REMARK SMILES IDX 37 67 38 68 46 69 39 70 45 71 40 72 41 73 42 74 43 75 44 76
REMARK SMILES IDX 67 77 68 78 76 79 69 80 75 81 70 82 71 83 72 84 73 85 74 86
REMARK SMILES IDX 53 87 54 88 62 89 55 90 61 91 56 92 57 93 58 94 59 95 60 96
REMARK H PARENT 6 16 81 52 51 63
REMARK Flexibility Score: inf
ROOT
ATOM      1  O   UNL A   1      40.159  20.625  27.061  1.00  0.00    -0.374 OA
ENDROOT
BRANCH   1   2
ATOM      2  C   UNL A   1      39.602  20.923  25.789  1.00  0.00     0.202 C 
BRANCH   2   3
ATOM      3  C   UNL A   1      38.314  21.747  25.713  1.00  0.00     0.261 C 
BRANCH   3   4
ATOM      4  O   UNL A   1      37.097  21.010  25.534  1.00  0.00    -0.460 OA
BRANCH   4   5
ATOM      5  C   UNL A   1      36.263  21.558  24.631  1.00  0.00     0.340 C 
ATOM      6  O   UNL A   1      36.576  22.241  23.660  1.00  0.00    -0.246 OA
BRANCH   5   7
ATOM      7  C   UNL A   1      34.859  21.185  24.847  1.00  0.00     0.087 A 
ATOM      8  C   UNL A   1      33.750  22.050  24.778  1.00  0.00     0.056 A 
ATOM      9  C   UNL A   1      32.461  21.486  24.831  1.00  0.00     0.031 A 
ATOM     10  C   UNL A   1      32.280  20.103  24.773  1.00  0.00     0.049 A 
ATOM     11  C   UNL A   1      34.666  19.796  24.900  1.00  0.00     0.065 A 
ATOM     12  C   UNL A   1      33.394  19.275  24.745  1.00  0.00     0.131 A 
BRANCH   8  13
ATOM     13  N   UNL A   1      33.765  23.437  24.528  1.00  0.00    -0.325 N 
ATOM     14  C   UNL A   1      32.695  24.277  24.347  1.00  0.00     0.231 C 
ATOM     15  O   UNL A   1      32.402  24.603  23.196  1.00  0.00    -0.274 OA
ATOM     16  H   UNL A   1      34.654  23.856  24.479  1.00  0.00     0.169 HD
BRANCH  14  17
ATOM     17  C   UNL A   1      32.201  25.048  25.612  1.00  0.00     0.108 C 
BRANCH  17  18
ATOM     18  C   UNL A   1      30.785  24.716  26.139  1.00  0.00     0.015 C 
ATOM     19  C   UNL A   1      30.598  23.372  26.827  1.00  0.00     0.005 C 
ENDBRANCH  17  18
BRANCH  17  20
ATOM     20  C   UNL A   1      32.347  26.559  25.373  1.00  0.00    -0.036 A 
ATOM     21  C   UNL A   1      31.267  27.384  25.012  1.00  0.00     0.004 A 
ATOM     22  C   UNL A   1      33.626  27.136  25.447  1.00  0.00     0.004 A 
ATOM     23  C   UNL A   1      31.459  28.741  24.744  1.00  0.00     0.000 A 
ATOM     24  C   UNL A   1      33.817  28.490  25.170  1.00  0.00     0.000 A 
ATOM     25  C   UNL A   1      32.734  29.292  24.820  1.00  0.00     0.000 A 
ENDBRANCH  17  20
ENDBRANCH  14  17
ENDBRANCH   8  13
BRANCH  12  26
ATOM     26  O   UNL A   1      33.186  17.900  24.522  1.00  0.00    -0.427 OA
BRANCH  26  27
ATOM     27  C   UNL A   1      34.146  17.043  23.970  1.00  0.00     0.308 C 
ATOM     28  C   UNL A   1      34.990  16.236  24.920  1.00  0.00     0.139 C 
ATOM     29  O   UNL A   1      34.247  16.918  22.752  1.00  0.00    -0.252 OA
ENDBRANCH  26  27
ENDBRANCH  12  26
ENDBRANCH   5   7
ENDBRANCH   4   5
ENDBRANCH   3   4
ENDBRANCH   2   3
ENDBRANCH   1   2
BRANCH   1  30
ATOM     30  C   UNL A   1      41.519  20.202  27.134  1.00  0.00     0.202 C 
BRANCH  30  31
ATOM     31  C   UNL A   1      42.522  20.716  26.097  1.00  0.00     0.261 C 
BRANCH  31  32
ATOM     32  O   UNL A   1      43.115  21.981  26.457  1.00  0.00    -0.460 OA
BRANCH  32  33
ATOM     33  C   UNL A   1      42.821  22.992  25.613  1.00  0.00     0.338 C 
ATOM     34  O   UNL A   1      42.888  22.974  24.390  1.00  0.00    -0.246 OA
BRANCH  33  35
ATOM     35  C   UNL A   1      42.226  24.132  26.330  1.00  0.00     0.060 A 
ATOM     36  C   UNL A   1      42.819  25.393  26.149  1.00  0.00     0.016 A 
ATOM     37  C   UNL A   1      41.233  23.944  27.294  1.00  0.00     0.016 A 
ATOM     38  C   UNL A   1      42.482  26.446  26.988  1.00  0.00     0.010 A 
ATOM     39  C   UNL A   1      40.910  25.002  28.149  1.00  0.00     0.010 A 
ATOM     40  C   UNL A   1      41.575  26.234  28.035  1.00  0.00    -0.014 A 
BRANCH  40  41
ATOM     41  C   UNL A   1      41.524  27.217  29.145  1.00  0.00     0.031 A 
ATOM     42  C   UNL A   1      42.562  27.118  30.231  1.00  0.00     0.074 A 
ATOM     43  C   UNL A   1      40.609  28.200  29.162  1.00  0.00     0.049 A 
ATOM     44  N   UNL A   1      42.715  27.852  31.304  1.00  0.00    -0.248 NA
ATOM     45  C   UNL A   1      43.568  26.050  30.086  1.00  0.00     0.031 C 
ATOM     46  C   UNL A   1      39.594  28.434  28.138  1.00  0.00     0.029 A 
ATOM     47  N   UNL A   1      40.393  29.190  30.088  1.00  0.00    -0.354 N 
ATOM     48  C   UNL A   1      43.826  27.336  31.959  1.00  0.00     0.074 A 
ATOM     49  C   UNL A   1      44.298  26.213  31.179  1.00  0.00     0.031 C 
ATOM     50  C   UNL A   1      38.853  29.497  28.497  1.00  0.00     0.029 A 
ATOM     51  C   UNL A   1      39.325  29.999  29.786  1.00  0.00     0.049 A 
ATOM     52  H   UNL A   1      40.950  29.308  30.891  1.00  0.00     0.167 HD
ATOM     53  C   UNL A   1      44.406  27.757  33.107  1.00  0.00     0.031 A 
ATOM     54  C   UNL A   1      38.782  31.015  30.485  1.00  0.00     0.031 A 
ATOM     55  C   UNL A   1      43.923  28.857  33.896  1.00  0.00     0.049 A 
ATOM     56  C   UNL A   1      39.393  31.416  31.803  1.00  0.00     0.074 A 
ATOM     57  C   UNL A   1      44.430  29.357  35.081  1.00  0.00     0.029 A 
ATOM     58  N   UNL A   1      42.811  29.622  33.579  1.00  0.00    -0.354 N 
ATOM     59  N   UNL A   1      40.446  30.921  32.409  1.00  0.00    -0.248 NA
ATOM     60  C   UNL A   1      38.741  32.516  32.529  1.00  0.00     0.031 C 
ATOM     61  C   UNL A   1      43.598  30.400  35.505  1.00  0.00     0.029 A 
ATOM     62  C   UNL A   1      42.601  30.578  34.557  1.00  0.00     0.049 A 
ATOM     63  H   UNL A   1      42.253  29.503  32.776  1.00  0.00     0.167 HD
ATOM     64  C   UNL A   1      40.597  31.664  33.575  1.00  0.00     0.074 A 
ATOM     65  C   UNL A   1      39.533  32.647  33.586  1.00  0.00     0.031 C 
ATOM     66  C   UNL A   1      41.535  31.546  34.548  1.00  0.00     0.031 A 
BRANCH  53  67
ATOM     67  C   UNL A   1      45.605  26.989  33.595  1.00  0.00    -0.014 A 
ATOM     68  C   UNL A   1      45.461  25.874  34.439  1.00  0.00     0.010 A 
ATOM     69  C   UNL A   1      46.894  27.388  33.198  1.00  0.00     0.010 A 
ATOM     70  C   UNL A   1      46.588  25.197  34.913  1.00  0.00     0.020 A 
ATOM     71  C   UNL A   1      48.023  26.699  33.652  1.00  0.00     0.020 A 
ATOM     72  C   UNL A   1      47.863  25.619  34.522  1.00  0.00     0.054 A 
BRANCH  72  73
ATOM     73  S   UNL A   1      49.311  24.723  35.147  1.00  0.00     0.124 S 
ATOM     74  O   UNL A   1      49.066  23.371  34.650  1.00  0.00    -0.237 OA
ATOM     75  O   UNL A   1      50.425  25.431  34.520  1.00  0.00    -0.237 OA
ATOM     76  O   UNL A   1      49.216  24.880  36.597  1.00  0.00    -0.744 OA
ENDBRANCH  72  73
ENDBRANCH  53  67
BRANCH  54  77
ATOM     77  C   UNL A   1      37.578  31.712  29.959  1.00  0.00    -0.014 A 
ATOM     78  C   UNL A   1      37.703  32.820  29.106  1.00  0.00     0.010 A 
ATOM     79  C   UNL A   1      36.292  31.257  30.309  1.00  0.00     0.010 A 
ATOM     80  C   UNL A   1      36.564  33.468  28.617  1.00  0.00     0.020 A 
ATOM     81  C   UNL A   1      35.152  31.888  29.805  1.00  0.00     0.020 A 
ATOM     82  C   UNL A   1      35.295  32.996  28.969  1.00  0.00     0.054 A 
BRANCH  82  83
ATOM     83  S   UNL A   1      33.830  33.809  28.272  1.00  0.00     0.124 S 
ATOM     84  O   UNL A   1      34.425  34.796  27.379  1.00  0.00    -0.237 OA
ATOM     85  O   UNL A   1      33.132  32.702  27.621  1.00  0.00    -0.237 OA
ATOM     86  O   UNL A   1      33.153  34.352  29.448  1.00  0.00    -0.744 OA
ENDBRANCH  82  83
ENDBRANCH  54  77
BRANCH  66  87
ATOM     87  C   UNL A   1      41.473  32.521  35.693  1.00  0.00    -0.014 A 
ATOM     88  C   UNL A   1      40.781  32.209  36.876  1.00  0.00     0.010 A 
ATOM     89  C   UNL A   1      42.171  33.739  35.605  1.00  0.00     0.010 A 
ATOM     90  C   UNL A   1      40.770  33.110  37.944  1.00  0.00     0.020 A 
ATOM     91  C   UNL A   1      42.180  34.632  36.678  1.00  0.00     0.020 A 
ATOM     92  C   UNL A   1      41.468  34.317  37.837  1.00  0.00     0.054 A 
BRANCH  92  93
ATOM     93  S   UNL A   1      41.480  35.451  39.254  1.00  0.00     0.124 S 
ATOM     94  O   UNL A   1      42.080  34.625  40.298  1.00  0.00    -0.237 OA
ATOM     95  O   UNL A   1      42.306  36.558  38.776  1.00  0.00    -0.237 OA
ATOM     96  O   UNL A   1      40.069  35.776  39.448  1.00  0.00    -0.744 OA
ENDBRANCH  92  93
ENDBRANCH  66  87
ENDBRANCH  40  41
ENDBRANCH  33  35
ENDBRANCH  32  33
ENDBRANCH  31  32
ENDBRANCH  30  31
ENDBRANCH   1  30
TORSDOF 23
ENDMDL
MODEL 3
REMARK VINA RESULT:     -10.2      2.531      8.631
REMARK SMILES CC[C@@H](C(=O)Nc1ccc(OC(C)=O)cc1C(=O)OCCOCCOC(=O)c1ccc(-c2c3nc(c(-c4ccc(S(=O)(=O)[O-])cc4)c4ccc([nH]4)c(-c4ccc(S(=O)(=O)[O-])cc4)c4nc(c(-c5ccc(S(=O)(=O)[O-])cc5)c5ccc2[nH]5)C=C4)C=C3)cc1)c1ccccc1
REMARK SMILES IDX 22 1 21 2 20 3 19 4 17 5 18 6 16 7 7 8 8 9 9 10 15 11 10 12
REMARK SMILES IDX 6 13 4 14 5 15 3 17 2 18 1 19 88 20 89 21 93 22 90 23 92 24
REMARK SMILES IDX 91 25 11 26 12 27 13 28 14 29 23 30 24 31 25 32 26 33 27 34
REMARK SMILES IDX 28 35 29 36 87 37 30 38 86 39 31 40 32 41 33 42 80 43 34 44
REMARK SMILES IDX 85 45 79 46 81 47 35 48 84 49 78 50 77 51 36 53 66 54 47 55
REMARK SMILES IDX 65 56 48 57 51 58 64 59 82 60 49 61 50 62 63 64 83 65 52 66
REMARK SMILES IDX 37 67 38 68 46 69 39 70 45 71 40 72 41 73 42 74 43 75 44 76
REMARK SMILES IDX 67 77 68 78 76 79 69 80 75 81 70 82 71 83 72 84 73 85 74 86
REMARK SMILES IDX 53 87 54 88 62 89 55 90 61 91 56 92 57 93 58 94 59 95 60 96
REMARK H PARENT 6 16 81 52 51 63
REMARK Flexibility Score: inf
ROOT
ATOM      1  O   UNL A   1      35.188  29.995  26.899  1.00  0.00    -0.374 OA
ENDROOT
BRANCH   1   2
ATOM      2  C   UNL A   1      34.449  28.794  26.732  1.00  0.00     0.202 C 
BRANCH   2   3
ATOM      3  C   UNL A   1      33.196  28.564  27.582  1.00  0.00     0.261 C 
BRANCH   3   4
ATOM      4  O   UNL A   1      31.944  28.578  26.885  1.00  0.00    -0.460 OA
BRANCH   4   5
ATOM      5  C   UNL A   1      31.586  27.377  26.395  1.00  0.00     0.340 C 
ATOM      6  O   UNL A   1      31.254  26.388  27.042  1.00  0.00    -0.246 OA
BRANCH   5   7
ATOM      7  C   UNL A   1      31.528  27.350  24.928  1.00  0.00     0.087 A 
ATOM      8  C   UNL A   1      32.350  26.586  24.078  1.00  0.00     0.056 A 
ATOM      9  C   UNL A   1      32.033  26.543  22.706  1.00  0.00     0.031 A 
ATOM     10  C   UNL A   1      30.842  27.092  22.227  1.00  0.00     0.049 A 
ATOM     11  C   UNL A   1      30.390  27.992  24.416  1.00  0.00     0.065 A 
ATOM     12  C   UNL A   1      30.001  27.759  23.109  1.00  0.00     0.131 A 
BRANCH   8  13
ATOM     13  N   UNL A   1      33.406  25.731  24.455  1.00  0.00    -0.325 N 
ATOM     14  C   UNL A   1      33.326  24.461  24.967  1.00  0.00     0.231 C 
ATOM     15  O   UNL A   1      33.470  24.315  26.181  1.00  0.00    -0.274 OA
ATOM     16  H   UNL A   1      34.314  26.091  24.335  1.00  0.00     0.169 HD
BRANCH  14  17
ATOM     17  C   UNL A   1      33.455  23.293  23.938  1.00  0.00     0.108 C 
BRANCH  17  18
ATOM     18  C   UNL A   1      32.263  22.314  23.821  1.00  0.00     0.015 C 
ATOM     19  C   UNL A   1      32.032  21.660  22.467  1.00  0.00     0.005 C 
ENDBRANCH  17  18
BRANCH  17  20
ATOM     20  C   UNL A   1      34.759  22.525  24.205  1.00  0.00    -0.036 A 
ATOM     21  C   UNL A   1      34.785  21.212  24.710  1.00  0.00     0.004 A 
ATOM     22  C   UNL A   1      35.985  23.183  24.006  1.00  0.00     0.004 A 
ATOM     23  C   UNL A   1      35.995  20.578  24.996  1.00  0.00     0.000 A 
ATOM     24  C   UNL A   1      37.193  22.549  24.301  1.00  0.00     0.000 A 
ATOM     25  C   UNL A   1      37.198  21.247  24.794  1.00  0.00     0.000 A 
ENDBRANCH  17  20
ENDBRANCH  14  17
ENDBRANCH   8  13
BRANCH  12  26
ATOM     26  O   UNL A   1      28.736  28.157  22.636  1.00  0.00    -0.427 OA
BRANCH  26  27
ATOM     27  C   UNL A   1      28.307  29.489  22.578  1.00  0.00     0.308 C 
ATOM     28  C   UNL A   1      29.257  30.504  22.000  1.00  0.00     0.139 C 
ATOM     29  O   UNL A   1      27.172  29.797  22.934  1.00  0.00    -0.252 OA
ENDBRANCH  26  27
ENDBRANCH  12  26
ENDBRANCH   5   7
ENDBRANCH   4   5
ENDBRANCH   3   4
ENDBRANCH   2   3
ENDBRANCH   1   2
BRANCH   1  30
ATOM     30  C   UNL A   1      34.750  30.941  27.871  1.00  0.00     0.202 C 
BRANCH  30  31
ATOM     31  C   UNL A   1      35.667  31.288  29.048  1.00  0.00     0.261 C 
BRANCH  31  32
ATOM     32  O   UNL A   1      37.031  30.863  28.851  1.00  0.00    -0.460 OA
BRANCH  32  33
ATOM     33  C   UNL A   1      37.361  29.734  29.513  1.00  0.00     0.338 C 
ATOM     34  O   UNL A   1      36.690  29.152  30.357  1.00  0.00    -0.246 OA
BRANCH  33  35
ATOM     35  C   UNL A   1      38.601  29.145  28.981  1.00  0.00     0.060 A 
ATOM     36  C   UNL A   1      39.507  28.598  29.906  1.00  0.00     0.016 A 
ATOM     37  C   UNL A   1      38.953  29.288  27.637  1.00  0.00     0.016 A 
ATOM     38  C   UNL A   1      40.796  28.272  29.505  1.00  0.00     0.010 A 
ATOM     39  C   UNL A   1      40.258  28.975  27.243  1.00  0.00     0.010 A 
ATOM     40  C   UNL A   1      41.196  28.524  28.186  1.00  0.00    -0.014 A 
BRANCH  40  41
ATOM     41  C   UNL A   1      42.645  28.553  27.874  1.00  0.00     0.031 A 
ATOM     42  C   UNL A   1      43.271  27.316  27.286  1.00  0.00     0.074 A 
ATOM     43  C   UNL A   1      43.377  29.664  28.062  1.00  0.00     0.049 A 
ATOM     44  N   UNL A   1      44.514  27.097  26.941  1.00  0.00    -0.248 NA
ATOM     45  C   UNL A   1      42.372  26.172  27.049  1.00  0.00     0.031 C 
ATOM     46  C   UNL A   1      42.870  30.938  28.567  1.00  0.00     0.029 A 
ATOM     47  N   UNL A   1      44.712  29.890  27.845  1.00  0.00    -0.354 N 
ATOM     48  C   UNL A   1      44.547  25.796  26.452  1.00  0.00     0.074 A 
ATOM     49  C   UNL A   1      43.206  25.265  26.563  1.00  0.00     0.031 C 
ATOM     50  C   UNL A   1      43.889  31.814  28.631  1.00  0.00     0.029 A 
ATOM     51  C   UNL A   1      45.119  31.153  28.198  1.00  0.00     0.049 A 
ATOM     52  H   UNL A   1      45.321  29.211  27.473  1.00  0.00     0.167 HD
ATOM     53  C   UNL A   1      45.597  25.104  25.952  1.00  0.00     0.031 A 
ATOM     54  C   UNL A   1      46.349  31.703  28.190  1.00  0.00     0.031 A 
ATOM     55  C   UNL A   1      46.934  25.623  25.864  1.00  0.00     0.049 A 
ATOM     56  C   UNL A   1      47.520  30.887  27.707  1.00  0.00     0.074 A 
ATOM     57  C   UNL A   1      48.072  24.999  25.385  1.00  0.00     0.029 A 
ATOM     58  N   UNL A   1      47.313  26.891  26.275  1.00  0.00    -0.354 N 
ATOM     59  N   UNL A   1      47.536  29.659  27.243  1.00  0.00    -0.248 NA
ATOM     60  C   UNL A   1      48.840  31.534  27.745  1.00  0.00     0.031 C 
ATOM     61  C   UNL A   1      49.150  25.878  25.546  1.00  0.00     0.029 A 
ATOM     62  C   UNL A   1      48.672  27.065  26.081  1.00  0.00     0.049 A 
ATOM     63  H   UNL A   1      46.705  27.570  26.648  1.00  0.00     0.167 HD
ATOM     64  C   UNL A   1      48.860  29.395  26.912  1.00  0.00     0.074 A 
ATOM     65  C   UNL A   1      49.615  30.593  27.220  1.00  0.00     0.031 C 
ATOM     66  C   UNL A   1      49.404  28.265  26.395  1.00  0.00     0.031 A 
BRANCH  53  67
ATOM     67  C   UNL A   1      45.338  23.691  25.503  1.00  0.00    -0.014 A 
ATOM     68  C   UNL A   1      45.469  22.610  26.392  1.00  0.00     0.010 A 
ATOM     69  C   UNL A   1      44.954  23.443  24.173  1.00  0.00     0.010 A 
ATOM     70  C   UNL A   1      45.263  21.301  25.948  1.00  0.00     0.020 A 
ATOM     71  C   UNL A   1      44.725  22.137  23.730  1.00  0.00     0.020 A 
ATOM     72  C   UNL A   1      44.899  21.073  24.617  1.00  0.00     0.054 A 
BRANCH  72  73
ATOM     73  S   UNL A   1      44.634  19.366  24.063  1.00  0.00     0.124 S 
ATOM     74  O   UNL A   1      44.501  19.536  22.617  1.00  0.00    -0.237 OA
ATOM     75  O   UNL A   1      45.850  18.688  24.506  1.00  0.00    -0.237 OA
ATOM     76  O   UNL A   1      43.413  18.963  24.757  1.00  0.00    -0.744 OA
ENDBRANCH  72  73
ENDBRANCH  53  67
BRANCH  54  77
ATOM     77  C   UNL A   1      46.539  33.095  28.676  1.00  0.00    -0.014 A 
ATOM     78  C   UNL A   1      46.386  34.188  27.807  1.00  0.00     0.010 A 
ATOM     79  C   UNL A   1      46.868  33.332  30.024  1.00  0.00     0.010 A 
ATOM     80  C   UNL A   1      46.566  35.495  28.275  1.00  0.00     0.020 A 
ATOM     81  C   UNL A   1      47.027  34.636  30.500  1.00  0.00     0.020 A 
ATOM     82  C   UNL A   1      46.884  35.709  29.619  1.00  0.00     0.054 A 
BRANCH  82  83
ATOM     83  S   UNL A   1      47.050  37.413  30.223  1.00  0.00     0.124 S 
ATOM     84  O   UNL A   1      48.312  37.827  29.621  1.00  0.00    -0.237 OA
ATOM     85  O   UNL A   1      45.852  38.056  29.689  1.00  0.00    -0.237 OA
ATOM     86  O   UNL A   1      47.067  37.258  31.676  1.00  0.00    -0.744 OA
ENDBRANCH  82  83
ENDBRANCH  54  77
BRANCH  66  87
ATOM     87  C   UNL A   1      50.879  28.276  26.102  1.00  0.00    -0.014 A 
ATOM     88  C   UNL A   1      51.811  27.809  27.046  1.00  0.00     0.010 A 
ATOM     89  C   UNL A   1      51.332  28.698  24.839  1.00  0.00     0.010 A 
ATOM     90  C   UNL A   1      53.174  27.788  26.739  1.00  0.00     0.020 A 
ATOM     91  C   UNL A   1      52.691  28.658  24.521  1.00  0.00     0.020 A 
ATOM     92  C   UNL A   1      53.605  28.216  25.479  1.00  0.00     0.054 A 
BRANCH  92  93
ATOM     93  S   UNL A   1      55.375  28.134  25.084  1.00  0.00     0.124 S 
ATOM     94  O   UNL A   1      55.544  29.291  24.210  1.00  0.00    -0.237 OA
ATOM     95  O   UNL A   1      56.005  28.241  26.397  1.00  0.00    -0.237 OA
ATOM     96  O   UNL A   1      55.523  26.834  24.434  1.00  0.00    -0.744 OA
ENDBRANCH  92  93
ENDBRANCH  66  87
ENDBRANCH  40  41
ENDBRANCH  33  35
ENDBRANCH  32  33
ENDBRANCH  31  32
ENDBRANCH  30  31
ENDBRANCH   1  30
TORSDOF 23
ENDMDL
