MODEL 1
REMARK VINA RESULT:      -9.8      0.000      0.000
REMARK SMILES CC(C)c1nc(N(C)C[C@@H]2CC[N@@H+](C)C2)sc1C(=O)OCCOCCOC(=O)c1ccc(-c2c3nc(c(-c4ccc(S(=O)(=O)[O-])cc4)c4ccc([nH]4)c(-c4ccc(S(=O)(=O)[O-])cc4)c4nc(c(-c5ccc(S(=O)(=O)[O-])cc5)c5ccc2[nH]5)C=C4)C=C3)cc1
REMARK SMILES IDX 23 1 22 2 21 3 20 4 18 5 19 6 17 7 4 8 5 9 6 10 16 11 2 12
REMARK SMILES IDX 1 13 3 14 7 15 8 16 9 17 10 18 11 19 15 20 12 21 13 22 14 23
REMARK SMILES IDX 24 25 25 26 26 27 27 28 28 29 29 30 30 31 88 32 31 33 87 34
REMARK SMILES IDX 32 35 33 36 34 37 81 38 35 39 86 40 80 41 82 42 36 43 85 44
REMARK SMILES IDX 79 45 78 46 37 48 67 49 48 50 66 51 49 52 52 53 65 54 83 55
REMARK SMILES IDX 50 56 51 57 64 59 84 60 53 61 38 62 39 63 47 64 40 65 46 66
REMARK SMILES IDX 41 67 42 68 43 69 44 70 45 71 68 72 69 73 77 74 70 75 76 76
REMARK SMILES IDX 71 77 72 78 73 79 74 80 75 81 54 82 55 83 63 84 56 85 62 86
REMARK SMILES IDX 57 87 58 88 59 89 60 90 61 91
REMARK H PARENT 13 24 82 47 52 58
REMARK Flexibility Score: inf
ROOT
ATOM      1  O   UNL A   1      39.143  21.583  25.666  1.00  0.00    -0.374 OA
ENDROOT
BRANCH   1   2
ATOM      2  C   UNL A   1      37.862  22.213  25.569  1.00  0.00     0.202 C 
BRANCH   2   3
ATOM      3  C   UNL A   1      36.824  21.356  24.837  1.00  0.00     0.261 C 
BRANCH   3   4
ATOM      4  O   UNL A   1      35.814  22.218  24.279  1.00  0.00    -0.459 OA
BRANCH   4   5
ATOM      5  C   UNL A   1      34.562  22.074  24.775  1.00  0.00     0.350 C 
ATOM      6  O   UNL A   1      34.167  21.058  25.340  1.00  0.00    -0.245 OA
BRANCH   5   7
ATOM      7  C   UNL A   1      33.821  23.314  24.661  1.00  0.00     0.137 A 
ATOM      8  C   UNL A   1      32.693  23.855  25.273  1.00  0.00     0.071 A 
ATOM      9  N   UNL A   1      32.355  25.118  24.774  1.00  0.00    -0.224 NA
ATOM     10  C   UNL A   1      33.138  25.522  23.802  1.00  0.00     0.186 A 
ATOM     11  S   UNL A   1      34.383  24.397  23.443  1.00  0.00    -0.089 S 
BRANCH   8  12
ATOM     12  C   UNL A   1      31.831  23.345  26.424  1.00  0.00     0.034 C 
ATOM     13  C   UNL A   1      30.821  22.279  25.948  1.00  0.00     0.014 C 
ATOM     14  C   UNL A   1      32.612  22.715  27.580  1.00  0.00     0.014 C 
ENDBRANCH   8  12
BRANCH  10  15
ATOM     15  N   UNL A   1      32.988  26.713  23.153  1.00  0.00    -0.351 N 
ATOM     16  C   UNL A   1      33.891  27.831  23.369  1.00  0.00     0.146 C 
BRANCH  15  17
ATOM     17  C   UNL A   1      31.724  27.008  22.475  1.00  0.00     0.128 C 
BRANCH  17  18
ATOM     18  C   UNL A   1      30.624  27.543  23.401  1.00  0.00     0.069 C 
ATOM     19  C   UNL A   1      29.720  28.597  22.744  1.00  0.00     0.072 C 
ATOM     20  C   UNL A   1      31.238  28.268  24.605  1.00  0.00     0.267 C 
ATOM     21  C   UNL A   1      29.791  29.805  23.662  1.00  0.00     0.262 C 
ATOM     22  N   UNL A   1      31.131  29.683  24.238  1.00  0.00    -0.337 N 
ATOM     23  C   UNL A   1      31.325  30.571  25.375  1.00  0.00     0.332 C 
ATOM     24  H   UNL A   1      31.859  29.963  23.583  1.00  0.00     0.347 HD
ENDBRANCH  17  18
ENDBRANCH  15  17
ENDBRANCH  10  15
ENDBRANCH   5   7
ENDBRANCH   4   5
ENDBRANCH   3   4
ENDBRANCH   2   3
ENDBRANCH   1   2
BRANCH   1  25
ATOM     25  C   UNL A   1      39.971  22.021  26.747  1.00  0.00     0.202 C 
BRANCH  25  26
ATOM     26  C   UNL A   1      41.388  22.435  26.333  1.00  0.00     0.261 C 
BRANCH  26  27
ATOM     27  O   UNL A   1      41.462  23.856  26.109  1.00  0.00    -0.460 OA
BRANCH  27  28
ATOM     28  C   UNL A   1      42.525  24.474  26.676  1.00  0.00     0.338 C 
ATOM     29  O   UNL A   1      43.700  24.331  26.381  1.00  0.00    -0.246 OA
BRANCH  28  30
ATOM     30  C   UNL A   1      42.052  25.519  27.611  1.00  0.00     0.060 A 
ATOM     31  C   UNL A   1      42.864  26.648  27.777  1.00  0.00     0.016 A 
ATOM     32  C   UNL A   1      40.861  25.397  28.332  1.00  0.00     0.016 A 
ATOM     33  C   UNL A   1      42.516  27.632  28.700  1.00  0.00     0.010 A 
ATOM     34  C   UNL A   1      40.513  26.386  29.259  1.00  0.00     0.010 A 
ATOM     35  C   UNL A   1      41.356  27.491  29.473  1.00  0.00    -0.014 A 
BRANCH  35  36
ATOM     36  C   UNL A   1      41.106  28.432  30.594  1.00  0.00     0.031 A 
ATOM     37  C   UNL A   1      41.969  28.348  31.825  1.00  0.00     0.074 A 
ATOM     38  C   UNL A   1      40.149  29.373  30.505  1.00  0.00     0.049 A 
ATOM     39  N   UNL A   1      41.928  29.072  32.913  1.00  0.00    -0.248 NA
ATOM     40  C   UNL A   1      43.018  27.315  31.828  1.00  0.00     0.031 C 
ATOM     41  C   UNL A   1      39.272  29.584  29.353  1.00  0.00     0.029 A 
ATOM     42  N   UNL A   1      39.757  30.334  31.404  1.00  0.00    -0.354 N 
ATOM     43  C   UNL A   1      42.935  28.579  33.734  1.00  0.00     0.074 A 
ATOM     44  C   UNL A   1      43.554  27.477  33.029  1.00  0.00     0.031 C 
ATOM     45  C   UNL A   1      38.444  30.610  29.617  1.00  0.00     0.029 A 
ATOM     46  C   UNL A   1      38.712  31.109  30.964  1.00  0.00     0.049 A 
ATOM     47  H   UNL A   1      40.186  30.455  32.282  1.00  0.00     0.167 HD
ATOM     48  C   UNL A   1      43.318  29.008  34.960  1.00  0.00     0.031 A 
ATOM     49  C   UNL A   1      38.038  32.101  31.582  1.00  0.00     0.031 A 
ATOM     50  C   UNL A   1      42.702  30.100  35.665  1.00  0.00     0.049 A 
ATOM     51  C   UNL A   1      38.438  32.514  32.975  1.00  0.00     0.074 A 
ATOM     52  C   UNL A   1      43.039  30.623  36.902  1.00  0.00     0.029 A 
ATOM     53  N   UNL A   1      41.621  30.833  35.202  1.00  0.00    -0.354 N 
ATOM     54  N   UNL A   1      39.417  32.058  33.722  1.00  0.00    -0.248 NA
ATOM     55  C   UNL A   1      37.649  33.583  33.604  1.00  0.00     0.031 C 
ATOM     56  C   UNL A   1      42.126  31.636  37.211  1.00  0.00     0.029 A 
ATOM     57  C   UNL A   1      41.259  31.784  36.140  1.00  0.00     0.049 A 
ATOM     58  H   UNL A   1      41.177  30.698  34.334  1.00  0.00     0.167 HD
ATOM     59  C   UNL A   1      39.377  32.806  34.895  1.00  0.00     0.074 A 
ATOM     60  C   UNL A   1      38.287  33.749  34.755  1.00  0.00     0.031 C 
ATOM     61  C   UNL A   1      40.173  32.720  35.989  1.00  0.00     0.031 A 
BRANCH  48  62
ATOM     62  C   UNL A   1      44.442  28.270  35.637  1.00  0.00    -0.014 A 
ATOM     63  C   UNL A   1      44.193  27.150  36.450  1.00  0.00     0.010 A 
ATOM     64  C   UNL A   1      45.771  28.675  35.416  1.00  0.00     0.010 A 
ATOM     65  C   UNL A   1      45.252  26.467  37.053  1.00  0.00     0.020 A 
ATOM     66  C   UNL A   1      46.833  27.979  35.997  1.00  0.00     0.020 A 
ATOM     67  C   UNL A   1      46.566  26.887  36.825  1.00  0.00     0.054 A 
BRANCH  67  68
ATOM     68  S   UNL A   1      47.923  25.963  37.596  1.00  0.00     0.124 S 
ATOM     69  O   UNL A   1      47.862  24.689  36.884  1.00  0.00    -0.237 OA
ATOM     70  O   UNL A   1      49.086  26.795  37.298  1.00  0.00    -0.237 OA
ATOM     71  O   UNL A   1      47.547  25.905  39.007  1.00  0.00    -0.744 OA
ENDBRANCH  67  68
ENDBRANCH  48  62
BRANCH  49  72
ATOM     72  C   UNL A   1      36.895  32.765  30.898  1.00  0.00    -0.014 A 
ATOM     73  C   UNL A   1      37.109  33.849  30.030  1.00  0.00     0.010 A 
ATOM     74  C   UNL A   1      35.580  32.323  31.128  1.00  0.00     0.010 A 
ATOM     75  C   UNL A   1      36.028  34.493  29.420  1.00  0.00     0.020 A 
ATOM     76  C   UNL A   1      34.497  32.946  30.500  1.00  0.00     0.020 A 
ATOM     77  C   UNL A   1      34.728  34.036  29.659  1.00  0.00     0.054 A 
BRANCH  77  78
ATOM     78  S   UNL A   1      33.342  34.858  28.827  1.00  0.00     0.124 S 
ATOM     79  O   UNL A   1      34.010  35.961  28.142  1.00  0.00    -0.237 OA
ATOM     80  O   UNL A   1      32.820  33.801  27.964  1.00  0.00    -0.237 OA
ATOM     81  O   UNL A   1      32.463  35.243  29.928  1.00  0.00    -0.744 OA
ENDBRANCH  77  78
ENDBRANCH  49  72
BRANCH  61  82
ATOM     82  C   UNL A   1      39.928  33.695  37.110  1.00  0.00    -0.014 A 
ATOM     83  C   UNL A   1      40.468  34.993  37.081  1.00  0.00     0.010 A 
ATOM     84  C   UNL A   1      39.095  33.324  38.182  1.00  0.00     0.010 A 
ATOM     85  C   UNL A   1      40.205  35.892  38.119  1.00  0.00     0.020 A 
ATOM     86  C   UNL A   1      38.807  34.229  39.207  1.00  0.00     0.020 A 
ATOM     87  C   UNL A   1      39.375  35.503  39.175  1.00  0.00     0.054 A 
BRANCH  87  88
ATOM     88  S   UNL A   1      39.012  36.701  40.489  1.00  0.00     0.124 S 
ATOM     89  O   UNL A   1      38.524  37.848  39.728  1.00  0.00    -0.237 OA
ATOM     90  O   UNL A   1      38.007  36.004  41.289  1.00  0.00    -0.237 OA
ATOM     91  O   UNL A   1      40.301  36.894  41.150  1.00  0.00    -0.744 OA
ENDBRANCH  87  88
ENDBRANCH  61  82
ENDBRANCH  35  36
ENDBRANCH  28  30
ENDBRANCH  27  28
ENDBRANCH  26  27
ENDBRANCH  25  26
ENDBRANCH   1  25
TORSDOF 21
ENDMDL
MODEL 2
REMARK VINA RESULT:      -9.7      4.915      6.195
REMARK SMILES CC(C)c1nc(N(C)C[C@@H]2CC[N@@H+](C)C2)sc1C(=O)OCCOCCOC(=O)c1ccc(-c2c3nc(c(-c4ccc(S(=O)(=O)[O-])cc4)c4ccc([nH]4)c(-c4ccc(S(=O)(=O)[O-])cc4)c4nc(c(-c5ccc(S(=O)(=O)[O-])cc5)c5ccc2[nH]5)C=C4)C=C3)cc1
REMARK SMILES IDX 23 1 22 2 21 3 20 4 18 5 19 6 17 7 4 8 5 9 6 10 16 11 2 12
REMARK SMILES IDX 1 13 3 14 7 15 8 16 9 17 10 18 11 19 15 20 12 21 13 22 14 23
REMARK SMILES IDX 24 25 25 26 26 27 27 28 28 29 29 30 30 31 88 32 31 33 87 34
REMARK SMILES IDX 32 35 33 36 34 37 81 38 35 39 86 40 80 41 82 42 36 43 85 44
REMARK SMILES IDX 79 45 78 46 37 48 67 49 48 50 66 51 49 52 52 53 65 54 83 55
REMARK SMILES IDX 50 56 51 57 64 59 84 60 53 61 38 62 39 63 47 64 40 65 46 66
REMARK SMILES IDX 41 67 42 68 43 69 44 70 45 71 68 72 69 73 77 74 70 75 76 76
REMARK SMILES IDX 71 77 72 78 73 79 74 80 75 81 54 82 55 83 63 84 56 85 62 86
REMARK SMILES IDX 57 87 58 88 59 89 60 90 61 91
REMARK H PARENT 13 24 82 47 52 58
REMARK Flexibility Score: inf
ROOT
ATOM      1  O   UNL A   1      36.414  21.962  23.695  1.00  0.00    -0.374 OA
ENDROOT
BRANCH   1   2
ATOM      2  C   UNL A   1      36.362  23.274  23.127  1.00  0.00     0.202 C 
BRANCH   2   3
ATOM      3  C   UNL A   1      35.129  24.072  23.563  1.00  0.00     0.261 C 
BRANCH   3   4
ATOM      4  O   UNL A   1      34.097  23.919  22.570  1.00  0.00    -0.459 OA
BRANCH   4   5
ATOM      5  C   UNL A   1      32.874  23.556  23.027  1.00  0.00     0.350 C 
ATOM      6  O   UNL A   1      32.420  22.420  22.926  1.00  0.00    -0.245 OA
BRANCH   5   7
ATOM      7  C   UNL A   1      32.256  24.647  23.752  1.00  0.00     0.137 A 
ATOM      8  C   UNL A   1      31.707  24.808  25.022  1.00  0.00     0.071 A 
ATOM      9  N   UNL A   1      31.197  26.094  25.236  1.00  0.00    -0.224 NA
ATOM     10  C   UNL A   1      31.295  26.876  24.188  1.00  0.00     0.186 A 
ATOM     11  S   UNL A   1      32.061  26.108  22.858  1.00  0.00    -0.089 S 
BRANCH   8  12
ATOM     12  C   UNL A   1      31.642  23.861  26.217  1.00  0.00     0.034 C 
ATOM     13  C   UNL A   1      30.680  22.683  25.956  1.00  0.00     0.014 C 
ATOM     14  C   UNL A   1      32.984  23.244  26.619  1.00  0.00     0.014 C 
ENDBRANCH   8  12
BRANCH  10  15
ATOM     15  N   UNL A   1      30.851  28.165  24.160  1.00  0.00    -0.351 N 
ATOM     16  C   UNL A   1      29.643  28.553  23.450  1.00  0.00     0.146 C 
BRANCH  15  17
ATOM     17  C   UNL A   1      31.754  29.246  24.563  1.00  0.00     0.128 C 
BRANCH  17  18
ATOM     18  C   UNL A   1      31.931  29.383  26.081  1.00  0.00     0.069 C 
ATOM     19  C   UNL A   1      31.981  30.838  26.571  1.00  0.00     0.072 C 
ATOM     20  C   UNL A   1      33.273  28.787  26.524  1.00  0.00     0.267 C 
ATOM     21  C   UNL A   1      33.283  30.950  27.344  1.00  0.00     0.262 C 
ATOM     22  N   UNL A   1      34.132  29.966  26.671  1.00  0.00    -0.337 N 
ATOM     23  C   UNL A   1      35.346  29.681  27.422  1.00  0.00     0.332 C 
ATOM     24  H   UNL A   1      34.475  30.302  25.772  1.00  0.00     0.347 HD
ENDBRANCH  17  18
ENDBRANCH  15  17
ENDBRANCH  10  15
ENDBRANCH   5   7
ENDBRANCH   4   5
ENDBRANCH   3   4
ENDBRANCH   2   3
ENDBRANCH   1   2
BRANCH   1  25
ATOM     25  C   UNL A   1      36.339  21.897  25.121  1.00  0.00     0.202 C 
BRANCH  25  26
ATOM     26  C   UNL A   1      37.656  21.519  25.808  1.00  0.00     0.261 C 
BRANCH  26  27
ATOM     27  O   UNL A   1      38.396  22.697  26.183  1.00  0.00    -0.460 OA
BRANCH  27  28
ATOM     28  C   UNL A   1      39.566  22.463  26.823  1.00  0.00     0.338 C 
ATOM     29  O   UNL A   1      40.073  21.377  27.052  1.00  0.00    -0.246 OA
BRANCH  28  30
ATOM     30  C   UNL A   1      40.268  23.744  27.059  1.00  0.00     0.060 A 
ATOM     31  C   UNL A   1      41.068  23.836  28.205  1.00  0.00     0.016 A 
ATOM     32  C   UNL A   1      40.135  24.841  26.204  1.00  0.00     0.016 A 
ATOM     33  C   UNL A   1      41.693  25.039  28.527  1.00  0.00     0.010 A 
ATOM     34  C   UNL A   1      40.763  26.049  26.529  1.00  0.00     0.010 A 
ATOM     35  C   UNL A   1      41.517  26.164  27.711  1.00  0.00    -0.014 A 
BRANCH  35  36
ATOM     36  C   UNL A   1      42.011  27.486  28.171  1.00  0.00     0.031 A 
ATOM     37  C   UNL A   1      43.489  27.773  28.119  1.00  0.00     0.074 A 
ATOM     38  C   UNL A   1      41.156  28.434  28.594  1.00  0.00     0.049 A 
ATOM     39  N   UNL A   1      44.132  28.857  28.463  1.00  0.00    -0.248 NA
ATOM     40  C   UNL A   1      44.353  26.696  27.607  1.00  0.00     0.031 C 
ATOM     41  C   UNL A   1      39.701  28.296  28.656  1.00  0.00     0.029 A 
ATOM     42  N   UNL A   1      41.392  29.707  29.051  1.00  0.00    -0.354 N 
ATOM     43  C   UNL A   1      45.476  28.593  28.221  1.00  0.00     0.074 A 
ATOM     44  C   UNL A   1      45.557  27.237  27.725  1.00  0.00     0.031 C 
ATOM     45  C   UNL A   1      39.173  29.441  29.125  1.00  0.00     0.029 A 
ATOM     46  C   UNL A   1      40.253  30.381  29.423  1.00  0.00     0.049 A 
ATOM     47  H   UNL A   1      42.292  30.101  29.105  1.00  0.00     0.167 HD
ATOM     48  C   UNL A   1      46.544  29.407  28.389  1.00  0.00     0.031 A 
ATOM     49  C   UNL A   1      40.099  31.610  29.956  1.00  0.00     0.031 A 
ATOM     50  C   UNL A   1      46.466  30.755  28.886  1.00  0.00     0.049 A 
ATOM     51  C   UNL A   1      41.311  32.471  30.198  1.00  0.00     0.074 A 
ATOM     52  C   UNL A   1      47.494  31.665  29.066  1.00  0.00     0.029 A 
ATOM     53  N   UNL A   1      45.300  31.385  29.289  1.00  0.00    -0.354 N 
ATOM     54  N   UNL A   1      42.571  32.217  29.930  1.00  0.00    -0.248 NA
ATOM     55  C   UNL A   1      41.079  33.790  30.804  1.00  0.00     0.031 C 
ATOM     56  C   UNL A   1      46.956  32.826  29.630  1.00  0.00     0.029 A 
ATOM     57  C   UNL A   1      45.585  32.661  29.745  1.00  0.00     0.049 A 
ATOM     58  H   UNL A   1      44.401  30.985  29.256  1.00  0.00     0.167 HD
ATOM     59  C   UNL A   1      43.276  33.356  30.309  1.00  0.00     0.074 A 
ATOM     60  C   UNL A   1      42.303  34.303  30.813  1.00  0.00     0.031 C 
ATOM     61  C   UNL A   1      44.608  33.596  30.243  1.00  0.00     0.031 A 
BRANCH  48  62
ATOM     62  C   UNL A   1      47.904  28.851  28.059  1.00  0.00    -0.014 A 
ATOM     63  C   UNL A   1      48.682  28.203  29.036  1.00  0.00     0.010 A 
ATOM     64  C   UNL A   1      48.387  28.932  26.741  1.00  0.00     0.010 A 
ATOM     65  C   UNL A   1      49.932  27.675  28.705  1.00  0.00     0.020 A 
ATOM     66  C   UNL A   1      49.625  28.383  26.401  1.00  0.00     0.020 A 
ATOM     67  C   UNL A   1      50.398  27.770  27.390  1.00  0.00     0.054 A 
BRANCH  67  68
ATOM     68  S   UNL A   1      52.011  27.048  26.982  1.00  0.00     0.124 S 
ATOM     69  O   UNL A   1      52.835  28.240  26.799  1.00  0.00    -0.237 OA
ATOM     70  O   UNL A   1      52.313  26.249  28.167  1.00  0.00    -0.237 OA
ATOM     71  O   UNL A   1      51.750  26.280  25.766  1.00  0.00    -0.744 OA
ENDBRANCH  67  68
ENDBRANCH  48  62
BRANCH  49  72
ATOM     72  C   UNL A   1      38.741  32.099  30.321  1.00  0.00    -0.014 A 
ATOM     73  C   UNL A   1      37.981  32.852  29.410  1.00  0.00     0.010 A 
ATOM     74  C   UNL A   1      38.209  31.826  31.594  1.00  0.00     0.010 A 
ATOM     75  C   UNL A   1      36.722  33.342  29.772  1.00  0.00     0.020 A 
ATOM     76  C   UNL A   1      36.940  32.291  31.951  1.00  0.00     0.020 A 
ATOM     77  C   UNL A   1      36.210  33.057  31.041  1.00  0.00     0.054 A 
BRANCH  77  78
ATOM     78  S   UNL A   1      34.558  33.666  31.478  1.00  0.00     0.124 S 
ATOM     79  O   UNL A   1      34.861  34.956  32.089  1.00  0.00    -0.237 OA
ATOM     80  O   UNL A   1      33.888  33.721  30.181  1.00  0.00    -0.237 OA
ATOM     81  O   UNL A   1      34.048  32.644  32.390  1.00  0.00    -0.744 OA
ENDBRANCH  77  78
ENDBRANCH  49  72
BRANCH  61  82
ATOM     82  C   UNL A   1      45.097  34.949  30.688  1.00  0.00    -0.014 A 
ATOM     83  C   UNL A   1      45.522  35.173  32.010  1.00  0.00     0.010 A 
ATOM     84  C   UNL A   1      45.187  35.996  29.753  1.00  0.00     0.010 A 
ATOM     85  C   UNL A   1      45.999  36.429  32.395  1.00  0.00     0.020 A 
ATOM     86  C   UNL A   1      45.688  37.246  30.128  1.00  0.00     0.020 A 
ATOM     87  C   UNL A   1      46.079  37.457  31.451  1.00  0.00     0.054 A 
BRANCH  87  88
ATOM     88  S   UNL A   1      46.743  39.066  31.964  1.00  0.00     0.124 S 
ATOM     89  O   UNL A   1      45.527  39.818  32.258  1.00  0.00    -0.237 OA
ATOM     90  O   UNL A   1      47.564  38.720  33.122  1.00  0.00    -0.237 OA
ATOM     91  O   UNL A   1      47.490  39.522  30.793  1.00  0.00    -0.744 OA
ENDBRANCH  87  88
ENDBRANCH  61  82
ENDBRANCH  35  36
ENDBRANCH  28  30
ENDBRANCH  27  28
ENDBRANCH  26  27
ENDBRANCH  25  26
ENDBRANCH   1  25
TORSDOF 21
ENDMDL
MODEL 3
REMARK VINA RESULT:      -9.7      5.963     10.603
REMARK SMILES CC(C)c1nc(N(C)C[C@@H]2CC[N@@H+](C)C2)sc1C(=O)OCCOCCOC(=O)c1ccc(-c2c3nc(c(-c4ccc(S(=O)(=O)[O-])cc4)c4ccc([nH]4)c(-c4ccc(S(=O)(=O)[O-])cc4)c4nc(c(-c5ccc(S(=O)(=O)[O-])cc5)c5ccc2[nH]5)C=C4)C=C3)cc1
REMARK SMILES IDX 23 1 22 2 21 3 20 4 18 5 19 6 17 7 4 8 5 9 6 10 16 11 2 12
REMARK SMILES IDX 1 13 3 14 7 15 8 16 9 17 10 18 11 19 15 20 12 21 13 22 14 23
REMARK SMILES IDX 24 25 25 26 26 27 27 28 28 29 29 30 30 31 88 32 31 33 87 34
REMARK SMILES IDX 32 35 33 36 34 37 81 38 35 39 86 40 80 41 82 42 36 43 85 44
REMARK SMILES IDX 79 45 78 46 37 48 67 49 48 50 66 51 49 52 52 53 65 54 83 55
REMARK SMILES IDX 50 56 51 57 64 59 84 60 53 61 38 62 39 63 47 64 40 65 46 66
REMARK SMILES IDX 41 67 42 68 43 69 44 70 45 71 68 72 69 73 77 74 70 75 76 76
REMARK SMILES IDX 71 77 72 78 73 79 74 80 75 81 54 82 55 83 63 84 56 85 62 86
REMARK SMILES IDX 57 87 58 88 59 89 60 90 61 91
REMARK H PARENT 13 24 82 47 52 58
REMARK Flexibility Score: inf
ROOT
ATOM      1  O   UNL A   1      37.585  20.726  24.662  1.00  0.00    -0.374 OA
ENDROOT
BRANCH   1   2
ATOM      2  C   UNL A   1      36.339  21.089  25.266  1.00  0.00     0.202 C 
BRANCH   2   3
ATOM      3  C   UNL A   1      36.159  22.603  25.413  1.00  0.00     0.261 C 
BRANCH   3   4
ATOM      4  O   UNL A   1      35.472  22.875  26.649  1.00  0.00    -0.459 OA
BRANCH   4   5
ATOM      5  C   UNL A   1      34.245  22.318  26.789  1.00  0.00     0.350 C 
ATOM      6  O   UNL A   1      33.975  21.473  27.637  1.00  0.00    -0.245 OA
BRANCH   5   7
ATOM      7  C   UNL A   1      33.292  22.949  25.898  1.00  0.00     0.137 A 
ATOM      8  C   UNL A   1      32.731  22.636  24.663  1.00  0.00     0.071 A 
ATOM      9  N   UNL A   1      31.853  23.621  24.197  1.00  0.00    -0.224 NA
ATOM     10  C   UNL A   1      31.768  24.662  24.991  1.00  0.00     0.186 A 
ATOM     11  S   UNL A   1      32.732  24.500  26.401  1.00  0.00    -0.089 S 
BRANCH   8  12
ATOM     12  C   UNL A   1      32.851  21.389  23.792  1.00  0.00     0.034 C 
ATOM     13  C   UNL A   1      32.322  20.135  24.520  1.00  0.00     0.014 C 
ATOM     14  C   UNL A   1      32.101  21.463  22.459  1.00  0.00     0.014 C 
ENDBRANCH   8  12
BRANCH  10  15
ATOM     15  N   UNL A   1      30.987  25.750  24.733  1.00  0.00    -0.351 N 
ATOM     16  C   UNL A   1      30.322  25.941  23.454  1.00  0.00     0.146 C 
BRANCH  15  17
ATOM     17  C   UNL A   1      31.066  26.917  25.616  1.00  0.00     0.128 C 
BRANCH  17  18
ATOM     18  C   UNL A   1      32.019  28.014  25.124  1.00  0.00     0.069 C 
ATOM     19  C   UNL A   1      33.262  28.197  26.008  1.00  0.00     0.072 C 
ATOM     20  C   UNL A   1      31.329  29.383  25.152  1.00  0.00     0.267 C 
ATOM     21  C   UNL A   1      33.259  29.666  26.394  1.00  0.00     0.262 C 
ATOM     22  N   UNL A   1      31.832  29.988  26.389  1.00  0.00    -0.337 N 
ATOM     23  C   UNL A   1      31.591  31.423  26.446  1.00  0.00     0.332 C 
ATOM     24  H   UNL A   1      31.352  29.627  27.213  1.00  0.00     0.347 HD
ENDBRANCH  17  18
ENDBRANCH  15  17
ENDBRANCH  10  15
ENDBRANCH   5   7
ENDBRANCH   4   5
ENDBRANCH   3   4
ENDBRANCH   2   3
ENDBRANCH   1   2
BRANCH   1  25
ATOM     25  C   UNL A   1      38.760  21.080  25.397  1.00  0.00     0.202 C 
BRANCH  25  26
ATOM     26  C   UNL A   1      39.540  19.886  25.958  1.00  0.00     0.261 C 
BRANCH  26  27
ATOM     27  O   UNL A   1      40.911  19.917  25.519  1.00  0.00    -0.460 OA
BRANCH  27  28
ATOM     28  C   UNL A   1      41.835  19.799  26.502  1.00  0.00     0.338 C 
ATOM     29  O   UNL A   1      42.121  18.788  27.122  1.00  0.00    -0.246 OA
BRANCH  28  30
ATOM     30  C   UNL A   1      42.609  21.055  26.611  1.00  0.00     0.060 A 
ATOM     31  C   UNL A   1      42.860  21.546  27.898  1.00  0.00     0.016 A 
ATOM     32  C   UNL A   1      43.060  21.758  25.490  1.00  0.00     0.016 A 
ATOM     33  C   UNL A   1      43.515  22.764  28.068  1.00  0.00     0.010 A 
ATOM     34  C   UNL A   1      43.718  22.981  25.662  1.00  0.00     0.010 A 
ATOM     35  C   UNL A   1      43.917  23.507  26.951  1.00  0.00    -0.014 A 
BRANCH  35  36
ATOM     36  C   UNL A   1      44.422  24.891  27.136  1.00  0.00     0.031 A 
ATOM     37  C   UNL A   1      43.471  25.959  27.611  1.00  0.00     0.074 A 
ATOM     38  C   UNL A   1      45.716  25.189  26.923  1.00  0.00     0.049 A 
ATOM     39  N   UNL A   1      43.700  27.225  27.844  1.00  0.00    -0.248 NA
ATOM     40  C   UNL A   1      42.080  25.543  27.857  1.00  0.00     0.031 C 
ATOM     41  C   UNL A   1      46.746  24.239  26.500  1.00  0.00     0.029 A 
ATOM     42  N   UNL A   1      46.387  26.382  27.037  1.00  0.00    -0.354 N 
ATOM     43  C   UNL A   1      42.485  27.760  28.255  1.00  0.00     0.074 A 
ATOM     44  C   UNL A   1      41.515  26.687  28.214  1.00  0.00     0.031 C 
ATOM     45  C   UNL A   1      47.919  24.888  26.390  1.00  0.00     0.029 A 
ATOM     46  C   UNL A   1      47.718  26.301  26.706  1.00  0.00     0.049 A 
ATOM     47  H   UNL A   1      45.954  27.216  27.330  1.00  0.00     0.167 HD
ATOM     48  C   UNL A   1      42.202  29.027  28.640  1.00  0.00     0.031 A 
ATOM     49  C   UNL A   1      48.665  27.260  26.650  1.00  0.00     0.031 A 
ATOM     50  C   UNL A   1      43.163  30.096  28.677  1.00  0.00     0.049 A 
ATOM     51  C   UNL A   1      48.308  28.677  27.017  1.00  0.00     0.074 A 
ATOM     52  C   UNL A   1      42.973  31.408  29.077  1.00  0.00     0.029 A 
ATOM     53  N   UNL A   1      44.490  29.982  28.295  1.00  0.00    -0.354 N 
ATOM     54  N   UNL A   1      47.161  29.157  27.436  1.00  0.00    -0.248 NA
ATOM     55  C   UNL A   1      49.378  29.680  26.911  1.00  0.00     0.031 C 
ATOM     56  C   UNL A   1      44.173  32.101  28.885  1.00  0.00     0.029 A 
ATOM     57  C   UNL A   1      45.125  31.206  28.422  1.00  0.00     0.049 A 
ATOM     58  H   UNL A   1      44.919  29.154  27.981  1.00  0.00     0.167 HD
ATOM     59  C   UNL A   1      47.380  30.511  27.672  1.00  0.00     0.074 A 
ATOM     60  C   UNL A   1      48.771  30.771  27.360  1.00  0.00     0.031 C 
ATOM     61  C   UNL A   1      46.510  31.453  28.111  1.00  0.00     0.031 A 
BRANCH  48  62
ATOM     62  C   UNL A   1      40.780  29.337  29.023  1.00  0.00    -0.014 A 
ATOM     63  C   UNL A   1      40.407  29.499  30.370  1.00  0.00     0.010 A 
ATOM     64  C   UNL A   1      39.813  29.521  28.018  1.00  0.00     0.010 A 
ATOM     65  C   UNL A   1      39.086  29.808  30.705  1.00  0.00     0.020 A 
ATOM     66  C   UNL A   1      38.497  29.854  28.348  1.00  0.00     0.020 A 
ATOM     67  C   UNL A   1      38.138  29.981  29.691  1.00  0.00     0.054 A 
BRANCH  67  68
ATOM     68  S   UNL A   1      36.438  30.412  30.152  1.00  0.00     0.124 S 
ATOM     69  O   UNL A   1      35.729  30.227  28.888  1.00  0.00    -0.237 OA
ATOM     70  O   UNL A   1      36.131  29.435  31.194  1.00  0.00    -0.237 OA
ATOM     71  O   UNL A   1      36.542  31.795  30.610  1.00  0.00    -0.744 OA
ENDBRANCH  67  68
ENDBRANCH  48  62
BRANCH  49  72
ATOM     72  C   UNL A   1      50.045  26.920  26.210  1.00  0.00    -0.014 A 
ATOM     73  C   UNL A   1      51.037  26.588  27.148  1.00  0.00     0.010 A 
ATOM     74  C   UNL A   1      50.378  26.944  24.843  1.00  0.00     0.010 A 
ATOM     75  C   UNL A   1      52.343  26.307  26.731  1.00  0.00     0.020 A 
ATOM     76  C   UNL A   1      51.675  26.637  24.419  1.00  0.00     0.020 A 
ATOM     77  C   UNL A   1      52.652  26.333  25.368  1.00  0.00     0.054 A 
BRANCH  77  78
ATOM     78  S   UNL A   1      54.339  25.925  24.843  1.00  0.00     0.124 S 
ATOM     79  O   UNL A   1      55.145  26.616  25.845  1.00  0.00    -0.237 OA
ATOM     80  O   UNL A   1      54.349  24.466  24.918  1.00  0.00    -0.237 OA
ATOM     81  O   UNL A   1      54.417  26.471  23.490  1.00  0.00    -0.744 OA
ENDBRANCH  77  78
ENDBRANCH  49  72
BRANCH  61  82
ATOM     82  C   UNL A   1      47.037  32.848  28.320  1.00  0.00    -0.014 A 
ATOM     83  C   UNL A   1      46.949  33.821  27.308  1.00  0.00     0.010 A 
ATOM     84  C   UNL A   1      47.576  33.206  29.569  1.00  0.00     0.010 A 
ATOM     85  C   UNL A   1      47.418  35.119  27.533  1.00  0.00     0.020 A 
ATOM     86  C   UNL A   1      48.022  34.509  29.807  1.00  0.00     0.020 A 
ATOM     87  C   UNL A   1      47.952  35.454  28.781  1.00  0.00     0.054 A 
BRANCH  87  88
ATOM     88  S   UNL A   1      48.515  37.155  29.064  1.00  0.00     0.124 S 
ATOM     89  O   UNL A   1      49.435  36.990  30.186  1.00  0.00    -0.237 OA
ATOM     90  O   UNL A   1      49.136  37.504  27.788  1.00  0.00    -0.237 OA
ATOM     91  O   UNL A   1      47.284  37.882  29.369  1.00  0.00    -0.744 OA
ENDBRANCH  87  88
ENDBRANCH  61  82
ENDBRANCH  35  36
ENDBRANCH  28  30
ENDBRANCH  27  28
ENDBRANCH  26  27
ENDBRANCH  25  26
ENDBRANCH   1  25
TORSDOF 21
ENDMDL
