MODEL 1
REMARK VINA RESULT:     -10.2      0.000      0.000
REMARK SMILES C[C@H]1CCCN1c1cccc(OCC(=O)OCCOCCOC(=O)c2ccc(-c3c4nc(c(-c5ccc(S(=O)(=O)[O-])cc5)c5ccc([nH]5)c(-c5ccc(S(=O)(=O)[O-])cc5)c5nc(c(-c6ccc(S(=O)(=O)[O-])cc6)c6ccc3[nH]6)C=C5)C=C4)cc2)c1
REMARK SMILES IDX 19 1 18 2 17 3 16 4 14 5 15 6 13 7 12 8 11 9 7 10 8 11 85 12
REMARK SMILES IDX 9 13 10 14 6 15 1 16 2 17 3 18 4 19 5 20 20 21 21 22 22 23
REMARK SMILES IDX 23 24 24 25 25 26 26 27 84 28 27 29 83 30 28 31 29 32 30 33
REMARK SMILES IDX 77 34 31 35 82 36 76 37 78 38 32 39 81 40 75 41 74 42 33 44
REMARK SMILES IDX 63 45 44 46 62 47 45 48 48 49 61 50 79 51 46 52 47 53 60 55
REMARK SMILES IDX 80 56 49 57 34 58 35 59 43 60 36 61 42 62 37 63 38 64 39 65
REMARK SMILES IDX 40 66 41 67 64 68 65 69 73 70 66 71 72 72 67 73 68 74 69 75
REMARK SMILES IDX 70 76 71 77 50 78 51 79 59 80 52 81 58 82 53 83 54 84 55 85
REMARK SMILES IDX 56 86 57 87
REMARK H PARENT 78 43 48 54
REMARK Flexibility Score: inf
ROOT
ATOM      1  O   UNL A   1      33.632  30.275  26.196  1.00  0.00    -0.374 OA
ENDROOT
BRANCH   1   2
ATOM      2  C   UNL A   1      33.769  28.947  25.694  1.00  0.00     0.202 C 
BRANCH   2   3
ATOM      3  C   UNL A   1      33.122  28.622  24.335  1.00  0.00     0.261 C 
BRANCH   3   4
ATOM      4  O   UNL A   1      33.261  27.235  23.943  1.00  0.00    -0.461 OA
BRANCH   4   5
ATOM      5  C   UNL A   1      33.039  26.961  22.623  1.00  0.00     0.344 C 
ATOM      6  O   UNL A   1      33.863  27.128  21.729  1.00  0.00    -0.248 OA
BRANCH   5   7
ATOM      7  C   UNL A   1      31.632  26.410  22.332  1.00  0.00     0.351 C 
BRANCH   7   8
ATOM      8  O   UNL A   1      30.661  26.259  23.347  1.00  0.00    -0.482 OA
BRANCH   8   9
ATOM      9  C   UNL A   1      29.616  27.132  23.506  1.00  0.00     0.122 A 
ATOM     10  C   UNL A   1      28.355  29.217  23.138  1.00  0.00     0.041 A 
ATOM     11  C   UNL A   1      27.187  28.514  23.482  1.00  0.00     0.026 A 
ATOM     12  C   UNL A   1      29.582  28.512  23.210  1.00  0.00     0.072 A 
ATOM     13  C   UNL A   1      27.216  27.166  23.845  1.00  0.00     0.006 A 
ATOM     14  C   UNL A   1      28.425  26.480  23.851  1.00  0.00     0.046 A 
BRANCH  10  15
ATOM     15  N   UNL A   1      28.242  30.532  22.741  1.00  0.00    -0.369 N 
ATOM     16  C   UNL A   1      27.807  30.996  20.315  1.00  0.00     0.031 C 
ATOM     17  C   UNL A   1      28.733  31.193  21.518  1.00  0.00     0.079 C 
ATOM     18  C   UNL A   1      28.699  32.697  21.855  1.00  0.00     0.026 C 
ATOM     19  C   UNL A   1      28.521  32.752  23.360  1.00  0.00     0.023 C 
ATOM     20  C   UNL A   1      27.691  31.512  23.667  1.00  0.00     0.117 C 
ENDBRANCH  10  15
ENDBRANCH   8   9
ENDBRANCH   7   8
ENDBRANCH   5   7
ENDBRANCH   4   5
ENDBRANCH   3   4
ENDBRANCH   2   3
ENDBRANCH   1   2
BRANCH   1  21
ATOM     21  C   UNL A   1      34.101  30.502  27.512  1.00  0.00     0.202 C 
BRANCH  21  22
ATOM     22  C   UNL A   1      35.130  29.568  28.142  1.00  0.00     0.261 C 
BRANCH  22  23
ATOM     23  O   UNL A   1      36.276  30.225  28.597  1.00  0.00    -0.460 OA
BRANCH  23  24
ATOM     24  C   UNL A   1      36.789  29.666  29.707  1.00  0.00     0.338 C 
ATOM     25  O   UNL A   1      36.242  29.316  30.735  1.00  0.00    -0.246 OA
BRANCH  24  26
ATOM     26  C   UNL A   1      38.169  29.449  29.334  1.00  0.00     0.060 A 
ATOM     27  C   UNL A   1      38.485  29.513  27.981  1.00  0.00     0.016 A 
ATOM     28  C   UNL A   1      39.131  29.314  30.345  1.00  0.00     0.016 A 
ATOM     29  C   UNL A   1      39.806  29.369  27.620  1.00  0.00     0.010 A 
ATOM     30  C   UNL A   1      40.453  29.198  29.983  1.00  0.00     0.010 A 
ATOM     31  C   UNL A   1      40.771  29.172  28.619  1.00  0.00    -0.014 A 
BRANCH  31  32
ATOM     32  C   UNL A   1      42.109  28.743  28.221  1.00  0.00     0.031 A 
ATOM     33  C   UNL A   1      43.188  29.779  28.197  1.00  0.00     0.074 A 
ATOM     34  C   UNL A   1      42.318  27.449  27.940  1.00  0.00     0.049 A 
ATOM     35  N   UNL A   1      44.449  29.638  27.903  1.00  0.00    -0.248 NA
ATOM     36  C   UNL A   1      42.796  31.159  28.544  1.00  0.00     0.031 C 
ATOM     37  C   UNL A   1      41.295  26.401  27.971  1.00  0.00     0.029 A 
ATOM     38  N   UNL A   1      43.463  26.802  27.586  1.00  0.00    -0.354 N 
ATOM     39  C   UNL A   1      44.998  30.908  28.023  1.00  0.00     0.074 A 
ATOM     40  C   UNL A   1      43.931  31.816  28.370  1.00  0.00     0.031 C 
ATOM     41  C   UNL A   1      41.871  25.229  27.660  1.00  0.00     0.029 A 
ATOM     42  C   UNL A   1      43.283  25.459  27.375  1.00  0.00     0.049 A 
ATOM     43  H   UNL A   1      44.333  27.252  27.492  1.00  0.00     0.167 HD
ATOM     44  C   UNL A   1      46.289  31.268  27.870  1.00  0.00     0.031 A 
ATOM     45  C   UNL A   1      44.173  24.535  26.979  1.00  0.00     0.031 A 
ATOM     46  C   UNL A   1      47.319  30.333  27.513  1.00  0.00     0.049 A 
ATOM     47  C   UNL A   1      45.594  24.976  26.761  1.00  0.00     0.074 A 
ATOM     48  C   UNL A   1      48.669  30.564  27.336  1.00  0.00     0.029 A 
ATOM     49  N   UNL A   1      47.102  28.982  27.272  1.00  0.00    -0.354 N 
ATOM     50  N   UNL A   1      46.117  26.172  26.909  1.00  0.00    -0.248 NA
ATOM     51  C   UNL A   1      46.545  23.944  26.336  1.00  0.00     0.031 C 
ATOM     52  C   UNL A   1      49.258  29.363  26.926  1.00  0.00     0.029 A 
ATOM     53  C   UNL A   1      48.290  28.369  26.921  1.00  0.00     0.049 A 
ATOM     54  H   UNL A   1      46.231  28.528  27.342  1.00  0.00     0.167 HD
ATOM     55  C   UNL A   1      47.469  26.032  26.621  1.00  0.00     0.074 A 
ATOM     56  C   UNL A   1      47.680  24.631  26.310  1.00  0.00     0.031 C 
ATOM     57  C   UNL A   1      48.450  26.968  26.615  1.00  0.00     0.031 A 
BRANCH  44  58
ATOM     58  C   UNL A   1      46.636  32.720  28.051  1.00  0.00    -0.014 A 
ATOM     59  C   UNL A   1      47.014  33.233  29.307  1.00  0.00     0.010 A 
ATOM     60  C   UNL A   1      46.603  33.583  26.942  1.00  0.00     0.010 A 
ATOM     61  C   UNL A   1      47.327  34.587  29.452  1.00  0.00     0.020 A 
ATOM     62  C   UNL A   1      46.945  34.931  27.077  1.00  0.00     0.020 A 
ATOM     63  C   UNL A   1      47.294  35.427  28.335  1.00  0.00     0.054 A 
BRANCH  63  64
ATOM     64  S   UNL A   1      47.749  37.170  28.545  1.00  0.00     0.124 S 
ATOM     65  O   UNL A   1      47.000  37.536  29.744  1.00  0.00    -0.237 OA
ATOM     66  O   UNL A   1      49.199  37.102  28.707  1.00  0.00    -0.237 OA
ATOM     67  O   UNL A   1      47.291  37.799  27.309  1.00  0.00    -0.744 OA
ENDBRANCH  63  64
ENDBRANCH  44  58
BRANCH  45  68
ATOM     68  C   UNL A   1      43.735  23.132  26.764  1.00  0.00    -0.014 A 
ATOM     69  C   UNL A   1      44.095  22.435  25.599  1.00  0.00     0.010 A 
ATOM     70  C   UNL A   1      42.970  22.475  27.747  1.00  0.00     0.010 A 
ATOM     71  C   UNL A   1      43.679  21.114  25.409  1.00  0.00     0.020 A 
ATOM     72  C   UNL A   1      42.579  21.146  27.575  1.00  0.00     0.020 A 
ATOM     73  C   UNL A   1      42.924  20.478  26.400  1.00  0.00     0.054 A 
BRANCH  73  74
ATOM     74  S   UNL A   1      42.425  18.754  26.146  1.00  0.00     0.124 S 
ATOM     75  O   UNL A   1      42.702  18.162  27.450  1.00  0.00    -0.237 OA
ATOM     76  O   UNL A   1      41.013  18.884  25.795  1.00  0.00    -0.237 OA
ATOM     77  O   UNL A   1      43.289  18.305  25.057  1.00  0.00    -0.744 OA
ENDBRANCH  73  74
ENDBRANCH  45  68
BRANCH  57  78
ATOM     78  C   UNL A   1      49.841  26.495  26.295  1.00  0.00    -0.014 A 
ATOM     79  C   UNL A   1      50.374  26.620  25.001  1.00  0.00     0.010 A 
ATOM     80  C   UNL A   1      50.643  25.974  27.326  1.00  0.00     0.010 A 
ATOM     81  C   UNL A   1      51.677  26.195  24.736  1.00  0.00     0.020 A 
ATOM     82  C   UNL A   1      51.958  25.583  27.073  1.00  0.00     0.020 A 
ATOM     83  C   UNL A   1      52.461  25.682  25.774  1.00  0.00     0.054 A 
BRANCH  83  84
ATOM     84  S   UNL A   1      54.163  25.180  25.411  1.00  0.00     0.124 S 
ATOM     85  O   UNL A   1      54.816  25.366  26.705  1.00  0.00    -0.237 OA
ATOM     86  O   UNL A   1      54.002  23.794  24.981  1.00  0.00    -0.237 OA
ATOM     87  O   UNL A   1      54.583  26.108  24.363  1.00  0.00    -0.744 OA
ENDBRANCH  83  84
ENDBRANCH  57  78
ENDBRANCH  31  32
ENDBRANCH  24  26
ENDBRANCH  23  24
ENDBRANCH  22  23
ENDBRANCH  21  22
ENDBRANCH   1  21
TORSDOF 20
ENDMDL
MODEL 2
REMARK VINA RESULT:     -10.1      2.636      3.944
REMARK SMILES C[C@H]1CCCN1c1cccc(OCC(=O)OCCOCCOC(=O)c2ccc(-c3c4nc(c(-c5ccc(S(=O)(=O)[O-])cc5)c5ccc([nH]5)c(-c5ccc(S(=O)(=O)[O-])cc5)c5nc(c(-c6ccc(S(=O)(=O)[O-])cc6)c6ccc3[nH]6)C=C5)C=C4)cc2)c1
REMARK SMILES IDX 19 1 18 2 17 3 16 4 14 5 15 6 13 7 12 8 11 9 7 10 8 11 85 12
REMARK SMILES IDX 9 13 10 14 6 15 1 16 2 17 3 18 4 19 5 20 20 21 21 22 22 23
REMARK SMILES IDX 23 24 24 25 25 26 26 27 84 28 27 29 83 30 28 31 29 32 30 33
REMARK SMILES IDX 77 34 31 35 82 36 76 37 78 38 32 39 81 40 75 41 74 42 33 44
REMARK SMILES IDX 63 45 44 46 62 47 45 48 48 49 61 50 79 51 46 52 47 53 60 55
REMARK SMILES IDX 80 56 49 57 34 58 35 59 43 60 36 61 42 62 37 63 38 64 39 65
REMARK SMILES IDX 40 66 41 67 64 68 65 69 73 70 66 71 72 72 67 73 68 74 69 75
REMARK SMILES IDX 70 76 71 77 50 78 51 79 59 80 52 81 58 82 53 83 54 84 55 85
REMARK SMILES IDX 56 86 57 87
REMARK H PARENT 78 43 48 54
REMARK Flexibility Score: inf
ROOT
ATOM      1  O   UNL A   1      34.088  34.167  30.875  1.00  0.00    -0.374 OA
ENDROOT
BRANCH   1   2
ATOM      2  C   UNL A   1      33.357  34.898  29.892  1.00  0.00     0.202 C 
BRANCH   2   3
ATOM      3  C   UNL A   1      33.598  34.550  28.411  1.00  0.00     0.261 C 
BRANCH   3   4
ATOM      4  O   UNL A   1      33.325  33.164  28.089  1.00  0.00    -0.461 OA
BRANCH   4   5
ATOM      5  C   UNL A   1      34.409  32.400  27.765  1.00  0.00     0.344 C 
ATOM      6  O   UNL A   1      35.548  32.835  27.616  1.00  0.00    -0.248 OA
BRANCH   5   7
ATOM      7  C   UNL A   1      34.085  30.906  27.591  1.00  0.00     0.351 C 
BRANCH   7   8
ATOM      8  O   UNL A   1      33.734  30.355  26.338  1.00  0.00    -0.482 OA
BRANCH   8   9
ATOM      9  C   UNL A   1      33.014  29.195  26.218  1.00  0.00     0.122 A 
ATOM     10  C   UNL A   1      32.606  26.866  25.522  1.00  0.00     0.041 A 
ATOM     11  C   UNL A   1      31.669  26.769  26.567  1.00  0.00     0.026 A 
ATOM     12  C   UNL A   1      33.235  28.121  25.329  1.00  0.00     0.072 A 
ATOM     13  C   UNL A   1      31.389  27.846  27.410  1.00  0.00     0.006 A 
ATOM     14  C   UNL A   1      32.064  29.050  27.237  1.00  0.00     0.046 A 
BRANCH  10  15
ATOM     15  N   UNL A   1      32.867  25.746  24.763  1.00  0.00    -0.369 N 
ATOM     16  C   UNL A   1      34.947  24.440  25.269  1.00  0.00     0.031 C 
ATOM     17  C   UNL A   1      34.148  25.241  24.238  1.00  0.00     0.079 C 
ATOM     18  C   UNL A   1      33.744  24.248  23.130  1.00  0.00     0.026 C 
ATOM     19  C   UNL A   1      32.275  24.527  22.878  1.00  0.00     0.023 C 
ATOM     20  C   UNL A   1      31.755  24.962  24.242  1.00  0.00     0.117 C 
ENDBRANCH  10  15
ENDBRANCH   8   9
ENDBRANCH   7   8
ENDBRANCH   5   7
ENDBRANCH   4   5
ENDBRANCH   3   4
ENDBRANCH   2   3
ENDBRANCH   1   2
BRANCH   1  21
ATOM     21  C   UNL A   1      35.499  34.214  30.774  1.00  0.00     0.202 C 
BRANCH  21  22
ATOM     22  C   UNL A   1      36.363  33.161  31.462  1.00  0.00     0.261 C 
BRANCH  22  23
ATOM     23  O   UNL A   1      36.655  32.061  30.652  1.00  0.00    -0.460 OA
BRANCH  23  24
ATOM     24  C   UNL A   1      36.890  30.943  31.359  1.00  0.00     0.338 C 
ATOM     25  O   UNL A   1      36.231  30.413  32.232  1.00  0.00    -0.246 OA
BRANCH  24  26
ATOM     26  C   UNL A   1      38.085  30.426  30.731  1.00  0.00     0.060 A 
ATOM     27  C   UNL A   1      39.005  29.772  31.545  1.00  0.00     0.016 A 
ATOM     28  C   UNL A   1      38.201  30.492  29.335  1.00  0.00     0.016 A 
ATOM     29  C   UNL A   1      40.118  29.223  30.948  1.00  0.00     0.010 A 
ATOM     30  C   UNL A   1      39.300  29.918  28.738  1.00  0.00     0.010 A 
ATOM     31  C   UNL A   1      40.275  29.336  29.558  1.00  0.00    -0.014 A 
BRANCH  31  32
ATOM     32  C   UNL A   1      41.573  29.005  28.975  1.00  0.00     0.031 A 
ATOM     33  C   UNL A   1      42.592  30.097  28.895  1.00  0.00     0.074 A 
ATOM     34  C   UNL A   1      41.805  27.745  28.584  1.00  0.00     0.049 A 
ATOM     35  N   UNL A   1      43.813  30.043  28.444  1.00  0.00    -0.248 NA
ATOM     36  C   UNL A   1      42.182  31.430  29.379  1.00  0.00     0.031 C 
ATOM     37  C   UNL A   1      40.843  26.643  28.664  1.00  0.00     0.029 A 
ATOM     38  N   UNL A   1      42.927  27.184  28.052  1.00  0.00    -0.354 N 
ATOM     39  C   UNL A   1      44.313  31.331  28.585  1.00  0.00     0.074 A 
ATOM     40  C   UNL A   1      43.257  32.156  29.117  1.00  0.00     0.031 C 
ATOM     41  C   UNL A   1      41.429  25.525  28.208  1.00  0.00     0.029 A 
ATOM     42  C   UNL A   1      42.784  25.849  27.773  1.00  0.00     0.049 A 
ATOM     43  H   UNL A   1      43.757  27.685  27.887  1.00  0.00     0.167 HD
ATOM     44  C   UNL A   1      45.559  31.768  28.304  1.00  0.00     0.031 A 
ATOM     45  C   UNL A   1      43.661  25.000  27.212  1.00  0.00     0.031 A 
ATOM     46  C   UNL A   1      46.578  30.915  27.764  1.00  0.00     0.049 A 
ATOM     47  C   UNL A   1      45.022  25.529  26.857  1.00  0.00     0.074 A 
ATOM     48  C   UNL A   1      47.885  31.228  27.444  1.00  0.00     0.029 A 
ATOM     49  N   UNL A   1      46.396  29.571  27.459  1.00  0.00    -0.354 N 
ATOM     50  N   UNL A   1      45.504  26.740  27.023  1.00  0.00    -0.248 NA
ATOM     51  C   UNL A   1      45.961  24.579  26.253  1.00  0.00     0.031 C 
ATOM     52  C   UNL A   1      48.474  30.089  26.886  1.00  0.00     0.029 A 
ATOM     53  C   UNL A   1      47.559  29.047  26.928  1.00  0.00     0.049 A 
ATOM     54  H   UNL A   1      45.562  29.067  27.600  1.00  0.00     0.167 HD
ATOM     55  C   UNL A   1      46.816  26.692  26.569  1.00  0.00     0.074 A 
ATOM     56  C   UNL A   1      47.051  25.326  26.139  1.00  0.00     0.031 C 
ATOM     57  C   UNL A   1      47.745  27.678  26.510  1.00  0.00     0.031 A 
BRANCH  44  58
ATOM     58  C   UNL A   1      45.858  33.223  28.542  1.00  0.00    -0.014 A 
ATOM     59  C   UNL A   1      45.643  34.190  27.542  1.00  0.00     0.010 A 
ATOM     60  C   UNL A   1      46.343  33.633  29.796  1.00  0.00     0.010 A 
ATOM     61  C   UNL A   1      45.933  35.535  27.785  1.00  0.00     0.020 A 
ATOM     62  C   UNL A   1      46.606  34.981  30.053  1.00  0.00     0.020 A 
ATOM     63  C   UNL A   1      46.409  35.923  29.040  1.00  0.00     0.054 A 
BRANCH  63  64
ATOM     64  S   UNL A   1      46.734  37.681  29.342  1.00  0.00     0.124 S 
ATOM     65  O   UNL A   1      47.818  37.626  30.319  1.00  0.00    -0.237 OA
ATOM     66  O   UNL A   1      47.107  38.167  28.016  1.00  0.00    -0.237 OA
ATOM     67  O   UNL A   1      45.462  38.187  29.852  1.00  0.00    -0.744 OA
ENDBRANCH  63  64
ENDBRANCH  44  58
BRANCH  45  68
ATOM     68  C   UNL A   1      43.265  23.592  26.955  1.00  0.00    -0.014 A 
ATOM     69  C   UNL A   1      43.072  22.693  28.016  1.00  0.00     0.010 A 
ATOM     70  C   UNL A   1      43.051  23.151  25.634  1.00  0.00     0.010 A 
ATOM     71  C   UNL A   1      42.697  21.370  27.761  1.00  0.00     0.020 A 
ATOM     72  C   UNL A   1      42.645  21.840  25.378  1.00  0.00     0.020 A 
ATOM     73  C   UNL A   1      42.485  20.953  26.443  1.00  0.00     0.054 A 
BRANCH  73  74
ATOM     74  S   UNL A   1      41.965  19.242  26.141  1.00  0.00     0.124 S 
ATOM     75  O   UNL A   1      42.800  18.867  25.006  1.00  0.00    -0.237 OA
ATOM     76  O   UNL A   1      42.285  18.589  27.408  1.00  0.00    -0.237 OA
ATOM     77  O   UNL A   1      40.537  19.364  25.857  1.00  0.00    -0.744 OA
ENDBRANCH  73  74
ENDBRANCH  45  68
BRANCH  57  78
ATOM     78  C   UNL A   1      49.107  27.301  25.995  1.00  0.00    -0.014 A 
ATOM     79  C   UNL A   1      50.102  26.810  26.857  1.00  0.00     0.010 A 
ATOM     80  C   UNL A   1      49.366  27.385  24.615  1.00  0.00     0.010 A 
ATOM     81  C   UNL A   1      51.350  26.444  26.350  1.00  0.00     0.020 A 
ATOM     82  C   UNL A   1      50.599  26.985  24.100  1.00  0.00     0.020 A 
ATOM     83  C   UNL A   1      51.589  26.532  24.975  1.00  0.00     0.054 A 
BRANCH  83  84
ATOM     84  S   UNL A   1      53.202  26.007  24.339  1.00  0.00     0.124 S 
ATOM     85  O   UNL A   1      54.101  26.980  24.953  1.00  0.00    -0.237 OA
ATOM     86  O   UNL A   1      53.315  24.641  24.843  1.00  0.00    -0.237 OA
ATOM     87  O   UNL A   1      53.057  26.120  22.889  1.00  0.00    -0.744 OA
ENDBRANCH  83  84
ENDBRANCH  57  78
ENDBRANCH  31  32
ENDBRANCH  24  26
ENDBRANCH  23  24
ENDBRANCH  22  23
ENDBRANCH  21  22
ENDBRANCH   1  21
TORSDOF 20
ENDMDL
MODEL 3
REMARK VINA RESULT:     -10.0      7.302     12.791
REMARK SMILES C[C@H]1CCCN1c1cccc(OCC(=O)OCCOCCOC(=O)c2ccc(-c3c4nc(c(-c5ccc(S(=O)(=O)[O-])cc5)c5ccc([nH]5)c(-c5ccc(S(=O)(=O)[O-])cc5)c5nc(c(-c6ccc(S(=O)(=O)[O-])cc6)c6ccc3[nH]6)C=C5)C=C4)cc2)c1
REMARK SMILES IDX 19 1 18 2 17 3 16 4 14 5 15 6 13 7 12 8 11 9 7 10 8 11 85 12
REMARK SMILES IDX 9 13 10 14 6 15 1 16 2 17 3 18 4 19 5 20 20 21 21 22 22 23
REMARK SMILES IDX 23 24 24 25 25 26 26 27 84 28 27 29 83 30 28 31 29 32 30 33
REMARK SMILES IDX 77 34 31 35 82 36 76 37 78 38 32 39 81 40 75 41 74 42 33 44
REMARK SMILES IDX 63 45 44 46 62 47 45 48 48 49 61 50 79 51 46 52 47 53 60 55
REMARK SMILES IDX 80 56 49 57 34 58 35 59 43 60 36 61 42 62 37 63 38 64 39 65
REMARK SMILES IDX 40 66 41 67 64 68 65 69 73 70 66 71 72 72 67 73 68 74 69 75
REMARK SMILES IDX 70 76 71 77 50 78 51 79 59 80 52 81 58 82 53 83 54 84 55 85
REMARK SMILES IDX 56 86 57 87
REMARK H PARENT 78 43 48 54
REMARK Flexibility Score: inf
ROOT
ATOM      1  O   UNL A   1      42.345  22.431  25.745  1.00  0.00    -0.374 OA
ENDROOT
BRANCH   1   2
ATOM      2  C   UNL A   1      41.935  21.660  26.874  1.00  0.00     0.202 C 
BRANCH   2   3
ATOM      3  C   UNL A   1      40.468  21.193  26.931  1.00  0.00     0.261 C 
BRANCH   3   4
ATOM      4  O   UNL A   1      39.528  22.172  26.427  1.00  0.00    -0.461 OA
BRANCH   4   5
ATOM      5  C   UNL A   1      38.460  21.676  25.734  1.00  0.00     0.344 C 
ATOM      6  O   UNL A   1      38.415  20.556  25.232  1.00  0.00    -0.248 OA
BRANCH   5   7
ATOM      7  C   UNL A   1      37.281  22.658  25.625  1.00  0.00     0.351 C 
BRANCH   7   8
ATOM      8  O   UNL A   1      35.943  22.216  25.517  1.00  0.00    -0.482 OA
BRANCH   8   9
ATOM      9  C   UNL A   1      34.884  22.949  25.985  1.00  0.00     0.122 A 
ATOM     10  C   UNL A   1      33.108  24.655  25.874  1.00  0.00     0.041 A 
ATOM     11  C   UNL A   1      32.415  23.927  26.858  1.00  0.00     0.026 A 
ATOM     12  C   UNL A   1      34.383  24.171  25.486  1.00  0.00     0.072 A 
ATOM     13  C   UNL A   1      32.933  22.754  27.411  1.00  0.00     0.006 A 
ATOM     14  C   UNL A   1      34.159  22.268  26.971  1.00  0.00     0.046 A 
BRANCH  10  15
ATOM     15  N   UNL A   1      32.511  25.775  25.338  1.00  0.00    -0.369 N 
ATOM     16  C   UNL A   1      31.599  27.493  26.920  1.00  0.00     0.031 C 
ATOM     17  C   UNL A   1      31.312  26.509  25.783  1.00  0.00     0.079 C 
ATOM     18  C   UNL A   1      30.906  27.356  24.562  1.00  0.00     0.026 C 
ATOM     19  C   UNL A   1      31.699  26.776  23.407  1.00  0.00     0.023 C 
ATOM     20  C   UNL A   1      32.987  26.297  24.064  1.00  0.00     0.117 C 
ENDBRANCH  10  15
ENDBRANCH   8   9
ENDBRANCH   7   8
ENDBRANCH   5   7
ENDBRANCH   4   5
ENDBRANCH   3   4
ENDBRANCH   2   3
ENDBRANCH   1   2
BRANCH   1  21
ATOM     21  C   UNL A   1      42.725  23.769  26.001  1.00  0.00     0.202 C 
BRANCH  21  22
ATOM     22  C   UNL A   1      42.168  24.518  27.208  1.00  0.00     0.261 C 
BRANCH  22  23
ATOM     23  O   UNL A   1      41.695  25.797  26.902  1.00  0.00    -0.460 OA
BRANCH  23  24
ATOM     24  C   UNL A   1      40.363  25.906  27.044  1.00  0.00     0.338 C 
ATOM     25  O   UNL A   1      39.461  25.346  26.451  1.00  0.00    -0.246 OA
BRANCH  24  26
ATOM     26  C   UNL A   1      40.245  26.775  28.194  1.00  0.00     0.060 A 
ATOM     27  C   UNL A   1      40.956  27.971  28.169  1.00  0.00     0.016 A 
ATOM     28  C   UNL A   1      39.336  26.440  29.207  1.00  0.00     0.016 A 
ATOM     29  C   UNL A   1      40.804  28.834  29.231  1.00  0.00     0.010 A 
ATOM     30  C   UNL A   1      39.163  27.317  30.253  1.00  0.00     0.010 A 
ATOM     31  C   UNL A   1      39.942  28.481  30.281  1.00  0.00    -0.014 A 
BRANCH  31  32
ATOM     32  C   UNL A   1      39.998  29.256  31.518  1.00  0.00     0.031 A 
ATOM     33  C   UNL A   1      41.123  28.968  32.461  1.00  0.00     0.074 A 
ATOM     34  C   UNL A   1      39.078  30.206  31.730  1.00  0.00     0.049 A 
ATOM     35  N   UNL A   1      41.398  29.535  33.601  1.00  0.00    -0.248 NA
ATOM     36  C   UNL A   1      42.061  27.895  32.075  1.00  0.00     0.031 C 
ATOM     37  C   UNL A   1      37.974  30.533  30.824  1.00  0.00     0.029 A 
ATOM     38  N   UNL A   1      38.937  31.075  32.770  1.00  0.00    -0.354 N 
ATOM     39  C   UNL A   1      42.533  28.887  34.070  1.00  0.00     0.074 A 
ATOM     40  C   UNL A   1      42.871  27.854  33.120  1.00  0.00     0.031 C 
ATOM     41  C   UNL A   1      37.273  31.551  31.348  1.00  0.00     0.029 A 
ATOM     42  C   UNL A   1      37.859  31.911  32.635  1.00  0.00     0.049 A 
ATOM     43  H   UNL A   1      39.549  31.101  33.541  1.00  0.00     0.167 HD
ATOM     44  C   UNL A   1      43.232  29.152  35.193  1.00  0.00     0.031 A 
ATOM     45  C   UNL A   1      37.402  32.851  33.479  1.00  0.00     0.031 A 
ATOM     46  C   UNL A   1      42.853  30.183  36.118  1.00  0.00     0.049 A 
ATOM     47  C   UNL A   1      38.170  33.087  34.749  1.00  0.00     0.074 A 
ATOM     48  C   UNL A   1      43.480  30.564  37.288  1.00  0.00     0.029 A 
ATOM     49  N   UNL A   1      41.735  30.996  35.972  1.00  0.00    -0.354 N 
ATOM     50  N   UNL A   1      39.263  32.495  35.173  1.00  0.00    -0.248 NA
ATOM     51  C   UNL A   1      37.652  34.124  35.648  1.00  0.00     0.031 C 
ATOM     52  C   UNL A   1      42.705  31.565  37.882  1.00  0.00     0.029 A 
ATOM     53  C   UNL A   1      41.637  31.859  37.046  1.00  0.00     0.049 A 
ATOM     54  H   UNL A   1      41.106  30.961  35.216  1.00  0.00     0.167 HD
ATOM     55  C   UNL A   1      39.582  33.107  36.379  1.00  0.00     0.074 A 
ATOM     56  C   UNL A   1      38.574  34.126  36.601  1.00  0.00     0.031 C 
ATOM     57  C   UNL A   1      40.611  32.857  37.227  1.00  0.00     0.031 A 
BRANCH  44  58
ATOM     58  C   UNL A   1      44.435  28.298  35.485  1.00  0.00    -0.014 A 
ATOM     59  C   UNL A   1      44.325  27.101  36.218  1.00  0.00     0.010 A 
ATOM     60  C   UNL A   1      45.695  28.689  35.000  1.00  0.00     0.010 A 
ATOM     61  C   UNL A   1      45.457  26.327  36.482  1.00  0.00     0.020 A 
ATOM     62  C   UNL A   1      46.825  27.902  35.235  1.00  0.00     0.020 A 
ATOM     63  C   UNL A   1      46.700  26.730  35.985  1.00  0.00     0.054 A 
BRANCH  63  64
ATOM     64  S   UNL A   1      48.145  25.682  36.303  1.00  0.00     0.124 S 
ATOM     65  O   UNL A   1      47.933  25.287  37.693  1.00  0.00    -0.237 OA
ATOM     66  O   UNL A   1      47.987  24.615  35.317  1.00  0.00    -0.237 OA
ATOM     67  O   UNL A   1      49.279  26.574  36.076  1.00  0.00    -0.744 OA
ENDBRANCH  63  64
ENDBRANCH  44  58
BRANCH  45  68
ATOM     68  C   UNL A   1      36.170  33.610  33.142  1.00  0.00    -0.014 A 
ATOM     69  C   UNL A   1      34.900  33.046  33.343  1.00  0.00     0.010 A 
ATOM     70  C   UNL A   1      36.267  34.921  32.639  1.00  0.00     0.010 A 
ATOM     71  C   UNL A   1      33.748  33.771  33.025  1.00  0.00     0.020 A 
ATOM     72  C   UNL A   1      35.118  35.660  32.350  1.00  0.00     0.020 A 
ATOM     73  C   UNL A   1      33.865  35.074  32.531  1.00  0.00     0.054 A 
BRANCH  73  74
ATOM     74  S   UNL A   1      32.355  36.006  32.158  1.00  0.00     0.124 S 
ATOM     75  O   UNL A   1      32.446  36.166  30.710  1.00  0.00    -0.237 OA
ATOM     76  O   UNL A   1      31.306  35.107  32.632  1.00  0.00    -0.237 OA
ATOM     77  O   UNL A   1      32.510  37.234  32.935  1.00  0.00    -0.744 OA
ENDBRANCH  73  74
ENDBRANCH  45  68
BRANCH  57  78
ATOM     78  C   UNL A   1      40.711  33.725  38.451  1.00  0.00    -0.014 A 
ATOM     79  C   UNL A   1      41.361  34.971  38.410  1.00  0.00     0.010 A 
ATOM     80  C   UNL A   1      40.089  33.308  39.641  1.00  0.00     0.010 A 
ATOM     81  C   UNL A   1      41.418  35.769  39.554  1.00  0.00     0.020 A 
ATOM     82  C   UNL A   1      40.112  34.119  40.775  1.00  0.00     0.020 A 
ATOM     83  C   UNL A   1      40.792  35.338  40.728  1.00  0.00     0.054 A 
BRANCH  83  84
ATOM     84  S   UNL A   1      40.843  36.414  42.184  1.00  0.00     0.124 S 
ATOM     85  O   UNL A   1      39.474  36.918  42.237  1.00  0.00    -0.237 OA
ATOM     86  O   UNL A   1      41.215  35.489  43.251  1.00  0.00    -0.237 OA
ATOM     87  O   UNL A   1      41.860  37.408  41.847  1.00  0.00    -0.744 OA
ENDBRANCH  83  84
ENDBRANCH  57  78
ENDBRANCH  31  32
ENDBRANCH  24  26
ENDBRANCH  23  24
ENDBRANCH  22  23
ENDBRANCH  21  22
ENDBRANCH   1  21
TORSDOF 20
ENDMDL
