MODEL 1
REMARK VINA RESULT:      -7.5      0.000      0.000
REMARK SMILES CC(C)Cc1ccc([C@H](CF)C(=O)OCCOCCOC(=O)c2ccc(-c3c4nc(c(-c5ccc(S(=O)(=O)[O-])cc5)c5ccc([nH]5)c(-c5ccc(S(=O)(=O)[O-])cc5)c5nc(c(-c6ccc(S(=O)(=O)[O-])cc6)c6ccc3[nH]6)C=C5)C=C4)cc2)cc1
REMARK SMILES IDX 17 1 16 2 15 3 14 4 12 5 13 6 9 7 8 8 5 9 6 10 84 11 7 12
REMARK SMILES IDX 83 13 4 14 2 15 1 16 3 17 10 18 11 19 18 20 19 21 20 22
REMARK SMILES IDX 21 23 22 24 23 25 24 26 82 27 25 28 81 29 26 30 27 31 28 32
REMARK SMILES IDX 75 33 29 34 80 35 74 36 76 37 30 38 79 39 73 40 72 41 31 43
REMARK SMILES IDX 61 44 42 45 60 46 43 47 46 48 59 49 77 50 44 51 45 52 58 54
REMARK SMILES IDX 78 55 47 56 32 57 33 58 41 59 34 60 40 61 35 62 36 63 37 64
REMARK SMILES IDX 38 65 39 66 62 67 63 68 71 69 64 70 70 71 65 72 66 73 67 74
REMARK SMILES IDX 68 75 69 76 48 77 49 78 57 79 50 80 56 81 51 82 52 83 53 84
REMARK SMILES IDX 54 85 55 86
REMARK H PARENT 76 42 46 53
REMARK Flexibility Score: inf
ROOT
ATOM      1  O   UNL A   1      34.507  34.738  31.241  1.00  0.00    -0.374 OA
ENDROOT
BRANCH   1   2
ATOM      2  C   UNL A   1      33.892  35.024  29.986  1.00  0.00     0.202 C 
BRANCH   2   3
ATOM      3  C   UNL A   1      33.710  33.844  29.029  1.00  0.00     0.261 C 
BRANCH   3   4
ATOM      4  O   UNL A   1      34.594  32.753  29.350  1.00  0.00    -0.463 OA
BRANCH   4   5
ATOM      5  C   UNL A   1      35.262  32.195  28.300  1.00  0.00     0.316 C 
ATOM      6  O   UNL A   1      34.728  31.589  27.378  1.00  0.00    -0.251 OA
BRANCH   5   7
ATOM      7  C   UNL A   1      36.765  32.377  28.406  1.00  0.00     0.160 C 
BRANCH   7   8
ATOM      8  C   UNL A   1      37.438  31.188  29.059  1.00  0.00    -0.031 A 
ATOM      9  C   UNL A   1      38.733  28.880  29.996  1.00  0.00    -0.048 A 
ATOM     10  C   UNL A   1      37.344  28.997  30.094  1.00  0.00     0.004 A 
ATOM     11  C   UNL A   1      39.479  29.966  29.525  1.00  0.00     0.004 A 
ATOM     12  C   UNL A   1      36.701  30.148  29.643  1.00  0.00     0.005 A 
ATOM     13  C   UNL A   1      38.837  31.107  29.052  1.00  0.00     0.005 A 
BRANCH   9  14
ATOM     14  C   UNL A   1      39.406  27.561  30.282  1.00  0.00     0.038 C 
BRANCH  14  15
ATOM     15  C   UNL A   1      40.373  27.151  29.148  1.00  0.00    -0.013 C 
ATOM     16  C   UNL A   1      41.834  27.091  29.610  1.00  0.00     0.008 C 
ATOM     17  C   UNL A   1      39.962  25.795  28.576  1.00  0.00     0.008 C 
ENDBRANCH  14  15
ENDBRANCH   9  14
ENDBRANCH   7   8
BRANCH   7  18
ATOM     18  C   UNL A   1      37.182  33.695  29.041  1.00  0.00     0.234 C 
ATOM     19  F   UNL A   1      37.210  33.542  30.398  1.00  0.00    -0.250 F 
ENDBRANCH   7  18
ENDBRANCH   5   7
ENDBRANCH   4   5
ENDBRANCH   3   4
ENDBRANCH   2   3
ENDBRANCH   1   2
BRANCH   1  20
ATOM     20  C   UNL A   1      33.947  35.325  32.412  1.00  0.00     0.202 C 
BRANCH  20  21
ATOM     21  C   UNL A   1      34.714  35.133  33.727  1.00  0.00     0.261 C 
BRANCH  21  22
ATOM     22  O   UNL A   1      34.950  33.751  34.055  1.00  0.00    -0.460 OA
BRANCH  22  23
ATOM     23  C   UNL A   1      35.920  33.563  34.983  1.00  0.00     0.338 C 
ATOM     24  O   UNL A   1      35.847  33.822  36.181  1.00  0.00    -0.246 OA
BRANCH  23  25
ATOM     25  C   UNL A   1      37.078  32.843  34.427  1.00  0.00     0.060 A 
ATOM     26  C   UNL A   1      38.336  33.160  34.954  1.00  0.00     0.016 A 
ATOM     27  C   UNL A   1      36.968  31.993  33.322  1.00  0.00     0.016 A 
ATOM     28  C   UNL A   1      39.491  32.686  34.338  1.00  0.00     0.010 A 
ATOM     29  C   UNL A   1      38.135  31.521  32.701  1.00  0.00     0.010 A 
ATOM     30  C   UNL A   1      39.401  31.902  33.179  1.00  0.00    -0.014 A 
BRANCH  30  31
ATOM     31  C   UNL A   1      40.646  31.626  32.414  1.00  0.00     0.031 A 
ATOM     32  C   UNL A   1      41.157  32.656  31.437  1.00  0.00     0.074 A 
ATOM     33  C   UNL A   1      41.373  30.522  32.667  1.00  0.00     0.049 A 
ATOM     34  N   UNL A   1      42.271  32.663  30.751  1.00  0.00    -0.248 NA
ATOM     35  C   UNL A   1      40.305  33.835  31.210  1.00  0.00     0.031 C 
ATOM     36  C   UNL A   1      41.008  29.467  33.612  1.00  0.00     0.029 A 
ATOM     37  N   UNL A   1      42.583  30.116  32.161  1.00  0.00    -0.354 N 
ATOM     38  C   UNL A   1      42.265  33.850  30.027  1.00  0.00     0.074 A 
ATOM     39  C   UNL A   1      41.015  34.518  30.323  1.00  0.00     0.031 C 
ATOM     40  C   UNL A   1      41.981  28.538  33.626  1.00  0.00     0.029 A 
ATOM     41  C   UNL A   1      43.027  28.924  32.682  1.00  0.00     0.049 A 
ATOM     42  H   UNL A   1      43.085  30.631  31.489  1.00  0.00     0.167 HD
ATOM     43  C   UNL A   1      43.216  34.350  29.202  1.00  0.00     0.031 A 
ATOM     44  C   UNL A   1      44.150  28.224  32.429  1.00  0.00     0.031 A 
ATOM     45  C   UNL A   1      44.454  33.685  28.891  1.00  0.00     0.049 A 
ATOM     46  C   UNL A   1      45.167  28.778  31.465  1.00  0.00     0.074 A 
ATOM     47  C   UNL A   1      45.472  34.107  28.052  1.00  0.00     0.029 A 
ATOM     48  N   UNL A   1      44.845  32.460  29.406  1.00  0.00    -0.354 N 
ATOM     49  N   UNL A   1      45.145  29.908  30.800  1.00  0.00    -0.248 NA
ATOM     50  C   UNL A   1      46.370  27.965  31.234  1.00  0.00     0.031 C 
ATOM     51  C   UNL A   1      46.464  33.119  28.032  1.00  0.00     0.029 A 
ATOM     52  C   UNL A   1      46.083  32.105  28.896  1.00  0.00     0.049 A 
ATOM     53  H   UNL A   1      44.320  31.920  30.041  1.00  0.00     0.167 HD
ATOM     54  C   UNL A   1      46.342  29.952  30.091  1.00  0.00     0.074 A 
ATOM     55  C   UNL A   1      47.072  28.748  30.428  1.00  0.00     0.031 C 
ATOM     56  C   UNL A   1      46.796  30.902  29.236  1.00  0.00     0.031 A 
BRANCH  43  57
ATOM     57  C   UNL A   1      42.955  35.691  28.568  1.00  0.00    -0.014 A 
ATOM     58  C   UNL A   1      42.195  35.793  27.390  1.00  0.00     0.010 A 
ATOM     59  C   UNL A   1      43.417  36.864  29.192  1.00  0.00     0.010 A 
ATOM     60  C   UNL A   1      41.917  37.044  26.834  1.00  0.00     0.020 A 
ATOM     61  C   UNL A   1      43.123  38.120  28.649  1.00  0.00     0.020 A 
ATOM     62  C   UNL A   1      42.383  38.201  27.468  1.00  0.00     0.054 A 
BRANCH  62  63
ATOM     63  S   UNL A   1      41.967  39.814  26.751  1.00  0.00     0.124 S 
ATOM     64  O   UNL A   1      43.237  40.212  26.148  1.00  0.00    -0.237 OA
ATOM     65  O   UNL A   1      40.902  39.483  25.809  1.00  0.00    -0.237 OA
ATOM     66  O   UNL A   1      41.550  40.610  27.903  1.00  0.00    -0.744 OA
ENDBRANCH  62  63
ENDBRANCH  43  57
BRANCH  44  67
ATOM     67  C   UNL A   1      44.379  26.908  33.085  1.00  0.00    -0.014 A 
ATOM     68  C   UNL A   1      44.945  26.827  34.369  1.00  0.00     0.010 A 
ATOM     69  C   UNL A   1      44.068  25.721  32.398  1.00  0.00     0.010 A 
ATOM     70  C   UNL A   1      45.232  25.582  34.940  1.00  0.00     0.020 A 
ATOM     71  C   UNL A   1      44.328  24.475  32.976  1.00  0.00     0.020 A 
ATOM     72  C   UNL A   1      44.927  24.414  34.235  1.00  0.00     0.054 A 
BRANCH  72  73
ATOM     73  S   UNL A   1      45.290  22.806  34.992  1.00  0.00     0.124 S 
ATOM     74  O   UNL A   1      45.130  23.098  36.412  1.00  0.00    -0.237 OA
ATOM     75  O   UNL A   1      44.273  21.939  34.403  1.00  0.00    -0.237 OA
ATOM     76  O   UNL A   1      46.658  22.529  34.557  1.00  0.00    -0.744 OA
ENDBRANCH  72  73
ENDBRANCH  44  67
BRANCH  56  77
ATOM     77  C   UNL A   1      48.159  30.686  28.636  1.00  0.00    -0.014 A 
ATOM     78  C   UNL A   1      48.322  29.976  27.432  1.00  0.00     0.010 A 
ATOM     79  C   UNL A   1      49.295  31.203  29.285  1.00  0.00     0.010 A 
ATOM     80  C   UNL A   1      49.600  29.737  26.920  1.00  0.00     0.020 A 
ATOM     81  C   UNL A   1      50.573  30.989  28.761  1.00  0.00     0.020 A 
ATOM     82  C   UNL A   1      50.719  30.235  27.595  1.00  0.00     0.054 A 
BRANCH  82  83
ATOM     83  S   UNL A   1      52.370  29.909  26.918  1.00  0.00     0.124 S 
ATOM     84  O   UNL A   1      52.190  28.597  26.303  1.00  0.00    -0.237 OA
ATOM     85  O   UNL A   1      52.565  31.018  25.987  1.00  0.00    -0.237 OA
ATOM     86  O   UNL A   1      53.235  29.932  28.096  1.00  0.00    -0.744 OA
ENDBRANCH  82  83
ENDBRANCH  56  77
ENDBRANCH  30  31
ENDBRANCH  23  25
ENDBRANCH  22  23
ENDBRANCH  21  22
ENDBRANCH  20  21
ENDBRANCH   1  20
TORSDOF 21
ENDMDL
MODEL 2
REMARK VINA RESULT:      -7.4      5.827     12.470
REMARK SMILES CC(C)Cc1ccc([C@H](CF)C(=O)OCCOCCOC(=O)c2ccc(-c3c4nc(c(-c5ccc(S(=O)(=O)[O-])cc5)c5ccc([nH]5)c(-c5ccc(S(=O)(=O)[O-])cc5)c5nc(c(-c6ccc(S(=O)(=O)[O-])cc6)c6ccc3[nH]6)C=C5)C=C4)cc2)cc1
REMARK SMILES IDX 17 1 16 2 15 3 14 4 12 5 13 6 9 7 8 8 5 9 6 10 84 11 7 12
REMARK SMILES IDX 83 13 4 14 2 15 1 16 3 17 10 18 11 19 18 20 19 21 20 22
REMARK SMILES IDX 21 23 22 24 23 25 24 26 82 27 25 28 81 29 26 30 27 31 28 32
REMARK SMILES IDX 75 33 29 34 80 35 74 36 76 37 30 38 79 39 73 40 72 41 31 43
REMARK SMILES IDX 61 44 42 45 60 46 43 47 46 48 59 49 77 50 44 51 45 52 58 54
REMARK SMILES IDX 78 55 47 56 32 57 33 58 41 59 34 60 40 61 35 62 36 63 37 64
REMARK SMILES IDX 38 65 39 66 62 67 63 68 71 69 64 70 70 71 65 72 66 73 67 74
REMARK SMILES IDX 68 75 69 76 48 77 49 78 57 79 50 80 56 81 51 82 52 83 53 84
REMARK SMILES IDX 54 85 55 86
REMARK H PARENT 76 42 46 53
REMARK Flexibility Score: inf
ROOT
ATOM      1  O   UNL A   1      39.058  22.381  26.686  1.00  0.00    -0.374 OA
ENDROOT
BRANCH   1   2
ATOM      2  C   UNL A   1      38.361  21.950  25.518  1.00  0.00     0.202 C 
BRANCH   2   3
ATOM      3  C   UNL A   1      36.879  22.323  25.428  1.00  0.00     0.261 C 
BRANCH   3   4
ATOM      4  O   UNL A   1      36.027  21.227  25.815  1.00  0.00    -0.463 OA
BRANCH   4   5
ATOM      5  C   UNL A   1      34.788  21.567  26.271  1.00  0.00     0.316 C 
ATOM      6  O   UNL A   1      34.429  21.484  27.441  1.00  0.00    -0.251 OA
BRANCH   5   7
ATOM      7  C   UNL A   1      33.869  22.036  25.158  1.00  0.00     0.160 C 
BRANCH   7   8
ATOM      8  C   UNL A   1      33.344  23.435  25.406  1.00  0.00    -0.031 A 
ATOM      9  C   UNL A   1      32.174  25.977  25.648  1.00  0.00    -0.048 A 
ATOM     10  C   UNL A   1      33.423  25.831  25.035  1.00  0.00     0.004 A 
ATOM     11  C   UNL A   1      31.565  24.861  26.230  1.00  0.00     0.004 A 
ATOM     12  C   UNL A   1      34.011  24.573  24.928  1.00  0.00     0.005 A 
ATOM     13  C   UNL A   1      32.140  23.599  26.103  1.00  0.00     0.005 A 
BRANCH   9  14
ATOM     14  C   UNL A   1      31.442  27.293  25.575  1.00  0.00     0.038 C 
BRANCH  14  15
ATOM     15  C   UNL A   1      32.197  28.413  26.327  1.00  0.00    -0.013 C 
ATOM     16  C   UNL A   1      32.263  29.720  25.528  1.00  0.00     0.008 C 
ATOM     17  C   UNL A   1      31.534  28.673  27.678  1.00  0.00     0.008 C 
ENDBRANCH  14  15
ENDBRANCH   9  14
ENDBRANCH   7   8
BRANCH   7  18
ATOM     18  C   UNL A   1      32.756  21.055  24.824  1.00  0.00     0.234 C 
ATOM     19  F   UNL A   1      32.805  20.768  23.490  1.00  0.00    -0.250 F 
ENDBRANCH   7  18
ENDBRANCH   5   7
ENDBRANCH   4   5
ENDBRANCH   3   4
ENDBRANCH   2   3
ENDBRANCH   1   2
BRANCH   1  20
ATOM     20  C   UNL A   1      40.473  22.227  26.718  1.00  0.00     0.202 C 
BRANCH  20  21
ATOM     21  C   UNL A   1      41.320  23.498  26.569  1.00  0.00     0.261 C 
BRANCH  21  22
ATOM     22  O   UNL A   1      41.033  24.497  27.567  1.00  0.00    -0.460 OA
BRANCH  22  23
ATOM     23  C   UNL A   1      40.669  25.698  27.055  1.00  0.00     0.338 C 
ATOM     24  O   UNL A   1      40.563  25.986  25.866  1.00  0.00    -0.246 OA
BRANCH  23  25
ATOM     25  C   UNL A   1      40.245  26.636  28.108  1.00  0.00     0.060 A 
ATOM     26  C   UNL A   1      40.956  27.838  28.212  1.00  0.00     0.016 A 
ATOM     27  C   UNL A   1      39.284  26.299  29.065  1.00  0.00     0.016 A 
ATOM     28  C   UNL A   1      40.759  28.674  29.308  1.00  0.00     0.010 A 
ATOM     29  C   UNL A   1      39.091  27.141  30.171  1.00  0.00     0.010 A 
ATOM     30  C   UNL A   1      39.860  28.309  30.320  1.00  0.00    -0.014 A 
BRANCH  30  31
ATOM     31  C   UNL A   1      39.862  29.094  31.582  1.00  0.00     0.031 A 
ATOM     32  C   UNL A   1      40.972  28.884  32.582  1.00  0.00     0.074 A 
ATOM     33  C   UNL A   1      38.949  30.061  31.786  1.00  0.00     0.049 A 
ATOM     34  N   UNL A   1      41.221  29.535  33.690  1.00  0.00    -0.248 NA
ATOM     35  C   UNL A   1      41.930  27.805  32.292  1.00  0.00     0.031 C 
ATOM     36  C   UNL A   1      37.846  30.389  30.882  1.00  0.00     0.029 A 
ATOM     37  N   UNL A   1      38.817  30.961  32.815  1.00  0.00    -0.354 N 
ATOM     38  C   UNL A   1      42.371  28.961  34.219  1.00  0.00     0.074 A 
ATOM     39  C   UNL A   1      42.748  27.879  33.334  1.00  0.00     0.031 C 
ATOM     40  C   UNL A   1      37.156  31.424  31.393  1.00  0.00     0.029 A 
ATOM     41  C   UNL A   1      37.758  31.823  32.664  1.00  0.00     0.049 A 
ATOM     42  H   UNL A   1      39.425  30.985  33.590  1.00  0.00     0.167 HD
ATOM     43  C   UNL A   1      43.063  29.308  35.330  1.00  0.00     0.031 A 
ATOM     44  C   UNL A   1      37.322  32.821  33.457  1.00  0.00     0.031 A 
ATOM     45  C   UNL A   1      42.687  30.372  36.223  1.00  0.00     0.049 A 
ATOM     46  C   UNL A   1      38.080  33.152  34.716  1.00  0.00     0.074 A 
ATOM     47  C   UNL A   1      43.318  30.787  37.384  1.00  0.00     0.029 A 
ATOM     48  N   UNL A   1      41.583  31.193  36.056  1.00  0.00    -0.354 N 
ATOM     49  N   UNL A   1      39.172  32.602  35.191  1.00  0.00    -0.248 NA
ATOM     50  C   UNL A   1      37.552  34.252  35.536  1.00  0.00     0.031 C 
ATOM     51  C   UNL A   1      42.574  31.836  37.939  1.00  0.00     0.029 A 
ATOM     52  C   UNL A   1      41.508  32.104  37.096  1.00  0.00     0.049 A 
ATOM     53  H   UNL A   1      40.945  31.136  35.308  1.00  0.00     0.167 HD
ATOM     54  C   UNL A   1      39.475  33.306  36.353  1.00  0.00     0.074 A 
ATOM     55  C   UNL A   1      38.466  34.335  36.493  1.00  0.00     0.031 C 
ATOM     56  C   UNL A   1      40.496  33.119  37.226  1.00  0.00     0.031 A 
BRANCH  43  57
ATOM     57  C   UNL A   1      44.308  28.523  35.651  1.00  0.00    -0.014 A 
ATOM     58  C   UNL A   1      45.566  28.951  35.192  1.00  0.00     0.010 A 
ATOM     59  C   UNL A   1      44.228  27.385  36.473  1.00  0.00     0.010 A 
ATOM     60  C   UNL A   1      46.721  28.244  35.533  1.00  0.00     0.020 A 
ATOM     61  C   UNL A   1      45.385  26.687  36.834  1.00  0.00     0.020 A 
ATOM     62  C   UNL A   1      46.623  27.116  36.353  1.00  0.00     0.054 A 
BRANCH  62  63
ATOM     63  S   UNL A   1      48.144  26.243  36.820  1.00  0.00     0.124 S 
ATOM     64  O   UNL A   1      48.830  27.247  37.630  1.00  0.00    -0.237 OA
ATOM     65  O   UNL A   1      47.638  25.085  37.553  1.00  0.00    -0.237 OA
ATOM     66  O   UNL A   1      48.777  25.939  35.539  1.00  0.00    -0.744 OA
ENDBRANCH  62  63
ENDBRANCH  43  57
BRANCH  44  67
ATOM     67  C   UNL A   1      36.095  33.583  33.100  1.00  0.00    -0.014 A 
ATOM     68  C   UNL A   1      36.177  34.833  32.461  1.00  0.00     0.010 A 
ATOM     69  C   UNL A   1      34.830  33.073  33.444  1.00  0.00     0.010 A 
ATOM     70  C   UNL A   1      35.020  35.577  32.207  1.00  0.00     0.020 A 
ATOM     71  C   UNL A   1      33.669  33.801  33.167  1.00  0.00     0.020 A 
ATOM     72  C   UNL A   1      33.774  35.057  32.569  1.00  0.00     0.054 A 
BRANCH  72  73
ATOM     73  S   UNL A   1      32.279  36.025  32.220  1.00  0.00     0.124 S 
ATOM     74  O   UNL A   1      32.427  37.150  33.136  1.00  0.00    -0.237 OA
ATOM     75  O   UNL A   1      32.426  36.339  30.801  1.00  0.00    -0.237 OA
ATOM     76  O   UNL A   1      31.195  35.097  32.534  1.00  0.00    -0.744 OA
ENDBRANCH  72  73
ENDBRANCH  44  67
BRANCH  56  77
ATOM     77  C   UNL A   1      40.583  34.069  38.389  1.00  0.00    -0.014 A 
ATOM     78  C   UNL A   1      41.511  35.127  38.399  1.00  0.00     0.010 A 
ATOM     79  C   UNL A   1      39.722  33.903  39.489  1.00  0.00     0.010 A 
ATOM     80  C   UNL A   1      41.615  35.965  39.513  1.00  0.00     0.020 A 
ATOM     81  C   UNL A   1      39.805  34.756  40.594  1.00  0.00     0.020 A 
ATOM     82  C   UNL A   1      40.769  35.766  40.608  1.00  0.00     0.054 A 
BRANCH  82  83
ATOM     83  S   UNL A   1      40.924  36.859  42.047  1.00  0.00     0.124 S 
ATOM     84  O   UNL A   1      41.973  36.198  42.817  1.00  0.00    -0.237 OA
ATOM     85  O   UNL A   1      41.297  38.138  41.446  1.00  0.00    -0.237 OA
ATOM     86  O   UNL A   1      39.593  36.827  42.650  1.00  0.00    -0.744 OA
ENDBRANCH  82  83
ENDBRANCH  56  77
ENDBRANCH  30  31
ENDBRANCH  23  25
ENDBRANCH  22  23
ENDBRANCH  21  22
ENDBRANCH  20  21
ENDBRANCH   1  20
TORSDOF 21
ENDMDL
MODEL 3
REMARK VINA RESULT:      -7.4      5.746     10.411
REMARK SMILES CC(C)Cc1ccc([C@H](CF)C(=O)OCCOCCOC(=O)c2ccc(-c3c4nc(c(-c5ccc(S(=O)(=O)[O-])cc5)c5ccc([nH]5)c(-c5ccc(S(=O)(=O)[O-])cc5)c5nc(c(-c6ccc(S(=O)(=O)[O-])cc6)c6ccc3[nH]6)C=C5)C=C4)cc2)cc1
REMARK SMILES IDX 17 1 16 2 15 3 14 4 12 5 13 6 9 7 8 8 5 9 6 10 84 11 7 12
REMARK SMILES IDX 83 13 4 14 2 15 1 16 3 17 10 18 11 19 18 20 19 21 20 22
REMARK SMILES IDX 21 23 22 24 23 25 24 26 82 27 25 28 81 29 26 30 27 31 28 32
REMARK SMILES IDX 75 33 29 34 80 35 74 36 76 37 30 38 79 39 73 40 72 41 31 43
REMARK SMILES IDX 61 44 42 45 60 46 43 47 46 48 59 49 77 50 44 51 45 52 58 54
REMARK SMILES IDX 78 55 47 56 32 57 33 58 41 59 34 60 40 61 35 62 36 63 37 64
REMARK SMILES IDX 38 65 39 66 62 67 63 68 71 69 64 70 70 71 65 72 66 73 67 74
REMARK SMILES IDX 68 75 69 76 48 77 49 78 57 79 50 80 56 81 51 82 52 83 53 84
REMARK SMILES IDX 54 85 55 86
REMARK H PARENT 76 42 46 53
REMARK Flexibility Score: inf
ROOT
ATOM      1  O   UNL A   1      37.763  22.799  24.994  1.00  0.00    -0.374 OA
ENDROOT
BRANCH   1   2
ATOM      2  C   UNL A   1      37.068  21.797  24.254  1.00  0.00     0.202 C 
BRANCH   2   3
ATOM      3  C   UNL A   1      36.616  20.560  25.035  1.00  0.00     0.261 C 
BRANCH   3   4
ATOM      4  O   UNL A   1      35.189  20.373  24.963  1.00  0.00    -0.463 OA
BRANCH   4   5
ATOM      5  C   UNL A   1      34.434  21.261  25.670  1.00  0.00     0.316 C 
ATOM      6  O   UNL A   1      34.463  21.385  26.889  1.00  0.00    -0.251 OA
BRANCH   5   7
ATOM      7  C   UNL A   1      33.512  22.075  24.780  1.00  0.00     0.160 C 
BRANCH   7   8
ATOM      8  C   UNL A   1      33.220  23.442  25.361  1.00  0.00    -0.031 A 
ATOM      9  C   UNL A   1      32.491  26.017  26.213  1.00  0.00    -0.048 A 
ATOM     10  C   UNL A   1      33.734  25.800  25.611  1.00  0.00     0.004 A 
ATOM     11  C   UNL A   1      31.661  24.924  26.480  1.00  0.00     0.004 A 
ATOM     12  C   UNL A   1      34.104  24.520  25.202  1.00  0.00     0.005 A 
ATOM     13  C   UNL A   1      32.017  23.649  26.051  1.00  0.00     0.005 A 
BRANCH   9  14
ATOM     14  C   UNL A   1      32.003  27.423  26.459  1.00  0.00     0.038 C 
BRANCH  14  15
ATOM     15  C   UNL A   1      31.907  28.236  25.148  1.00  0.00    -0.013 C 
ATOM     16  C   UNL A   1      30.716  27.815  24.279  1.00  0.00     0.008 C 
ATOM     17  C   UNL A   1      31.806  29.727  25.465  1.00  0.00     0.008 C 
ENDBRANCH  14  15
ENDBRANCH   9  14
ENDBRANCH   7   8
BRANCH   7  18
ATOM     18  C   UNL A   1      32.244  21.340  24.373  1.00  0.00     0.234 C 
ATOM     19  F   UNL A   1      31.726  21.936  23.258  1.00  0.00    -0.250 F 
ENDBRANCH   7  18
ENDBRANCH   5   7
ENDBRANCH   4   5
ENDBRANCH   3   4
ENDBRANCH   2   3
ENDBRANCH   1   2
BRANCH   1  20
ATOM     20  C   UNL A   1      38.513  22.393  26.134  1.00  0.00     0.202 C 
BRANCH  20  21
ATOM     21  C   UNL A   1      39.591  23.358  26.645  1.00  0.00     0.261 C 
BRANCH  21  22
ATOM     22  O   UNL A   1      39.057  24.601  27.139  1.00  0.00    -0.460 OA
BRANCH  22  23
ATOM     23  C   UNL A   1      39.893  25.658  26.988  1.00  0.00     0.338 C 
ATOM     24  O   UNL A   1      40.640  25.871  26.037  1.00  0.00    -0.246 OA
BRANCH  23  25
ATOM     25  C   UNL A   1      39.706  26.660  28.051  1.00  0.00     0.060 A 
ATOM     26  C   UNL A   1      40.453  27.840  27.951  1.00  0.00     0.016 A 
ATOM     27  C   UNL A   1      38.943  26.402  29.193  1.00  0.00     0.016 A 
ATOM     28  C   UNL A   1      40.495  28.733  29.017  1.00  0.00     0.010 A 
ATOM     29  C   UNL A   1      38.991  27.303  30.269  1.00  0.00     0.010 A 
ATOM     30  C   UNL A   1      39.803  28.449  30.203  1.00  0.00    -0.014 A 
BRANCH  30  31
ATOM     31  C   UNL A   1      40.070  29.293  31.397  1.00  0.00     0.031 A 
ATOM     32  C   UNL A   1      39.090  30.377  31.771  1.00  0.00     0.074 A 
ATOM     33  C   UNL A   1      41.115  29.026  32.202  1.00  0.00     0.049 A 
ATOM     34  N   UNL A   1      39.076  31.151  32.826  1.00  0.00    -0.248 NA
ATOM     35  C   UNL A   1      37.975  30.613  30.839  1.00  0.00     0.031 C 
ATOM     36  C   UNL A   1      42.116  27.984  31.972  1.00  0.00     0.029 A 
ATOM     37  N   UNL A   1      41.496  29.601  33.389  1.00  0.00    -0.354 N 
ATOM     38  C   UNL A   1      37.947  31.952  32.696  1.00  0.00     0.074 A 
ATOM     39  C   UNL A   1      37.323  31.600  31.438  1.00  0.00     0.031 C 
ATOM     40  C   UNL A   1      42.991  27.987  32.993  1.00  0.00     0.029 A 
ATOM     41  C   UNL A   1      42.622  29.038  33.939  1.00  0.00     0.049 A 
ATOM     42  H   UNL A   1      41.006  30.346  33.807  1.00  0.00     0.167 HD
ATOM     43  C   UNL A   1      37.461  32.884  33.550  1.00  0.00     0.031 A 
ATOM     44  C   UNL A   1      43.282  29.335  35.076  1.00  0.00     0.031 A 
ATOM     45  C   UNL A   1      38.084  33.251  34.795  1.00  0.00     0.049 A 
ATOM     46  C   UNL A   1      42.749  30.414  35.982  1.00  0.00     0.074 A 
ATOM     47  C   UNL A   1      37.673  34.197  35.719  1.00  0.00     0.029 A 
ATOM     48  N   UNL A   1      39.247  32.687  35.293  1.00  0.00    -0.354 N 
ATOM     49  N   UNL A   1      41.673  31.151  35.844  1.00  0.00    -0.248 NA
ATOM     50  C   UNL A   1      43.516  30.688  37.206  1.00  0.00     0.031 C 
ATOM     51  C   UNL A   1      38.609  34.231  36.759  1.00  0.00     0.029 A 
ATOM     52  C   UNL A   1      39.576  33.271  36.505  1.00  0.00     0.049 A 
ATOM     53  H   UNL A   1      39.765  31.976  34.851  1.00  0.00     0.167 HD
ATOM     54  C   UNL A   1      41.621  31.958  36.977  1.00  0.00     0.074 A 
ATOM     55  C   UNL A   1      42.758  31.601  37.798  1.00  0.00     0.031 C 
ATOM     56  C   UNL A   1      40.713  32.910  37.309  1.00  0.00     0.031 A 
BRANCH  43  57
ATOM     57  C   UNL A   1      36.185  33.585  33.166  1.00  0.00    -0.014 A 
ATOM     58  C   UNL A   1      34.940  32.951  33.326  1.00  0.00     0.010 A 
ATOM     59  C   UNL A   1      36.224  34.913  32.703  1.00  0.00     0.010 A 
ATOM     60  C   UNL A   1      33.758  33.624  33.011  1.00  0.00     0.020 A 
ATOM     61  C   UNL A   1      35.041  35.598  32.407  1.00  0.00     0.020 A 
ATOM     62  C   UNL A   1      33.815  34.945  32.554  1.00  0.00     0.054 A 
BRANCH  62  63
ATOM     63  S   UNL A   1      32.263  35.812  32.198  1.00  0.00     0.124 S 
ATOM     64  O   UNL A   1      31.287  34.985  32.902  1.00  0.00    -0.237 OA
ATOM     65  O   UNL A   1      32.494  37.135  32.773  1.00  0.00    -0.237 OA
ATOM     66  O   UNL A   1      32.171  35.778  30.741  1.00  0.00    -0.744 OA
ENDBRANCH  62  63
ENDBRANCH  43  57
BRANCH  44  67
ATOM     67  C   UNL A   1      44.534  28.611  35.429  1.00  0.00    -0.014 A 
ATOM     68  C   UNL A   1      44.503  27.460  36.235  1.00  0.00     0.010 A 
ATOM     69  C   UNL A   1      45.775  29.106  34.991  1.00  0.00     0.010 A 
ATOM     70  C   UNL A   1      45.693  26.838  36.628  1.00  0.00     0.020 A 
ATOM     71  C   UNL A   1      46.965  28.473  35.359  1.00  0.00     0.020 A 
ATOM     72  C   UNL A   1      46.916  27.354  36.192  1.00  0.00     0.054 A 
BRANCH  72  73
ATOM     73  S   UNL A   1      48.452  26.530  36.697  1.00  0.00     0.124 S 
ATOM     74  O   UNL A   1      48.066  25.123  36.660  1.00  0.00    -0.237 OA
ATOM     75  O   UNL A   1      49.396  26.956  35.667  1.00  0.00    -0.237 OA
ATOM     76  O   UNL A   1      48.707  27.077  38.027  1.00  0.00    -0.744 OA
ENDBRANCH  72  73
ENDBRANCH  44  67
BRANCH  56  77
ATOM     77  C   UNL A   1      40.904  33.605  38.630  1.00  0.00    -0.014 A 
ATOM     78  C   UNL A   1      41.719  34.746  38.744  1.00  0.00     0.010 A 
ATOM     79  C   UNL A   1      40.256  33.108  39.777  1.00  0.00     0.010 A 
ATOM     80  C   UNL A   1      41.928  35.343  39.989  1.00  0.00     0.020 A 
ATOM     81  C   UNL A   1      40.442  33.720  41.020  1.00  0.00     0.020 A 
ATOM     82  C   UNL A   1      41.297  34.819  41.122  1.00  0.00     0.054 A 
BRANCH  82  83
ATOM     83  S   UNL A   1      41.587  35.603  42.731  1.00  0.00     0.124 S 
ATOM     84  O   UNL A   1      42.546  34.689  43.345  1.00  0.00    -0.237 OA
ATOM     85  O   UNL A   1      42.117  36.915  42.363  1.00  0.00    -0.237 OA
ATOM     86  O   UNL A   1      40.262  35.625  43.348  1.00  0.00    -0.744 OA
ENDBRANCH  82  83
ENDBRANCH  56  77
ENDBRANCH  30  31
ENDBRANCH  23  25
ENDBRANCH  22  23
ENDBRANCH  21  22
ENDBRANCH  20  21
ENDBRANCH   1  20
TORSDOF 21
ENDMDL
