MODEL 1
REMARK VINA RESULT:     -10.4      0.000      0.000
REMARK SMILES Cc1nc(CCNc2nccc(-c3cc(C(=O)OCCOCCOC(=O)c4ccc(-c5c6nc(c(-c7ccc(S(=O)(=O)[O-])cc7)c7ccc([nH]7)c(-c7ccc(S(=O)(=O)[O-])cc7)c7nc(c(-c8ccc(S(=O)(=O)[O-])cc8)c8ccc5[nH]8)C=C7)C=C6)cc4)ccn3)n2)cc(=O)[nH]1
REMARK SMILES IDX 20 1 19 2 18 3 16 4 17 5 15 6 13 7 14 8 89 9 88 10 87 11
REMARK SMILES IDX 12 12 8 13 9 14 90 15 10 16 11 17 7 18 6 20 5 21 4 22 1 23
REMARK SMILES IDX 2 24 3 25 94 26 92 27 91 29 93 30 21 31 22 32 23 33 24 34
REMARK SMILES IDX 25 35 26 36 27 37 28 38 86 39 29 40 85 41 30 42 31 43 32 44
REMARK SMILES IDX 79 45 33 46 84 47 78 48 80 49 34 50 83 51 77 52 76 53 35 55
REMARK SMILES IDX 65 56 46 57 64 58 47 59 50 60 63 61 81 62 48 63 49 64 62 66
REMARK SMILES IDX 82 67 51 68 36 69 37 70 45 71 38 72 44 73 39 74 40 75 41 76
REMARK SMILES IDX 42 77 43 78 66 79 67 80 75 81 68 82 74 83 69 84 70 85 71 86
REMARK SMILES IDX 72 87 73 88 52 89 53 90 61 91 54 92 60 93 55 94 56 95 57 96
REMARK SMILES IDX 58 97 59 98
REMARK H PARENT 7 19 94 28 80 54 50 65
REMARK Flexibility Score: inf
ROOT
ATOM      1  C   UNL A   1      45.099  21.250  24.646  1.00  0.00     0.202 C 
ENDROOT
BRANCH   1   2
ATOM      2  C   UNL A   1      44.458  19.870  24.828  1.00  0.00     0.261 C 
BRANCH   2   3
ATOM      3  O   UNL A   1      43.768  19.767  26.084  1.00  0.00    -0.460 OA
BRANCH   3   4
ATOM      4  C   UNL A   1      42.497  19.308  26.004  1.00  0.00     0.338 C 
ATOM      5  O   UNL A   1      42.136  18.157  25.810  1.00  0.00    -0.246 OA
BRANCH   4   6
ATOM      6  C   UNL A   1      41.557  20.384  26.386  1.00  0.00     0.063 A 
ATOM      7  C   UNL A   1      39.548  21.658  26.136  1.00  0.00     0.090 A 
ATOM      8  C   UNL A   1      40.359  20.612  25.706  1.00  0.00     0.046 A 
ATOM      9  N   UNL A   1      39.921  22.467  27.168  1.00  0.00    -0.255 NA
ATOM     10  C   UNL A   1      41.091  22.234  27.791  1.00  0.00     0.112 A 
ATOM     11  C   UNL A   1      41.933  21.203  27.449  1.00  0.00     0.036 A 
BRANCH   7  12
ATOM     12  C   UNL A   1      38.191  21.897  25.601  1.00  0.00     0.094 A 
ATOM     13  C   UNL A   1      36.333  23.250  25.628  1.00  0.00     0.223 A 
ATOM     14  N   UNL A   1      35.565  22.319  25.051  1.00  0.00    -0.222 NA
ATOM     15  N   UNL A   1      37.634  23.100  25.883  1.00  0.00    -0.211 NA
ATOM     16  C   UNL A   1      36.166  21.170  24.698  1.00  0.00     0.117 A 
ATOM     17  C   UNL A   1      37.483  20.898  24.961  1.00  0.00     0.051 A 
BRANCH  13  18
ATOM     18  N   UNL A   1      35.672  24.371  26.057  1.00  0.00    -0.354 N 
ATOM     19  H   UNL A   1      36.148  25.041  26.599  1.00  0.00     0.163 HD
BRANCH  18  20
ATOM     20  C   UNL A   1      34.278  24.579  25.716  1.00  0.00     0.122 C 
BRANCH  20  21
ATOM     21  C   UNL A   1      34.060  25.956  25.059  1.00  0.00     0.077 C 
BRANCH  21  22
ATOM     22  C   UNL A   1      33.599  27.031  26.031  1.00  0.00     0.050 A 
ATOM     23  C   UNL A   1      35.060  30.094  27.479  1.00  0.00     0.087 C 
ATOM     24  C   UNL A   1      34.150  28.949  27.141  1.00  0.00     0.105 A 
ATOM     25  N   UNL A   1      34.522  28.010  26.333  1.00  0.00    -0.240 NA
ATOM     26  N   UNL A   1      32.926  28.985  27.746  1.00  0.00    -0.311 N 
ATOM     27  C   UNL A   1      31.978  28.039  27.509  1.00  0.00     0.251 A 
ATOM     28  H   UNL A   1      32.724  29.718  28.372  1.00  0.00     0.171 HD
ATOM     29  C   UNL A   1      32.346  27.027  26.513  1.00  0.00     0.095 A 
ATOM     30  O   UNL A   1      30.902  28.015  28.093  1.00  0.00    -0.270 OA
ENDBRANCH  21  22
ENDBRANCH  20  21
ENDBRANCH  18  20
ENDBRANCH  13  18
ENDBRANCH   7  12
ENDBRANCH   4   6
ENDBRANCH   3   4
ENDBRANCH   2   3
ENDBRANCH   1   2
BRANCH   1  31
ATOM     31  O   UNL A   1      44.415  22.368  25.213  1.00  0.00    -0.374 OA
BRANCH  31  32
ATOM     32  C   UNL A   1      45.015  23.655  25.066  1.00  0.00     0.202 C 
BRANCH  32  33
ATOM     33  C   UNL A   1      44.107  24.887  25.161  1.00  0.00     0.261 C 
BRANCH  33  34
ATOM     34  O   UNL A   1      43.009  24.704  26.070  1.00  0.00    -0.460 OA
BRANCH  34  35
ATOM     35  C   UNL A   1      42.096  25.706  26.056  1.00  0.00     0.338 C 
ATOM     36  O   UNL A   1      41.290  25.956  25.174  1.00  0.00    -0.246 OA
BRANCH  35  37
ATOM     37  C   UNL A   1      42.068  26.374  27.370  1.00  0.00     0.060 A 
ATOM     38  C   UNL A   1      41.085  25.967  28.282  1.00  0.00     0.016 A 
ATOM     39  C   UNL A   1      42.935  27.422  27.679  1.00  0.00     0.016 A 
ATOM     40  C   UNL A   1      40.934  26.644  29.491  1.00  0.00     0.010 A 
ATOM     41  C   UNL A   1      42.778  28.103  28.890  1.00  0.00     0.010 A 
ATOM     42  C   UNL A   1      41.754  27.739  29.786  1.00  0.00    -0.014 A 
BRANCH  42  43
ATOM     43  C   UNL A   1      41.458  28.583  30.969  1.00  0.00     0.031 A 
ATOM     44  C   UNL A   1      40.300  29.544  30.912  1.00  0.00     0.074 A 
ATOM     45  C   UNL A   1      42.199  28.482  32.087  1.00  0.00     0.049 A 
ATOM     46  N   UNL A   1      39.891  30.401  31.811  1.00  0.00    -0.248 NA
ATOM     47  C   UNL A   1      39.500  29.539  29.676  1.00  0.00     0.031 C 
ATOM     48  C   UNL A   1      43.316  27.558  32.280  1.00  0.00     0.029 A 
ATOM     49  N   UNL A   1      42.121  29.169  33.272  1.00  0.00    -0.354 N 
ATOM     50  C   UNL A   1      38.796  31.046  31.249  1.00  0.00     0.074 A 
ATOM     51  C   UNL A   1      38.623  30.504  29.918  1.00  0.00     0.031 C 
ATOM     52  C   UNL A   1      43.825  27.741  33.511  1.00  0.00     0.029 A 
ATOM     53  C   UNL A   1      43.096  28.819  34.176  1.00  0.00     0.049 A 
ATOM     54  H   UNL A   1      41.434  29.849  33.458  1.00  0.00     0.167 HD
ATOM     55  C   UNL A   1      38.002  32.000  31.792  1.00  0.00     0.031 A 
ATOM     56  C   UNL A   1      43.384  29.325  35.392  1.00  0.00     0.031 A 
ATOM     57  C   UNL A   1      38.186  32.545  33.112  1.00  0.00     0.049 A 
ATOM     58  C   UNL A   1      42.533  30.439  35.945  1.00  0.00     0.074 A 
ATOM     59  C   UNL A   1      37.424  33.501  33.761  1.00  0.00     0.029 A 
ATOM     60  N   UNL A   1      39.206  32.189  33.982  1.00  0.00    -0.354 N 
ATOM     61  N   UNL A   1      41.486  31.021  35.411  1.00  0.00    -0.248 NA
ATOM     62  C   UNL A   1      42.901  30.959  37.270  1.00  0.00     0.031 C 
ATOM     63  C   UNL A   1      38.022  33.771  34.995  1.00  0.00     0.029 A 
ATOM     64  C   UNL A   1      39.113  32.930  35.148  1.00  0.00     0.049 A 
ATOM     65  H   UNL A   1      39.895  31.510  33.797  1.00  0.00     0.167 HD
ATOM     66  C   UNL A   1      41.050  31.953  36.348  1.00  0.00     0.074 A 
ATOM     67  C   UNL A   1      41.940  31.847  37.487  1.00  0.00     0.031 C 
ATOM     68  C   UNL A   1      40.006  32.816  36.275  1.00  0.00     0.031 A 
BRANCH  55  69
ATOM     69  C   UNL A   1      36.883  32.546  30.943  1.00  0.00    -0.014 A 
ATOM     70  C   UNL A   1      35.536  32.273  31.242  1.00  0.00     0.010 A 
ATOM     71  C   UNL A   1      37.183  33.382  29.852  1.00  0.00     0.010 A 
ATOM     72  C   UNL A   1      34.514  32.794  30.444  1.00  0.00     0.020 A 
ATOM     73  C   UNL A   1      36.163  33.931  29.070  1.00  0.00     0.020 A 
ATOM     74  C   UNL A   1      34.834  33.620  29.362  1.00  0.00     0.054 A 
BRANCH  74  75
ATOM     75  S   UNL A   1      33.485  34.302  28.359  1.00  0.00     0.124 S 
ATOM     76  O   UNL A   1      33.056  33.133  27.597  1.00  0.00    -0.237 OA
ATOM     77  O   UNL A   1      32.543  34.774  29.370  1.00  0.00    -0.237 OA
ATOM     78  O   UNL A   1      34.132  35.352  27.575  1.00  0.00    -0.744 OA
ENDBRANCH  74  75
ENDBRANCH  55  69
BRANCH  56  79
ATOM     79  C   UNL A   1      44.542  28.795  36.162  1.00  0.00    -0.014 A 
ATOM     80  C   UNL A   1      44.376  27.750  37.087  1.00  0.00     0.010 A 
ATOM     81  C   UNL A   1      45.827  29.338  35.971  1.00  0.00     0.010 A 
ATOM     82  C   UNL A   1      45.467  27.268  37.815  1.00  0.00     0.020 A 
ATOM     83  C   UNL A   1      46.925  28.838  36.673  1.00  0.00     0.020 A 
ATOM     84  C   UNL A   1      46.736  27.811  37.600  1.00  0.00     0.054 A 
BRANCH  84  85
ATOM     85  S   UNL A   1      48.147  27.132  38.516  1.00  0.00     0.124 S 
ATOM     86  O   UNL A   1      48.076  25.714  38.178  1.00  0.00    -0.237 OA
ATOM     87  O   UNL A   1      49.274  27.865  37.944  1.00  0.00    -0.237 OA
ATOM     88  O   UNL A   1      47.842  27.461  39.907  1.00  0.00    -0.744 OA
ENDBRANCH  84  85
ENDBRANCH  56  79
BRANCH  68  89
ATOM     89  C   UNL A   1      39.735  33.689  37.474  1.00  0.00    -0.014 A 
ATOM     90  C   UNL A   1      38.907  33.257  38.525  1.00  0.00     0.010 A 
ATOM     91  C   UNL A   1      40.369  34.942  37.574  1.00  0.00     0.010 A 
ATOM     92  C   UNL A   1      38.692  34.076  39.637  1.00  0.00     0.020 A 
ATOM     93  C   UNL A   1      40.183  35.749  38.698  1.00  0.00     0.020 A 
ATOM     94  C   UNL A   1      39.333  35.316  39.718  1.00  0.00     0.054 A 
BRANCH  94  95
ATOM     95  S   UNL A   1      39.070  36.339  41.192  1.00  0.00     0.124 S 
ATOM     96  O   UNL A   1      37.955  35.657  41.843  1.00  0.00    -0.237 OA
ATOM     97  O   UNL A   1      40.355  36.243  41.880  1.00  0.00    -0.237 OA
ATOM     98  O   UNL A   1      38.759  37.659  40.648  1.00  0.00    -0.744 OA
ENDBRANCH  94  95
ENDBRANCH  68  89
ENDBRANCH  42  43
ENDBRANCH  35  37
ENDBRANCH  34  35
ENDBRANCH  33  34
ENDBRANCH  32  33
ENDBRANCH  31  32
ENDBRANCH   1  31
TORSDOF 22
ENDMDL
MODEL 2
REMARK VINA RESULT:      -9.5      1.594      2.489
REMARK SMILES Cc1nc(CCNc2nccc(-c3cc(C(=O)OCCOCCOC(=O)c4ccc(-c5c6nc(c(-c7ccc(S(=O)(=O)[O-])cc7)c7ccc([nH]7)c(-c7ccc(S(=O)(=O)[O-])cc7)c7nc(c(-c8ccc(S(=O)(=O)[O-])cc8)c8ccc5[nH]8)C=C7)C=C6)cc4)ccn3)n2)cc(=O)[nH]1
REMARK SMILES IDX 20 1 19 2 18 3 16 4 17 5 15 6 13 7 14 8 89 9 88 10 87 11
REMARK SMILES IDX 12 12 8 13 9 14 90 15 10 16 11 17 7 18 6 20 5 21 4 22 1 23
REMARK SMILES IDX 2 24 3 25 94 26 92 27 91 29 93 30 21 31 22 32 23 33 24 34
REMARK SMILES IDX 25 35 26 36 27 37 28 38 86 39 29 40 85 41 30 42 31 43 32 44
REMARK SMILES IDX 79 45 33 46 84 47 78 48 80 49 34 50 83 51 77 52 76 53 35 55
REMARK SMILES IDX 65 56 46 57 64 58 47 59 50 60 63 61 81 62 48 63 49 64 62 66
REMARK SMILES IDX 82 67 51 68 36 69 37 70 45 71 38 72 44 73 39 74 40 75 41 76
REMARK SMILES IDX 42 77 43 78 66 79 67 80 75 81 68 82 74 83 69 84 70 85 71 86
REMARK SMILES IDX 72 87 73 88 52 89 53 90 61 91 54 92 60 93 55 94 56 95 57 96
REMARK SMILES IDX 58 97 59 98
REMARK H PARENT 7 19 94 28 80 54 50 65
REMARK Flexibility Score: inf
ROOT
ATOM      1  C   UNL A   1      42.415  20.292  25.929  1.00  0.00     0.202 C 
ENDROOT
BRANCH   1   2
ATOM      2  C   UNL A   1      41.242  20.249  26.914  1.00  0.00     0.261 C 
BRANCH   2   3
ATOM      3  O   UNL A   1      40.229  21.209  26.574  1.00  0.00    -0.460 OA
BRANCH   3   4
ATOM      4  C   UNL A   1      39.252  20.747  25.758  1.00  0.00     0.338 C 
ATOM      5  O   UNL A   1      39.104  19.604  25.354  1.00  0.00    -0.246 OA
BRANCH   4   6
ATOM      6  C   UNL A   1      38.233  21.800  25.561  1.00  0.00     0.063 A 
ATOM      7  C   UNL A   1      36.209  22.670  24.629  1.00  0.00     0.090 A 
ATOM      8  C   UNL A   1      37.104  21.613  24.760  1.00  0.00     0.046 A 
ATOM      9  N   UNL A   1      36.437  23.872  25.229  1.00  0.00    -0.255 NA
ATOM     10  C   UNL A   1      37.544  24.029  25.978  1.00  0.00     0.112 A 
ATOM     11  C   UNL A   1      38.460  23.025  26.186  1.00  0.00     0.036 A 
BRANCH   7  12
ATOM     12  C   UNL A   1      34.906  22.542  23.942  1.00  0.00     0.094 A 
ATOM     13  C   UNL A   1      33.425  23.478  22.454  1.00  0.00     0.223 A 
ATOM     14  N   UNL A   1      32.416  22.705  22.871  1.00  0.00    -0.222 NA
ATOM     15  N   UNL A   1      34.671  23.407  22.926  1.00  0.00    -0.211 NA
ATOM     16  C   UNL A   1      32.700  21.791  23.814  1.00  0.00     0.117 A 
ATOM     17  C   UNL A   1      33.934  21.672  24.399  1.00  0.00     0.051 A 
BRANCH  13  18
ATOM     18  N   UNL A   1      33.082  24.457  21.559  1.00  0.00    -0.354 N 
ATOM     19  H   UNL A   1      33.693  24.678  20.819  1.00  0.00     0.163 HD
BRANCH  18  20
ATOM     20  C   UNL A   1      31.827  25.169  21.693  1.00  0.00     0.122 C 
BRANCH  20  21
ATOM     21  C   UNL A   1      32.058  26.659  22.017  1.00  0.00     0.077 C 
BRANCH  21  22
ATOM     22  C   UNL A   1      31.913  26.992  23.494  1.00  0.00     0.050 A 
ATOM     23  C   UNL A   1      31.811  25.074  26.644  1.00  0.00     0.087 C 
ATOM     24  C   UNL A   1      31.785  26.172  25.622  1.00  0.00     0.105 A 
ATOM     25  N   UNL A   1      31.885  25.917  24.357  1.00  0.00    -0.240 NA
ATOM     26  N   UNL A   1      31.648  27.432  26.130  1.00  0.00    -0.311 N 
ATOM     27  C   UNL A   1      31.645  28.534  25.333  1.00  0.00     0.251 A 
ATOM     28  H   UNL A   1      31.548  27.547  27.103  1.00  0.00     0.171 HD
ATOM     29  C   UNL A   1      31.866  28.269  23.906  1.00  0.00     0.095 A 
ATOM     30  O   UNL A   1      31.455  29.665  25.761  1.00  0.00    -0.270 OA
ENDBRANCH  21  22
ENDBRANCH  20  21
ENDBRANCH  18  20
ENDBRANCH  13  18
ENDBRANCH   7  12
ENDBRANCH   4   6
ENDBRANCH   3   4
ENDBRANCH   2   3
ENDBRANCH   1   2
BRANCH   1  31
ATOM     31  O   UNL A   1      42.738  21.557  25.352  1.00  0.00    -0.374 OA
BRANCH  31  32
ATOM     32  C   UNL A   1      43.728  22.351  26.005  1.00  0.00     0.202 C 
BRANCH  32  33
ATOM     33  C   UNL A   1      43.928  23.793  25.524  1.00  0.00     0.261 C 
BRANCH  33  34
ATOM     34  O   UNL A   1      43.898  24.749  26.596  1.00  0.00    -0.460 OA
BRANCH  34  35
ATOM     35  C   UNL A   1      43.653  26.024  26.204  1.00  0.00     0.338 C 
ATOM     36  O   UNL A   1      43.769  26.484  25.080  1.00  0.00    -0.246 OA
BRANCH  35  37
ATOM     37  C   UNL A   1      43.024  26.773  27.308  1.00  0.00     0.060 A 
ATOM     38  C   UNL A   1      43.271  28.150  27.379  1.00  0.00     0.016 A 
ATOM     39  C   UNL A   1      42.271  26.133  28.293  1.00  0.00     0.016 A 
ATOM     40  C   UNL A   1      42.804  28.886  28.466  1.00  0.00     0.010 A 
ATOM     41  C   UNL A   1      41.809  26.873  29.386  1.00  0.00     0.010 A 
ATOM     42  C   UNL A   1      42.103  28.245  29.494  1.00  0.00    -0.014 A 
BRANCH  42  43
ATOM     43  C   UNL A   1      41.790  28.982  30.743  1.00  0.00     0.031 A 
ATOM     44  C   UNL A   1      40.604  29.909  30.769  1.00  0.00     0.074 A 
ATOM     45  C   UNL A   1      42.542  28.814  31.846  1.00  0.00     0.049 A 
ATOM     46  N   UNL A   1      40.176  30.678  31.737  1.00  0.00    -0.248 NA
ATOM     47  C   UNL A   1      39.796  29.980  29.541  1.00  0.00     0.031 C 
ATOM     48  C   UNL A   1      43.687  27.912  31.958  1.00  0.00     0.029 A 
ATOM     49  N   UNL A   1      42.453  29.401  33.083  1.00  0.00    -0.354 N 
ATOM     50  C   UNL A   1      39.059  31.333  31.233  1.00  0.00     0.074 A 
ATOM     51  C   UNL A   1      38.892  30.895  29.864  1.00  0.00     0.031 C 
ATOM     52  C   UNL A   1      44.199  28.010  33.197  1.00  0.00     0.029 A 
ATOM     53  C   UNL A   1      43.443  29.008  33.951  1.00  0.00     0.049 A 
ATOM     54  H   UNL A   1      41.747  30.042  33.326  1.00  0.00     0.167 HD
ATOM     55  C   UNL A   1      38.241  32.216  31.855  1.00  0.00     0.031 A 
ATOM     56  C   UNL A   1      43.725  29.423  35.202  1.00  0.00     0.031 A 
ATOM     57  C   UNL A   1      38.418  32.659  33.214  1.00  0.00     0.049 A 
ATOM     58  C   UNL A   1      42.846  30.463  35.847  1.00  0.00     0.074 A 
ATOM     59  C   UNL A   1      37.634  33.536  33.941  1.00  0.00     0.029 A 
ATOM     60  N   UNL A   1      39.455  32.265  34.048  1.00  0.00    -0.354 N 
ATOM     61  N   UNL A   1      41.779  31.055  35.367  1.00  0.00    -0.248 NA
ATOM     62  C   UNL A   1      43.208  30.887  37.208  1.00  0.00     0.031 C 
ATOM     63  C   UNL A   1      38.232  33.724  35.191  1.00  0.00     0.029 A 
ATOM     64  C   UNL A   1      39.348  32.906  35.271  1.00  0.00     0.049 A 
ATOM     65  H   UNL A   1      40.162  31.624  33.805  1.00  0.00     0.167 HD
ATOM     66  C   UNL A   1      41.322  31.894  36.379  1.00  0.00     0.074 A 
ATOM     67  C   UNL A   1      42.223  31.724  37.501  1.00  0.00     0.031 C 
ATOM     68  C   UNL A   1      40.253  32.729  36.380  1.00  0.00     0.031 A 
BRANCH  55  69
ATOM     69  C   UNL A   1      37.100  32.795  31.059  1.00  0.00    -0.014 A 
ATOM     70  C   UNL A   1      35.790  32.298  31.187  1.00  0.00     0.010 A 
ATOM     71  C   UNL A   1      37.335  33.884  30.199  1.00  0.00     0.010 A 
ATOM     72  C   UNL A   1      34.746  32.854  30.441  1.00  0.00     0.020 A 
ATOM     73  C   UNL A   1      36.289  34.462  29.475  1.00  0.00     0.020 A 
ATOM     74  C   UNL A   1      35.002  33.933  29.590  1.00  0.00     0.054 A 
BRANCH  74  75
ATOM     75  S   UNL A   1      33.623  34.649  28.655  1.00  0.00     0.124 S 
ATOM     76  O   UNL A   1      34.176  35.937  28.243  1.00  0.00    -0.237 OA
ATOM     77  O   UNL A   1      33.426  33.678  27.582  1.00  0.00    -0.237 OA
ATOM     78  O   UNL A   1      32.540  34.722  29.633  1.00  0.00    -0.744 OA
ENDBRANCH  74  75
ENDBRANCH  55  69
BRANCH  56  79
ATOM     79  C   UNL A   1      44.904  28.869  35.921  1.00  0.00    -0.014 A 
ATOM     80  C   UNL A   1      46.199  29.353  35.667  1.00  0.00     0.010 A 
ATOM     81  C   UNL A   1      44.735  27.845  36.874  1.00  0.00     0.010 A 
ATOM     82  C   UNL A   1      47.301  28.817  36.337  1.00  0.00     0.020 A 
ATOM     83  C   UNL A   1      45.830  27.329  37.569  1.00  0.00     0.020 A 
ATOM     84  C   UNL A   1      47.110  27.811  37.288  1.00  0.00     0.054 A 
BRANCH  84  85
ATOM     85  S   UNL A   1      48.549  27.169  38.187  1.00  0.00     0.124 S 
ATOM     86  O   UNL A   1      48.848  28.263  39.105  1.00  0.00    -0.237 OA
ATOM     87  O   UNL A   1      48.019  25.953  38.799  1.00  0.00    -0.237 OA
ATOM     88  O   UNL A   1      49.538  26.947  37.133  1.00  0.00    -0.744 OA
ENDBRANCH  84  85
ENDBRANCH  56  79
BRANCH  68  89
ATOM     89  C   UNL A   1      39.965  33.495  37.647  1.00  0.00    -0.014 A 
ATOM     90  C   UNL A   1      40.488  34.782  37.861  1.00  0.00     0.010 A 
ATOM     91  C   UNL A   1      39.109  32.935  38.613  1.00  0.00     0.010 A 
ATOM     92  C   UNL A   1      40.185  35.480  39.034  1.00  0.00     0.020 A 
ATOM     93  C   UNL A   1      38.778  33.642  39.771  1.00  0.00     0.020 A 
ATOM     94  C   UNL A   1      39.331  34.908  39.981  1.00  0.00     0.054 A 
BRANCH  94  95
ATOM     95  S   UNL A   1      38.920  35.853  41.473  1.00  0.00     0.124 S 
ATOM     96  O   UNL A   1      39.971  35.436  42.396  1.00  0.00    -0.237 OA
ATOM     97  O   UNL A   1      39.003  37.235  41.007  1.00  0.00    -0.237 OA
ATOM     98  O   UNL A   1      37.575  35.397  41.815  1.00  0.00    -0.744 OA
ENDBRANCH  94  95
ENDBRANCH  68  89
ENDBRANCH  42  43
ENDBRANCH  35  37
ENDBRANCH  34  35
ENDBRANCH  33  34
ENDBRANCH  32  33
ENDBRANCH  31  32
ENDBRANCH   1  31
TORSDOF 22
ENDMDL
MODEL 3
REMARK VINA RESULT:      -9.4      1.784      8.202
REMARK SMILES Cc1nc(CCNc2nccc(-c3cc(C(=O)OCCOCCOC(=O)c4ccc(-c5c6nc(c(-c7ccc(S(=O)(=O)[O-])cc7)c7ccc([nH]7)c(-c7ccc(S(=O)(=O)[O-])cc7)c7nc(c(-c8ccc(S(=O)(=O)[O-])cc8)c8ccc5[nH]8)C=C7)C=C6)cc4)ccn3)n2)cc(=O)[nH]1
REMARK SMILES IDX 20 1 19 2 18 3 16 4 17 5 15 6 13 7 14 8 89 9 88 10 87 11
REMARK SMILES IDX 12 12 8 13 9 14 90 15 10 16 11 17 7 18 6 20 5 21 4 22 1 23
REMARK SMILES IDX 2 24 3 25 94 26 92 27 91 29 93 30 21 31 22 32 23 33 24 34
REMARK SMILES IDX 25 35 26 36 27 37 28 38 86 39 29 40 85 41 30 42 31 43 32 44
REMARK SMILES IDX 79 45 33 46 84 47 78 48 80 49 34 50 83 51 77 52 76 53 35 55
REMARK SMILES IDX 65 56 46 57 64 58 47 59 50 60 63 61 81 62 48 63 49 64 62 66
REMARK SMILES IDX 82 67 51 68 36 69 37 70 45 71 38 72 44 73 39 74 40 75 41 76
REMARK SMILES IDX 42 77 43 78 66 79 67 80 75 81 68 82 74 83 69 84 70 85 71 86
REMARK SMILES IDX 72 87 73 88 52 89 53 90 61 91 54 92 60 93 55 94 56 95 57 96
REMARK SMILES IDX 58 97 59 98
REMARK H PARENT 7 19 94 28 80 54 50 65
REMARK Flexibility Score: inf
ROOT
ATOM      1  C   UNL A   1      42.254  19.929  25.908  1.00  0.00     0.202 C 
ENDROOT
BRANCH   1   2
ATOM      2  C   UNL A   1      40.924  19.870  26.668  1.00  0.00     0.261 C 
BRANCH   2   3
ATOM      3  O   UNL A   1      40.009  20.879  26.214  1.00  0.00    -0.460 OA
BRANCH   3   4
ATOM      4  C   UNL A   1      38.975  20.423  25.469  1.00  0.00     0.338 C 
ATOM      5  O   UNL A   1      38.794  19.281  25.075  1.00  0.00    -0.246 OA
BRANCH   4   6
ATOM      6  C   UNL A   1      37.949  21.481  25.345  1.00  0.00     0.063 A 
ATOM      7  C   UNL A   1      35.842  22.341  24.609  1.00  0.00     0.090 A 
ATOM      8  C   UNL A   1      36.737  21.278  24.681  1.00  0.00     0.046 A 
ATOM      9  N   UNL A   1      36.145  23.561  25.134  1.00  0.00    -0.255 NA
ATOM     10  C   UNL A   1      37.329  23.731  25.751  1.00  0.00     0.112 A 
ATOM     11  C   UNL A   1      38.254  22.725  25.894  1.00  0.00     0.036 A 
BRANCH   7  12
ATOM     12  C   UNL A   1      34.471  22.203  24.075  1.00  0.00     0.094 A 
ATOM     13  C   UNL A   1      32.714  23.243  23.017  1.00  0.00     0.223 A 
ATOM     14  N   UNL A   1      31.847  22.289  23.376  1.00  0.00    -0.222 NA
ATOM     15  N   UNL A   1      34.016  23.222  23.306  1.00  0.00    -0.211 NA
ATOM     16  C   UNL A   1      32.344  21.242  24.058  1.00  0.00     0.117 A 
ATOM     17  C   UNL A   1      33.654  21.152  24.448  1.00  0.00     0.051 A 
BRANCH  13  18
ATOM     18  N   UNL A   1      32.161  24.336  22.404  1.00  0.00    -0.354 N 
ATOM     19  H   UNL A   1      32.501  24.627  21.527  1.00  0.00     0.163 HD
BRANCH  18  20
ATOM     20  C   UNL A   1      31.079  25.065  23.036  1.00  0.00     0.122 C 
BRANCH  20  21
ATOM     21  C   UNL A   1      31.512  25.641  24.399  1.00  0.00     0.077 C 
BRANCH  21  22
ATOM     22  C   UNL A   1      32.143  27.022  24.307  1.00  0.00     0.050 A 
ATOM     23  C   UNL A   1      31.677  30.265  26.003  1.00  0.00     0.087 C 
ATOM     24  C   UNL A   1      32.143  29.166  25.094  1.00  0.00     0.105 A 
ATOM     25  N   UNL A   1      31.611  27.986  25.136  1.00  0.00    -0.240 NA
ATOM     26  N   UNL A   1      33.151  29.510  24.240  1.00  0.00    -0.311 N 
ATOM     27  C   UNL A   1      33.706  28.612  23.382  1.00  0.00     0.251 A 
ATOM     28  H   UNL A   1      33.487  30.436  24.246  1.00  0.00     0.171 HD
ATOM     29  C   UNL A   1      33.187  27.244  23.493  1.00  0.00     0.095 A 
ATOM     30  O   UNL A   1      34.562  28.917  22.561  1.00  0.00    -0.270 OA
ENDBRANCH  21  22
ENDBRANCH  20  21
ENDBRANCH  18  20
ENDBRANCH  13  18
ENDBRANCH   7  12
ENDBRANCH   4   6
ENDBRANCH   3   4
ENDBRANCH   2   3
ENDBRANCH   1   2
BRANCH   1  31
ATOM     31  O   UNL A   1      42.586  21.160  25.266  1.00  0.00    -0.374 OA
BRANCH  31  32
ATOM     32  C   UNL A   1      43.772  21.831  25.692  1.00  0.00     0.202 C 
BRANCH  32  33
ATOM     33  C   UNL A   1      43.838  23.354  25.525  1.00  0.00     0.261 C 
BRANCH  33  34
ATOM     34  O   UNL A   1      43.931  24.050  26.779  1.00  0.00    -0.460 OA
BRANCH  34  35
ATOM     35  C   UNL A   1      44.444  25.302  26.688  1.00  0.00     0.338 C 
ATOM     36  O   UNL A   1      45.235  25.716  25.857  1.00  0.00    -0.246 OA
BRANCH  35  37
ATOM     37  C   UNL A   1      43.761  26.191  27.646  1.00  0.00     0.060 A 
ATOM     38  C   UNL A   1      44.133  27.542  27.655  1.00  0.00     0.016 A 
ATOM     39  C   UNL A   1      42.831  25.703  28.565  1.00  0.00     0.016 A 
ATOM     40  C   UNL A   1      43.609  28.402  28.617  1.00  0.00     0.010 A 
ATOM     41  C   UNL A   1      42.312  26.567  29.535  1.00  0.00     0.010 A 
ATOM     42  C   UNL A   1      42.725  27.912  29.586  1.00  0.00    -0.014 A 
BRANCH  42  43
ATOM     43  C   UNL A   1      42.335  28.773  30.729  1.00  0.00     0.031 A 
ATOM     44  C   UNL A   1      43.148  28.722  31.995  1.00  0.00     0.074 A 
ATOM     45  C   UNL A   1      41.282  29.603  30.634  1.00  0.00     0.049 A 
ATOM     46  N   UNL A   1      42.961  29.355  33.125  1.00  0.00    -0.248 NA
ATOM     47  C   UNL A   1      44.324  27.838  31.989  1.00  0.00     0.031 C 
ATOM     48  C   UNL A   1      40.445  29.775  29.447  1.00  0.00     0.029 A 
ATOM     49  N   UNL A   1      40.735  30.458  31.558  1.00  0.00    -0.354 N 
ATOM     50  C   UNL A   1      43.986  28.939  33.966  1.00  0.00     0.074 A 
ATOM     51  C   UNL A   1      44.774  27.976  33.229  1.00  0.00     0.031 C 
ATOM     52  C   UNL A   1      39.485  30.677  29.717  1.00  0.00     0.029 A 
ATOM     53  C   UNL A   1      39.615  31.115  31.105  1.00  0.00     0.049 A 
ATOM     54  H   UNL A   1      41.107  30.588  32.459  1.00  0.00     0.167 HD
ATOM     55  C   UNL A   1      44.251  29.328  35.236  1.00  0.00     0.031 A 
ATOM     56  C   UNL A   1      38.776  31.956  31.743  1.00  0.00     0.031 A 
ATOM     57  C   UNL A   1      43.456  30.278  35.970  1.00  0.00     0.049 A 
ATOM     58  C   UNL A   1      39.048  32.315  33.181  1.00  0.00     0.074 A 
ATOM     59  C   UNL A   1      43.652  30.752  37.256  1.00  0.00     0.029 A 
ATOM     60  N   UNL A   1      42.310  30.894  35.489  1.00  0.00    -0.354 N 
ATOM     61  N   UNL A   1      40.035  31.932  33.955  1.00  0.00    -0.248 NA
ATOM     62  C   UNL A   1      38.093  33.226  33.829  1.00  0.00     0.031 C 
ATOM     63  C   UNL A   1      42.589  31.602  37.575  1.00  0.00     0.029 A 
ATOM     64  C   UNL A   1      41.770  31.718  36.462  1.00  0.00     0.049 A 
ATOM     65  H   UNL A   1      41.936  30.763  34.587  1.00  0.00     0.167 HD
ATOM     66  C   UNL A   1      39.839  32.582  35.170  1.00  0.00     0.074 A 
ATOM     67  C   UNL A   1      38.647  33.391  35.023  1.00  0.00     0.031 C 
ATOM     68  C   UNL A   1      40.581  32.517  36.304  1.00  0.00     0.031 A 
BRANCH  55  69
ATOM     69  C   UNL A   1      45.429  28.695  35.931  1.00  0.00    -0.014 A 
ATOM     70  C   UNL A   1      45.288  27.519  36.690  1.00  0.00     0.010 A 
ATOM     71  C   UNL A   1      46.708  29.264  35.787  1.00  0.00     0.010 A 
ATOM     72  C   UNL A   1      46.396  26.947  37.322  1.00  0.00     0.020 A 
ATOM     73  C   UNL A   1      47.823  28.678  36.391  1.00  0.00     0.020 A 
ATOM     74  C   UNL A   1      47.657  27.531  37.169  1.00  0.00     0.054 A 
BRANCH  74  75
ATOM     75  S   UNL A   1      49.080  26.752  37.980  1.00  0.00     0.124 S 
ATOM     76  O   UNL A   1      50.162  27.673  37.639  1.00  0.00    -0.237 OA
ATOM     77  O   UNL A   1      48.682  26.744  39.385  1.00  0.00    -0.237 OA
ATOM     78  O   UNL A   1      49.163  25.436  37.350  1.00  0.00    -0.744 OA
ENDBRANCH  74  75
ENDBRANCH  55  69
BRANCH  56  79
ATOM     79  C   UNL A   1      37.588  32.501  31.032  1.00  0.00    -0.014 A 
ATOM     80  C   UNL A   1      37.708  33.603  30.168  1.00  0.00     0.010 A 
ATOM     81  C   UNL A   1      36.322  31.915  31.217  1.00  0.00     0.010 A 
ATOM     82  C   UNL A   1      36.585  34.118  29.514  1.00  0.00     0.020 A 
ATOM     83  C   UNL A   1      35.202  32.406  30.541  1.00  0.00     0.020 A 
ATOM     84  C   UNL A   1      35.339  33.512  29.701  1.00  0.00     0.054 A 
BRANCH  84  85
ATOM     85  S   UNL A   1      33.906  34.161  28.799  1.00  0.00     0.124 S 
ATOM     86  O   UNL A   1      33.059  34.650  29.882  1.00  0.00    -0.237 OA
ATOM     87  O   UNL A   1      34.507  35.188  27.952  1.00  0.00    -0.237 OA
ATOM     88  O   UNL A   1      33.396  32.994  28.082  1.00  0.00    -0.744 OA
ENDBRANCH  84  85
ENDBRANCH  56  79
BRANCH  68  89
ATOM     89  C   UNL A   1      40.154  33.376  37.468  1.00  0.00    -0.014 A 
ATOM     90  C   UNL A   1      40.578  34.711  37.590  1.00  0.00     0.010 A 
ATOM     91  C   UNL A   1      39.267  32.850  38.425  1.00  0.00     0.010 A 
ATOM     92  C   UNL A   1      40.149  35.493  38.666  1.00  0.00     0.020 A 
ATOM     93  C   UNL A   1      38.809  33.638  39.484  1.00  0.00     0.020 A 
ATOM     94  C   UNL A   1      39.265  34.953  39.605  1.00  0.00     0.054 A 
BRANCH  94  95
ATOM     95  S   UNL A   1      38.689  36.003  40.967  1.00  0.00     0.124 S 
ATOM     96  O   UNL A   1      37.468  35.319  41.384  1.00  0.00    -0.237 OA
ATOM     97  O   UNL A   1      39.800  35.937  41.912  1.00  0.00    -0.237 OA
ATOM     98  O   UNL A   1      38.488  37.307  40.339  1.00  0.00    -0.744 OA
ENDBRANCH  94  95
ENDBRANCH  68  89
ENDBRANCH  42  43
ENDBRANCH  35  37
ENDBRANCH  34  35
ENDBRANCH  33  34
ENDBRANCH  32  33
ENDBRANCH  31  32
ENDBRANCH   1  31
TORSDOF 22
ENDMDL
