MODEL 1
REMARK VINA RESULT:     -11.0      0.000      0.000
REMARK SMILES CC(C)C(=O)Nc1ccc2c([C@H](C(=O)OCCOCCOC(=O)c3ccc(-c4c5nc(c(-c6ccc(S(=O)(=O)[O-])cc6)c6ccc([nH]6)c(-c6ccc(S(=O)(=O)[O-])cc6)c6nc(c(-c7ccc(S(=O)(=O)[O-])cc7)c7ccc4[nH]7)C=C6)C=C5)cc3)[NH+]3CC[NH+](CC(=O)N(C)C)CC3)c[nH]c2c1
REMARK SMILES IDX 18 1 17 2 16 3 15 4 13 5 14 6 12 7 11 8 7 9 8 10 99 11 9 12
REMARK SMILES IDX 98 13 10 14 97 15 96 16 6 18 4 19 5 20 2 22 1 23 3 24 84 25
REMARK SMILES IDX 85 26 95 27 86 29 94 30 87 31 88 33 89 34 90 35 91 36 92 37
REMARK SMILES IDX 93 38 19 39 20 40 21 41 22 42 23 43 24 44 25 45 83 46 26 47
REMARK SMILES IDX 82 48 27 49 28 50 29 51 76 52 30 53 81 54 75 55 77 56 31 57
REMARK SMILES IDX 80 58 74 59 73 60 32 62 62 63 43 64 61 65 44 66 47 67 60 68
REMARK SMILES IDX 78 69 45 70 46 71 59 73 79 74 48 75 33 76 34 77 42 78 35 79
REMARK SMILES IDX 41 80 36 81 37 82 38 83 39 84 40 85 63 86 64 87 72 88 65 89
REMARK SMILES IDX 71 90 66 91 67 92 68 93 69 94 70 95 49 96 50 97 58 98 51 99
REMARK SMILES IDX 57 100 52 101 53 102 54 103 55 104 56 105
REMARK H PARENT 97 17 6 21 84 28 87 32 77 61 47 72
REMARK Flexibility Score: inf
ROOT
ATOM      1  O   UNL A   1      34.976  30.752  27.480  1.00  0.00    -0.374 OA
ENDROOT
BRANCH   1   2
ATOM      2  C   UNL A   1      33.654  30.223  27.332  1.00  0.00     0.202 C 
BRANCH   2   3
ATOM      3  C   UNL A   1      33.483  29.183  26.217  1.00  0.00     0.261 C 
BRANCH   3   4
ATOM      4  O   UNL A   1      33.261  27.889  26.793  1.00  0.00    -0.459 OA
BRANCH   4   5
ATOM      5  C   UNL A   1      31.978  27.494  27.046  1.00  0.00     0.370 C 
ATOM      6  O   UNL A   1      31.220  28.096  27.801  1.00  0.00    -0.245 OA
BRANCH   5   7
ATOM      7  C   UNL A   1      31.596  26.188  26.250  1.00  0.00     0.328 C 
BRANCH   7   8
ATOM      8  C   UNL A   1      30.400  26.461  25.360  1.00  0.00     0.046 A 
ATOM      9  C   UNL A   1      29.560  29.479  22.574  1.00  0.00     0.043 A 
ATOM     10  C   UNL A   1      30.610  29.739  23.444  1.00  0.00     0.027 A 
ATOM     11  C   UNL A   1      28.701  28.395  22.798  1.00  0.00     0.052 A 
ATOM     12  C   UNL A   1      30.986  28.812  24.410  1.00  0.00     0.013 A 
ATOM     13  C   UNL A   1      29.084  27.474  23.784  1.00  0.00     0.048 A 
ATOM     14  C   UNL A   1      30.238  27.631  24.550  1.00  0.00     0.009 A 
ATOM     15  N   UNL A   1      28.505  26.290  24.179  1.00  0.00    -0.361 N 
ATOM     16  C   UNL A   1      29.286  25.674  25.121  1.00  0.00     0.094 A 
ATOM     17  H   UNL A   1      27.654  25.937  23.833  1.00  0.00     0.166 HD
BRANCH   9  18
ATOM     18  N   UNL A   1      29.334  30.293  21.463  1.00  0.00    -0.326 N 
ATOM     19  C   UNL A   1      28.561  31.417  21.350  1.00  0.00     0.226 C 
ATOM     20  O   UNL A   1      28.357  31.850  20.209  1.00  0.00    -0.274 OA
ATOM     21  H   UNL A   1      29.796  30.017  20.640  1.00  0.00     0.169 HD
BRANCH  19  22
ATOM     22  C   UNL A   1      28.060  32.226  22.562  1.00  0.00     0.072 C 
ATOM     23  C   UNL A   1      27.387  31.428  23.672  1.00  0.00     0.018 C 
ATOM     24  C   UNL A   1      29.083  33.226  23.101  1.00  0.00     0.018 C 
ENDBRANCH  19  22
ENDBRANCH   9  18
ENDBRANCH   7   8
BRANCH   7  25
ATOM     25  N   UNL A   1      32.752  25.687  25.473  1.00  0.00    -0.310 N 
ATOM     26  C   UNL A   1      32.652  25.471  24.028  1.00  0.00     0.325 C 
ATOM     27  C   UNL A   1      33.315  24.456  26.050  1.00  0.00     0.325 C 
ATOM     28  H   UNL A   1      33.346  26.510  25.563  1.00  0.00     0.349 HD
ATOM     29  C   UNL A   1      34.054  25.201  23.403  1.00  0.00     0.325 C 
ATOM     30  C   UNL A   1      34.790  24.399  25.640  1.00  0.00     0.325 C 
ATOM     31  N   UNL A   1      35.055  24.470  24.203  1.00  0.00    -0.318 N 
ATOM     32  H   UNL A   1      35.863  25.091  24.165  1.00  0.00     0.348 HD
BRANCH  31  33
ATOM     33  C   UNL A   1      35.566  23.237  23.590  1.00  0.00     0.364 C 
BRANCH  33  34
ATOM     34  C   UNL A   1      34.630  22.048  23.823  1.00  0.00     0.277 C 
ATOM     35  O   UNL A   1      33.508  22.040  23.302  1.00  0.00    -0.268 OA
ATOM     36  N   UNL A   1      35.014  21.052  24.708  1.00  0.00    -0.344 N 
ATOM     37  C   UNL A   1      36.383  20.695  25.047  1.00  0.00     0.146 C 
ATOM     38  C   UNL A   1      33.970  20.195  25.228  1.00  0.00     0.146 C 
ENDBRANCH  33  34
ENDBRANCH  31  33
ENDBRANCH   7  25
ENDBRANCH   5   7
ENDBRANCH   4   5
ENDBRANCH   3   4
ENDBRANCH   2   3
ENDBRANCH   1   2
BRANCH   1  39
ATOM     39  C   UNL A   1      35.126  31.864  28.365  1.00  0.00     0.202 C 
BRANCH  39  40
ATOM     40  C   UNL A   1      35.400  31.519  29.833  1.00  0.00     0.261 C 
BRANCH  40  41
ATOM     41  O   UNL A   1      36.146  30.301  29.963  1.00  0.00    -0.460 OA
BRANCH  41  42
ATOM     42  C   UNL A   1      36.868  30.162  31.089  1.00  0.00     0.338 C 
ATOM     43  O   UNL A   1      36.448  29.984  32.228  1.00  0.00    -0.246 OA
BRANCH  42  44
ATOM     44  C   UNL A   1      38.298  30.083  30.745  1.00  0.00     0.060 A 
ATOM     45  C   UNL A   1      38.671  30.431  29.443  1.00  0.00     0.016 A 
ATOM     46  C   UNL A   1      39.248  29.601  31.650  1.00  0.00     0.016 A 
ATOM     47  C   UNL A   1      39.987  30.248  29.026  1.00  0.00     0.010 A 
ATOM     48  C   UNL A   1      40.574  29.426  31.229  1.00  0.00     0.010 A 
ATOM     49  C   UNL A   1      40.945  29.712  29.901  1.00  0.00    -0.014 A 
BRANCH  49  50
ATOM     50  C   UNL A   1      42.289  29.355  29.372  1.00  0.00     0.031 A 
ATOM     51  C   UNL A   1      42.525  27.976  28.811  1.00  0.00     0.074 A 
ATOM     52  C   UNL A   1      43.273  30.273  29.323  1.00  0.00     0.049 A 
ATOM     53  N   UNL A   1      43.596  27.491  28.232  1.00  0.00    -0.248 NA
ATOM     54  C   UNL A   1      41.412  27.019  28.910  1.00  0.00     0.031 C 
ATOM     55  C   UNL A   1      43.167  31.650  29.805  1.00  0.00     0.029 A 
ATOM     56  N   UNL A   1      44.553  30.188  28.831  1.00  0.00    -0.354 N 
ATOM     57  C   UNL A   1      43.286  26.176  27.900  1.00  0.00     0.074 A 
ATOM     58  C   UNL A   1      41.944  25.928  28.379  1.00  0.00     0.031 C 
ATOM     59  C   UNL A   1      44.327  32.285  29.570  1.00  0.00     0.029 A 
ATOM     60  C   UNL A   1      45.270  31.355  28.951  1.00  0.00     0.049 A 
ATOM     61  H   UNL A   1      44.922  29.368  28.429  1.00  0.00     0.167 HD
ATOM     62  C   UNL A   1      44.044  25.261  27.248  1.00  0.00     0.031 A 
ATOM     63  C   UNL A   1      46.542  31.645  28.609  1.00  0.00     0.031 A 
ATOM     64  C   UNL A   1      45.384  25.505  26.780  1.00  0.00     0.049 A 
ATOM     65  C   UNL A   1      47.390  30.591  27.946  1.00  0.00     0.074 A 
ATOM     66  C   UNL A   1      46.219  24.649  26.082  1.00  0.00     0.029 A 
ATOM     67  N   UNL A   1      46.091  26.680  26.974  1.00  0.00    -0.354 N 
ATOM     68  N   UNL A   1      47.061  29.370  27.595  1.00  0.00    -0.248 NA
ATOM     69  C   UNL A   1      48.777  30.956  27.624  1.00  0.00     0.031 C 
ATOM     70  C   UNL A   1      47.454  25.283  25.915  1.00  0.00     0.029 A 
ATOM     71  C   UNL A   1      47.367  26.559  26.447  1.00  0.00     0.049 A 
ATOM     72  H   UNL A   1      45.739  27.485  27.421  1.00  0.00     0.167 HD
ATOM     73  C   UNL A   1      48.194  28.829  26.997  1.00  0.00     0.074 A 
ATOM     74  C   UNL A   1      49.211  29.861  27.015  1.00  0.00     0.031 C 
ATOM     75  C   UNL A   1      48.377  27.588  26.480  1.00  0.00     0.031 A 
BRANCH  62  76
ATOM     76  C   UNL A   1      43.451  23.892  27.029  1.00  0.00    -0.014 A 
ATOM     77  C   UNL A   1      42.990  23.486  25.763  1.00  0.00     0.010 A 
ATOM     78  C   UNL A   1      43.391  22.981  28.100  1.00  0.00     0.010 A 
ATOM     79  C   UNL A   1      42.441  22.213  25.584  1.00  0.00     0.020 A 
ATOM     80  C   UNL A   1      42.870  21.697  27.918  1.00  0.00     0.020 A 
ATOM     81  C   UNL A   1      42.381  21.327  26.664  1.00  0.00     0.054 A 
BRANCH  81  82
ATOM     82  S   UNL A   1      41.675  19.678  26.401  1.00  0.00     0.124 S 
ATOM     83  O   UNL A   1      40.255  19.981  26.238  1.00  0.00    -0.237 OA
ATOM     84  O   UNL A   1      42.363  19.225  25.194  1.00  0.00    -0.237 OA
ATOM     85  O   UNL A   1      42.021  18.952  27.621  1.00  0.00    -0.744 OA
ENDBRANCH  81  82
ENDBRANCH  62  76
BRANCH  63  86
ATOM     86  C   UNL A   1      47.099  32.994  28.909  1.00  0.00    -0.014 A 
ATOM     87  C   UNL A   1      47.740  33.259  30.131  1.00  0.00     0.010 A 
ATOM     88  C   UNL A   1      46.998  34.024  27.953  1.00  0.00     0.010 A 
ATOM     89  C   UNL A   1      48.265  34.529  30.395  1.00  0.00     0.020 A 
ATOM     90  C   UNL A   1      47.548  35.283  28.201  1.00  0.00     0.020 A 
ATOM     91  C   UNL A   1      48.172  35.530  29.424  1.00  0.00     0.054 A 
BRANCH  91  92
ATOM     92  S   UNL A   1      48.923  37.149  29.758  1.00  0.00     0.124 S 
ATOM     93  O   UNL A   1      50.300  36.786  30.076  1.00  0.00    -0.237 OA
ATOM     94  O   UNL A   1      48.727  37.852  28.494  1.00  0.00    -0.237 OA
ATOM     95  O   UNL A   1      48.137  37.664  30.878  1.00  0.00    -0.744 OA
ENDBRANCH  91  92
ENDBRANCH  63  86
BRANCH  75  96
ATOM     96  C   UNL A   1      49.721  27.270  25.878  1.00  0.00    -0.014 A 
ATOM     97  C   UNL A   1      50.681  26.531  26.591  1.00  0.00     0.010 A 
ATOM     98  C   UNL A   1      50.002  27.657  24.554  1.00  0.00     0.010 A 
ATOM     99  C   UNL A   1      51.905  26.204  26.000  1.00  0.00     0.020 A 
ATOM    100  C   UNL A   1      51.212  27.308  23.950  1.00  0.00     0.020 A 
ATOM    101  C   UNL A   1      52.163  26.592  24.682  1.00  0.00     0.054 A 
BRANCH 101 102
ATOM    102  S   UNL A   1      53.736  26.107  23.921  1.00  0.00     0.124 S 
ATOM    103  O   UNL A   1      54.047  24.868  24.628  1.00  0.00    -0.237 OA
ATOM    104  O   UNL A   1      53.376  25.954  22.513  1.00  0.00    -0.237 OA
ATOM    105  O   UNL A   1      54.624  27.230  24.213  1.00  0.00    -0.744 OA
ENDBRANCH 101 102
ENDBRANCH  75  96
ENDBRANCH  49  50
ENDBRANCH  42  44
ENDBRANCH  41  42
ENDBRANCH  40  41
ENDBRANCH  39  40
ENDBRANCH   1  39
TORSDOF 23
ENDMDL
MODEL 2
REMARK VINA RESULT:     -10.8      1.528      7.739
REMARK SMILES CC(C)C(=O)Nc1ccc2c([C@H](C(=O)OCCOCCOC(=O)c3ccc(-c4c5nc(c(-c6ccc(S(=O)(=O)[O-])cc6)c6ccc([nH]6)c(-c6ccc(S(=O)(=O)[O-])cc6)c6nc(c(-c7ccc(S(=O)(=O)[O-])cc7)c7ccc4[nH]7)C=C6)C=C5)cc3)[NH+]3CC[NH+](CC(=O)N(C)C)CC3)c[nH]c2c1
REMARK SMILES IDX 18 1 17 2 16 3 15 4 13 5 14 6 12 7 11 8 7 9 8 10 99 11 9 12
REMARK SMILES IDX 98 13 10 14 97 15 96 16 6 18 4 19 5 20 2 22 1 23 3 24 84 25
REMARK SMILES IDX 85 26 95 27 86 29 94 30 87 31 88 33 89 34 90 35 91 36 92 37
REMARK SMILES IDX 93 38 19 39 20 40 21 41 22 42 23 43 24 44 25 45 83 46 26 47
REMARK SMILES IDX 82 48 27 49 28 50 29 51 76 52 30 53 81 54 75 55 77 56 31 57
REMARK SMILES IDX 80 58 74 59 73 60 32 62 62 63 43 64 61 65 44 66 47 67 60 68
REMARK SMILES IDX 78 69 45 70 46 71 59 73 79 74 48 75 33 76 34 77 42 78 35 79
REMARK SMILES IDX 41 80 36 81 37 82 38 83 39 84 40 85 63 86 64 87 72 88 65 89
REMARK SMILES IDX 71 90 66 91 67 92 68 93 69 94 70 95 49 96 50 97 58 98 51 99
REMARK SMILES IDX 57 100 52 101 53 102 54 103 55 104 56 105
REMARK H PARENT 97 17 6 21 84 28 87 32 77 61 47 72
REMARK Flexibility Score: inf
ROOT
ATOM      1  O   UNL A   1      34.375  30.178  27.394  1.00  0.00    -0.374 OA
ENDROOT
BRANCH   1   2
ATOM      2  C   UNL A   1      33.018  30.312  26.955  1.00  0.00     0.202 C 
BRANCH   2   3
ATOM      3  C   UNL A   1      32.158  29.049  27.090  1.00  0.00     0.261 C 
BRANCH   3   4
ATOM      4  O   UNL A   1      32.964  27.888  26.854  1.00  0.00    -0.459 OA
BRANCH   4   5
ATOM      5  C   UNL A   1      32.870  27.256  25.646  1.00  0.00     0.370 C 
ATOM      6  O   UNL A   1      33.499  27.603  24.649  1.00  0.00    -0.245 OA
BRANCH   5   7
ATOM      7  C   UNL A   1      31.872  26.038  25.694  1.00  0.00     0.328 C 
BRANCH   7   8
ATOM      8  C   UNL A   1      30.590  26.395  24.967  1.00  0.00     0.046 A 
ATOM      9  C   UNL A   1      29.568  29.537  22.388  1.00  0.00     0.043 A 
ATOM     10  C   UNL A   1      30.729  29.720  23.126  1.00  0.00     0.027 A 
ATOM     11  C   UNL A   1      28.689  28.489  22.689  1.00  0.00     0.052 A 
ATOM     12  C   UNL A   1      31.174  28.745  24.014  1.00  0.00     0.013 A 
ATOM     13  C   UNL A   1      29.143  27.520  23.596  1.00  0.00     0.048 A 
ATOM     14  C   UNL A   1      30.390  27.598  24.215  1.00  0.00     0.009 A 
ATOM     15  N   UNL A   1      28.558  26.353  24.028  1.00  0.00    -0.361 N 
ATOM     16  C   UNL A   1      29.417  25.670  24.850  1.00  0.00     0.094 A 
ATOM     17  H   UNL A   1      27.654  26.051  23.782  1.00  0.00     0.166 HD
BRANCH   9  18
ATOM     18  N   UNL A   1      29.248  30.397  21.336  1.00  0.00    -0.326 N 
ATOM     19  C   UNL A   1      28.479  31.529  21.338  1.00  0.00     0.226 C 
ATOM     20  O   UNL A   1      28.174  32.008  20.238  1.00  0.00    -0.274 OA
ATOM     21  H   UNL A   1      29.631  30.152  20.463  1.00  0.00     0.169 HD
BRANCH  19  22
ATOM     22  C   UNL A   1      28.097  32.291  22.622  1.00  0.00     0.072 C 
ATOM     23  C   UNL A   1      27.435  31.469  23.722  1.00  0.00     0.018 C 
ATOM     24  C   UNL A   1      29.211  33.191  23.157  1.00  0.00     0.018 C 
ENDBRANCH  19  22
ENDBRANCH   9  18
ENDBRANCH   7   8
BRANCH   7  25
ATOM     25  N   UNL A   1      32.497  24.821  25.132  1.00  0.00    -0.310 N 
ATOM     26  C   UNL A   1      32.365  24.494  23.710  1.00  0.00     0.325 C 
ATOM     27  C   UNL A   1      32.130  23.611  25.883  1.00  0.00     0.325 C 
ATOM     28  H   UNL A   1      33.471  25.106  25.234  1.00  0.00     0.349 HD
ATOM     29  C   UNL A   1      33.319  23.327  23.311  1.00  0.00     0.325 C 
ATOM     30  C   UNL A   1      33.262  22.597  25.689  1.00  0.00     0.325 C 
ATOM     31  N   UNL A   1      33.593  22.269  24.303  1.00  0.00    -0.318 N 
ATOM     32  H   UNL A   1      34.612  22.246  24.326  1.00  0.00     0.348 HD
BRANCH  31  33
ATOM     33  C   UNL A   1      33.249  20.907  23.874  1.00  0.00     0.364 C 
BRANCH  33  34
ATOM     34  C   UNL A   1      34.173  19.857  24.497  1.00  0.00     0.277 C 
ATOM     35  O   UNL A   1      35.310  20.180  24.861  1.00  0.00    -0.268 OA
ATOM     36  N   UNL A   1      33.759  18.534  24.537  1.00  0.00    -0.344 N 
ATOM     37  C   UNL A   1      32.379  18.074  24.560  1.00  0.00     0.146 C 
ATOM     38  C   UNL A   1      34.784  17.529  24.720  1.00  0.00     0.146 C 
ENDBRANCH  33  34
ENDBRANCH  31  33
ENDBRANCH   7  25
ENDBRANCH   5   7
ENDBRANCH   4   5
ENDBRANCH   3   4
ENDBRANCH   2   3
ENDBRANCH   1   2
BRANCH   1  39
ATOM     39  C   UNL A   1      35.033  31.377  27.811  1.00  0.00     0.202 C 
BRANCH  39  40
ATOM     40  C   UNL A   1      35.596  31.370  29.236  1.00  0.00     0.261 C 
BRANCH  40  41
ATOM     41  O   UNL A   1      36.986  31.015  29.258  1.00  0.00    -0.460 OA
BRANCH  41  42
ATOM     42  C   UNL A   1      37.281  29.795  29.741  1.00  0.00     0.338 C 
ATOM     43  O   UNL A   1      36.562  29.065  30.417  1.00  0.00    -0.246 OA
BRANCH  42  44
ATOM     44  C   UNL A   1      38.574  29.352  29.193  1.00  0.00     0.060 A 
ATOM     45  C   UNL A   1      39.565  28.970  30.103  1.00  0.00     0.016 A 
ATOM     46  C   UNL A   1      38.845  29.386  27.823  1.00  0.00     0.016 A 
ATOM     47  C   UNL A   1      40.848  28.670  29.648  1.00  0.00     0.010 A 
ATOM     48  C   UNL A   1      40.135  29.075  27.367  1.00  0.00     0.010 A 
ATOM     49  C   UNL A   1      41.156  28.752  28.281  1.00  0.00    -0.014 A 
BRANCH  49  50
ATOM     50  C   UNL A   1      42.573  28.610  27.849  1.00  0.00     0.031 A 
ATOM     51  C   UNL A   1      43.530  29.758  28.048  1.00  0.00     0.074 A 
ATOM     52  C   UNL A   1      43.024  27.443  27.350  1.00  0.00     0.049 A 
ATOM     53  N   UNL A   1      44.818  29.810  27.813  1.00  0.00    -0.248 NA
ATOM     54  C   UNL A   1      42.967  31.007  28.583  1.00  0.00     0.031 C 
ATOM     55  C   UNL A   1      42.210  26.248  27.133  1.00  0.00     0.029 A 
ATOM     56  N   UNL A   1      44.284  27.069  26.947  1.00  0.00    -0.354 N 
ATOM     57  C   UNL A   1      45.217  31.094  28.170  1.00  0.00     0.074 A 
ATOM     58  C   UNL A   1      44.029  31.799  28.598  1.00  0.00     0.031 C 
ATOM     59  C   UNL A   1      42.994  25.268  26.653  1.00  0.00     0.029 A 
ATOM     60  C   UNL A   1      44.357  25.772  26.497  1.00  0.00     0.049 A 
ATOM     61  H   UNL A   1      45.061  27.673  26.980  1.00  0.00     0.167 HD
ATOM     62  C   UNL A   1      46.460  31.634  28.155  1.00  0.00     0.031 A 
ATOM     63  C   UNL A   1      45.399  25.068  26.008  1.00  0.00     0.031 A 
ATOM     64  C   UNL A   1      47.641  30.936  27.720  1.00  0.00     0.049 A 
ATOM     65  C   UNL A   1      46.759  25.712  25.936  1.00  0.00     0.074 A 
ATOM     66  C   UNL A   1      48.949  31.391  27.698  1.00  0.00     0.029 A 
ATOM     67  N   UNL A   1      47.661  29.645  27.218  1.00  0.00    -0.354 N 
ATOM     68  N   UNL A   1      47.125  26.910  26.327  1.00  0.00    -0.248 NA
ATOM     69  C   UNL A   1      47.849  24.906  25.366  1.00  0.00     0.031 C 
ATOM     70  C   UNL A   1      49.747  30.400  27.118  1.00  0.00     0.029 A 
ATOM     71  C   UNL A   1      48.950  29.301  26.843  1.00  0.00     0.049 A 
ATOM     72  H   UNL A   1      46.874  29.057  27.139  1.00  0.00     0.167 HD
ATOM     73  C   UNL A   1      48.489  26.994  26.065  1.00  0.00     0.074 A 
ATOM     74  C   UNL A   1      48.887  25.720  25.502  1.00  0.00     0.031 C 
ATOM     75  C   UNL A   1      49.335  28.034  26.272  1.00  0.00     0.031 A 
BRANCH  62  76
ATOM     76  C   UNL A   1      46.602  33.071  28.593  1.00  0.00    -0.014 A 
ATOM     77  C   UNL A   1      46.946  33.403  29.917  1.00  0.00     0.010 A 
ATOM     78  C   UNL A   1      46.428  34.104  27.654  1.00  0.00     0.010 A 
ATOM     79  C   UNL A   1      47.069  34.742  30.301  1.00  0.00     0.020 A 
ATOM     80  C   UNL A   1      46.579  35.442  28.027  1.00  0.00     0.020 A 
ATOM     81  C   UNL A   1      46.881  35.754  29.354  1.00  0.00     0.054 A 
BRANCH  81  82
ATOM     82  S   UNL A   1      47.058  37.481  29.878  1.00  0.00     0.124 S 
ATOM     83  O   UNL A   1      45.746  37.755  30.457  1.00  0.00    -0.237 OA
ATOM     84  O   UNL A   1      48.164  37.413  30.831  1.00  0.00    -0.237 OA
ATOM     85  O   UNL A   1      47.353  38.192  28.637  1.00  0.00    -0.744 OA
ENDBRANCH  81  82
ENDBRANCH  62  76
BRANCH  63  86
ATOM     86  C   UNL A   1      45.189  23.674  25.527  1.00  0.00    -0.014 A 
ATOM     87  C   UNL A   1      44.825  23.413  24.195  1.00  0.00     0.010 A 
ATOM     88  C   UNL A   1      45.366  22.592  26.410  1.00  0.00     0.010 A 
ATOM     89  C   UNL A   1      44.639  22.098  23.756  1.00  0.00     0.020 A 
ATOM     90  C   UNL A   1      45.211  21.276  25.968  1.00  0.00     0.020 A 
ATOM     91  C   UNL A   1      44.841  21.038  24.644  1.00  0.00     0.054 A 
BRANCH  91  92
ATOM     92  S   UNL A   1      44.665  19.337  24.035  1.00  0.00     0.124 S 
ATOM     93  O   UNL A   1      44.531  19.540  22.597  1.00  0.00    -0.237 OA
ATOM     94  O   UNL A   1      45.910  18.716  24.476  1.00  0.00    -0.237 OA
ATOM     95  O   UNL A   1      43.463  18.855  24.715  1.00  0.00    -0.744 OA
ENDBRANCH  91  92
ENDBRANCH  63  86
BRANCH  75  96
ATOM     96  C   UNL A   1      50.783  27.844  25.900  1.00  0.00    -0.014 A 
ATOM     97  C   UNL A   1      51.698  27.283  26.808  1.00  0.00     0.010 A 
ATOM     98  C   UNL A   1      51.219  28.166  24.602  1.00  0.00     0.010 A 
ATOM     99  C   UNL A   1      53.028  27.070  26.432  1.00  0.00     0.020 A 
ATOM    100  C   UNL A   1      52.540  27.929  24.212  1.00  0.00     0.020 A 
ATOM    101  C   UNL A   1      53.440  27.391  25.135  1.00  0.00     0.054 A 
BRANCH 101 102
ATOM    102  S   UNL A   1      55.157  27.053  24.656  1.00  0.00     0.124 S 
ATOM    103  O   UNL A   1      55.024  26.771  23.229  1.00  0.00    -0.237 OA
ATOM    104  O   UNL A   1      55.833  28.305  24.988  1.00  0.00    -0.237 OA
ATOM    105  O   UNL A   1      55.531  25.910  25.485  1.00  0.00    -0.744 OA
ENDBRANCH 101 102
ENDBRANCH  75  96
ENDBRANCH  49  50
ENDBRANCH  42  44
ENDBRANCH  41  42
ENDBRANCH  40  41
ENDBRANCH  39  40
ENDBRANCH   1  39
TORSDOF 23
ENDMDL
MODEL 3
REMARK VINA RESULT:     -10.7      6.121     11.065
REMARK SMILES CC(C)C(=O)Nc1ccc2c([C@H](C(=O)OCCOCCOC(=O)c3ccc(-c4c5nc(c(-c6ccc(S(=O)(=O)[O-])cc6)c6ccc([nH]6)c(-c6ccc(S(=O)(=O)[O-])cc6)c6nc(c(-c7ccc(S(=O)(=O)[O-])cc7)c7ccc4[nH]7)C=C6)C=C5)cc3)[NH+]3CC[NH+](CC(=O)N(C)C)CC3)c[nH]c2c1
REMARK SMILES IDX 18 1 17 2 16 3 15 4 13 5 14 6 12 7 11 8 7 9 8 10 99 11 9 12
REMARK SMILES IDX 98 13 10 14 97 15 96 16 6 18 4 19 5 20 2 22 1 23 3 24 84 25
REMARK SMILES IDX 85 26 95 27 86 29 94 30 87 31 88 33 89 34 90 35 91 36 92 37
REMARK SMILES IDX 93 38 19 39 20 40 21 41 22 42 23 43 24 44 25 45 83 46 26 47
REMARK SMILES IDX 82 48 27 49 28 50 29 51 76 52 30 53 81 54 75 55 77 56 31 57
REMARK SMILES IDX 80 58 74 59 73 60 32 62 62 63 43 64 61 65 44 66 47 67 60 68
REMARK SMILES IDX 78 69 45 70 46 71 59 73 79 74 48 75 33 76 34 77 42 78 35 79
REMARK SMILES IDX 41 80 36 81 37 82 38 83 39 84 40 85 63 86 64 87 72 88 65 89
REMARK SMILES IDX 71 90 66 91 67 92 68 93 69 94 70 95 49 96 50 97 58 98 51 99
REMARK SMILES IDX 57 100 52 101 53 102 54 103 55 104 56 105
REMARK H PARENT 97 17 6 21 84 28 87 32 77 61 47 72
REMARK Flexibility Score: inf
ROOT
ATOM      1  O   UNL A   1      38.517  22.066  25.681  1.00  0.00    -0.374 OA
ENDROOT
BRANCH   1   2
ATOM      2  C   UNL A   1      37.766  23.210  26.106  1.00  0.00     0.202 C 
BRANCH   2   3
ATOM      3  C   UNL A   1      36.683  23.684  25.128  1.00  0.00     0.261 C 
BRANCH   3   4
ATOM      4  O   UNL A   1      35.536  22.831  25.228  1.00  0.00    -0.459 OA
BRANCH   4   5
ATOM      5  C   UNL A   1      34.474  23.058  24.399  1.00  0.00     0.370 C 
ATOM      6  O   UNL A   1      34.586  23.512  23.263  1.00  0.00    -0.245 OA
BRANCH   5   7
ATOM      7  C   UNL A   1      33.105  22.661  25.071  1.00  0.00     0.328 C 
BRANCH   7   8
ATOM      8  C   UNL A   1      32.013  23.607  24.611  1.00  0.00     0.046 A 
ATOM      9  C   UNL A   1      31.098  27.580  25.584  1.00  0.00     0.043 A 
ATOM     10  C   UNL A   1      31.966  26.933  26.453  1.00  0.00     0.027 A 
ATOM     11  C   UNL A   1      30.397  26.859  24.609  1.00  0.00     0.052 A 
ATOM     12  C   UNL A   1      32.348  25.613  26.233  1.00  0.00     0.013 A 
ATOM     13  C   UNL A   1      30.782  25.525  24.406  1.00  0.00     0.048 A 
ATOM     14  C   UNL A   1      31.782  24.910  25.157  1.00  0.00     0.009 A 
ATOM     15  N   UNL A   1      30.347  24.597  23.489  1.00  0.00    -0.361 N 
ATOM     16  C   UNL A   1      31.079  23.444  23.602  1.00  0.00     0.094 A 
ATOM     17  H   UNL A   1      29.617  24.740  22.845  1.00  0.00     0.166 HD
BRANCH   9  18
ATOM     18  N   UNL A   1      30.901  28.959  25.667  1.00  0.00    -0.326 N 
ATOM     19  C   UNL A   1      31.821  29.969  25.742  1.00  0.00     0.226 C 
ATOM     20  O   UNL A   1      31.399  31.100  26.014  1.00  0.00    -0.274 OA
ATOM     21  H   UNL A   1      29.960  29.248  25.675  1.00  0.00     0.169 HD
BRANCH  19  22
ATOM     22  C   UNL A   1      33.308  29.788  25.378  1.00  0.00     0.072 C 
ATOM     23  C   UNL A   1      34.223  29.312  26.501  1.00  0.00     0.018 C 
ATOM     24  C   UNL A   1      33.534  29.019  24.076  1.00  0.00     0.018 C 
ENDBRANCH  19  22
ENDBRANCH   9  18
ENDBRANCH   7   8
BRANCH   7  25
ATOM     25  N   UNL A   1      32.764  21.251  24.782  1.00  0.00    -0.310 N 
ATOM     26  C   UNL A   1      33.051  20.192  25.753  1.00  0.00     0.325 C 
ATOM     27  C   UNL A   1      33.306  20.803  23.490  1.00  0.00     0.325 C 
ATOM     28  H   UNL A   1      31.749  21.347  24.809  1.00  0.00     0.349 HD
ATOM     29  C   UNL A   1      32.368  18.853  25.341  1.00  0.00     0.325 C 
ATOM     30  C   UNL A   1      32.404  19.669  22.992  1.00  0.00     0.325 C 
ATOM     31  N   UNL A   1      32.236  18.539  23.906  1.00  0.00    -0.318 N 
ATOM     32  H   UNL A   1      31.241  18.337  23.814  1.00  0.00     0.348 HD
BRANCH  31  33
ATOM     33  C   UNL A   1      32.862  17.281  23.481  1.00  0.00     0.364 C 
BRANCH  33  34
ATOM     34  C   UNL A   1      34.169  17.006  24.230  1.00  0.00     0.277 C 
ATOM     35  O   UNL A   1      35.152  17.728  24.033  1.00  0.00    -0.268 OA
ATOM     36  N   UNL A   1      34.259  15.878  25.033  1.00  0.00    -0.344 N 
ATOM     37  C   UNL A   1      33.148  15.206  25.687  1.00  0.00     0.146 C 
ATOM     38  C   UNL A   1      35.590  15.416  25.370  1.00  0.00     0.146 C 
ENDBRANCH  33  34
ENDBRANCH  31  33
ENDBRANCH   7  25
ENDBRANCH   5   7
ENDBRANCH   4   5
ENDBRANCH   3   4
ENDBRANCH   2   3
ENDBRANCH   1   2
BRANCH   1  39
ATOM     39  C   UNL A   1      39.650  21.713  26.477  1.00  0.00     0.202 C 
BRANCH  39  40
ATOM     40  C   UNL A   1      40.954  22.447  26.147  1.00  0.00     0.261 C 
BRANCH  40  41
ATOM     41  O   UNL A   1      41.294  23.410  27.155  1.00  0.00    -0.460 OA
BRANCH  41  42
ATOM     42  C   UNL A   1      41.764  24.591  26.716  1.00  0.00     0.338 C 
ATOM     43  O   UNL A   1      42.342  24.817  25.657  1.00  0.00    -0.246 OA
BRANCH  42  44
ATOM     44  C   UNL A   1      41.333  25.659  27.633  1.00  0.00     0.060 A 
ATOM     45  C   UNL A   1      42.220  26.717  27.856  1.00  0.00     0.016 A 
ATOM     46  C   UNL A   1      40.121  25.593  28.324  1.00  0.00     0.016 A 
ATOM     47  C   UNL A   1      41.920  27.685  28.812  1.00  0.00     0.010 A 
ATOM     48  C   UNL A   1      39.818  26.574  29.280  1.00  0.00     0.010 A 
ATOM     49  C   UNL A   1      40.734  27.606  29.558  1.00  0.00    -0.014 A 
BRANCH  49  50
ATOM     50  C   UNL A   1      40.531  28.542  30.697  1.00  0.00     0.031 A 
ATOM     51  C   UNL A   1      41.405  28.427  31.920  1.00  0.00     0.074 A 
ATOM     52  C   UNL A   1      39.626  29.536  30.615  1.00  0.00     0.049 A 
ATOM     53  N   UNL A   1      41.443  29.191  32.983  1.00  0.00    -0.248 NA
ATOM     54  C   UNL A   1      42.362  27.311  31.949  1.00  0.00     0.031 C 
ATOM     55  C   UNL A   1      38.738  29.776  29.477  1.00  0.00     0.029 A 
ATOM     56  N   UNL A   1      39.312  30.538  31.502  1.00  0.00    -0.354 N 
ATOM     57  C   UNL A   1      42.424  28.648  33.806  1.00  0.00     0.074 A 
ATOM     58  C   UNL A   1      42.927  27.468  33.137  1.00  0.00     0.031 C 
ATOM     59  C   UNL A   1      37.992  30.865  29.728  1.00  0.00     0.029 A 
ATOM     60  C   UNL A   1      38.323  31.383  31.054  1.00  0.00     0.049 A 
ATOM     61  H   UNL A   1      39.755  30.642  32.375  1.00  0.00     0.167 HD
ATOM     62  C   UNL A   1      42.875  29.095  35.003  1.00  0.00     0.031 A 
ATOM     63  C   UNL A   1      37.744  32.448  31.644  1.00  0.00     0.031 A 
ATOM     64  C   UNL A   1      42.368  30.264  35.675  1.00  0.00     0.049 A 
ATOM     65  C   UNL A   1      38.214  32.887  33.007  1.00  0.00     0.074 A 
ATOM     66  C   UNL A   1      42.783  30.813  36.877  1.00  0.00     0.029 A 
ATOM     67  N   UNL A   1      41.328  31.056  35.214  1.00  0.00    -0.354 N 
ATOM     68  N   UNL A   1      39.178  32.390  33.745  1.00  0.00    -0.248 NA
ATOM     69  C   UNL A   1      37.524  34.036  33.612  1.00  0.00     0.031 C 
ATOM     70  C   UNL A   1      41.948  31.894  37.175  1.00  0.00     0.029 A 
ATOM     71  C   UNL A   1      41.059  32.063  36.127  1.00  0.00     0.049 A 
ATOM     72  H   UNL A   1      40.851  30.923  34.363  1.00  0.00     0.167 HD
ATOM     73  C   UNL A   1      39.220  33.176  34.893  1.00  0.00     0.074 A 
ATOM     74  C   UNL A   1      38.200  34.192  34.742  1.00  0.00     0.031 C 
ATOM     75  C   UNL A   1      40.031  33.064  35.974  1.00  0.00     0.031 A 
BRANCH  62  76
ATOM     76  C   UNL A   1      43.954  28.294  35.687  1.00  0.00    -0.014 A 
ATOM     77  C   UNL A   1      45.317  28.524  35.422  1.00  0.00     0.010 A 
ATOM     78  C   UNL A   1      43.600  27.322  36.640  1.00  0.00     0.010 A 
ATOM     79  C   UNL A   1      46.301  27.767  36.065  1.00  0.00     0.020 A 
ATOM     80  C   UNL A   1      44.582  26.583  37.306  1.00  0.00     0.020 A 
ATOM     81  C   UNL A   1      45.927  26.798  37.001  1.00  0.00     0.054 A 
BRANCH  81  82
ATOM     82  S   UNL A   1      47.224  25.838  37.828  1.00  0.00     0.124 S 
ATOM     83  O   UNL A   1      47.499  26.656  39.006  1.00  0.00    -0.237 OA
ATOM     84  O   UNL A   1      46.560  24.563  38.089  1.00  0.00    -0.237 OA
ATOM     85  O   UNL A   1      48.301  25.785  36.841  1.00  0.00    -0.744 OA
ENDBRANCH  81  82
ENDBRANCH  62  76
BRANCH  63  86
ATOM     86  C   UNL A   1      36.635  33.164  30.953  1.00  0.00    -0.014 A 
ATOM     87  C   UNL A   1      36.859  33.865  29.756  1.00  0.00     0.010 A 
ATOM     88  C   UNL A   1      35.335  33.133  31.493  1.00  0.00     0.010 A 
ATOM     89  C   UNL A   1      35.806  34.526  29.115  1.00  0.00     0.020 A 
ATOM     90  C   UNL A   1      34.275  33.765  30.840  1.00  0.00     0.020 A 
ATOM     91  C   UNL A   1      34.519  34.465  29.657  1.00  0.00     0.054 A 
BRANCH  91  92
ATOM     92  S   UNL A   1      33.154  35.268  28.771  1.00  0.00     0.124 S 
ATOM     93  O   UNL A   1      32.664  34.188  27.922  1.00  0.00    -0.237 OA
ATOM     94  O   UNL A   1      32.268  35.672  29.860  1.00  0.00    -0.237 OA
ATOM     95  O   UNL A   1      33.807  36.371  28.068  1.00  0.00    -0.744 OA
ENDBRANCH  91  92
ENDBRANCH  63  86
BRANCH  75  96
ATOM     96  C   UNL A   1      39.864  34.070  37.083  1.00  0.00    -0.014 A 
ATOM     97  C   UNL A   1      40.291  35.401  36.928  1.00  0.00     0.010 A 
ATOM     98  C   UNL A   1      39.207  33.698  38.271  1.00  0.00     0.010 A 
ATOM     99  C   UNL A   1      40.086  36.334  37.949  1.00  0.00     0.020 A 
ATOM    100  C   UNL A   1      38.975  34.634  39.282  1.00  0.00     0.020 A 
ATOM    101  C   UNL A   1      39.426  35.946  39.119  1.00  0.00     0.054 A 
BRANCH 101 102
ATOM    102  S   UNL A   1      39.124  37.190  40.404  1.00  0.00     0.124 S 
ATOM    103  O   UNL A   1      38.607  38.312  39.625  1.00  0.00    -0.237 OA
ATOM    104  O   UNL A   1      38.152  36.525  41.269  1.00  0.00    -0.237 OA
ATOM    105  O   UNL A   1      40.440  37.400  41.001  1.00  0.00    -0.744 OA
ENDBRANCH 101 102
ENDBRANCH  75  96
ENDBRANCH  49  50
ENDBRANCH  42  44
ENDBRANCH  41  42
ENDBRANCH  40  41
ENDBRANCH  39  40
ENDBRANCH   1  39
TORSDOF 23
ENDMDL
