MODEL 1
REMARK VINA RESULT:     -10.1      0.000      0.000
REMARK SMILES O=C(OCCOCCOC(=O)c1cc(N2CCN(c3ccc(F)cc3)CC2)ccc1NC(=O)C1CCCC1)c1ccc(-c2c3nc(c(-c4ccc(S(=O)(=O)[O-])cc4)c4ccc([nH]4)c(-c4ccc(S(=O)(=O)[O-])cc4)c4nc(c(-c5ccc(S(=O)(=O)[O-])cc5)c5ccc2[nH]5)C=C4)C=C3)cc1
REMARK SMILES IDX 5 1 4 2 3 3 2 4 1 5 39 6 40 7 98 8 41 9 97 10 42 11 43 12
REMARK SMILES IDX 44 13 91 14 45 15 96 16 90 17 92 18 46 19 95 20 89 21 88 22
REMARK SMILES IDX 47 24 77 25 58 26 76 27 59 28 62 29 75 30 93 31 60 32 61 33
REMARK SMILES IDX 74 35 94 36 63 37 48 38 49 39 57 40 50 41 56 42 51 43 52 44
REMARK SMILES IDX 53 45 54 46 55 47 78 48 79 49 87 50 80 51 86 52 81 53 82 54
REMARK SMILES IDX 83 55 84 56 85 57 64 58 65 59 73 60 66 61 72 62 67 63 68 64
REMARK SMILES IDX 69 65 70 66 71 67 6 68 7 69 8 70 9 71 10 72 11 73 12 74
REMARK SMILES IDX 13 75 30 76 14 77 29 78 28 79 31 80 32 81 33 83 34 84 35 85
REMARK SMILES IDX 38 86 36 87 37 88 15 89 16 90 27 91 17 92 26 93 18 94 19 95
REMARK SMILES IDX 20 96 25 97 21 98 24 99 22 100 23 101
REMARK H PARENT 92 23 62 34 31 82
REMARK Flexibility Score: inf
ROOT
ATOM      1  C   UNL A   1      50.705  25.762  38.765  1.00  0.00     0.202 C 
ENDROOT
BRANCH   1   2
ATOM      2  C   UNL A   1      50.040  27.110  38.477  1.00  0.00     0.261 C 
BRANCH   2   3
ATOM      3  O   UNL A   1      48.625  26.940  38.305  1.00  0.00    -0.460 OA
BRANCH   3   4
ATOM      4  C   UNL A   1      47.632  27.787  38.667  1.00  0.00     0.338 C 
ATOM      5  O   UNL A   1      47.670  28.282  39.793  1.00  0.00    -0.246 OA
BRANCH   4   6
ATOM      6  C   UNL A   1      46.499  28.177  37.771  1.00  0.00     0.060 A 
ATOM      7  C   UNL A   1      46.598  29.054  36.691  1.00  0.00     0.016 A 
ATOM      8  C   UNL A   1      45.260  27.553  37.995  1.00  0.00     0.016 A 
ATOM      9  C   UNL A   1      45.513  29.353  35.890  1.00  0.00     0.010 A 
ATOM     10  C   UNL A   1      44.158  27.829  37.177  1.00  0.00     0.010 A 
ATOM     11  C   UNL A   1      44.286  28.751  36.134  1.00  0.00    -0.014 A 
BRANCH  11  12
ATOM     12  C   UNL A   1      43.146  29.269  35.366  1.00  0.00     0.031 A 
ATOM     13  C   UNL A   1      42.411  30.448  35.923  1.00  0.00     0.074 A 
ATOM     14  C   UNL A   1      42.943  28.822  34.113  1.00  0.00     0.049 A 
ATOM     15  N   UNL A   1      41.421  31.122  35.409  1.00  0.00    -0.248 NA
ATOM     16  C   UNL A   1      42.873  30.955  37.229  1.00  0.00     0.031 C 
ATOM     17  C   UNL A   1      43.745  27.789  33.446  1.00  0.00     0.029 A 
ATOM     18  N   UNL A   1      42.051  29.219  33.156  1.00  0.00    -0.354 N 
ATOM     19  C   UNL A   1      41.117  32.106  36.341  1.00  0.00     0.074 A 
ATOM     20  C   UNL A   1      42.028  31.949  37.451  1.00  0.00     0.031 C 
ATOM     21  C   UNL A   1      43.329  27.663  32.175  1.00  0.00     0.029 A 
ATOM     22  C   UNL A   1      42.193  28.551  31.962  1.00  0.00     0.049 A 
ATOM     23  H   UNL A   1      41.373  29.915  33.307  1.00  0.00     0.167 HD
ATOM     24  C   UNL A   1      40.147  33.044  36.274  1.00  0.00     0.031 A 
ATOM     25  C   UNL A   1      41.461  28.640  30.836  1.00  0.00     0.031 A 
ATOM     26  C   UNL A   1      39.253  33.158  35.155  1.00  0.00     0.049 A 
ATOM     27  C   UNL A   1      40.318  29.619  30.830  1.00  0.00     0.074 A 
ATOM     28  C   UNL A   1      38.177  34.006  34.988  1.00  0.00     0.029 A 
ATOM     29  N   UNL A   1      39.344  32.385  34.002  1.00  0.00    -0.354 N 
ATOM     30  N   UNL A   1      39.974  30.487  31.755  1.00  0.00    -0.248 NA
ATOM     31  C   UNL A   1      39.460  29.628  29.641  1.00  0.00     0.031 C 
ATOM     32  C   UNL A   1      37.583  33.707  33.757  1.00  0.00     0.029 A 
ATOM     33  C   UNL A   1      38.331  32.722  33.126  1.00  0.00     0.049 A 
ATOM     34  H   UNL A   1      40.030  31.699  33.835  1.00  0.00     0.167 HD
ATOM     35  C   UNL A   1      38.870  31.162  31.251  1.00  0.00     0.074 A 
ATOM     36  C   UNL A   1      38.620  30.612  29.932  1.00  0.00     0.031 C 
ATOM     37  C   UNL A   1      38.127  32.145  31.820  1.00  0.00     0.031 A 
BRANCH  24  38
ATOM     38  C   UNL A   1      39.953  33.918  37.483  1.00  0.00    -0.014 A 
ATOM     39  C   UNL A   1      38.993  33.626  38.469  1.00  0.00     0.010 A 
ATOM     40  C   UNL A   1      40.724  35.088  37.605  1.00  0.00     0.010 A 
ATOM     41  C   UNL A   1      38.776  34.514  39.528  1.00  0.00     0.020 A 
ATOM     42  C   UNL A   1      40.528  35.965  38.675  1.00  0.00     0.020 A 
ATOM     43  C   UNL A   1      39.540  35.682  39.620  1.00  0.00     0.054 A 
BRANCH  43  44
ATOM     44  S   UNL A   1      39.231  36.823  40.996  1.00  0.00     0.124 S 
ATOM     45  O   UNL A   1      40.577  37.311  41.290  1.00  0.00    -0.237 OA
ATOM     46  O   UNL A   1      38.324  37.802  40.402  1.00  0.00    -0.237 OA
ATOM     47  O   UNL A   1      38.639  35.973  42.026  1.00  0.00    -0.744 OA
ENDBRANCH  43  44
ENDBRANCH  24  38
BRANCH  25  48
ATOM     48  C   UNL A   1      41.745  27.753  29.672  1.00  0.00    -0.014 A 
ATOM     49  C   UNL A   1      42.728  28.084  28.724  1.00  0.00     0.010 A 
ATOM     50  C   UNL A   1      41.016  26.559  29.502  1.00  0.00     0.010 A 
ATOM     51  C   UNL A   1      42.960  27.253  27.620  1.00  0.00     0.020 A 
ATOM     52  C   UNL A   1      41.266  25.711  28.420  1.00  0.00     0.020 A 
ATOM     53  C   UNL A   1      42.226  26.072  27.475  1.00  0.00     0.054 A 
BRANCH  53  54
ATOM     54  S   UNL A   1      42.558  24.998  26.050  1.00  0.00     0.124 S 
ATOM     55  O   UNL A   1      41.525  23.976  26.193  1.00  0.00    -0.237 OA
ATOM     56  O   UNL A   1      42.396  25.910  24.921  1.00  0.00    -0.237 OA
ATOM     57  O   UNL A   1      43.927  24.538  26.279  1.00  0.00    -0.744 OA
ENDBRANCH  53  54
ENDBRANCH  25  48
BRANCH  37  58
ATOM     58  C   UNL A   1      37.012  32.714  30.991  1.00  0.00    -0.014 A 
ATOM     59  C   UNL A   1      37.252  33.705  30.024  1.00  0.00     0.010 A 
ATOM     60  C   UNL A   1      35.712  32.200  31.150  1.00  0.00     0.010 A 
ATOM     61  C   UNL A   1      36.198  34.204  29.257  1.00  0.00     0.020 A 
ATOM     62  C   UNL A   1      34.664  32.674  30.363  1.00  0.00     0.020 A 
ATOM     63  C   UNL A   1      34.910  33.685  29.432  1.00  0.00     0.054 A 
BRANCH  63  64
ATOM     64  S   UNL A   1      33.566  34.320  28.398  1.00  0.00     0.124 S 
ATOM     65  O   UNL A   1      33.186  33.134  27.635  1.00  0.00    -0.237 OA
ATOM     66  O   UNL A   1      32.589  34.774  29.384  1.00  0.00    -0.237 OA
ATOM     67  O   UNL A   1      34.200  35.384  27.623  1.00  0.00    -0.744 OA
ENDBRANCH  63  64
ENDBRANCH  37  58
ENDBRANCH  11  12
ENDBRANCH   4   6
ENDBRANCH   3   4
ENDBRANCH   2   3
ENDBRANCH   1   2
BRANCH   1  68
ATOM     68  O   UNL A   1      50.170  24.681  38.004  1.00  0.00    -0.374 OA
BRANCH  68  69
ATOM     69  C   UNL A   1      50.475  23.363  38.465  1.00  0.00     0.202 C 
BRANCH  69  70
ATOM     70  C   UNL A   1      49.386  22.920  39.440  1.00  0.00     0.261 C 
BRANCH  70  71
ATOM     71  O   UNL A   1      48.727  21.775  38.875  1.00  0.00    -0.460 OA
BRANCH  71  72
ATOM     72  C   UNL A   1      47.482  21.510  39.349  1.00  0.00     0.340 C 
ATOM     73  O   UNL A   1      46.910  22.067  40.271  1.00  0.00    -0.246 OA
BRANCH  72  74
ATOM     74  C   UNL A   1      46.838  20.528  38.440  1.00  0.00     0.085 A 
ATOM     75  C   UNL A   1      46.355  19.351  39.052  1.00  0.00     0.043 A 
ATOM     76  C   UNL A   1      46.666  20.753  37.056  1.00  0.00     0.055 A 
ATOM     77  C   UNL A   1      45.670  18.380  38.324  1.00  0.00     0.038 A 
ATOM     78  C   UNL A   1      46.053  19.730  36.332  1.00  0.00     0.029 A 
ATOM     79  C   UNL A   1      45.546  18.580  36.955  1.00  0.00     0.028 A 
BRANCH  76  80
ATOM     80  N   UNL A   1      47.090  21.990  36.509  1.00  0.00    -0.325 N 
ATOM     81  C   UNL A   1      46.501  23.098  35.980  1.00  0.00     0.227 C 
ATOM     82  H   UNL A   1      48.071  22.069  36.513  1.00  0.00     0.169 HD
ATOM     83  O   UNL A   1      47.230  24.038  35.651  1.00  0.00    -0.274 OA
BRANCH  81  84
ATOM     84  C   UNL A   1      45.012  23.170  35.800  1.00  0.00     0.079 C 
ATOM     85  C   UNL A   1      44.498  24.606  35.747  1.00  0.00     0.013 C 
ATOM     86  C   UNL A   1      44.485  22.638  34.470  1.00  0.00     0.013 C 
ATOM     87  C   UNL A   1      43.044  24.403  35.354  1.00  0.00     0.001 C 
ATOM     88  C   UNL A   1      43.056  23.185  34.424  1.00  0.00     0.001 C 
ENDBRANCH  81  84
ENDBRANCH  76  80
BRANCH  77  89
ATOM     89  N   UNL A   1      45.194  17.245  38.935  1.00  0.00    -0.368 N 
ATOM     90  C   UNL A   1      45.546  16.898  40.325  1.00  0.00     0.138 C 
ATOM     91  C   UNL A   1      44.019  16.572  38.368  1.00  0.00     0.138 C 
ATOM     92  C   UNL A   1      44.313  16.916  41.277  1.00  0.00     0.138 C 
ATOM     93  C   UNL A   1      42.806  16.693  39.305  1.00  0.00     0.138 C 
ATOM     94  N   UNL A   1      43.140  16.259  40.669  1.00  0.00    -0.368 N 
BRANCH  94  95
ATOM     95  C   UNL A   1      42.626  15.090  41.189  1.00  0.00     0.037 A 
ATOM     96  C   UNL A   1      41.949  14.182  40.361  1.00  0.00     0.029 A 
ATOM     97  C   UNL A   1      42.795  14.740  42.537  1.00  0.00     0.029 A 
ATOM     98  C   UNL A   1      41.491  12.954  40.852  1.00  0.00     0.041 A 
ATOM     99  C   UNL A   1      42.323  13.524  43.040  1.00  0.00     0.041 A 
ATOM    100  C   UNL A   1      41.684  12.636  42.188  1.00  0.00     0.123 A 
ATOM    101  F   UNL A   1      41.257  11.457  42.658  1.00  0.00    -0.207 F 
ENDBRANCH  94  95
ENDBRANCH  77  89
ENDBRANCH  72  74
ENDBRANCH  71  72
ENDBRANCH  70  71
ENDBRANCH  69  70
ENDBRANCH  68  69
ENDBRANCH   1  68
TORSDOF 21
ENDMDL
MODEL 2
REMARK VINA RESULT:      -9.5     10.062     16.171
REMARK SMILES O=C(OCCOCCOC(=O)c1cc(N2CCN(c3ccc(F)cc3)CC2)ccc1NC(=O)C1CCCC1)c1ccc(-c2c3nc(c(-c4ccc(S(=O)(=O)[O-])cc4)c4ccc([nH]4)c(-c4ccc(S(=O)(=O)[O-])cc4)c4nc(c(-c5ccc(S(=O)(=O)[O-])cc5)c5ccc2[nH]5)C=C4)C=C3)cc1
REMARK SMILES IDX 5 1 4 2 3 3 2 4 1 5 39 6 40 7 98 8 41 9 97 10 42 11 43 12
REMARK SMILES IDX 44 13 91 14 45 15 96 16 90 17 92 18 46 19 95 20 89 21 88 22
REMARK SMILES IDX 47 24 77 25 58 26 76 27 59 28 62 29 75 30 93 31 60 32 61 33
REMARK SMILES IDX 74 35 94 36 63 37 48 38 49 39 57 40 50 41 56 42 51 43 52 44
REMARK SMILES IDX 53 45 54 46 55 47 78 48 79 49 87 50 80 51 86 52 81 53 82 54
REMARK SMILES IDX 83 55 84 56 85 57 64 58 65 59 73 60 66 61 72 62 67 63 68 64
REMARK SMILES IDX 69 65 70 66 71 67 6 68 7 69 8 70 9 71 10 72 11 73 12 74
REMARK SMILES IDX 13 75 30 76 14 77 29 78 28 79 31 80 32 81 33 83 34 84 35 85
REMARK SMILES IDX 38 86 36 87 37 88 15 89 16 90 27 91 17 92 26 93 18 94 19 95
REMARK SMILES IDX 20 96 25 97 21 98 24 99 22 100 23 101
REMARK H PARENT 92 23 62 34 31 82
REMARK Flexibility Score: inf
ROOT
ATOM      1  C   UNL A   1      43.673  19.322  25.543  1.00  0.00     0.202 C 
ENDROOT
BRANCH   1   2
ATOM      2  C   UNL A   1      44.550  20.188  24.637  1.00  0.00     0.261 C 
BRANCH   2   3
ATOM      3  O   UNL A   1      45.091  21.293  25.375  1.00  0.00    -0.460 OA
BRANCH   3   4
ATOM      4  C   UNL A   1      44.958  22.616  25.115  1.00  0.00     0.338 C 
ATOM      5  O   UNL A   1      43.960  22.992  24.500  1.00  0.00    -0.246 OA
BRANCH   4   6
ATOM      6  C   UNL A   1      45.943  23.656  25.549  1.00  0.00     0.060 A 
ATOM      7  C   UNL A   1      46.363  23.861  26.863  1.00  0.00     0.016 A 
ATOM      8  C   UNL A   1      46.541  24.433  24.543  1.00  0.00     0.016 A 
ATOM      9  C   UNL A   1      47.294  24.827  27.191  1.00  0.00     0.010 A 
ATOM     10  C   UNL A   1      47.503  25.399  24.857  1.00  0.00     0.010 A 
ATOM     11  C   UNL A   1      47.861  25.607  26.193  1.00  0.00    -0.014 A 
BRANCH  11  12
ATOM     12  C   UNL A   1      48.689  26.735  26.643  1.00  0.00     0.031 A 
ATOM     13  C   UNL A   1      50.171  26.529  26.700  1.00  0.00     0.074 A 
ATOM     14  C   UNL A   1      48.126  27.950  26.772  1.00  0.00     0.049 A 
ATOM     15  N   UNL A   1      51.111  27.380  27.000  1.00  0.00    -0.248 NA
ATOM     16  C   UNL A   1      50.664  25.185  26.342  1.00  0.00     0.031 C 
ATOM     17  C   UNL A   1      46.706  28.249  26.557  1.00  0.00     0.029 A 
ATOM     18  N   UNL A   1      48.683  29.167  27.049  1.00  0.00    -0.354 N 
ATOM     19  C   UNL A   1      52.300  26.668  26.905  1.00  0.00     0.074 A 
ATOM     20  C   UNL A   1      51.969  25.319  26.514  1.00  0.00     0.031 C 
ATOM     21  C   UNL A   1      46.513  29.573  26.673  1.00  0.00     0.029 A 
ATOM     22  C   UNL A   1      47.776  30.201  27.039  1.00  0.00     0.049 A 
ATOM     23  H   UNL A   1      49.640  29.292  27.238  1.00  0.00     0.167 HD
ATOM     24  C   UNL A   1      53.555  27.110  27.144  1.00  0.00     0.031 A 
ATOM     25  C   UNL A   1      47.956  31.505  27.322  1.00  0.00     0.031 A 
ATOM     26  C   UNL A   1      53.840  28.460  27.542  1.00  0.00     0.049 A 
ATOM     27  C   UNL A   1      49.347  31.947  27.688  1.00  0.00     0.074 A 
ATOM     28  C   UNL A   1      55.051  29.023  27.894  1.00  0.00     0.029 A 
ATOM     29  N   UNL A   1      52.881  29.464  27.641  1.00  0.00    -0.354 N 
ATOM     30  N   UNL A   1      50.459  31.247  27.689  1.00  0.00    -0.248 NA
ATOM     31  C   UNL A   1      49.511  33.344  28.101  1.00  0.00     0.031 C 
ATOM     32  C   UNL A   1      54.815  30.354  28.258  1.00  0.00     0.029 A 
ATOM     33  C   UNL A   1      53.469  30.639  28.066  1.00  0.00     0.049 A 
ATOM     34  H   UNL A   1      51.925  29.353  27.436  1.00  0.00     0.167 HD
ATOM     35  C   UNL A   1      51.461  32.124  28.081  1.00  0.00     0.074 A 
ATOM     36  C   UNL A   1      50.822  33.410  28.291  1.00  0.00     0.031 C 
ATOM     37  C   UNL A   1      52.787  31.895  28.256  1.00  0.00     0.031 A 
BRANCH  24  38
ATOM     38  C   UNL A   1      54.662  26.094  27.084  1.00  0.00    -0.014 A 
ATOM     39  C   UNL A   1      55.166  25.469  28.240  1.00  0.00     0.010 A 
ATOM     40  C   UNL A   1      55.244  25.796  25.838  1.00  0.00     0.010 A 
ATOM     41  C   UNL A   1      56.260  24.602  28.154  1.00  0.00     0.020 A 
ATOM     42  C   UNL A   1      56.322  24.912  25.745  1.00  0.00     0.020 A 
ATOM     43  C   UNL A   1      56.836  24.336  26.908  1.00  0.00     0.054 A 
BRANCH  43  44
ATOM     44  S   UNL A   1      58.263  23.218  26.825  1.00  0.00     0.124 S 
ATOM     45  O   UNL A   1      57.795  22.201  25.887  1.00  0.00    -0.237 OA
ATOM     46  O   UNL A   1      59.325  24.090  26.328  1.00  0.00    -0.237 OA
ATOM     47  O   UNL A   1      58.429  22.764  28.204  1.00  0.00    -0.744 OA
ENDBRANCH  43  44
ENDBRANCH  24  38
BRANCH  25  48
ATOM     48  C   UNL A   1      46.802  32.449  27.326  1.00  0.00    -0.014 A 
ATOM     49  C   UNL A   1      46.080  32.715  28.501  1.00  0.00     0.010 A 
ATOM     50  C   UNL A   1      46.411  33.088  26.132  1.00  0.00     0.010 A 
ATOM     51  C   UNL A   1      44.979  33.581  28.479  1.00  0.00     0.020 A 
ATOM     52  C   UNL A   1      45.334  33.977  26.111  1.00  0.00     0.020 A 
ATOM     53  C   UNL A   1      44.613  34.207  27.282  1.00  0.00     0.054 A 
BRANCH  53  54
ATOM     54  S   UNL A   1      43.198  35.343  27.279  1.00  0.00     0.124 S 
ATOM     55  O   UNL A   1      43.840  36.627  27.547  1.00  0.00    -0.237 OA
ATOM     56  O   UNL A   1      42.657  35.172  25.934  1.00  0.00    -0.237 OA
ATOM     57  O   UNL A   1      42.348  34.834  28.355  1.00  0.00    -0.744 OA
ENDBRANCH  53  54
ENDBRANCH  25  48
BRANCH  37  58
ATOM     58  C   UNL A   1      53.630  33.076  28.645  1.00  0.00    -0.014 A 
ATOM     59  C   UNL A   1      53.884  33.381  29.993  1.00  0.00     0.010 A 
ATOM     60  C   UNL A   1      54.218  33.856  27.633  1.00  0.00     0.010 A 
ATOM     61  C   UNL A   1      54.684  34.477  30.322  1.00  0.00     0.020 A 
ATOM     62  C   UNL A   1      55.043  34.931  27.960  1.00  0.00     0.020 A 
ATOM     63  C   UNL A   1      55.258  35.245  29.303  1.00  0.00     0.054 A 
BRANCH  63  64
ATOM     64  S   UNL A   1      56.324  36.638  29.756  1.00  0.00     0.124 S 
ATOM     65  O   UNL A   1      57.519  35.956  30.247  1.00  0.00    -0.237 OA
ATOM     66  O   UNL A   1      56.480  37.347  28.489  1.00  0.00    -0.237 OA
ATOM     67  O   UNL A   1      55.550  37.349  30.771  1.00  0.00    -0.744 OA
ENDBRANCH  63  64
ENDBRANCH  37  58
ENDBRANCH  11  12
ENDBRANCH   4   6
ENDBRANCH   3   4
ENDBRANCH   2   3
ENDBRANCH   1   2
BRANCH   1  68
ATOM     68  O   UNL A   1      42.315  19.230  25.114  1.00  0.00    -0.374 OA
BRANCH  68  69
ATOM     69  C   UNL A   1      41.316  19.326  26.130  1.00  0.00     0.202 C 
BRANCH  69  70
ATOM     70  C   UNL A   1      41.985  19.731  27.442  1.00  0.00     0.261 C 
BRANCH  70  71
ATOM     71  O   UNL A   1      41.295  20.883  27.952  1.00  0.00    -0.460 OA
BRANCH  71  72
ATOM     72  C   UNL A   1      41.938  22.072  27.813  1.00  0.00     0.340 C 
ATOM     73  O   UNL A   1      43.142  22.263  27.810  1.00  0.00    -0.246 OA
BRANCH  72  74
ATOM     74  C   UNL A   1      40.928  23.111  27.486  1.00  0.00     0.085 A 
ATOM     75  C   UNL A   1      39.883  22.702  26.628  1.00  0.00     0.043 A 
ATOM     76  C   UNL A   1      40.960  24.416  28.024  1.00  0.00     0.055 A 
ATOM     77  C   UNL A   1      38.835  23.558  26.299  1.00  0.00     0.038 A 
ATOM     78  C   UNL A   1      39.947  25.283  27.612  1.00  0.00     0.029 A 
ATOM     79  C   UNL A   1      38.895  24.857  26.787  1.00  0.00     0.028 A 
BRANCH  76  80
ATOM     80  N   UNL A   1      41.981  24.747  28.950  1.00  0.00    -0.325 N 
ATOM     81  C   UNL A   1      43.051  25.588  28.993  1.00  0.00     0.227 C 
ATOM     82  H   UNL A   1      41.893  24.231  29.784  1.00  0.00     0.169 HD
ATOM     83  O   UNL A   1      43.700  25.643  30.041  1.00  0.00    -0.274 OA
BRANCH  81  84
ATOM     84  C   UNL A   1      43.428  26.419  27.800  1.00  0.00     0.079 C 
ATOM     85  C   UNL A   1      43.226  25.676  26.482  1.00  0.00     0.013 C 
ATOM     86  C   UNL A   1      42.562  27.652  27.559  1.00  0.00     0.013 C 
ATOM     87  C   UNL A   1      43.465  26.777  25.463  1.00  0.00     0.001 C 
ATOM     88  C   UNL A   1      42.922  28.048  26.125  1.00  0.00     0.001 C 
ENDBRANCH  81  84
ENDBRANCH  76  80
BRANCH  77  89
ATOM     89  N   UNL A   1      37.819  23.143  25.472  1.00  0.00    -0.368 N 
ATOM     90  C   UNL A   1      37.646  21.727  25.094  1.00  0.00     0.138 C 
ATOM     91  C   UNL A   1      36.659  24.021  25.275  1.00  0.00     0.138 C 
ATOM     92  C   UNL A   1      36.320  21.120  25.641  1.00  0.00     0.138 C 
ATOM     93  C   UNL A   1      35.394  23.418  25.908  1.00  0.00     0.138 C 
ATOM     94  N   UNL A   1      35.178  22.036  25.456  1.00  0.00    -0.368 N 
BRANCH  94  95
ATOM     95  C   UNL A   1      34.138  21.720  24.608  1.00  0.00     0.037 A 
ATOM     96  C   UNL A   1      33.664  22.664  23.683  1.00  0.00     0.029 A 
ATOM     97  C   UNL A   1      33.548  20.448  24.600  1.00  0.00     0.029 A 
ATOM     98  C   UNL A   1      32.665  22.337  22.760  1.00  0.00     0.041 A 
ATOM     99  C   UNL A   1      32.534  20.119  23.694  1.00  0.00     0.041 A 
ATOM    100  C   UNL A   1      32.110  21.065  22.773  1.00  0.00     0.123 A 
ATOM    101  F   UNL A   1      31.161  20.746  21.884  1.00  0.00    -0.207 F 
ENDBRANCH  94  95
ENDBRANCH  77  89
ENDBRANCH  72  74
ENDBRANCH  71  72
ENDBRANCH  70  71
ENDBRANCH  69  70
ENDBRANCH  68  69
ENDBRANCH   1  68
TORSDOF 21
ENDMDL
MODEL 3
REMARK VINA RESULT:      -9.5      1.341      7.894
REMARK SMILES O=C(OCCOCCOC(=O)c1cc(N2CCN(c3ccc(F)cc3)CC2)ccc1NC(=O)C1CCCC1)c1ccc(-c2c3nc(c(-c4ccc(S(=O)(=O)[O-])cc4)c4ccc([nH]4)c(-c4ccc(S(=O)(=O)[O-])cc4)c4nc(c(-c5ccc(S(=O)(=O)[O-])cc5)c5ccc2[nH]5)C=C4)C=C3)cc1
REMARK SMILES IDX 5 1 4 2 3 3 2 4 1 5 39 6 40 7 98 8 41 9 97 10 42 11 43 12
REMARK SMILES IDX 44 13 91 14 45 15 96 16 90 17 92 18 46 19 95 20 89 21 88 22
REMARK SMILES IDX 47 24 77 25 58 26 76 27 59 28 62 29 75 30 93 31 60 32 61 33
REMARK SMILES IDX 74 35 94 36 63 37 48 38 49 39 57 40 50 41 56 42 51 43 52 44
REMARK SMILES IDX 53 45 54 46 55 47 78 48 79 49 87 50 80 51 86 52 81 53 82 54
REMARK SMILES IDX 83 55 84 56 85 57 64 58 65 59 73 60 66 61 72 62 67 63 68 64
REMARK SMILES IDX 69 65 70 66 71 67 6 68 7 69 8 70 9 71 10 72 11 73 12 74
REMARK SMILES IDX 13 75 30 76 14 77 29 78 28 79 31 80 32 81 33 83 34 84 35 85
REMARK SMILES IDX 38 86 36 87 37 88 15 89 16 90 27 91 17 92 26 93 18 94 19 95
REMARK SMILES IDX 20 96 25 97 21 98 24 99 22 100 23 101
REMARK H PARENT 92 23 62 34 31 82
REMARK Flexibility Score: inf
ROOT
ATOM      1  C   UNL A   1      49.247  25.058  40.215  1.00  0.00     0.202 C 
ENDROOT
BRANCH   1   2
ATOM      2  C   UNL A   1      49.837  25.964  39.132  1.00  0.00     0.261 C 
BRANCH   2   3
ATOM      3  O   UNL A   1      48.793  26.493  38.302  1.00  0.00    -0.460 OA
BRANCH   3   4
ATOM      4  C   UNL A   1      48.875  26.893  37.010  1.00  0.00     0.338 C 
ATOM      5  O   UNL A   1      49.958  26.789  36.436  1.00  0.00    -0.246 OA
BRANCH   4   6
ATOM      6  C   UNL A   1      47.720  27.434  36.229  1.00  0.00     0.060 A 
ATOM      7  C   UNL A   1      47.821  28.347  35.179  1.00  0.00     0.016 A 
ATOM      8  C   UNL A   1      46.445  26.924  36.530  1.00  0.00     0.016 A 
ATOM      9  C   UNL A   1      46.712  28.789  34.485  1.00  0.00     0.010 A 
ATOM     10  C   UNL A   1      45.316  27.345  35.819  1.00  0.00     0.010 A 
ATOM     11  C   UNL A   1      45.454  28.299  34.807  1.00  0.00    -0.014 A 
BRANCH  11  12
ATOM     12  C   UNL A   1      44.314  28.962  34.157  1.00  0.00     0.031 A 
ATOM     13  C   UNL A   1      43.781  28.351  32.899  1.00  0.00     0.074 A 
ATOM     14  C   UNL A   1      43.663  29.939  34.815  1.00  0.00     0.049 A 
ATOM     15  N   UNL A   1      42.753  28.707  32.181  1.00  0.00    -0.248 NA
ATOM     16  C   UNL A   1      44.486  27.157  32.396  1.00  0.00     0.031 C 
ATOM     17  C   UNL A   1      44.036  30.460  36.135  1.00  0.00     0.029 A 
ATOM     18  N   UNL A   1      42.521  30.620  34.499  1.00  0.00    -0.354 N 
ATOM     19  C   UNL A   1      42.711  27.808  31.122  1.00  0.00     0.074 A 
ATOM     20  C   UNL A   1      43.809  26.885  31.292  1.00  0.00     0.031 C 
ATOM     21  C   UNL A   1      43.114  31.353  36.530  1.00  0.00     0.029 A 
ATOM     22  C   UNL A   1      42.131  31.517  35.467  1.00  0.00     0.049 A 
ATOM     23  H   UNL A   1      42.025  30.483  33.661  1.00  0.00     0.167 HD
ATOM     24  C   UNL A   1      41.836  27.775  30.093  1.00  0.00     0.031 A 
ATOM     25  C   UNL A   1      41.105  32.388  35.467  1.00  0.00     0.031 A 
ATOM     26  C   UNL A   1      40.763  28.720  29.956  1.00  0.00     0.049 A 
ATOM     27  C   UNL A   1      40.209  32.402  34.258  1.00  0.00     0.074 A 
ATOM     28  C   UNL A   1      39.853  28.856  28.927  1.00  0.00     0.029 A 
ATOM     29  N   UNL A   1      40.462  29.700  30.896  1.00  0.00    -0.354 N 
ATOM     30  N   UNL A   1      40.230  31.608  33.210  1.00  0.00    -0.248 NA
ATOM     31  C   UNL A   1      39.163  33.427  34.221  1.00  0.00     0.031 C 
ATOM     32  C   UNL A   1      39.035  29.953  29.219  1.00  0.00     0.029 A 
ATOM     33  C   UNL A   1      39.391  30.458  30.463  1.00  0.00     0.049 A 
ATOM     34  H   UNL A   1      40.941  29.834  31.746  1.00  0.00     0.167 HD
ATOM     35  C   UNL A   1      39.185  32.025  32.397  1.00  0.00     0.074 A 
ATOM     36  C   UNL A   1      38.543  33.129  33.086  1.00  0.00     0.031 C 
ATOM     37  C   UNL A   1      38.787  31.547  31.191  1.00  0.00     0.031 A 
BRANCH  24  38
ATOM     38  C   UNL A   1      42.089  26.763  29.009  1.00  0.00    -0.014 A 
ATOM     39  C   UNL A   1      41.353  25.567  28.918  1.00  0.00     0.010 A 
ATOM     40  C   UNL A   1      43.126  26.999  28.088  1.00  0.00     0.010 A 
ATOM     41  C   UNL A   1      41.682  24.607  27.956  1.00  0.00     0.020 A 
ATOM     42  C   UNL A   1      43.441  26.054  27.109  1.00  0.00     0.020 A 
ATOM     43  C   UNL A   1      42.730  24.853  27.063  1.00  0.00     0.054 A 
BRANCH  43  44
ATOM     44  S   UNL A   1      43.146  23.587  25.832  1.00  0.00     0.124 S 
ATOM     45  O   UNL A   1      41.917  22.797  25.785  1.00  0.00    -0.237 OA
ATOM     46  O   UNL A   1      43.429  24.380  24.639  1.00  0.00    -0.237 OA
ATOM     47  O   UNL A   1      44.301  22.905  26.412  1.00  0.00    -0.744 OA
ENDBRANCH  43  44
ENDBRANCH  24  38
BRANCH  25  48
ATOM     48  C   UNL A   1      40.912  33.335  36.602  1.00  0.00    -0.014 A 
ATOM     49  C   UNL A   1      40.133  32.989  37.719  1.00  0.00     0.010 A 
ATOM     50  C   UNL A   1      41.511  34.610  36.564  1.00  0.00     0.010 A 
ATOM     51  C   UNL A   1      39.938  33.904  38.762  1.00  0.00     0.020 A 
ATOM     52  C   UNL A   1      41.346  35.515  37.615  1.00  0.00     0.020 A 
ATOM     53  C   UNL A   1      40.546  35.163  38.702  1.00  0.00     0.054 A 
BRANCH  53  54
ATOM     54  S   UNL A   1      40.300  36.325  40.074  1.00  0.00     0.124 S 
ATOM     55  O   UNL A   1      40.729  37.589  39.481  1.00  0.00    -0.237 OA
ATOM     56  O   UNL A   1      38.870  36.203  40.341  1.00  0.00    -0.237 OA
ATOM     57  O   UNL A   1      41.170  35.803  41.126  1.00  0.00    -0.744 OA
ENDBRANCH  53  54
ENDBRANCH  25  48
BRANCH  37  58
ATOM     58  C   UNL A   1      37.575  32.187  30.577  1.00  0.00    -0.014 A 
ATOM     59  C   UNL A   1      36.278  31.844  30.993  1.00  0.00     0.010 A 
ATOM     60  C   UNL A   1      37.751  33.189  29.606  1.00  0.00     0.010 A 
ATOM     61  C   UNL A   1      35.171  32.468  30.415  1.00  0.00     0.020 A 
ATOM     62  C   UNL A   1      36.648  33.836  29.050  1.00  0.00     0.020 A 
ATOM     63  C   UNL A   1      35.364  33.459  29.447  1.00  0.00     0.054 A 
BRANCH  63  64
ATOM     64  S   UNL A   1      33.913  34.282  28.740  1.00  0.00     0.124 S 
ATOM     65  O   UNL A   1      33.107  34.547  29.928  1.00  0.00    -0.237 OA
ATOM     66  O   UNL A   1      34.493  35.458  28.097  1.00  0.00    -0.237 OA
ATOM     67  O   UNL A   1      33.364  33.285  27.823  1.00  0.00    -0.744 OA
ENDBRANCH  63  64
ENDBRANCH  37  58
ENDBRANCH  11  12
ENDBRANCH   4   6
ENDBRANCH   3   4
ENDBRANCH   2   3
ENDBRANCH   1   2
BRANCH   1  68
ATOM     68  O   UNL A   1      49.227  23.676  39.862  1.00  0.00    -0.374 OA
BRANCH  68  69
ATOM     69  C   UNL A   1      50.475  22.983  39.925  1.00  0.00     0.202 C 
BRANCH  69  70
ATOM     70  C   UNL A   1      50.305  21.743  40.802  1.00  0.00     0.261 C 
BRANCH  70  71
ATOM     71  O   UNL A   1      49.123  21.053  40.366  1.00  0.00    -0.460 OA
BRANCH  71  72
ATOM     72  C   UNL A   1      49.292  19.755  40.001  1.00  0.00     0.340 C 
ATOM     73  O   UNL A   1      50.212  19.017  40.307  1.00  0.00    -0.246 OA
BRANCH  72  74
ATOM     74  C   UNL A   1      48.065  19.310  39.292  1.00  0.00     0.085 A 
ATOM     75  C   UNL A   1      47.370  18.234  39.887  1.00  0.00     0.043 A 
ATOM     76  C   UNL A   1      47.577  19.934  38.124  1.00  0.00     0.055 A 
ATOM     77  C   UNL A   1      46.168  17.764  39.362  1.00  0.00     0.038 A 
ATOM     78  C   UNL A   1      46.418  19.393  37.567  1.00  0.00     0.029 A 
ATOM     79  C   UNL A   1      45.716  18.347  38.184  1.00  0.00     0.028 A 
BRANCH  76  80
ATOM     80  N   UNL A   1      48.265  21.067  37.619  1.00  0.00    -0.325 N 
ATOM     81  C   UNL A   1      47.997  22.096  36.768  1.00  0.00     0.227 C 
ATOM     82  H   UNL A   1      49.179  21.125  37.979  1.00  0.00     0.169 HD
ATOM     83  O   UNL A   1      48.864  22.960  36.617  1.00  0.00    -0.274 OA
BRANCH  81  84
ATOM     84  C   UNL A   1      46.687  22.172  36.037  1.00  0.00     0.079 C 
ATOM     85  C   UNL A   1      46.277  23.609  35.722  1.00  0.00     0.013 C 
ATOM     86  C   UNL A   1      46.681  21.568  34.636  1.00  0.00     0.013 C 
ATOM     87  C   UNL A   1      45.071  23.398  34.820  1.00  0.00     0.001 C 
ATOM     88  C   UNL A   1      45.393  22.126  34.027  1.00  0.00     0.001 C 
ENDBRANCH  81  84
ENDBRANCH  76  80
BRANCH  77  89
ATOM     89  N   UNL A   1      45.496  16.724  39.958  1.00  0.00    -0.368 N 
ATOM     90  C   UNL A   1      45.438  16.568  41.424  1.00  0.00     0.138 C 
ATOM     91  C   UNL A   1      44.497  15.984  39.178  1.00  0.00     0.138 C 
ATOM     92  C   UNL A   1      43.992  16.720  41.984  1.00  0.00     0.138 C 
ATOM     93  C   UNL A   1      43.078  16.236  39.717  1.00  0.00     0.138 C 
ATOM     94  N   UNL A   1      43.006  15.990  41.165  1.00  0.00    -0.368 N 
BRANCH  94  95
ATOM     95  C   UNL A   1      42.321  14.904  41.668  1.00  0.00     0.037 A 
ATOM     96  C   UNL A   1      41.953  13.844  40.825  1.00  0.00     0.029 A 
ATOM     97  C   UNL A   1      42.008  14.792  43.031  1.00  0.00     0.029 A 
ATOM     98  C   UNL A   1      41.329  12.698  41.330  1.00  0.00     0.041 A 
ATOM     99  C   UNL A   1      41.366  13.658  43.541  1.00  0.00     0.041 A 
ATOM    100  C   UNL A   1      41.043  12.616  42.686  1.00  0.00     0.123 A 
ATOM    101  F   UNL A   1      40.457  11.515  43.175  1.00  0.00    -0.207 F 
ENDBRANCH  94  95
ENDBRANCH  77  89
ENDBRANCH  72  74
ENDBRANCH  71  72
ENDBRANCH  70  71
ENDBRANCH  69  70
ENDBRANCH  68  69
ENDBRANCH   1  68
TORSDOF 21
ENDMDL
