MODEL 1
REMARK VINA RESULT:     -11.4      0.000      0.000
REMARK SMILES COc1ccc(NC2=[NH+]C(=O)/C(=C\c3ccccc3C(=O)OCCOCCOC(=O)c3ccc(-c4c5nc(c(-c6ccc(S(=O)(=O)[O-])cc6)c6ccc([nH]6)c(-c6ccc(S(=O)(=O)[O-])cc6)c6nc(c(-c7ccc(S(=O)(=O)[O-])cc7)c7ccc4[nH]7)C=C6)C=C5)cc3)S2)cc1
REMARK SMILES IDX 25 1 24 2 23 3 22 4 20 5 21 6 19 7 14 8 15 9 16 10 18 11
REMARK SMILES IDX 17 12 13 13 7 14 8 15 9 17 91 18 10 19 12 21 11 22 6 23 3 24
REMARK SMILES IDX 4 25 93 26 5 27 92 28 2 29 1 30 26 31 27 32 28 33 29 34
REMARK SMILES IDX 30 35 31 36 32 37 90 38 33 39 89 40 34 41 35 42 36 43 83 44
REMARK SMILES IDX 37 45 88 46 82 47 84 48 38 49 87 50 81 51 80 52 39 54 69 55
REMARK SMILES IDX 50 56 68 57 51 58 54 59 67 60 85 61 52 62 53 63 66 65 86 66
REMARK SMILES IDX 55 67 40 68 41 69 49 70 42 71 48 72 43 73 44 74 45 75 46 76
REMARK SMILES IDX 47 77 70 78 71 79 79 80 72 81 78 82 73 83 74 84 75 85 76 86
REMARK SMILES IDX 77 87 56 88 57 89 65 90 58 91 64 92 59 93 60 94 61 95 62 96
REMARK SMILES IDX 63 97
REMARK H PARENT 7 16 9 20 84 53 54 64
REMARK Flexibility Score: inf
ROOT
ATOM      1  O   UNL A   1      35.520  22.452  26.414  1.00  0.00    -0.374 OA
ENDROOT
BRANCH   1   2
ATOM      2  C   UNL A   1      34.351  22.292  27.220  1.00  0.00     0.202 C 
BRANCH   2   3
ATOM      3  C   UNL A   1      33.106  23.052  26.758  1.00  0.00     0.261 C 
BRANCH   3   4
ATOM      4  O   UNL A   1      33.332  24.471  26.788  1.00  0.00    -0.460 OA
BRANCH   4   5
ATOM      5  C   UNL A   1      32.269  25.250  26.463  1.00  0.00     0.338 C 
ATOM      6  O   UNL A   1      31.131  25.117  26.882  1.00  0.00    -0.246 OA
BRANCH   5   7
ATOM      7  C   UNL A   1      32.698  26.433  25.660  1.00  0.00     0.067 A 
ATOM      8  C   UNL A   1      33.397  26.389  24.434  1.00  0.00    -0.010 A 
ATOM      9  C   UNL A   1      33.743  27.605  23.816  1.00  0.00     0.009 A 
ATOM     10  C   UNL A   1      33.416  28.832  24.400  1.00  0.00     0.001 A 
ATOM     11  C   UNL A   1      32.380  27.677  26.237  1.00  0.00     0.016 A 
ATOM     12  C   UNL A   1      32.743  28.869  25.616  1.00  0.00     0.001 A 
BRANCH   8  13
ATOM     13  C   UNL A   1      33.878  25.157  23.784  1.00  0.00     0.033 C 
ATOM     14  N   UNL A   1      31.826  20.732  22.475  1.00  0.00    -0.235 N 
ATOM     15  C   UNL A   1      32.090  22.051  22.678  1.00  0.00     0.322 C 
ATOM     16  H   UNL A   1      31.220  20.532  21.726  1.00  0.00     0.313 HD
ATOM     17  N   UNL A   1      31.160  22.953  22.739  1.00  0.00    -0.199 N 
ATOM     18  S   UNL A   1      33.736  22.650  22.796  1.00  0.00     0.006 SA
ATOM     19  C   UNL A   1      31.646  24.211  23.002  1.00  0.00     0.346 C 
ATOM     20  H   UNL A   1      30.205  22.756  22.609  1.00  0.00     0.316 HD
ATOM     21  C   UNL A   1      33.121  24.203  23.221  1.00  0.00     0.110 C 
ATOM     22  O   UNL A   1      30.955  25.223  23.065  1.00  0.00    -0.240 OA
BRANCH  14  23
ATOM     23  C   UNL A   1      32.300  19.611  23.185  1.00  0.00     0.125 A 
ATOM     24  C   UNL A   1      33.271  17.300  24.479  1.00  0.00     0.119 A 
ATOM     25  C   UNL A   1      32.901  18.418  25.219  1.00  0.00     0.051 A 
ATOM     26  C   UNL A   1      33.134  17.315  23.095  1.00  0.00     0.051 A 
ATOM     27  C   UNL A   1      32.447  19.574  24.575  1.00  0.00     0.055 A 
ATOM     28  C   UNL A   1      32.659  18.466  22.457  1.00  0.00     0.055 A 
BRANCH  24  29
ATOM     29  O   UNL A   1      33.707  16.215  25.187  1.00  0.00    -0.497 OA
ATOM     30  C   UNL A   1      32.662  15.281  25.462  1.00  0.00     0.278 C 
ENDBRANCH  24  29
ENDBRANCH  14  23
ENDBRANCH   8  13
ENDBRANCH   5   7
ENDBRANCH   4   5
ENDBRANCH   3   4
ENDBRANCH   2   3
ENDBRANCH   1   2
BRANCH   1  31
ATOM     31  C   UNL A   1      35.959  21.330  25.652  1.00  0.00     0.202 C 
BRANCH  31  32
ATOM     32  C   UNL A   1      37.444  21.284  25.271  1.00  0.00     0.261 C 
BRANCH  32  33
ATOM     33  O   UNL A   1      38.167  22.475  25.624  1.00  0.00    -0.460 OA
BRANCH  33  34
ATOM     34  C   UNL A   1      39.195  22.260  26.483  1.00  0.00     0.338 C 
ATOM     35  O   UNL A   1      39.833  21.229  26.621  1.00  0.00    -0.246 OA
BRANCH  34  36
ATOM     36  C   UNL A   1      39.571  23.506  27.177  1.00  0.00     0.060 A 
ATOM     37  C   UNL A   1      38.869  24.667  26.833  1.00  0.00     0.016 A 
ATOM     38  C   UNL A   1      40.673  23.571  28.035  1.00  0.00     0.016 A 
ATOM     39  C   UNL A   1      39.306  25.906  27.293  1.00  0.00     0.010 A 
ATOM     40  C   UNL A   1      41.110  24.821  28.493  1.00  0.00     0.010 A 
ATOM     41  C   UNL A   1      40.453  25.995  28.090  1.00  0.00    -0.014 A 
BRANCH  41  42
ATOM     42  C   UNL A   1      41.044  27.333  28.339  1.00  0.00     0.031 A 
ATOM     43  C   UNL A   1      42.426  27.626  27.818  1.00  0.00     0.074 A 
ATOM     44  C   UNL A   1      40.336  28.298  28.952  1.00  0.00     0.049 A 
ATOM     45  N   UNL A   1      43.115  28.737  27.879  1.00  0.00    -0.248 NA
ATOM     46  C   UNL A   1      43.121  26.521  27.137  1.00  0.00     0.031 C 
ATOM     47  C   UNL A   1      38.974  28.151  29.461  1.00  0.00     0.029 A 
ATOM     48  N   UNL A   1      40.667  29.598  29.240  1.00  0.00    -0.354 N 
ATOM     49  C   UNL A   1      44.323  28.467  27.244  1.00  0.00     0.074 A 
ATOM     50  C   UNL A   1      44.284  27.079  26.834  1.00  0.00     0.031 C 
ATOM     51  C   UNL A   1      38.580  29.321  29.994  1.00  0.00     0.029 A 
ATOM     52  C   UNL A   1      39.672  30.287  29.892  1.00  0.00     0.049 A 
ATOM     53  H   UNL A   1      41.534  30.000  29.003  1.00  0.00     0.167 HD
ATOM     54  C   UNL A   1      45.369  29.297  27.018  1.00  0.00     0.031 A 
ATOM     55  C   UNL A   1      39.652  31.549  30.364  1.00  0.00     0.031 A 
ATOM     56  C   UNL A   1      45.419  30.670  27.448  1.00  0.00     0.049 A 
ATOM     57  C   UNL A   1      40.856  32.434  30.165  1.00  0.00     0.074 A 
ATOM     58  C   UNL A   1      46.438  31.591  27.270  1.00  0.00     0.029 A 
ATOM     59  N   UNL A   1      44.412  31.317  28.147  1.00  0.00    -0.354 N 
ATOM     60  N   UNL A   1      41.982  32.167  29.545  1.00  0.00    -0.248 NA
ATOM     61  C   UNL A   1      40.779  33.792  30.719  1.00  0.00     0.031 C 
ATOM     62  C   UNL A   1      46.067  32.779  27.910  1.00  0.00     0.029 A 
ATOM     63  C   UNL A   1      44.793  32.618  28.430  1.00  0.00     0.049 A 
ATOM     64  H   UNL A   1      43.554  30.910  28.405  1.00  0.00     0.167 HD
ATOM     65  C   UNL A   1      42.736  33.336  29.613  1.00  0.00     0.074 A 
ATOM     66  C   UNL A   1      41.929  34.313  30.316  1.00  0.00     0.031 C 
ATOM     67  C   UNL A   1      43.981  33.580  29.134  1.00  0.00     0.031 A 
BRANCH  54  68
ATOM     68  C   UNL A   1      46.566  28.722  26.306  1.00  0.00    -0.014 A 
ATOM     69  C   UNL A   1      47.753  28.424  26.998  1.00  0.00     0.010 A 
ATOM     70  C   UNL A   1      46.492  28.458  24.926  1.00  0.00     0.010 A 
ATOM     71  C   UNL A   1      48.860  27.911  26.314  1.00  0.00     0.020 A 
ATOM     72  C   UNL A   1      47.587  27.919  24.245  1.00  0.00     0.020 A 
ATOM     73  C   UNL A   1      48.771  27.667  24.941  1.00  0.00     0.054 A 
BRANCH  73  74
ATOM     74  S   UNL A   1      50.218  26.992  24.080  1.00  0.00     0.124 S 
ATOM     75  O   UNL A   1      49.619  26.456  22.861  1.00  0.00    -0.237 OA
ATOM     76  O   UNL A   1      51.063  28.170  23.901  1.00  0.00    -0.237 OA
ATOM     77  O   UNL A   1      50.739  25.992  25.009  1.00  0.00    -0.744 OA
ENDBRANCH  73  74
ENDBRANCH  54  68
BRANCH  55  78
ATOM     78  C   UNL A   1      38.452  32.053  31.086  1.00  0.00    -0.014 A 
ATOM     79  C   UNL A   1      38.363  31.963  32.486  1.00  0.00     0.010 A 
ATOM     80  C   UNL A   1      37.383  32.619  30.367  1.00  0.00     0.010 A 
ATOM     81  C   UNL A   1      37.220  32.414  33.153  1.00  0.00     0.020 A 
ATOM     82  C   UNL A   1      36.251  33.096  31.033  1.00  0.00     0.020 A 
ATOM     83  C   UNL A   1      36.173  32.981  32.421  1.00  0.00     0.054 A 
BRANCH  83  84
ATOM     84  S   UNL A   1      34.726  33.615  33.313  1.00  0.00     0.124 S 
ATOM     85  O   UNL A   1      34.683  35.005  32.874  1.00  0.00    -0.237 OA
ATOM     86  O   UNL A   1      33.654  32.756  32.816  1.00  0.00    -0.237 OA
ATOM     87  O   UNL A   1      35.075  33.409  34.718  1.00  0.00    -0.744 OA
ENDBRANCH  83  84
ENDBRANCH  55  78
BRANCH  67  88
ATOM     88  C   UNL A   1      44.534  34.970  29.316  1.00  0.00    -0.014 A 
ATOM     89  C   UNL A   1      44.382  35.957  28.326  1.00  0.00     0.010 A 
ATOM     90  C   UNL A   1      45.196  35.301  30.514  1.00  0.00     0.010 A 
ATOM     91  C   UNL A   1      44.922  37.233  28.510  1.00  0.00     0.020 A 
ATOM     92  C   UNL A   1      45.709  36.584  30.715  1.00  0.00     0.020 A 
ATOM     93  C   UNL A   1      45.587  37.536  29.701  1.00  0.00     0.054 A 
BRANCH  93  94
ATOM     94  S   UNL A   1      46.268  39.203  29.924  1.00  0.00     0.124 S 
ATOM     95  O   UNL A   1      45.071  40.034  29.831  1.00  0.00    -0.237 OA
ATOM     96  O   UNL A   1      46.878  39.127  31.249  1.00  0.00    -0.237 OA
ATOM     97  O   UNL A   1      47.211  39.342  28.818  1.00  0.00    -0.744 OA
ENDBRANCH  93  94
ENDBRANCH  67  88
ENDBRANCH  41  42
ENDBRANCH  34  36
ENDBRANCH  33  34
ENDBRANCH  32  33
ENDBRANCH  31  32
ENDBRANCH   1  31
TORSDOF 20
ENDMDL
MODEL 2
REMARK VINA RESULT:     -11.4      1.112      7.873
REMARK SMILES COc1ccc(NC2=[NH+]C(=O)/C(=C\c3ccccc3C(=O)OCCOCCOC(=O)c3ccc(-c4c5nc(c(-c6ccc(S(=O)(=O)[O-])cc6)c6ccc([nH]6)c(-c6ccc(S(=O)(=O)[O-])cc6)c6nc(c(-c7ccc(S(=O)(=O)[O-])cc7)c7ccc4[nH]7)C=C6)C=C5)cc3)S2)cc1
REMARK SMILES IDX 25 1 24 2 23 3 22 4 20 5 21 6 19 7 14 8 15 9 16 10 18 11
REMARK SMILES IDX 17 12 13 13 7 14 8 15 9 17 91 18 10 19 12 21 11 22 6 23 3 24
REMARK SMILES IDX 4 25 93 26 5 27 92 28 2 29 1 30 26 31 27 32 28 33 29 34
REMARK SMILES IDX 30 35 31 36 32 37 90 38 33 39 89 40 34 41 35 42 36 43 83 44
REMARK SMILES IDX 37 45 88 46 82 47 84 48 38 49 87 50 81 51 80 52 39 54 69 55
REMARK SMILES IDX 50 56 68 57 51 58 54 59 67 60 85 61 52 62 53 63 66 65 86 66
REMARK SMILES IDX 55 67 40 68 41 69 49 70 42 71 48 72 43 73 44 74 45 75 46 76
REMARK SMILES IDX 47 77 70 78 71 79 79 80 72 81 78 82 73 83 74 84 75 85 76 86
REMARK SMILES IDX 77 87 56 88 57 89 65 90 58 91 64 92 59 93 60 94 61 95 62 96
REMARK SMILES IDX 63 97
REMARK H PARENT 7 16 9 20 84 53 54 64
REMARK Flexibility Score: inf
ROOT
ATOM      1  O   UNL A   1      35.391  22.414  26.160  1.00  0.00    -0.374 OA
ENDROOT
BRANCH   1   2
ATOM      2  C   UNL A   1      34.280  22.313  27.051  1.00  0.00     0.202 C 
BRANCH   2   3
ATOM      3  C   UNL A   1      33.062  23.174  26.709  1.00  0.00     0.261 C 
BRANCH   3   4
ATOM      4  O   UNL A   1      33.447  24.542  26.490  1.00  0.00    -0.460 OA
BRANCH   4   5
ATOM      5  C   UNL A   1      32.431  25.434  26.368  1.00  0.00     0.338 C 
ATOM      6  O   UNL A   1      31.389  25.421  27.003  1.00  0.00    -0.246 OA
BRANCH   5   7
ATOM      7  C   UNL A   1      32.820  26.571  25.483  1.00  0.00     0.067 A 
ATOM      8  C   UNL A   1      33.477  26.460  24.238  1.00  0.00    -0.010 A 
ATOM      9  C   UNL A   1      33.789  27.640  23.538  1.00  0.00     0.009 A 
ATOM     10  C   UNL A   1      33.470  28.897  24.060  1.00  0.00     0.001 A 
ATOM     11  C   UNL A   1      32.510  27.844  25.997  1.00  0.00     0.016 A 
ATOM     12  C   UNL A   1      32.839  29.000  25.295  1.00  0.00     0.001 A 
BRANCH   8  13
ATOM     13  C   UNL A   1      33.946  25.196  23.645  1.00  0.00     0.033 C 
ATOM     14  N   UNL A   1      31.847  20.750  22.493  1.00  0.00    -0.235 N 
ATOM     15  C   UNL A   1      32.127  22.073  22.646  1.00  0.00     0.322 C 
ATOM     16  H   UNL A   1      31.245  20.529  21.746  1.00  0.00     0.313 HD
ATOM     17  N   UNL A   1      31.210  22.990  22.658  1.00  0.00    -0.199 N 
ATOM     18  S   UNL A   1      33.780  22.653  22.759  1.00  0.00     0.006 SA
ATOM     19  C   UNL A   1      31.711  24.250  22.876  1.00  0.00     0.346 C 
ATOM     20  H   UNL A   1      30.253  22.800  22.526  1.00  0.00     0.316 HD
ATOM     21  C   UNL A   1      33.183  24.231  23.112  1.00  0.00     0.110 C 
ATOM     22  O   UNL A   1      31.033  25.274  22.889  1.00  0.00    -0.240 OA
BRANCH  14  23
ATOM     23  C   UNL A   1      32.296  19.653  23.254  1.00  0.00     0.125 A 
ATOM     24  C   UNL A   1      33.209  17.380  24.654  1.00  0.00     0.119 A 
ATOM     25  C   UNL A   1      32.938  18.563  25.333  1.00  0.00     0.051 A 
ATOM     26  C   UNL A   1      33.000  17.312  23.280  1.00  0.00     0.051 A 
ATOM     27  C   UNL A   1      32.514  19.698  24.635  1.00  0.00     0.055 A 
ATOM     28  C   UNL A   1      32.554  18.444  22.589  1.00  0.00     0.055 A 
BRANCH  24  29
ATOM     29  O   UNL A   1      33.622  16.320  25.412  1.00  0.00    -0.497 OA
ATOM     30  C   UNL A   1      32.668  15.257  25.440  1.00  0.00     0.278 C 
ENDBRANCH  24  29
ENDBRANCH  14  23
ENDBRANCH   8  13
ENDBRANCH   5   7
ENDBRANCH   4   5
ENDBRANCH   3   4
ENDBRANCH   2   3
ENDBRANCH   1   2
BRANCH   1  31
ATOM     31  C   UNL A   1      35.908  21.207  25.604  1.00  0.00     0.202 C 
BRANCH  31  32
ATOM     32  C   UNL A   1      37.373  21.220  25.149  1.00  0.00     0.261 C 
BRANCH  32  33
ATOM     33  O   UNL A   1      38.090  22.400  25.548  1.00  0.00    -0.460 OA
BRANCH  33  34
ATOM     34  C   UNL A   1      39.214  22.144  26.263  1.00  0.00     0.338 C 
ATOM     35  O   UNL A   1      39.850  21.103  26.285  1.00  0.00    -0.246 OA
BRANCH  34  36
ATOM     36  C   UNL A   1      39.691  23.361  26.948  1.00  0.00     0.060 A 
ATOM     37  C   UNL A   1      39.224  24.590  26.467  1.00  0.00     0.016 A 
ATOM     38  C   UNL A   1      40.678  23.314  27.937  1.00  0.00     0.016 A 
ATOM     39  C   UNL A   1      39.788  25.777  26.928  1.00  0.00     0.010 A 
ATOM     40  C   UNL A   1      41.244  24.510  28.396  1.00  0.00     0.010 A 
ATOM     41  C   UNL A   1      40.830  25.743  27.862  1.00  0.00    -0.014 A 
BRANCH  41  42
ATOM     42  C   UNL A   1      41.587  26.991  28.130  1.00  0.00     0.031 A 
ATOM     43  C   UNL A   1      40.850  28.184  28.679  1.00  0.00     0.074 A 
ATOM     44  C   UNL A   1      42.920  27.040  27.961  1.00  0.00     0.049 A 
ATOM     45  N   UNL A   1      41.317  29.355  29.031  1.00  0.00    -0.248 NA
ATOM     46  C   UNL A   1      39.396  28.035  28.858  1.00  0.00     0.031 C 
ATOM     47  C   UNL A   1      43.751  25.939  27.480  1.00  0.00     0.029 A 
ATOM     48  N   UNL A   1      43.808  28.061  28.187  1.00  0.00    -0.354 N 
ATOM     49  C   UNL A   1      40.216  30.082  29.473  1.00  0.00     0.074 A 
ATOM     50  C   UNL A   1      39.057  29.231  29.316  1.00  0.00     0.031 C 
ATOM     51  C   UNL A   1      45.034  26.342  27.453  1.00  0.00     0.029 A 
ATOM     52  C   UNL A   1      45.109  27.736  27.885  1.00  0.00     0.049 A 
ATOM     53  H   UNL A   1      43.540  28.943  28.534  1.00  0.00     0.167 HD
ATOM     54  C   UNL A   1      40.174  31.342  29.968  1.00  0.00     0.031 A 
ATOM     55  C   UNL A   1      46.229  28.484  27.939  1.00  0.00     0.031 A 
ATOM     56  C   UNL A   1      41.323  32.198  30.101  1.00  0.00     0.049 A 
ATOM     57  C   UNL A   1      46.147  29.907  28.425  1.00  0.00     0.074 A 
ATOM     58  C   UNL A   1      41.381  33.493  30.588  1.00  0.00     0.029 A 
ATOM     59  N   UNL A   1      42.615  31.849  29.739  1.00  0.00    -0.354 N 
ATOM     60  N   UNL A   1      45.101  30.572  28.857  1.00  0.00    -0.248 NA
ATOM     61  C   UNL A   1      47.399  30.676  28.443  1.00  0.00     0.031 C 
ATOM     62  C   UNL A   1      42.700  33.944  30.470  1.00  0.00     0.029 A 
ATOM     63  C   UNL A   1      43.474  32.911  29.969  1.00  0.00     0.049 A 
ATOM     64  H   UNL A   1      42.881  30.976  29.372  1.00  0.00     0.167 HD
ATOM     65  C   UNL A   1      45.576  31.829  29.223  1.00  0.00     0.074 A 
ATOM     66  C   UNL A   1      47.005  31.822  28.978  1.00  0.00     0.031 C 
ATOM     67  C   UNL A   1      44.894  32.891  29.718  1.00  0.00     0.031 A 
BRANCH  54  68
ATOM     68  C   UNL A   1      38.825  31.883  30.364  1.00  0.00    -0.014 A 
ATOM     69  C   UNL A   1      38.343  31.754  31.679  1.00  0.00     0.010 A 
ATOM     70  C   UNL A   1      38.035  32.548  29.408  1.00  0.00     0.010 A 
ATOM     71  C   UNL A   1      37.079  32.244  32.021  1.00  0.00     0.020 A 
ATOM     72  C   UNL A   1      36.783  33.063  29.752  1.00  0.00     0.020 A 
ATOM     73  C   UNL A   1      36.305  32.890  31.053  1.00  0.00     0.054 A 
BRANCH  73  74
ATOM     74  S   UNL A   1      34.672  33.525  31.525  1.00  0.00     0.124 S 
ATOM     75  O   UNL A   1      35.023  34.730  32.273  1.00  0.00    -0.237 OA
ATOM     76  O   UNL A   1      34.031  33.751  30.233  1.00  0.00    -0.237 OA
ATOM     77  O   UNL A   1      34.097  32.444  32.322  1.00  0.00    -0.744 OA
ENDBRANCH  73  74
ENDBRANCH  54  68
BRANCH  55  78
ATOM     78  C   UNL A   1      47.530  27.904  27.506  1.00  0.00    -0.014 A 
ATOM     79  C   UNL A   1      48.405  27.321  28.438  1.00  0.00     0.010 A 
ATOM     80  C   UNL A   1      47.903  27.944  26.149  1.00  0.00     0.010 A 
ATOM     81  C   UNL A   1      49.636  26.803  28.025  1.00  0.00     0.020 A 
ATOM     82  C   UNL A   1      49.120  27.403  25.729  1.00  0.00     0.020 A 
ATOM     83  C   UNL A   1      49.983  26.845  26.673  1.00  0.00     0.054 A 
BRANCH  83  84
ATOM     84  S   UNL A   1      51.560  26.113  26.152  1.00  0.00     0.124 S 
ATOM     85  O   UNL A   1      51.430  24.741  26.629  1.00  0.00    -0.237 OA
ATOM     86  O   UNL A   1      51.520  26.289  24.702  1.00  0.00    -0.237 OA
ATOM     87  O   UNL A   1      52.558  26.928  26.842  1.00  0.00    -0.744 OA
ENDBRANCH  83  84
ENDBRANCH  55  78
BRANCH  67  88
ATOM     88  C   UNL A   1      45.688  34.122  30.070  1.00  0.00    -0.014 A 
ATOM     89  C   UNL A   1      46.283  34.277  31.335  1.00  0.00     0.010 A 
ATOM     90  C   UNL A   1      45.866  35.132  29.105  1.00  0.00     0.010 A 
ATOM     91  C   UNL A   1      46.998  35.438  31.644  1.00  0.00     0.020 A 
ATOM     92  C   UNL A   1      46.606  36.279  29.399  1.00  0.00     0.020 A 
ATOM     93  C   UNL A   1      47.150  36.434  30.675  1.00  0.00     0.054 A 
BRANCH  93  94
ATOM     94  S   UNL A   1      48.093  37.926  31.093  1.00  0.00     0.124 S 
ATOM     95  O   UNL A   1      47.154  38.649  31.947  1.00  0.00    -0.237 OA
ATOM     96  O   UNL A   1      49.269  37.385  31.770  1.00  0.00    -0.237 OA
ATOM     97  O   UNL A   1      48.358  38.543  29.796  1.00  0.00    -0.744 OA
ENDBRANCH  93  94
ENDBRANCH  67  88
ENDBRANCH  41  42
ENDBRANCH  34  36
ENDBRANCH  33  34
ENDBRANCH  32  33
ENDBRANCH  31  32
ENDBRANCH   1  31
TORSDOF 20
ENDMDL
MODEL 3
REMARK VINA RESULT:     -11.3      3.018      7.863
REMARK SMILES COc1ccc(NC2=[NH+]C(=O)/C(=C\c3ccccc3C(=O)OCCOCCOC(=O)c3ccc(-c4c5nc(c(-c6ccc(S(=O)(=O)[O-])cc6)c6ccc([nH]6)c(-c6ccc(S(=O)(=O)[O-])cc6)c6nc(c(-c7ccc(S(=O)(=O)[O-])cc7)c7ccc4[nH]7)C=C6)C=C5)cc3)S2)cc1
REMARK SMILES IDX 25 1 24 2 23 3 22 4 20 5 21 6 19 7 14 8 15 9 16 10 18 11
REMARK SMILES IDX 17 12 13 13 7 14 8 15 9 17 91 18 10 19 12 21 11 22 6 23 3 24
REMARK SMILES IDX 4 25 93 26 5 27 92 28 2 29 1 30 26 31 27 32 28 33 29 34
REMARK SMILES IDX 30 35 31 36 32 37 90 38 33 39 89 40 34 41 35 42 36 43 83 44
REMARK SMILES IDX 37 45 88 46 82 47 84 48 38 49 87 50 81 51 80 52 39 54 69 55
REMARK SMILES IDX 50 56 68 57 51 58 54 59 67 60 85 61 52 62 53 63 66 65 86 66
REMARK SMILES IDX 55 67 40 68 41 69 49 70 42 71 48 72 43 73 44 74 45 75 46 76
REMARK SMILES IDX 47 77 70 78 71 79 79 80 72 81 78 82 73 83 74 84 75 85 76 86
REMARK SMILES IDX 77 87 56 88 57 89 65 90 58 91 64 92 59 93 60 94 61 95 62 96
REMARK SMILES IDX 63 97
REMARK H PARENT 7 16 9 20 84 53 54 64
REMARK Flexibility Score: inf
ROOT
ATOM      1  O   UNL A   1      35.233  22.094  25.825  1.00  0.00    -0.374 OA
ENDROOT
BRANCH   1   2
ATOM      2  C   UNL A   1      34.425  21.841  26.975  1.00  0.00     0.202 C 
BRANCH   2   3
ATOM      3  C   UNL A   1      33.237  22.783  27.184  1.00  0.00     0.261 C 
BRANCH   3   4
ATOM      4  O   UNL A   1      33.543  24.106  26.710  1.00  0.00    -0.460 OA
BRANCH   4   5
ATOM      5  C   UNL A   1      32.488  24.949  26.580  1.00  0.00     0.338 C 
ATOM      6  O   UNL A   1      31.401  24.822  27.120  1.00  0.00    -0.246 OA
BRANCH   5   7
ATOM      7  C   UNL A   1      32.877  26.183  25.834  1.00  0.00     0.067 A 
ATOM      8  C   UNL A   1      33.500  26.219  24.568  1.00  0.00    -0.010 A 
ATOM      9  C   UNL A   1      33.818  27.473  24.013  1.00  0.00     0.009 A 
ATOM     10  C   UNL A   1      33.537  28.659  24.698  1.00  0.00     0.001 A 
ATOM     11  C   UNL A   1      32.605  27.386  26.513  1.00  0.00     0.016 A 
ATOM     12  C   UNL A   1      32.939  28.616  25.952  1.00  0.00     0.001 A 
BRANCH   8  13
ATOM     13  C   UNL A   1      33.930  25.032  23.808  1.00  0.00     0.033 C 
ATOM     14  N   UNL A   1      31.773  20.706  22.348  1.00  0.00    -0.235 N 
ATOM     15  C   UNL A   1      32.057  22.008  22.621  1.00  0.00     0.322 C 
ATOM     16  H   UNL A   1      31.117  20.557  21.630  1.00  0.00     0.313 HD
ATOM     17  N   UNL A   1      31.138  22.905  22.802  1.00  0.00    -0.199 N 
ATOM     18  S   UNL A   1      33.710  22.596  22.669  1.00  0.00     0.006 SA
ATOM     19  C   UNL A   1      31.647  24.142  23.114  1.00  0.00     0.346 C 
ATOM     20  H   UNL A   1      30.175  22.718  22.723  1.00  0.00     0.316 HD
ATOM     21  C   UNL A   1      33.133  24.118  23.235  1.00  0.00     0.110 C 
ATOM     22  O   UNL A   1      30.967  25.149  23.290  1.00  0.00    -0.240 OA
BRANCH  14  23
ATOM     23  C   UNL A   1      32.286  19.540  22.950  1.00  0.00     0.125 A 
ATOM     24  C   UNL A   1      33.305  17.272  24.284  1.00  0.00     0.119 A 
ATOM     25  C   UNL A   1      33.066  17.235  22.914  1.00  0.00     0.051 A 
ATOM     26  C   UNL A   1      33.065  18.445  24.992  1.00  0.00     0.051 A 
ATOM     27  C   UNL A   1      32.534  18.349  22.258  1.00  0.00     0.055 A 
ATOM     28  C   UNL A   1      32.552  19.564  24.328  1.00  0.00     0.055 A 
BRANCH  24  29
ATOM     29  O   UNL A   1      33.823  16.138  24.845  1.00  0.00    -0.497 OA
ATOM     30  C   UNL A   1      32.815  15.274  25.374  1.00  0.00     0.278 C 
ENDBRANCH  24  29
ENDBRANCH  14  23
ENDBRANCH   8  13
ENDBRANCH   5   7
ENDBRANCH   4   5
ENDBRANCH   3   4
ENDBRANCH   2   3
ENDBRANCH   1   2
BRANCH   1  31
ATOM     31  C   UNL A   1      36.105  21.055  25.386  1.00  0.00     0.202 C 
BRANCH  31  32
ATOM     32  C   UNL A   1      37.603  21.380  25.325  1.00  0.00     0.261 C 
BRANCH  32  33
ATOM     33  O   UNL A   1      37.912  22.738  25.681  1.00  0.00    -0.460 OA
BRANCH  33  34
ATOM     34  C   UNL A   1      39.152  22.900  26.207  1.00  0.00     0.338 C 
ATOM     35  O   UNL A   1      40.098  22.135  26.107  1.00  0.00    -0.246 OA
BRANCH  34  36
ATOM     36  C   UNL A   1      39.289  24.227  26.836  1.00  0.00     0.060 A 
ATOM     37  C   UNL A   1      40.073  25.174  26.167  1.00  0.00     0.016 A 
ATOM     38  C   UNL A   1      38.786  24.497  28.112  1.00  0.00     0.016 A 
ATOM     39  C   UNL A   1      40.412  26.368  26.798  1.00  0.00     0.010 A 
ATOM     40  C   UNL A   1      39.131  25.699  28.744  1.00  0.00     0.010 A 
ATOM     41  C   UNL A   1      39.979  26.619  28.105  1.00  0.00    -0.014 A 
BRANCH  41  42
ATOM     42  C   UNL A   1      40.570  27.762  28.843  1.00  0.00     0.031 A 
ATOM     43  C   UNL A   1      39.731  28.992  29.072  1.00  0.00     0.074 A 
ATOM     44  C   UNL A   1      41.805  27.681  29.369  1.00  0.00     0.049 A 
ATOM     45  N   UNL A   1      40.026  30.084  29.729  1.00  0.00    -0.248 NA
ATOM     46  C   UNL A   1      38.382  28.987  28.484  1.00  0.00     0.031 C 
ATOM     47  C   UNL A   1      42.696  26.529  29.256  1.00  0.00     0.029 A 
ATOM     48  N   UNL A   1      42.516  28.587  30.114  1.00  0.00    -0.354 N 
ATOM     49  C   UNL A   1      38.900  30.896  29.636  1.00  0.00     0.074 A 
ATOM     50  C   UNL A   1      37.931  30.183  28.833  1.00  0.00     0.031 C 
ATOM     51  C   UNL A   1      43.837  26.795  29.916  1.00  0.00     0.029 A 
ATOM     52  C   UNL A   1      43.768  28.145  30.469  1.00  0.00     0.049 A 
ATOM     53  H   UNL A   1      42.165  29.470  30.370  1.00  0.00     0.167 HD
ATOM     54  C   UNL A   1      38.690  32.122  30.172  1.00  0.00     0.031 A 
ATOM     55  C   UNL A   1      44.750  28.766  31.153  1.00  0.00     0.031 A 
ATOM     56  C   UNL A   1      39.663  32.843  30.949  1.00  0.00     0.049 A 
ATOM     57  C   UNL A   1      44.520  30.159  31.679  1.00  0.00     0.074 A 
ATOM     58  C   UNL A   1      39.545  34.094  31.531  1.00  0.00     0.029 A 
ATOM     59  N   UNL A   1      40.936  32.382  31.247  1.00  0.00    -0.354 N 
ATOM     60  N   UNL A   1      43.442  30.904  31.597  1.00  0.00    -0.248 NA
ATOM     61  C   UNL A   1      45.635  30.789  32.399  1.00  0.00     0.031 C 
ATOM     62  C   UNL A   1      40.767  34.410  32.136  1.00  0.00     0.029 A 
ATOM     63  C   UNL A   1      41.624  33.331  31.985  1.00  0.00     0.049 A 
ATOM     64  H   UNL A   1      41.298  31.508  30.973  1.00  0.00     0.167 HD
ATOM     65  C   UNL A   1      43.743  32.080  32.280  1.00  0.00     0.074 A 
ATOM     66  C   UNL A   1      45.095  31.936  32.783  1.00  0.00     0.031 C 
ATOM     67  C   UNL A   1      42.971  33.177  32.476  1.00  0.00     0.031 A 
BRANCH  54  68
ATOM     68  C   UNL A   1      37.363  32.778  29.894  1.00  0.00    -0.014 A 
ATOM     69  C   UNL A   1      37.203  33.682  28.828  1.00  0.00     0.010 A 
ATOM     70  C   UNL A   1      36.253  32.468  30.701  1.00  0.00     0.010 A 
ATOM     71  C   UNL A   1      35.968  34.297  28.601  1.00  0.00     0.020 A 
ATOM     72  C   UNL A   1      35.010  33.060  30.460  1.00  0.00     0.020 A 
ATOM     73  C   UNL A   1      34.881  33.985  29.422  1.00  0.00     0.054 A 
BRANCH  73  74
ATOM     74  S   UNL A   1      33.287  34.789  29.099  1.00  0.00     0.124 S 
ATOM     75  O   UNL A   1      33.703  36.039  28.469  1.00  0.00    -0.237 OA
ATOM     76  O   UNL A   1      32.618  33.833  28.220  1.00  0.00    -0.237 OA
ATOM     77  O   UNL A   1      32.694  34.929  30.427  1.00  0.00    -0.744 OA
ENDBRANCH  73  74
ENDBRANCH  54  68
BRANCH  55  78
ATOM     78  C   UNL A   1      46.052  28.079  31.371  1.00  0.00    -0.014 A 
ATOM     79  C   UNL A   1      47.131  28.283  30.493  1.00  0.00     0.010 A 
ATOM     80  C   UNL A   1      46.213  27.202  32.460  1.00  0.00     0.010 A 
ATOM     81  C   UNL A   1      48.341  27.613  30.691  1.00  0.00     0.020 A 
ATOM     82  C   UNL A   1      47.431  26.552  32.677  1.00  0.00     0.020 A 
ATOM     83  C   UNL A   1      48.484  26.754  31.784  1.00  0.00     0.054 A 
BRANCH  83  84
ATOM     84  S   UNL A   1      50.083  25.941  32.054  1.00  0.00     0.124 S 
ATOM     85  O   UNL A   1      50.709  26.058  30.742  1.00  0.00    -0.237 OA
ATOM     86  O   UNL A   1      50.670  26.755  33.116  1.00  0.00    -0.237 OA
ATOM     87  O   UNL A   1      49.712  24.585  32.455  1.00  0.00    -0.744 OA
ENDBRANCH  83  84
ENDBRANCH  55  78
BRANCH  67  88
ATOM     88  C   UNL A   1      43.550  34.295  33.304  1.00  0.00    -0.014 A 
ATOM     89  C   UNL A   1      43.412  34.321  34.703  1.00  0.00     0.010 A 
ATOM     90  C   UNL A   1      44.272  35.324  32.669  1.00  0.00     0.010 A 
ATOM     91  C   UNL A   1      43.942  35.380  35.447  1.00  0.00     0.020 A 
ATOM     92  C   UNL A   1      44.830  36.367  33.411  1.00  0.00     0.020 A 
ATOM     93  C   UNL A   1      44.643  36.399  34.795  1.00  0.00     0.054 A 
BRANCH  93  94
ATOM     94  S   UNL A   1      45.334  37.756  35.781  1.00  0.00     0.124 S 
ATOM     95  O   UNL A   1      46.254  38.380  34.834  1.00  0.00    -0.237 OA
ATOM     96  O   UNL A   1      44.152  38.542  36.121  1.00  0.00    -0.237 OA
ATOM     97  O   UNL A   1      45.967  37.076  36.909  1.00  0.00    -0.744 OA
ENDBRANCH  93  94
ENDBRANCH  67  88
ENDBRANCH  41  42
ENDBRANCH  34  36
ENDBRANCH  33  34
ENDBRANCH  32  33
ENDBRANCH  31  32
ENDBRANCH   1  31
TORSDOF 20
ENDMDL
