MODEL 1
REMARK VINA RESULT:      -8.6      0.000      0.000
REMARK SMILES CCOC(=O)c1noc(C)c1C(=O)OCCOCCOC(=O)c1ccc(-c2c3nc(c(-c4ccc(S(=O)(=O)[O-])cc4)c4ccc([nH]4)c(-c4ccc(S(=O)(=O)[O-])cc4)c4nc(c(-c5ccc(S(=O)(=O)[O-])cc5)c5ccc2[nH]5)C=C4)C=C3)cc1
REMARK SMILES IDX 17 1 16 2 15 3 14 4 12 5 13 6 11 7 6 8 7 9 8 10 9 11 10 12
REMARK SMILES IDX 4 13 5 14 3 15 2 16 1 17 18 18 19 19 20 20 21 21 22 22 23 23
REMARK SMILES IDX 24 24 82 25 25 26 81 27 26 28 27 29 28 30 75 31 29 32 80 33
REMARK SMILES IDX 74 34 76 35 30 36 79 37 73 38 72 39 31 41 61 42 42 43 60 44
REMARK SMILES IDX 43 45 46 46 59 47 77 48 44 49 45 50 58 52 78 53 47 54 32 55
REMARK SMILES IDX 33 56 41 57 34 58 40 59 35 60 36 61 37 62 38 63 39 64 62 65
REMARK SMILES IDX 63 66 71 67 64 68 70 69 65 70 66 71 67 72 68 73 69 74 48 75
REMARK SMILES IDX 49 76 57 77 50 78 56 79 51 80 52 81 53 82 54 83 55 84
REMARK H PARENT 76 40 46 51
REMARK Flexibility Score: inf
ROOT
ATOM      1  O   UNL A   1      35.656  22.243  26.090  1.00  0.00    -0.374 OA
ENDROOT
BRANCH   1   2
ATOM      2  C   UNL A   1      34.453  22.908  25.690  1.00  0.00     0.202 C 
BRANCH   2   3
ATOM      3  C   UNL A   1      34.682  24.035  24.679  1.00  0.00     0.261 C 
BRANCH   3   4
ATOM      4  O   UNL A   1      34.570  25.305  25.348  1.00  0.00    -0.459 OA
BRANCH   4   5
ATOM      5  C   UNL A   1      33.676  26.178  24.814  1.00  0.00     0.344 C 
ATOM      6  O   UNL A   1      33.721  26.614  23.671  1.00  0.00    -0.246 OA
BRANCH   5   7
ATOM      7  C   UNL A   1      32.574  26.468  25.701  1.00  0.00     0.137 A 
ATOM      8  C   UNL A   1      32.311  27.736  26.295  1.00  0.00     0.206 A 
ATOM      9  N   UNL A   1      31.234  27.685  27.093  1.00  0.00    -0.072 NA
ATOM     10  O   UNL A   1      30.744  26.398  26.975  1.00  0.00    -0.360 OA
ATOM     11  C   UNL A   1      31.527  25.678  26.124  1.00  0.00     0.149 A 
ATOM     12  C   UNL A   1      31.080  24.290  25.886  1.00  0.00     0.092 C 
BRANCH   8  13
ATOM     13  C   UNL A   1      33.008  28.985  26.019  1.00  0.00     0.361 C 
ATOM     14  O   UNL A   1      33.021  29.549  24.933  1.00  0.00    -0.244 OA
BRANCH  13  15
ATOM     15  O   UNL A   1      33.666  29.420  27.137  1.00  0.00    -0.461 OA
BRANCH  15  16
ATOM     16  C   UNL A   1      35.063  29.114  27.223  1.00  0.00     0.230 C 
ATOM     17  C   UNL A   1      35.677  29.679  28.492  1.00  0.00     0.049 C 
ENDBRANCH  15  16
ENDBRANCH  13  15
ENDBRANCH   8  13
ENDBRANCH   5   7
ENDBRANCH   4   5
ENDBRANCH   3   4
ENDBRANCH   2   3
ENDBRANCH   1   2
BRANCH   1  18
ATOM     18  C   UNL A   1      36.173  21.274  25.175  1.00  0.00     0.202 C 
BRANCH  18  19
ATOM     19  C   UNL A   1      37.685  21.349  24.942  1.00  0.00     0.261 C 
BRANCH  19  20
ATOM     20  O   UNL A   1      38.258  22.443  25.676  1.00  0.00    -0.460 OA
BRANCH  20  21
ATOM     21  C   UNL A   1      39.361  22.129  26.399  1.00  0.00     0.338 C 
ATOM     22  O   UNL A   1      39.905  21.040  26.476  1.00  0.00    -0.246 OA
BRANCH  21  23
ATOM     23  C   UNL A   1      39.950  23.364  26.955  1.00  0.00     0.060 A 
ATOM     24  C   UNL A   1      39.613  24.572  26.331  1.00  0.00     0.016 A 
ATOM     25  C   UNL A   1      40.822  23.349  28.047  1.00  0.00     0.016 A 
ATOM     26  C   UNL A   1      40.175  25.766  26.775  1.00  0.00     0.010 A 
ATOM     27  C   UNL A   1      41.394  24.548  28.483  1.00  0.00     0.010 A 
ATOM     28  C   UNL A   1      41.092  25.757  27.834  1.00  0.00    -0.014 A 
BRANCH  28  29
ATOM     29  C   UNL A   1      41.825  26.996  28.179  1.00  0.00     0.031 A 
ATOM     30  C   UNL A   1      41.057  28.180  28.698  1.00  0.00     0.074 A 
ATOM     31  C   UNL A   1      43.162  27.059  28.047  1.00  0.00     0.049 A 
ATOM     32  N   UNL A   1      41.496  29.363  29.039  1.00  0.00    -0.248 NA
ATOM     33  C   UNL A   1      39.604  28.004  28.852  1.00  0.00     0.031 C 
ATOM     34  C   UNL A   1      44.021  25.966  27.589  1.00  0.00     0.029 A 
ATOM     35  N   UNL A   1      44.031  28.094  28.283  1.00  0.00    -0.354 N 
ATOM     36  C   UNL A   1      40.375  30.077  29.446  1.00  0.00     0.074 A 
ATOM     37  C   UNL A   1      39.234  29.200  29.289  1.00  0.00     0.031 C 
ATOM     38  C   UNL A   1      45.294  26.396  27.563  1.00  0.00     0.029 A 
ATOM     39  C   UNL A   1      45.337  27.797  27.978  1.00  0.00     0.049 A 
ATOM     40  H   UNL A   1      43.746  28.968  28.637  1.00  0.00     0.167 HD
ATOM     41  C   UNL A   1      40.303  31.345  29.912  1.00  0.00     0.031 A 
ATOM     42  C   UNL A   1      46.438  28.573  28.009  1.00  0.00     0.031 A 
ATOM     43  C   UNL A   1      41.433  32.223  30.050  1.00  0.00     0.049 A 
ATOM     44  C   UNL A   1      46.322  30.004  28.463  1.00  0.00     0.074 A 
ATOM     45  C   UNL A   1      41.463  33.521  30.528  1.00  0.00     0.029 A 
ATOM     46  N   UNL A   1      42.734  31.895  29.698  1.00  0.00    -0.354 N 
ATOM     47  N   UNL A   1      45.259  30.654  28.873  1.00  0.00    -0.248 NA
ATOM     48  C   UNL A   1      47.555  30.803  28.458  1.00  0.00     0.031 C 
ATOM     49  C   UNL A   1      42.775  33.996  30.421  1.00  0.00     0.029 A 
ATOM     50  C   UNL A   1      43.570  32.975  29.921  1.00  0.00     0.049 A 
ATOM     51  H   UNL A   1      43.020  31.023  29.342  1.00  0.00     0.167 HD
ATOM     52  C   UNL A   1      45.699  31.933  29.194  1.00  0.00     0.074 A 
ATOM     53  C   UNL A   1      47.125  31.962  28.942  1.00  0.00     0.031 C 
ATOM     54  C   UNL A   1      44.986  32.990  29.657  1.00  0.00     0.031 A 
BRANCH  41  55
ATOM     55  C   UNL A   1      38.941  31.869  30.276  1.00  0.00    -0.014 A 
ATOM     56  C   UNL A   1      38.118  32.482  29.315  1.00  0.00     0.010 A 
ATOM     57  C   UNL A   1      38.468  31.724  31.593  1.00  0.00     0.010 A 
ATOM     58  C   UNL A   1      36.860  32.972  29.671  1.00  0.00     0.020 A 
ATOM     59  C   UNL A   1      37.201  32.194  31.949  1.00  0.00     0.020 A 
ATOM     60  C   UNL A   1      36.412  32.831  30.989  1.00  0.00     0.054 A 
BRANCH  60  61
ATOM     61  S   UNL A   1      34.769  33.464  31.425  1.00  0.00     0.124 S 
ATOM     62  O   UNL A   1      35.098  34.733  32.069  1.00  0.00    -0.237 OA
ATOM     63  O   UNL A   1      34.109  33.572  30.126  1.00  0.00    -0.237 OA
ATOM     64  O   UNL A   1      34.227  32.437  32.312  1.00  0.00    -0.744 OA
ENDBRANCH  60  61
ENDBRANCH  41  55
BRANCH  42  65
ATOM     65  C   UNL A   1      47.746  28.020  27.567  1.00  0.00    -0.014 A 
ATOM     66  C   UNL A   1      48.591  27.362  28.477  1.00  0.00     0.010 A 
ATOM     67  C   UNL A   1      48.149  28.147  26.225  1.00  0.00     0.010 A 
ATOM     68  C   UNL A   1      49.821  26.849  28.055  1.00  0.00     0.020 A 
ATOM     69  C   UNL A   1      49.367  27.617  25.795  1.00  0.00     0.020 A 
ATOM     70  C   UNL A   1      50.200  26.979  26.715  1.00  0.00     0.054 A 
BRANCH  70  71
ATOM     71  S   UNL A   1      51.773  26.255  26.171  1.00  0.00     0.124 S 
ATOM     72  O   UNL A   1      51.701  26.427  24.724  1.00  0.00    -0.237 OA
ATOM     73  O   UNL A   1      52.759  27.084  26.861  1.00  0.00    -0.237 OA
ATOM     74  O   UNL A   1      51.691  24.875  26.645  1.00  0.00    -0.744 OA
ENDBRANCH  70  71
ENDBRANCH  42  65
BRANCH  54  75
ATOM     75  C   UNL A   1      45.738  34.261  29.940  1.00  0.00    -0.014 A 
ATOM     76  C   UNL A   1      45.872  35.258  28.959  1.00  0.00     0.010 A 
ATOM     77  C   UNL A   1      46.270  34.483  31.224  1.00  0.00     0.010 A 
ATOM     78  C   UNL A   1      46.547  36.446  29.248  1.00  0.00     0.020 A 
ATOM     79  C   UNL A   1      46.926  35.680  31.523  1.00  0.00     0.020 A 
ATOM     80  C   UNL A   1      47.073  36.648  30.528  1.00  0.00     0.054 A 
BRANCH  80  81
ATOM     81  S   UNL A   1      47.905  38.218  30.896  1.00  0.00     0.124 S 
ATOM     82  O   UNL A   1      47.163  38.686  32.064  1.00  0.00    -0.237 OA
ATOM     83  O   UNL A   1      49.282  37.804  31.151  1.00  0.00    -0.237 OA
ATOM     84  O   UNL A   1      47.713  39.004  29.680  1.00  0.00    -0.744 OA
ENDBRANCH  80  81
ENDBRANCH  54  75
ENDBRANCH  28  29
ENDBRANCH  21  23
ENDBRANCH  20  21
ENDBRANCH  19  20
ENDBRANCH  18  19
ENDBRANCH   1  18
TORSDOF 20
ENDMDL
MODEL 2
REMARK VINA RESULT:      -8.5      5.504      9.831
REMARK SMILES CCOC(=O)c1noc(C)c1C(=O)OCCOCCOC(=O)c1ccc(-c2c3nc(c(-c4ccc(S(=O)(=O)[O-])cc4)c4ccc([nH]4)c(-c4ccc(S(=O)(=O)[O-])cc4)c4nc(c(-c5ccc(S(=O)(=O)[O-])cc5)c5ccc2[nH]5)C=C4)C=C3)cc1
REMARK SMILES IDX 17 1 16 2 15 3 14 4 12 5 13 6 11 7 6 8 7 9 8 10 9 11 10 12
REMARK SMILES IDX 4 13 5 14 3 15 2 16 1 17 18 18 19 19 20 20 21 21 22 22 23 23
REMARK SMILES IDX 24 24 82 25 25 26 81 27 26 28 27 29 28 30 75 31 29 32 80 33
REMARK SMILES IDX 74 34 76 35 30 36 79 37 73 38 72 39 31 41 61 42 42 43 60 44
REMARK SMILES IDX 43 45 46 46 59 47 77 48 44 49 45 50 58 52 78 53 47 54 32 55
REMARK SMILES IDX 33 56 41 57 34 58 40 59 35 60 36 61 37 62 38 63 39 64 62 65
REMARK SMILES IDX 63 66 71 67 64 68 70 69 65 70 66 71 67 72 68 73 69 74 48 75
REMARK SMILES IDX 49 76 57 77 50 78 56 79 51 80 52 81 53 82 54 83 55 84
REMARK H PARENT 76 40 46 51
REMARK Flexibility Score: inf
ROOT
ATOM      1  O   UNL A   1      36.708  23.267  25.827  1.00  0.00    -0.374 OA
ENDROOT
BRANCH   1   2
ATOM      2  C   UNL A   1      36.034  23.688  24.636  1.00  0.00     0.202 C 
BRANCH   2   3
ATOM      3  C   UNL A   1      34.729  24.443  24.903  1.00  0.00     0.261 C 
BRANCH   3   4
ATOM      4  O   UNL A   1      33.657  23.814  24.176  1.00  0.00    -0.459 OA
BRANCH   4   5
ATOM      5  C   UNL A   1      32.616  24.619  23.843  1.00  0.00     0.344 C 
ATOM      6  O   UNL A   1      32.238  24.837  22.699  1.00  0.00    -0.246 OA
BRANCH   5   7
ATOM      7  C   UNL A   1      31.902  25.122  24.993  1.00  0.00     0.137 A 
ATOM      8  C   UNL A   1      31.852  26.487  25.395  1.00  0.00     0.206 A 
ATOM      9  N   UNL A   1      31.134  26.638  26.518  1.00  0.00    -0.072 NA
ATOM     10  O   UNL A   1      30.652  25.379  26.823  1.00  0.00    -0.360 OA
ATOM     11  C   UNL A   1      31.087  24.477  25.898  1.00  0.00     0.149 A 
ATOM     12  C   UNL A   1      30.603  23.096  26.096  1.00  0.00     0.092 C 
BRANCH   8  13
ATOM     13  C   UNL A   1      32.387  27.628  24.663  1.00  0.00     0.361 C 
ATOM     14  O   UNL A   1      33.395  28.247  24.980  1.00  0.00    -0.244 OA
BRANCH  13  15
ATOM     15  O   UNL A   1      31.589  27.924  23.592  1.00  0.00    -0.461 OA
BRANCH  15  16
ATOM     16  C   UNL A   1      30.345  28.576  23.875  1.00  0.00     0.230 C 
ATOM     17  C   UNL A   1      29.590  28.906  22.600  1.00  0.00     0.049 C 
ENDBRANCH  15  16
ENDBRANCH  13  15
ENDBRANCH   8  13
ENDBRANCH   5   7
ENDBRANCH   4   5
ENDBRANCH   3   4
ENDBRANCH   2   3
ENDBRANCH   1   2
BRANCH   1  18
ATOM     18  C   UNL A   1      37.889  22.484  25.638  1.00  0.00     0.202 C 
BRANCH  18  19
ATOM     19  C   UNL A   1      39.108  22.951  26.438  1.00  0.00     0.261 C 
BRANCH  19  20
ATOM     20  O   UNL A   1      39.193  24.385  26.442  1.00  0.00    -0.460 OA
BRANCH  20  21
ATOM     21  C   UNL A   1      40.452  24.882  26.515  1.00  0.00     0.338 C 
ATOM     22  O   UNL A   1      41.345  24.744  25.696  1.00  0.00    -0.246 OA
BRANCH  21  23
ATOM     23  C   UNL A   1      40.550  25.801  27.666  1.00  0.00     0.060 A 
ATOM     24  C   UNL A   1      39.516  25.759  28.611  1.00  0.00     0.016 A 
ATOM     25  C   UNL A   1      41.612  26.698  27.817  1.00  0.00     0.016 A 
ATOM     26  C   UNL A   1      39.524  26.636  29.692  1.00  0.00     0.010 A 
ATOM     27  C   UNL A   1      41.611  27.585  28.897  1.00  0.00     0.010 A 
ATOM     28  C   UNL A   1      40.555  27.575  29.825  1.00  0.00    -0.014 A 
BRANCH  28  29
ATOM     29  C   UNL A   1      40.462  28.623  30.866  1.00  0.00     0.031 A 
ATOM     30  C   UNL A   1      41.364  28.544  32.066  1.00  0.00     0.074 A 
ATOM     31  C   UNL A   1      39.594  29.642  30.735  1.00  0.00     0.049 A 
ATOM     32  N   UNL A   1      41.434  29.342  33.100  1.00  0.00    -0.248 NA
ATOM     33  C   UNL A   1      42.313  27.419  32.103  1.00  0.00     0.031 C 
ATOM     34  C   UNL A   1      38.693  29.847  29.600  1.00  0.00     0.029 A 
ATOM     35  N   UNL A   1      39.327  30.696  31.571  1.00  0.00    -0.354 N 
ATOM     36  C   UNL A   1      42.430  28.815  33.914  1.00  0.00     0.074 A 
ATOM     37  C   UNL A   1      42.922  27.620  33.263  1.00  0.00     0.031 C 
ATOM     38  C   UNL A   1      37.961  30.952  29.820  1.00  0.00     0.029 A 
ATOM     39  C   UNL A   1      38.323  31.517  31.119  1.00  0.00     0.049 A 
ATOM     40  H   UNL A   1      39.809  30.849  32.417  1.00  0.00     0.167 HD
ATOM     41  C   UNL A   1      42.895  29.287  35.093  1.00  0.00     0.031 A 
ATOM     42  C   UNL A   1      37.747  32.590  31.697  1.00  0.00     0.031 A 
ATOM     43  C   UNL A   1      42.394  30.464  35.750  1.00  0.00     0.049 A 
ATOM     44  C   UNL A   1      38.233  33.055  33.044  1.00  0.00     0.074 A 
ATOM     45  C   UNL A   1      42.812  31.031  36.940  1.00  0.00     0.029 A 
ATOM     46  N   UNL A   1      41.353  31.249  35.276  1.00  0.00    -0.354 N 
ATOM     47  N   UNL A   1      39.197  32.563  33.785  1.00  0.00    -0.248 NA
ATOM     48  C   UNL A   1      37.554  34.219  33.629  1.00  0.00     0.031 C 
ATOM     49  C   UNL A   1      41.993  32.133  37.211  1.00  0.00     0.029 A 
ATOM     50  C   UNL A   1      41.096  32.279  36.163  1.00  0.00     0.049 A 
ATOM     51  H   UNL A   1      40.869  31.096  34.432  1.00  0.00     0.167 HD
ATOM     52  C   UNL A   1      39.252  33.371  34.917  1.00  0.00     0.074 A 
ATOM     53  C   UNL A   1      38.234  34.389  34.755  1.00  0.00     0.031 C 
ATOM     54  C   UNL A   1      40.073  33.279  35.992  1.00  0.00     0.031 A 
BRANCH  41  55
ATOM     55  C   UNL A   1      43.986  28.502  35.767  1.00  0.00    -0.014 A 
ATOM     56  C   UNL A   1      43.687  27.507  36.713  1.00  0.00     0.010 A 
ATOM     57  C   UNL A   1      45.330  28.747  35.429  1.00  0.00     0.010 A 
ATOM     58  C   UNL A   1      44.713  26.794  37.337  1.00  0.00     0.020 A 
ATOM     59  C   UNL A   1      46.359  28.021  36.036  1.00  0.00     0.020 A 
ATOM     60  C   UNL A   1      46.044  27.060  36.999  1.00  0.00     0.054 A 
BRANCH  60  61
ATOM     61  S   UNL A   1      47.359  26.112  37.813  1.00  0.00     0.124 S 
ATOM     62  O   UNL A   1      46.608  25.009  38.407  1.00  0.00    -0.237 OA
ATOM     63  O   UNL A   1      48.232  25.749  36.699  1.00  0.00    -0.237 OA
ATOM     64  O   UNL A   1      47.931  27.061  38.765  1.00  0.00    -0.744 OA
ENDBRANCH  60  61
ENDBRANCH  41  55
BRANCH  42  65
ATOM     65  C   UNL A   1      36.621  33.282  31.015  1.00  0.00    -0.014 A 
ATOM     66  C   UNL A   1      35.345  33.328  31.601  1.00  0.00     0.010 A 
ATOM     67  C   UNL A   1      36.828  33.906  29.771  1.00  0.00     0.010 A 
ATOM     68  C   UNL A   1      34.291  33.976  30.950  1.00  0.00     0.020 A 
ATOM     69  C   UNL A   1      35.784  34.574  29.127  1.00  0.00     0.020 A 
ATOM     70  C   UNL A   1      34.518  34.596  29.717  1.00  0.00     0.054 A 
BRANCH  70  71
ATOM     71  S   UNL A   1      33.155  35.486  28.915  1.00  0.00     0.124 S 
ATOM     72  O   UNL A   1      33.869  36.411  28.041  1.00  0.00    -0.237 OA
ATOM     73  O   UNL A   1      32.428  34.411  28.243  1.00  0.00    -0.237 OA
ATOM     74  O   UNL A   1      32.446  36.099  30.036  1.00  0.00    -0.744 OA
ENDBRANCH  70  71
ENDBRANCH  42  65
BRANCH  54  75
ATOM     75  C   UNL A   1      39.919  34.315  37.070  1.00  0.00    -0.014 A 
ATOM     76  C   UNL A   1      40.374  35.632  36.880  1.00  0.00     0.010 A 
ATOM     77  C   UNL A   1      39.260  33.981  38.268  1.00  0.00     0.010 A 
ATOM     78  C   UNL A   1      40.194  36.591  37.879  1.00  0.00     0.020 A 
ATOM     79  C   UNL A   1      39.059  34.944  39.260  1.00  0.00     0.020 A 
ATOM     80  C   UNL A   1      39.540  36.240  39.065  1.00  0.00     0.054 A 
BRANCH  80  81
ATOM     81  S   UNL A   1      39.276  37.513  40.331  1.00  0.00     0.124 S 
ATOM     82  O   UNL A   1      40.646  37.881  40.679  1.00  0.00    -0.237 OA
ATOM     83  O   UNL A   1      38.516  38.533  39.612  1.00  0.00    -0.237 OA
ATOM     84  O   UNL A   1      38.534  36.812  41.376  1.00  0.00    -0.744 OA
ENDBRANCH  80  81
ENDBRANCH  54  75
ENDBRANCH  28  29
ENDBRANCH  21  23
ENDBRANCH  20  21
ENDBRANCH  19  20
ENDBRANCH  18  19
ENDBRANCH   1  18
TORSDOF 20
ENDMDL
MODEL 3
REMARK VINA RESULT:      -8.4      5.422     10.018
REMARK SMILES CCOC(=O)c1noc(C)c1C(=O)OCCOCCOC(=O)c1ccc(-c2c3nc(c(-c4ccc(S(=O)(=O)[O-])cc4)c4ccc([nH]4)c(-c4ccc(S(=O)(=O)[O-])cc4)c4nc(c(-c5ccc(S(=O)(=O)[O-])cc5)c5ccc2[nH]5)C=C4)C=C3)cc1
REMARK SMILES IDX 17 1 16 2 15 3 14 4 12 5 13 6 11 7 6 8 7 9 8 10 9 11 10 12
REMARK SMILES IDX 4 13 5 14 3 15 2 16 1 17 18 18 19 19 20 20 21 21 22 22 23 23
REMARK SMILES IDX 24 24 82 25 25 26 81 27 26 28 27 29 28 30 75 31 29 32 80 33
REMARK SMILES IDX 74 34 76 35 30 36 79 37 73 38 72 39 31 41 61 42 42 43 60 44
REMARK SMILES IDX 43 45 46 46 59 47 77 48 44 49 45 50 58 52 78 53 47 54 32 55
REMARK SMILES IDX 33 56 41 57 34 58 40 59 35 60 36 61 37 62 38 63 39 64 62 65
REMARK SMILES IDX 63 66 71 67 64 68 70 69 65 70 66 71 67 72 68 73 69 74 48 75
REMARK SMILES IDX 49 76 57 77 50 78 56 79 51 80 52 81 53 82 54 83 55 84
REMARK H PARENT 76 40 46 51
REMARK Flexibility Score: inf
ROOT
ATOM      1  O   UNL A   1      38.146  23.021  26.313  1.00  0.00    -0.374 OA
ENDROOT
BRANCH   1   2
ATOM      2  C   UNL A   1      37.248  23.247  25.220  1.00  0.00     0.202 C 
BRANCH   2   3
ATOM      3  C   UNL A   1      36.279  22.087  24.972  1.00  0.00     0.261 C 
BRANCH   3   4
ATOM      4  O   UNL A   1      35.656  21.713  26.215  1.00  0.00    -0.459 OA
BRANCH   4   5
ATOM      5  C   UNL A   1      34.333  22.004  26.324  1.00  0.00     0.344 C 
ATOM      6  O   UNL A   1      33.811  22.526  27.300  1.00  0.00    -0.246 OA
BRANCH   5   7
ATOM      7  C   UNL A   1      33.597  21.741  25.111  1.00  0.00     0.137 A 
ATOM      8  C   UNL A   1      32.985  22.732  24.291  1.00  0.00     0.206 A 
ATOM      9  N   UNL A   1      32.349  22.176  23.248  1.00  0.00    -0.072 NA
ATOM     10  O   UNL A   1      32.597  20.820  23.341  1.00  0.00    -0.360 OA
ATOM     11  C   UNL A   1      33.364  20.561  24.438  1.00  0.00     0.149 A 
ATOM     12  C   UNL A   1      33.729  19.142  24.624  1.00  0.00     0.092 C 
BRANCH   8  13
ATOM     13  C   UNL A   1      33.099  24.176  24.444  1.00  0.00     0.361 C 
ATOM     14  O   UNL A   1      34.125  24.817  24.254  1.00  0.00    -0.244 OA
BRANCH  13  15
ATOM     15  O   UNL A   1      31.907  24.708  24.854  1.00  0.00    -0.461 OA
BRANCH  15  16
ATOM     16  C   UNL A   1      31.740  26.121  24.688  1.00  0.00     0.230 C 
ATOM     17  C   UNL A   1      31.185  26.765  25.946  1.00  0.00     0.049 C 
ENDBRANCH  15  16
ENDBRANCH  13  15
ENDBRANCH   8  13
ENDBRANCH   5   7
ENDBRANCH   4   5
ENDBRANCH   3   4
ENDBRANCH   2   3
ENDBRANCH   1   2
BRANCH   1  18
ATOM     18  C   UNL A   1      39.148  22.023  26.107  1.00  0.00     0.202 C 
BRANCH  18  19
ATOM     19  C   UNL A   1      40.575  22.459  26.455  1.00  0.00     0.261 C 
BRANCH  19  20
ATOM     20  O   UNL A   1      40.710  23.885  26.344  1.00  0.00    -0.460 OA
BRANCH  20  21
ATOM     21  C   UNL A   1      41.840  24.395  26.893  1.00  0.00     0.338 C 
ATOM     22  O   UNL A   1      42.990  24.129  26.587  1.00  0.00    -0.246 OA
BRANCH  21  23
ATOM     23  C   UNL A   1      41.484  25.492  27.814  1.00  0.00     0.060 A 
ATOM     24  C   UNL A   1      42.436  26.502  28.007  1.00  0.00     0.016 A 
ATOM     25  C   UNL A   1      40.261  25.534  28.489  1.00  0.00     0.016 A 
ATOM     26  C   UNL A   1      42.182  27.538  28.903  1.00  0.00     0.010 A 
ATOM     27  C   UNL A   1      40.013  26.568  29.395  1.00  0.00     0.010 A 
ATOM     28  C   UNL A   1      40.982  27.560  29.624  1.00  0.00    -0.014 A 
BRANCH  28  29
ATOM     29  C   UNL A   1      40.796  28.554  30.706  1.00  0.00     0.031 A 
ATOM     30  C   UNL A   1      41.661  28.471  31.932  1.00  0.00     0.074 A 
ATOM     31  C   UNL A   1      39.876  29.529  30.588  1.00  0.00     0.049 A 
ATOM     32  N   UNL A   1      41.652  29.223  33.001  1.00  0.00    -0.248 NA
ATOM     33  C   UNL A   1      42.670  27.399  31.954  1.00  0.00     0.031 C 
ATOM     34  C   UNL A   1      39.003  29.735  29.432  1.00  0.00     0.029 A 
ATOM     35  N   UNL A   1      39.523  30.527  31.459  1.00  0.00    -0.354 N 
ATOM     36  C   UNL A   1      42.649  28.716  33.826  1.00  0.00     0.074 A 
ATOM     37  C   UNL A   1      43.228  27.580  33.142  1.00  0.00     0.031 C 
ATOM     38  C   UNL A   1      38.203  30.787  29.674  1.00  0.00     0.029 A 
ATOM     39  C   UNL A   1      38.490  31.312  31.008  1.00  0.00     0.049 A 
ATOM     40  H   UNL A   1      39.968  30.669  32.327  1.00  0.00     0.167 HD
ATOM     41  C   UNL A   1      43.048  29.160  35.041  1.00  0.00     0.031 A 
ATOM     42  C   UNL A   1      37.835  32.324  31.611  1.00  0.00     0.031 A 
ATOM     43  C   UNL A   1      42.459  30.276  35.730  1.00  0.00     0.049 A 
ATOM     44  C   UNL A   1      38.250  32.754  32.993  1.00  0.00     0.074 A 
ATOM     45  C   UNL A   1      42.806  30.811  36.958  1.00  0.00     0.029 A 
ATOM     46  N   UNL A   1      41.393  31.023  35.254  1.00  0.00    -0.354 N 
ATOM     47  N   UNL A   1      39.215  32.283  33.746  1.00  0.00    -0.248 NA
ATOM     48  C   UNL A   1      37.487  33.851  33.603  1.00  0.00     0.031 C 
ATOM     49  C   UNL A   1      41.917  31.852  37.247  1.00  0.00     0.029 A 
ATOM     50  C   UNL A   1      41.048  31.996  36.175  1.00  0.00     0.049 A 
ATOM     51  H   UNL A   1      40.946  30.882  34.387  1.00  0.00     0.167 HD
ATOM     52  C   UNL A   1      39.187  33.040  34.913  1.00  0.00     0.074 A 
ATOM     53  C   UNL A   1      38.119  34.007  34.759  1.00  0.00     0.031 C 
ATOM     54  C   UNL A   1      39.977  32.945  36.011  1.00  0.00     0.031 A 
BRANCH  41  55
ATOM     55  C   UNL A   1      44.159  28.406  35.718  1.00  0.00    -0.014 A 
ATOM     56  C   UNL A   1      45.504  28.767  35.526  1.00  0.00     0.010 A 
ATOM     57  C   UNL A   1      43.851  27.337  36.580  1.00  0.00     0.010 A 
ATOM     58  C   UNL A   1      46.524  28.050  36.155  1.00  0.00     0.020 A 
ATOM     59  C   UNL A   1      44.868  26.630  37.227  1.00  0.00     0.020 A 
ATOM     60  C   UNL A   1      46.200  26.981  36.997  1.00  0.00     0.054 A 
BRANCH  60  61
ATOM     61  S   UNL A   1      47.542  26.074  37.813  1.00  0.00     0.124 S 
ATOM     62  O   UNL A   1      47.068  26.016  39.194  1.00  0.00    -0.237 OA
ATOM     63  O   UNL A   1      47.551  24.800  37.099  1.00  0.00    -0.237 OA
ATOM     64  O   UNL A   1      48.715  26.917  37.591  1.00  0.00    -0.744 OA
ENDBRANCH  60  61
ENDBRANCH  41  55
BRANCH  42  65
ATOM     65  C   UNL A   1      36.696  32.983  30.920  1.00  0.00    -0.014 A 
ATOM     66  C   UNL A   1      35.373  32.751  31.334  1.00  0.00     0.010 A 
ATOM     67  C   UNL A   1      36.934  33.856  29.843  1.00  0.00     0.010 A 
ATOM     68  C   UNL A   1      34.307  33.370  30.675  1.00  0.00     0.020 A 
ATOM     69  C   UNL A   1      35.874  34.494  29.196  1.00  0.00     0.020 A 
ATOM     70  C   UNL A   1      34.565  34.240  29.611  1.00  0.00     0.054 A 
BRANCH  70  71
ATOM     71  S   UNL A   1      33.174  35.084  28.806  1.00  0.00     0.124 S 
ATOM     72  O   UNL A   1      32.603  34.017  27.991  1.00  0.00    -0.237 OA
ATOM     73  O   UNL A   1      32.365  35.516  29.944  1.00  0.00    -0.237 OA
ATOM     74  O   UNL A   1      33.818  36.166  28.065  1.00  0.00    -0.744 OA
ENDBRANCH  70  71
ENDBRANCH  42  65
BRANCH  54  75
ATOM     75  C   UNL A   1      39.729  33.922  37.127  1.00  0.00    -0.014 A 
ATOM     76  C   UNL A   1      39.084  33.523  38.310  1.00  0.00     0.010 A 
ATOM     77  C   UNL A   1      40.199  35.243  37.012  1.00  0.00     0.010 A 
ATOM     78  C   UNL A   1      38.889  34.435  39.350  1.00  0.00     0.020 A 
ATOM     79  C   UNL A   1      40.026  36.152  38.059  1.00  0.00     0.020 A 
ATOM     80  C   UNL A   1      39.360  35.745  39.217  1.00  0.00     0.054 A 
BRANCH  80  81
ATOM     81  S   UNL A   1      39.138  36.901  40.598  1.00  0.00     0.124 S 
ATOM     82  O   UNL A   1      40.490  36.977  41.147  1.00  0.00    -0.237 OA
ATOM     83  O   UNL A   1      38.661  38.112  39.935  1.00  0.00    -0.237 OA
ATOM     84  O   UNL A   1      38.156  36.236  41.450  1.00  0.00    -0.744 OA
ENDBRANCH  80  81
ENDBRANCH  54  75
ENDBRANCH  28  29
ENDBRANCH  21  23
ENDBRANCH  20  21
ENDBRANCH  19  20
ENDBRANCH  18  19
ENDBRANCH   1  18
TORSDOF 20
ENDMDL
