MODEL 1
REMARK VINA RESULT:     -10.0      0.000      0.000
REMARK SMILES O=C(OCCOCCOC(=O)c1ccc(S(=O)(=O)Cc2cccs2)c(F)c1)c1ccc(-c2c3nc(c(-c4ccc(S(=O)(=O)[O-])cc4)c4ccc([nH]4)c(-c4ccc(S(=O)(=O)[O-])cc4)c4nc(c(-c5ccc(S(=O)(=O)[O-])cc5)c5ccc2[nH]5)C=C4)C=C3)cc1
REMARK SMILES IDX 6 1 5 2 4 3 3 4 2 5 1 6 28 7 29 8 87 9 30 10 86 11 31 12
REMARK SMILES IDX 32 13 33 14 80 15 34 16 85 17 79 18 81 19 35 20 84 21 78 22
REMARK SMILES IDX 77 23 36 25 66 26 47 27 65 28 48 29 51 30 64 31 82 32 49 33
REMARK SMILES IDX 50 34 63 36 83 37 52 38 37 39 38 40 46 41 39 42 45 43 40 44
REMARK SMILES IDX 41 45 42 46 43 47 44 48 67 49 68 50 76 51 69 52 75 53 70 54
REMARK SMILES IDX 71 55 72 56 73 57 74 58 53 59 54 60 62 61 55 62 61 63 56 64
REMARK SMILES IDX 57 65 58 66 59 67 60 68 7 69 8 70 9 71 10 72 11 73 12 74
REMARK SMILES IDX 13 75 27 76 14 77 25 78 15 79 26 80 16 81 17 82 18 83 19 84
REMARK SMILES IDX 20 85 21 86 24 87 22 88 23 89
REMARK H PARENT 81 24 51 35
REMARK Flexibility Score: inf
ROOT
ATOM      1  O   UNL A   1      32.561  28.956  23.705  1.00  0.00    -0.374 OA
ENDROOT
BRANCH   1   2
ATOM      2  C   UNL A   1      33.162  28.686  24.972  1.00  0.00     0.202 C 
BRANCH   2   3
ATOM      3  C   UNL A   1      32.928  29.751  26.044  1.00  0.00     0.261 C 
BRANCH   3   4
ATOM      4  O   UNL A   1      33.638  29.407  27.244  1.00  0.00    -0.460 OA
BRANCH   4   5
ATOM      5  C   UNL A   1      34.494  30.179  27.953  1.00  0.00     0.338 C 
ATOM      6  O   UNL A   1      34.068  31.211  28.468  1.00  0.00    -0.246 OA
BRANCH   5   7
ATOM      7  C   UNL A   1      35.935  29.840  28.139  1.00  0.00     0.060 A 
ATOM      8  C   UNL A   1      36.915  29.983  27.155  1.00  0.00     0.016 A 
ATOM      9  C   UNL A   1      36.341  29.452  29.426  1.00  0.00     0.016 A 
ATOM     10  C   UNL A   1      38.245  29.682  27.407  1.00  0.00     0.010 A 
ATOM     11  C   UNL A   1      37.687  29.201  29.705  1.00  0.00     0.010 A 
ATOM     12  C   UNL A   1      38.641  29.303  28.687  1.00  0.00    -0.014 A 
BRANCH  12  13
ATOM     13  C   UNL A   1      40.062  28.982  28.914  1.00  0.00     0.031 A 
ATOM     14  C   UNL A   1      40.938  30.014  29.551  1.00  0.00     0.074 A 
ATOM     15  C   UNL A   1      40.507  27.744  28.637  1.00  0.00     0.049 A 
ATOM     16  N   UNL A   1      42.216  29.963  29.804  1.00  0.00    -0.248 NA
ATOM     17  C   UNL A   1      40.286  31.266  29.972  1.00  0.00     0.031 C 
ATOM     18  C   UNL A   1      39.684  26.647  28.116  1.00  0.00     0.029 A 
ATOM     19  N   UNL A   1      41.749  27.187  28.779  1.00  0.00    -0.354 N 
ATOM     20  C   UNL A   1      42.530  31.184  30.386  1.00  0.00     0.074 A 
ATOM     21  C   UNL A   1      41.310  31.956  30.451  1.00  0.00     0.031 C 
ATOM     22  C   UNL A   1      40.440  25.543  28.008  1.00  0.00     0.029 A 
ATOM     23  C   UNL A   1      41.810  25.872  28.379  1.00  0.00     0.049 A 
ATOM     24  H   UNL A   1      42.524  27.679  29.132  1.00  0.00     0.167 HD
ATOM     25  C   UNL A   1      43.738  31.620  30.811  1.00  0.00     0.031 A 
ATOM     26  C   UNL A   1      42.868  25.043  28.291  1.00  0.00     0.031 A 
ATOM     27  C   UNL A   1      44.936  30.833  30.711  1.00  0.00     0.049 A 
ATOM     28  C   UNL A   1      44.216  25.584  28.683  1.00  0.00     0.074 A 
ATOM     29  C   UNL A   1      46.231  31.181  31.044  1.00  0.00     0.029 A 
ATOM     30  N   UNL A   1      44.978  29.528  30.234  1.00  0.00    -0.354 N 
ATOM     31  N   UNL A   1      44.515  26.764  29.178  1.00  0.00    -0.248 NA
ATOM     32  C   UNL A   1      45.370  24.698  28.489  1.00  0.00     0.031 C 
ATOM     33  C   UNL A   1      47.063  30.101  30.723  1.00  0.00     0.029 A 
ATOM     34  C   UNL A   1      46.278  29.063  30.242  1.00  0.00     0.049 A 
ATOM     35  H   UNL A   1      44.195  29.012  29.933  1.00  0.00     0.167 HD
ATOM     36  C   UNL A   1      45.891  26.761  29.360  1.00  0.00     0.074 A 
ATOM     37  C   UNL A   1      46.361  25.452  28.947  1.00  0.00     0.031 C 
ATOM     38  C   UNL A   1      46.699  27.749  29.820  1.00  0.00     0.031 A 
BRANCH  25  39
ATOM     39  C   UNL A   1      43.814  33.029  31.333  1.00  0.00    -0.014 A 
ATOM     40  C   UNL A   1      43.958  34.127  30.467  1.00  0.00     0.010 A 
ATOM     41  C   UNL A   1      43.771  33.252  32.721  1.00  0.00     0.010 A 
ATOM     42  C   UNL A   1      44.106  35.419  30.982  1.00  0.00     0.020 A 
ATOM     43  C   UNL A   1      43.895  34.544  33.239  1.00  0.00     0.020 A 
ATOM     44  C   UNL A   1      44.084  35.617  32.366  1.00  0.00     0.054 A 
BRANCH  44  45
ATOM     45  S   UNL A   1      44.296  37.300  33.012  1.00  0.00     0.124 S 
ATOM     46  O   UNL A   1      43.107  37.452  33.847  1.00  0.00    -0.237 OA
ATOM     47  O   UNL A   1      45.562  37.209  33.736  1.00  0.00    -0.237 OA
ATOM     48  O   UNL A   1      44.325  38.131  31.812  1.00  0.00    -0.744 OA
ENDBRANCH  44  45
ENDBRANCH  25  39
BRANCH  26  49
ATOM     49  C   UNL A   1      42.702  23.664  27.752  1.00  0.00    -0.014 A 
ATOM     50  C   UNL A   1      42.236  22.616  28.565  1.00  0.00     0.010 A 
ATOM     51  C   UNL A   1      43.005  23.392  26.404  1.00  0.00     0.010 A 
ATOM     52  C   UNL A   1      42.091  21.325  28.045  1.00  0.00     0.020 A 
ATOM     53  C   UNL A   1      42.834  22.110  25.873  1.00  0.00     0.020 A 
ATOM     54  C   UNL A   1      42.391  21.080  26.702  1.00  0.00     0.054 A 
BRANCH  54  55
ATOM     55  S   UNL A   1      42.159  19.408  26.036  1.00  0.00     0.124 S 
ATOM     56  O   UNL A   1      40.725  19.383  25.768  1.00  0.00    -0.237 OA
ATOM     57  O   UNL A   1      43.024  19.411  24.858  1.00  0.00    -0.237 OA
ATOM     58  O   UNL A   1      42.608  18.541  27.125  1.00  0.00    -0.744 OA
ENDBRANCH  54  55
ENDBRANCH  26  49
BRANCH  38  59
ATOM     59  C   UNL A   1      48.164  27.439  29.917  1.00  0.00    -0.014 A 
ATOM     60  C   UNL A   1      49.053  27.829  28.900  1.00  0.00     0.010 A 
ATOM     61  C   UNL A   1      48.665  26.821  31.077  1.00  0.00     0.010 A 
ATOM     62  C   UNL A   1      50.421  27.590  29.037  1.00  0.00     0.020 A 
ATOM     63  C   UNL A   1      50.035  26.604  31.227  1.00  0.00     0.020 A 
ATOM     64  C   UNL A   1      50.904  26.982  30.201  1.00  0.00     0.054 A 
BRANCH  64  65
ATOM     65  S   UNL A   1      52.691  26.748  30.386  1.00  0.00     0.124 S 
ATOM     66  O   UNL A   1      53.149  28.109  30.651  1.00  0.00    -0.237 OA
ATOM     67  O   UNL A   1      52.780  25.824  31.514  1.00  0.00    -0.237 OA
ATOM     68  O   UNL A   1      53.102  26.191  29.098  1.00  0.00    -0.744 OA
ENDBRANCH  64  65
ENDBRANCH  38  59
ENDBRANCH  12  13
ENDBRANCH   5   7
ENDBRANCH   4   5
ENDBRANCH   3   4
ENDBRANCH   2   3
ENDBRANCH   1   2
BRANCH   1  69
ATOM     69  C   UNL A   1      31.199  29.408  23.744  1.00  0.00     0.202 C 
BRANCH  69  70
ATOM     70  C   UNL A   1      30.558  29.224  22.363  1.00  0.00     0.261 C 
BRANCH  70  71
ATOM     71  O   UNL A   1      30.208  27.837  22.215  1.00  0.00    -0.460 OA
BRANCH  71  72
ATOM     72  C   UNL A   1      29.405  27.362  23.200  1.00  0.00     0.338 C 
ATOM     73  O   UNL A   1      28.258  27.681  23.457  1.00  0.00    -0.246 OA
BRANCH  72  74
ATOM     74  C   UNL A   1      30.061  26.169  23.762  1.00  0.00     0.063 A 
ATOM     75  C   UNL A   1      30.059  25.903  25.132  1.00  0.00     0.017 A 
ATOM     76  C   UNL A   1      30.775  25.352  22.880  1.00  0.00     0.056 A 
ATOM     77  C   UNL A   1      30.730  24.774  25.605  1.00  0.00     0.024 A 
ATOM     78  C   UNL A   1      31.517  24.289  23.375  1.00  0.00     0.142 A 
ATOM     79  C   UNL A   1      31.447  23.956  24.716  1.00  0.00     0.103 A 
ATOM     80  F   UNL A   1      32.335  23.649  22.533  1.00  0.00    -0.206 F 
BRANCH  79  81
ATOM     81  S   UNL A   1      32.194  22.500  25.372  1.00  0.00     0.186 S 
ATOM     82  O   UNL A   1      33.066  22.979  26.434  1.00  0.00    -0.223 OA
ATOM     83  O   UNL A   1      31.096  21.611  25.717  1.00  0.00    -0.223 OA
BRANCH  81  84
ATOM     84  C   UNL A   1      33.226  21.662  24.200  1.00  0.00     0.188 C 
BRANCH  84  85
ATOM     85  C   UNL A   1      34.703  21.924  24.232  1.00  0.00     0.020 A 
ATOM     86  C   UNL A   1      35.343  22.944  23.544  1.00  0.00     0.016 A 
ATOM     87  S   UNL A   1      35.822  21.028  25.166  1.00  0.00    -0.148 S 
ATOM     88  C   UNL A   1      36.757  22.909  23.693  1.00  0.00     0.012 A 
ATOM     89  C   UNL A   1      37.155  21.887  24.523  1.00  0.00     0.065 A 
ENDBRANCH  84  85
ENDBRANCH  81  84
ENDBRANCH  79  81
ENDBRANCH  72  74
ENDBRANCH  71  72
ENDBRANCH  70  71
ENDBRANCH  69  70
ENDBRANCH   1  69
TORSDOF 20
ENDMDL
MODEL 2
REMARK VINA RESULT:      -9.9      4.827     10.083
REMARK SMILES O=C(OCCOCCOC(=O)c1ccc(S(=O)(=O)Cc2cccs2)c(F)c1)c1ccc(-c2c3nc(c(-c4ccc(S(=O)(=O)[O-])cc4)c4ccc([nH]4)c(-c4ccc(S(=O)(=O)[O-])cc4)c4nc(c(-c5ccc(S(=O)(=O)[O-])cc5)c5ccc2[nH]5)C=C4)C=C3)cc1
REMARK SMILES IDX 6 1 5 2 4 3 3 4 2 5 1 6 28 7 29 8 87 9 30 10 86 11 31 12
REMARK SMILES IDX 32 13 33 14 80 15 34 16 85 17 79 18 81 19 35 20 84 21 78 22
REMARK SMILES IDX 77 23 36 25 66 26 47 27 65 28 48 29 51 30 64 31 82 32 49 33
REMARK SMILES IDX 50 34 63 36 83 37 52 38 37 39 38 40 46 41 39 42 45 43 40 44
REMARK SMILES IDX 41 45 42 46 43 47 44 48 67 49 68 50 76 51 69 52 75 53 70 54
REMARK SMILES IDX 71 55 72 56 73 57 74 58 53 59 54 60 62 61 55 62 61 63 56 64
REMARK SMILES IDX 57 65 58 66 59 67 60 68 7 69 8 70 9 71 10 72 11 73 12 74
REMARK SMILES IDX 13 75 27 76 14 77 25 78 15 79 26 80 16 81 17 82 18 83 19 84
REMARK SMILES IDX 20 85 21 86 24 87 22 88 23 89
REMARK H PARENT 81 24 51 35
REMARK Flexibility Score: inf
ROOT
ATOM      1  O   UNL A   1      42.014  22.015  27.165  1.00  0.00    -0.374 OA
ENDROOT
BRANCH   1   2
ATOM      2  C   UNL A   1      42.475  21.872  25.822  1.00  0.00     0.202 C 
BRANCH   2   3
ATOM      3  C   UNL A   1      43.103  23.125  25.212  1.00  0.00     0.261 C 
BRANCH   3   4
ATOM      4  O   UNL A   1      43.167  24.173  26.192  1.00  0.00    -0.460 OA
BRANCH   4   5
ATOM      5  C   UNL A   1      42.558  25.381  26.157  1.00  0.00     0.338 C 
ATOM      6  O   UNL A   1      42.151  25.804  25.076  1.00  0.00    -0.246 OA
BRANCH   5   7
ATOM      7  C   UNL A   1      42.358  26.230  27.367  1.00  0.00     0.060 A 
ATOM      8  C   UNL A   1      43.008  27.444  27.599  1.00  0.00     0.016 A 
ATOM      9  C   UNL A   1      41.368  25.825  28.277  1.00  0.00     0.016 A 
ATOM     10  C   UNL A   1      42.748  28.201  28.732  1.00  0.00     0.010 A 
ATOM     11  C   UNL A   1      41.058  26.610  29.391  1.00  0.00     0.010 A 
ATOM     12  C   UNL A   1      41.762  27.796  29.626  1.00  0.00    -0.014 A 
BRANCH  12  13
ATOM     13  C   UNL A   1      41.520  28.622  30.823  1.00  0.00     0.031 A 
ATOM     14  C   UNL A   1      40.370  29.579  30.815  1.00  0.00     0.074 A 
ATOM     15  C   UNL A   1      42.272  28.424  31.920  1.00  0.00     0.049 A 
ATOM     16  N   UNL A   1      40.000  30.427  31.734  1.00  0.00    -0.248 NA
ATOM     17  C   UNL A   1      39.512  29.570  29.617  1.00  0.00     0.031 C 
ATOM     18  C   UNL A   1      43.344  27.430  32.042  1.00  0.00     0.029 A 
ATOM     19  N   UNL A   1      42.238  29.025  33.149  1.00  0.00    -0.354 N 
ATOM     20  C   UNL A   1      38.886  31.075  31.217  1.00  0.00     0.074 A 
ATOM     21  C   UNL A   1      38.637  30.522  29.904  1.00  0.00     0.031 C 
ATOM     22  C   UNL A   1      43.846  27.473  33.286  1.00  0.00     0.029 A 
ATOM     23  C   UNL A   1      43.185  28.543  34.023  1.00  0.00     0.049 A 
ATOM     24  H   UNL A   1      41.598  29.734  33.386  1.00  0.00     0.167 HD
ATOM     25  C   UNL A   1      38.151  32.056  31.789  1.00  0.00     0.031 A 
ATOM     26  C   UNL A   1      43.502  28.951  35.267  1.00  0.00     0.031 A 
ATOM     27  C   UNL A   1      38.440  32.598  33.088  1.00  0.00     0.049 A 
ATOM     28  C   UNL A   1      42.730  30.107  35.843  1.00  0.00     0.074 A 
ATOM     29  C   UNL A   1      37.816  33.635  33.753  1.00  0.00     0.029 A 
ATOM     30  N   UNL A   1      39.453  32.135  33.920  1.00  0.00    -0.354 N 
ATOM     31  N   UNL A   1      41.713  30.755  35.321  1.00  0.00    -0.248 NA
ATOM     32  C   UNL A   1      43.152  30.599  37.159  1.00  0.00     0.031 C 
ATOM     33  C   UNL A   1      38.482  33.831  34.968  1.00  0.00     0.029 A 
ATOM     34  C   UNL A   1      39.486  32.880  35.084  1.00  0.00     0.049 A 
ATOM     35  H   UNL A   1      40.059  31.388  33.711  1.00  0.00     0.167 HD
ATOM     36  C   UNL A   1      41.370  31.730  36.248  1.00  0.00     0.074 A 
ATOM     37  C   UNL A   1      42.271  31.568  37.373  1.00  0.00     0.031 C 
ATOM     38  C   UNL A   1      40.404  32.680  36.178  1.00  0.00     0.031 A 
BRANCH  25  39
ATOM     39  C   UNL A   1      37.036  32.644  30.969  1.00  0.00    -0.014 A 
ATOM     40  C   UNL A   1      37.272  33.663  30.030  1.00  0.00     0.010 A 
ATOM     41  C   UNL A   1      35.721  32.186  31.166  1.00  0.00     0.010 A 
ATOM     42  C   UNL A   1      36.206  34.247  29.337  1.00  0.00     0.020 A 
ATOM     43  C   UNL A   1      34.655  32.751  30.460  1.00  0.00     0.020 A 
ATOM     44  C   UNL A   1      34.902  33.794  29.566  1.00  0.00     0.054 A 
BRANCH  44  45
ATOM     45  S   UNL A   1      33.533  34.580  28.670  1.00  0.00     0.124 S 
ATOM     46  O   UNL A   1      33.125  33.516  27.756  1.00  0.00    -0.237 OA
ATOM     47  O   UNL A   1      32.585  34.887  29.738  1.00  0.00    -0.237 OA
ATOM     48  O   UNL A   1      34.154  35.740  28.038  1.00  0.00    -0.744 OA
ENDBRANCH  44  45
ENDBRANCH  25  39
BRANCH  26  49
ATOM     49  C   UNL A   1      44.631  28.317  36.003  1.00  0.00    -0.014 A 
ATOM     50  C   UNL A   1      45.951  28.771  35.842  1.00  0.00     0.010 A 
ATOM     51  C   UNL A   1      44.386  27.247  36.885  1.00  0.00     0.010 A 
ATOM     52  C   UNL A   1      47.003  28.161  36.536  1.00  0.00     0.020 A 
ATOM     53  C   UNL A   1      45.429  26.652  37.602  1.00  0.00     0.020 A 
ATOM     54  C   UNL A   1      46.734  27.105  37.412  1.00  0.00     0.054 A 
BRANCH  54  55
ATOM     55  S   UNL A   1      48.105  26.351  38.333  1.00  0.00     0.124 S 
ATOM     56  O   UNL A   1      49.139  27.376  38.232  1.00  0.00    -0.237 OA
ATOM     57  O   UNL A   1      47.529  26.161  39.662  1.00  0.00    -0.237 OA
ATOM     58  O   UNL A   1      48.373  25.117  37.596  1.00  0.00    -0.744 OA
ENDBRANCH  54  55
ENDBRANCH  26  49
BRANCH  38  59
ATOM     59  C   UNL A   1      40.266  33.597  37.359  1.00  0.00    -0.014 A 
ATOM     60  C   UNL A   1      39.423  33.265  38.434  1.00  0.00     0.010 A 
ATOM     61  C   UNL A   1      41.051  34.761  37.427  1.00  0.00     0.010 A 
ATOM     62  C   UNL A   1      39.355  34.096  39.553  1.00  0.00     0.020 A 
ATOM     63  C   UNL A   1      41.004  35.580  38.554  1.00  0.00     0.020 A 
ATOM     64  C   UNL A   1      40.149  35.247  39.608  1.00  0.00     0.054 A 
BRANCH  64  65
ATOM     65  S   UNL A   1      40.098  36.272  41.101  1.00  0.00     0.124 S 
ATOM     66  O   UNL A   1      38.784  36.899  40.993  1.00  0.00    -0.237 OA
ATOM     67  O   UNL A   1      40.239  35.289  42.172  1.00  0.00    -0.237 OA
ATOM     68  O   UNL A   1      41.235  37.176  40.940  1.00  0.00    -0.744 OA
ENDBRANCH  64  65
ENDBRANCH  38  59
ENDBRANCH  12  13
ENDBRANCH   5   7
ENDBRANCH   4   5
ENDBRANCH   3   4
ENDBRANCH   2   3
ENDBRANCH   1   2
BRANCH   1  69
ATOM     69  C   UNL A   1      40.605  21.823  27.365  1.00  0.00     0.202 C 
BRANCH  69  70
ATOM     70  C   UNL A   1      39.891  21.818  26.008  1.00  0.00     0.261 C 
BRANCH  70  71
ATOM     71  O   UNL A   1      38.506  22.135  26.232  1.00  0.00    -0.460 OA
BRANCH  71  72
ATOM     72  C   UNL A   1      38.201  23.443  26.044  1.00  0.00     0.338 C 
ATOM     73  O   UNL A   1      38.887  24.420  26.285  1.00  0.00    -0.246 OA
BRANCH  72  74
ATOM     74  C   UNL A   1      36.977  23.493  25.227  1.00  0.00     0.063 A 
ATOM     75  C   UNL A   1      36.899  22.878  23.976  1.00  0.00     0.017 A 
ATOM     76  C   UNL A   1      35.914  24.267  25.706  1.00  0.00     0.056 A 
ATOM     77  C   UNL A   1      35.722  22.993  23.235  1.00  0.00     0.024 A 
ATOM     78  C   UNL A   1      34.788  24.453  24.916  1.00  0.00     0.142 A 
ATOM     79  C   UNL A   1      34.657  23.771  23.719  1.00  0.00     0.103 A 
ATOM     80  F   UNL A   1      33.880  25.347  25.320  1.00  0.00    -0.206 F 
BRANCH  79  81
ATOM     81  S   UNL A   1      33.171  23.797  22.771  1.00  0.00     0.186 S 
ATOM     82  O   UNL A   1      32.683  25.164  22.888  1.00  0.00    -0.223 OA
ATOM     83  O   UNL A   1      33.530  23.292  21.455  1.00  0.00    -0.223 OA
BRANCH  81  84
ATOM     84  C   UNL A   1      31.908  22.744  23.433  1.00  0.00     0.188 C 
BRANCH  84  85
ATOM     85  C   UNL A   1      32.311  21.414  24.001  1.00  0.00     0.020 A 
ATOM     86  C   UNL A   1      32.277  20.213  23.309  1.00  0.00     0.016 A 
ATOM     87  S   UNL A   1      32.922  21.186  25.582  1.00  0.00    -0.148 S 
ATOM     88  C   UNL A   1      32.638  19.100  24.116  1.00  0.00     0.012 A 
ATOM     89  C   UNL A   1      32.975  19.486  25.392  1.00  0.00     0.065 A 
ENDBRANCH  84  85
ENDBRANCH  81  84
ENDBRANCH  79  81
ENDBRANCH  72  74
ENDBRANCH  71  72
ENDBRANCH  70  71
ENDBRANCH  69  70
ENDBRANCH   1  69
TORSDOF 20
ENDMDL
MODEL 3
REMARK VINA RESULT:      -9.9      4.811     10.318
REMARK SMILES O=C(OCCOCCOC(=O)c1ccc(S(=O)(=O)Cc2cccs2)c(F)c1)c1ccc(-c2c3nc(c(-c4ccc(S(=O)(=O)[O-])cc4)c4ccc([nH]4)c(-c4ccc(S(=O)(=O)[O-])cc4)c4nc(c(-c5ccc(S(=O)(=O)[O-])cc5)c5ccc2[nH]5)C=C4)C=C3)cc1
REMARK SMILES IDX 6 1 5 2 4 3 3 4 2 5 1 6 28 7 29 8 87 9 30 10 86 11 31 12
REMARK SMILES IDX 32 13 33 14 80 15 34 16 85 17 79 18 81 19 35 20 84 21 78 22
REMARK SMILES IDX 77 23 36 25 66 26 47 27 65 28 48 29 51 30 64 31 82 32 49 33
REMARK SMILES IDX 50 34 63 36 83 37 52 38 37 39 38 40 46 41 39 42 45 43 40 44
REMARK SMILES IDX 41 45 42 46 43 47 44 48 67 49 68 50 76 51 69 52 75 53 70 54
REMARK SMILES IDX 71 55 72 56 73 57 74 58 53 59 54 60 62 61 55 62 61 63 56 64
REMARK SMILES IDX 57 65 58 66 59 67 60 68 7 69 8 70 9 71 10 72 11 73 12 74
REMARK SMILES IDX 13 75 27 76 14 77 25 78 15 79 26 80 16 81 17 82 18 83 19 84
REMARK SMILES IDX 20 85 21 86 24 87 22 88 23 89
REMARK H PARENT 81 24 51 35
REMARK Flexibility Score: inf
ROOT
ATOM      1  O   UNL A   1      41.835  22.123  27.183  1.00  0.00    -0.374 OA
ENDROOT
BRANCH   1   2
ATOM      2  C   UNL A   1      42.335  21.962  25.855  1.00  0.00     0.202 C 
BRANCH   2   3
ATOM      3  C   UNL A   1      43.091  23.167  25.294  1.00  0.00     0.261 C 
BRANCH   3   4
ATOM      4  O   UNL A   1      43.076  24.245  26.243  1.00  0.00    -0.460 OA
BRANCH   4   5
ATOM      5  C   UNL A   1      42.384  25.406  26.169  1.00  0.00     0.338 C 
ATOM      6  O   UNL A   1      41.994  25.790  25.068  1.00  0.00    -0.246 OA
BRANCH   5   7
ATOM      7  C   UNL A   1      42.071  26.247  27.361  1.00  0.00     0.060 A 
ATOM      8  C   UNL A   1      41.098  25.939  28.313  1.00  0.00     0.016 A 
ATOM      9  C   UNL A   1      42.888  27.365  27.588  1.00  0.00     0.016 A 
ATOM     10  C   UNL A   1      40.882  26.748  29.418  1.00  0.00     0.010 A 
ATOM     11  C   UNL A   1      42.717  28.155  28.729  1.00  0.00     0.010 A 
ATOM     12  C   UNL A   1      41.700  27.852  29.641  1.00  0.00    -0.014 A 
BRANCH  12  13
ATOM     13  C   UNL A   1      41.435  28.693  30.821  1.00  0.00     0.031 A 
ATOM     14  C   UNL A   1      40.276  29.638  30.784  1.00  0.00     0.074 A 
ATOM     15  C   UNL A   1      42.175  28.519  31.931  1.00  0.00     0.049 A 
ATOM     16  N   UNL A   1      39.886  30.496  31.686  1.00  0.00    -0.248 NA
ATOM     17  C   UNL A   1      39.433  29.603  29.576  1.00  0.00     0.031 C 
ATOM     18  C   UNL A   1      43.254  27.537  32.081  1.00  0.00     0.029 A 
ATOM     19  N   UNL A   1      42.119  29.138  33.151  1.00  0.00    -0.354 N 
ATOM     20  C   UNL A   1      38.773  31.126  31.145  1.00  0.00     0.074 A 
ATOM     21  C   UNL A   1      38.546  30.551  29.838  1.00  0.00     0.031 C 
ATOM     22  C   UNL A   1      43.740  27.604  33.331  1.00  0.00     0.029 A 
ATOM     23  C   UNL A   1      43.060  28.678  34.043  1.00  0.00     0.049 A 
ATOM     24  H   UNL A   1      41.470  29.844  33.368  1.00  0.00     0.167 HD
ATOM     25  C   UNL A   1      38.021  32.108  31.693  1.00  0.00     0.031 A 
ATOM     26  C   UNL A   1      43.357  29.108  35.284  1.00  0.00     0.031 A 
ATOM     27  C   UNL A   1      38.289  32.672  32.987  1.00  0.00     0.049 A 
ATOM     28  C   UNL A   1      42.566  30.265  35.833  1.00  0.00     0.074 A 
ATOM     29  C   UNL A   1      37.646  33.713  33.629  1.00  0.00     0.029 A 
ATOM     30  N   UNL A   1      39.295  32.232  33.839  1.00  0.00    -0.354 N 
ATOM     31  N   UNL A   1      41.550  30.895  35.289  1.00  0.00    -0.248 NA
ATOM     32  C   UNL A   1      42.967  30.781  37.147  1.00  0.00     0.031 C 
ATOM     33  C   UNL A   1      38.294  33.934  34.849  1.00  0.00     0.029 A 
ATOM     34  C   UNL A   1      39.306  32.994  34.991  1.00  0.00     0.049 A 
ATOM     35  H   UNL A   1      39.911  31.488  33.649  1.00  0.00     0.167 HD
ATOM     36  C   UNL A   1      41.186  31.881  36.197  1.00  0.00     0.074 A 
ATOM     37  C   UNL A   1      42.074  31.744  37.335  1.00  0.00     0.031 C 
ATOM     38  C   UNL A   1      40.212  32.820  36.100  1.00  0.00     0.031 A 
BRANCH  25  39
ATOM     39  C   UNL A   1      36.911  32.673  30.850  1.00  0.00    -0.014 A 
ATOM     40  C   UNL A   1      37.147  33.688  29.906  1.00  0.00     0.010 A 
ATOM     41  C   UNL A   1      35.600  32.197  31.030  1.00  0.00     0.010 A 
ATOM     42  C   UNL A   1      36.084  34.250  29.192  1.00  0.00     0.020 A 
ATOM     43  C   UNL A   1      34.538  32.740  30.302  1.00  0.00     0.020 A 
ATOM     44  C   UNL A   1      34.784  33.779  29.403  1.00  0.00     0.054 A 
BRANCH  44  45
ATOM     45  S   UNL A   1      33.418  34.538  28.479  1.00  0.00     0.124 S 
ATOM     46  O   UNL A   1      34.099  35.624  27.777  1.00  0.00    -0.237 OA
ATOM     47  O   UNL A   1      32.953  33.440  27.635  1.00  0.00    -0.237 OA
ATOM     48  O   UNL A   1      32.486  34.958  29.521  1.00  0.00    -0.744 OA
ENDBRANCH  44  45
ENDBRANCH  25  39
BRANCH  26  49
ATOM     49  C   UNL A   1      44.482  28.496  36.044  1.00  0.00    -0.014 A 
ATOM     50  C   UNL A   1      45.798  28.971  35.904  1.00  0.00     0.010 A 
ATOM     51  C   UNL A   1      44.239  27.427  36.928  1.00  0.00     0.010 A 
ATOM     52  C   UNL A   1      46.846  28.381  36.621  1.00  0.00     0.020 A 
ATOM     53  C   UNL A   1      45.277  26.853  37.667  1.00  0.00     0.020 A 
ATOM     54  C   UNL A   1      46.579  27.326  37.498  1.00  0.00     0.054 A 
BRANCH  54  55
ATOM     55  S   UNL A   1      47.944  26.599  38.447  1.00  0.00     0.124 S 
ATOM     56  O   UNL A   1      48.228  25.384  37.691  1.00  0.00    -0.237 OA
ATOM     57  O   UNL A   1      48.967  27.640  38.381  1.00  0.00    -0.237 OA
ATOM     58  O   UNL A   1      47.365  26.390  39.774  1.00  0.00    -0.744 OA
ENDBRANCH  54  55
ENDBRANCH  26  49
BRANCH  38  59
ATOM     59  C   UNL A   1      40.050  33.753  37.265  1.00  0.00    -0.014 A 
ATOM     60  C   UNL A   1      40.788  34.946  37.342  1.00  0.00     0.010 A 
ATOM     61  C   UNL A   1      39.089  33.467  38.251  1.00  0.00     0.010 A 
ATOM     62  C   UNL A   1      40.578  35.833  38.399  1.00  0.00     0.020 A 
ATOM     63  C   UNL A   1      38.858  34.363  39.294  1.00  0.00     0.020 A 
ATOM     64  C   UNL A   1      39.612  35.538  39.367  1.00  0.00     0.054 A 
BRANCH  64  65
ATOM     65  S   UNL A   1      39.306  36.738  40.689  1.00  0.00     0.124 S 
ATOM     66  O   UNL A   1      40.662  37.047  41.137  1.00  0.00    -0.237 OA
ATOM     67  O   UNL A   1      38.613  37.818  39.991  1.00  0.00    -0.237 OA
ATOM     68  O   UNL A   1      38.488  35.997  41.647  1.00  0.00    -0.744 OA
ENDBRANCH  64  65
ENDBRANCH  38  59
ENDBRANCH  12  13
ENDBRANCH   5   7
ENDBRANCH   4   5
ENDBRANCH   3   4
ENDBRANCH   2   3
ENDBRANCH   1   2
BRANCH   1  69
ATOM     69  C   UNL A   1      40.411  22.024  27.330  1.00  0.00     0.202 C 
BRANCH  69  70
ATOM     70  C   UNL A   1      39.801  21.449  26.046  1.00  0.00     0.261 C 
BRANCH  70  71
ATOM     71  O   UNL A   1      38.499  22.033  25.871  1.00  0.00    -0.460 OA
BRANCH  71  72
ATOM     72  C   UNL A   1      37.653  21.282  25.123  1.00  0.00     0.338 C 
ATOM     73  O   UNL A   1      37.799  20.135  24.741  1.00  0.00    -0.246 OA
BRANCH  72  74
ATOM     74  C   UNL A   1      36.366  21.998  25.066  1.00  0.00     0.063 A 
ATOM     75  C   UNL A   1      35.938  22.655  23.911  1.00  0.00     0.017 A 
ATOM     76  C   UNL A   1      35.623  22.080  26.248  1.00  0.00     0.056 A 
ATOM     77  C   UNL A   1      34.725  23.345  23.934  1.00  0.00     0.024 A 
ATOM     78  C   UNL A   1      34.470  22.851  26.283  1.00  0.00     0.142 A 
ATOM     79  C   UNL A   1      33.982  23.427  25.123  1.00  0.00     0.103 A 
ATOM     80  F   UNL A   1      33.893  23.062  27.470  1.00  0.00    -0.206 F 
BRANCH  79  81
ATOM     81  S   UNL A   1      32.419  24.240  25.053  1.00  0.00     0.186 S 
ATOM     82  O   UNL A   1      31.466  23.248  25.529  1.00  0.00    -0.223 OA
ATOM     83  O   UNL A   1      32.579  25.475  25.804  1.00  0.00    -0.223 OA
BRANCH  81  84
ATOM     84  C   UNL A   1      31.933  24.666  23.403  1.00  0.00     0.188 C 
BRANCH  84  85
ATOM     85  C   UNL A   1      31.105  25.901  23.197  1.00  0.00     0.020 A 
ATOM     86  C   UNL A   1      31.436  26.945  22.347  1.00  0.00     0.016 A 
ATOM     87  S   UNL A   1      29.595  26.186  23.949  1.00  0.00    -0.148 S 
ATOM     88  C   UNL A   1      30.509  28.022  22.408  1.00  0.00     0.012 A 
ATOM     89  C   UNL A   1      29.476  27.754  23.275  1.00  0.00     0.065 A 
ENDBRANCH  84  85
ENDBRANCH  81  84
ENDBRANCH  79  81
ENDBRANCH  72  74
ENDBRANCH  71  72
ENDBRANCH  70  71
ENDBRANCH  69  70
ENDBRANCH   1  69
TORSDOF 20
ENDMDL
