MODEL 1
REMARK VINA RESULT:      -9.1      0.000      0.000
REMARK SMILES C[C@H](C(=O)OCCOCCOC(=O)c1ccc(-c2c3nc(c(-c4ccc(S(=O)(=O)[O-])cc4)c4ccc([nH]4)c(-c4ccc(S(=O)(=O)[O-])cc4)c4nc(c(-c5ccc(S(=O)(=O)[O-])cc5)c5ccc2[nH]5)C=C4)C=C3)cc1)[C@@H](C)[N@@H+](C)C[C@H]1C[C@H](O)C1
REMARK SMILES IDX 7 1 6 2 5 3 3 4 4 5 2 6 1 7 74 8 75 9 76 10 77 11 78 13
REMARK SMILES IDX 79 14 83 15 80 16 81 17 82 18 8 20 9 21 10 22 11 23 12 24
REMARK SMILES IDX 13 25 14 26 15 27 73 28 16 29 72 30 17 31 18 32 19 33 66 34
REMARK SMILES IDX 20 35 71 36 65 37 67 38 21 39 70 40 64 41 63 42 22 44 52 45
REMARK SMILES IDX 33 46 51 47 34 48 37 49 50 50 68 51 35 52 36 53 49 55 69 56
REMARK SMILES IDX 38 57 23 58 24 59 32 60 25 61 31 62 26 63 27 64 28 65 29 66
REMARK SMILES IDX 30 67 53 68 54 69 62 70 55 71 61 72 56 73 57 74 58 75 59 76
REMARK SMILES IDX 60 77 39 78 40 79 48 80 41 81 47 82 42 83 43 84 44 85 45 86
REMARK SMILES IDX 46 87
REMARK H PARENT 76 12 82 19 67 43 37 54
REMARK Flexibility Score: inf
ROOT
ATOM      1  C   UNL A   1      33.375  27.323  22.154  1.00  0.00     0.202 C 
ENDROOT
BRANCH   1   2
ATOM      2  C   UNL A   1      32.757  25.944  21.934  1.00  0.00     0.261 C 
BRANCH   2   3
ATOM      3  O   UNL A   1      33.712  24.916  22.257  1.00  0.00    -0.463 OA
BRANCH   3   4
ATOM      4  C   UNL A   1      33.592  24.344  23.476  1.00  0.00     0.314 C 
ATOM      5  O   UNL A   1      33.028  24.861  24.436  1.00  0.00    -0.252 OA
BRANCH   4   6
ATOM      6  C   UNL A   1      34.152  22.933  23.546  1.00  0.00     0.154 C 
ATOM      7  C   UNL A   1      35.686  23.011  23.600  1.00  0.00     0.026 C 
BRANCH   6   8
ATOM      8  C   UNL A   1      33.609  21.975  24.649  1.00  0.00     0.194 C 
ATOM      9  C   UNL A   1      32.087  22.051  24.870  1.00  0.00     0.076 C 
BRANCH   8  10
ATOM     10  N   UNL A   1      34.125  20.594  24.454  1.00  0.00    -0.334 N 
ATOM     11  C   UNL A   1      35.309  20.264  25.240  1.00  0.00     0.332 C 
ATOM     12  H   UNL A   1      34.425  20.687  23.484  1.00  0.00     0.348 HD
BRANCH  10  13
ATOM     13  C   UNL A   1      33.175  19.478  24.335  1.00  0.00     0.265 C 
BRANCH  13  14
ATOM     14  C   UNL A   1      33.732  18.091  24.627  1.00  0.00     0.049 C 
ATOM     15  C   UNL A   1      33.811  17.034  23.494  1.00  0.00     0.041 C 
ATOM     16  C   UNL A   1      32.761  17.119  25.346  1.00  0.00     0.041 C 
ATOM     17  C   UNL A   1      33.412  15.972  24.542  1.00  0.00     0.115 C 
BRANCH  17  18
ATOM     18  O   UNL A   1      34.486  15.266  25.194  1.00  0.00    -0.393 OA
ATOM     19  H   UNL A   1      34.157  14.863  26.014  1.00  0.00     0.210 HD
ENDBRANCH  17  18
ENDBRANCH  13  14
ENDBRANCH  10  13
ENDBRANCH   8  10
ENDBRANCH   6   8
ENDBRANCH   4   6
ENDBRANCH   3   4
ENDBRANCH   2   3
ENDBRANCH   1   2
BRANCH   1  20
ATOM     20  O   UNL A   1      32.894  28.028  23.302  1.00  0.00    -0.374 OA
BRANCH  20  21
ATOM     21  C   UNL A   1      33.841  28.290  24.336  1.00  0.00     0.202 C 
BRANCH  21  22
ATOM     22  C   UNL A   1      33.261  28.677  25.698  1.00  0.00     0.261 C 
BRANCH  22  23
ATOM     23  O   UNL A   1      34.228  28.544  26.754  1.00  0.00    -0.460 OA
BRANCH  23  24
ATOM     24  C   UNL A   1      34.498  29.695  27.415  1.00  0.00     0.338 C 
ATOM     25  O   UNL A   1      33.707  30.590  27.685  1.00  0.00    -0.246 OA
BRANCH  24  26
ATOM     26  C   UNL A   1      35.875  29.675  27.940  1.00  0.00     0.060 A 
ATOM     27  C   UNL A   1      36.916  29.842  27.018  1.00  0.00     0.016 A 
ATOM     28  C   UNL A   1      36.153  29.419  29.285  1.00  0.00     0.016 A 
ATOM     29  C   UNL A   1      38.239  29.689  27.423  1.00  0.00     0.010 A 
ATOM     30  C   UNL A   1      37.483  29.261  29.690  1.00  0.00     0.010 A 
ATOM     31  C   UNL A   1      38.527  29.352  28.752  1.00  0.00    -0.014 A 
BRANCH  31  32
ATOM     32  C   UNL A   1      39.906  28.940  29.112  1.00  0.00     0.031 A 
ATOM     33  C   UNL A   1      40.781  29.909  29.862  1.00  0.00     0.074 A 
ATOM     34  C   UNL A   1      40.354  27.707  28.818  1.00  0.00     0.049 A 
ATOM     35  N   UNL A   1      42.012  29.760  30.279  1.00  0.00    -0.248 NA
ATOM     36  C   UNL A   1      40.190  31.218  30.186  1.00  0.00     0.031 C 
ATOM     37  C   UNL A   1      39.584  26.666  28.137  1.00  0.00     0.029 A 
ATOM     38  N   UNL A   1      41.572  27.121  29.059  1.00  0.00    -0.354 N 
ATOM     39  C   UNL A   1      42.345  30.955  30.906  1.00  0.00     0.074 A 
ATOM     40  C   UNL A   1      41.198  31.828  30.790  1.00  0.00     0.031 C 
ATOM     41  C   UNL A   1      40.350  25.569  28.013  1.00  0.00     0.029 A 
ATOM     42  C   UNL A   1      41.672  25.839  28.578  1.00  0.00     0.049 A 
ATOM     43  H   UNL A   1      42.304  27.578  29.534  1.00  0.00     0.167 HD
ATOM     44  C   UNL A   1      43.499  31.293  31.528  1.00  0.00     0.031 A 
ATOM     45  C   UNL A   1      42.715  24.986  28.577  1.00  0.00     0.031 A 
ATOM     46  C   UNL A   1      44.642  30.424  31.632  1.00  0.00     0.049 A 
ATOM     47  C   UNL A   1      44.012  25.409  29.214  1.00  0.00     0.074 A 
ATOM     48  C   UNL A   1      45.854  30.668  32.255  1.00  0.00     0.029 A 
ATOM     49  N   UNL A   1      44.718  29.149  31.095  1.00  0.00    -0.354 N 
ATOM     50  N   UNL A   1      44.304  26.534  29.822  1.00  0.00    -0.248 NA
ATOM     51  C   UNL A   1      45.119  24.443  29.171  1.00  0.00     0.031 C 
ATOM     52  C   UNL A   1      46.681  29.560  32.047  1.00  0.00     0.029 A 
ATOM     53  C   UNL A   1      45.964  28.602  31.347  1.00  0.00     0.049 A 
ATOM     54  H   UNL A   1      43.991  28.698  30.606  1.00  0.00     0.167 HD
ATOM     55  C   UNL A   1      45.619  26.401  30.258  1.00  0.00     0.074 A 
ATOM     56  C   UNL A   1      46.060  25.081  29.854  1.00  0.00     0.031 C 
ATOM     57  C   UNL A   1      46.388  27.288  30.935  1.00  0.00     0.031 A 
BRANCH  44  58
ATOM     58  C   UNL A   1      43.596  32.677  32.112  1.00  0.00    -0.014 A 
ATOM     59  C   UNL A   1      43.231  32.934  33.446  1.00  0.00     0.010 A 
ATOM     60  C   UNL A   1      44.089  33.732  31.323  1.00  0.00     0.010 A 
ATOM     61  C   UNL A   1      43.320  34.228  33.968  1.00  0.00     0.020 A 
ATOM     62  C   UNL A   1      44.205  35.022  31.849  1.00  0.00     0.020 A 
ATOM     63  C   UNL A   1      43.803  35.265  33.163  1.00  0.00     0.054 A 
BRANCH  63  64
ATOM     64  S   UNL A   1      43.925  36.931  33.870  1.00  0.00     0.124 S 
ATOM     65  O   UNL A   1      44.368  36.648  35.233  1.00  0.00    -0.237 OA
ATOM     66  O   UNL A   1      44.915  37.573  33.008  1.00  0.00    -0.237 OA
ATOM     67  O   UNL A   1      42.568  37.458  33.754  1.00  0.00    -0.744 OA
ENDBRANCH  63  64
ENDBRANCH  44  58
BRANCH  45  68
ATOM     68  C   UNL A   1      42.579  23.648  27.938  1.00  0.00    -0.014 A 
ATOM     69  C   UNL A   1      42.844  23.475  26.569  1.00  0.00     0.010 A 
ATOM     70  C   UNL A   1      42.185  22.536  28.705  1.00  0.00     0.010 A 
ATOM     71  C   UNL A   1      42.706  22.217  25.975  1.00  0.00     0.020 A 
ATOM     72  C   UNL A   1      42.071  21.272  28.121  1.00  0.00     0.020 A 
ATOM     73  C   UNL A   1      42.323  21.122  26.756  1.00  0.00     0.054 A 
BRANCH  73  74
ATOM     74  S   UNL A   1      42.204  19.487  25.977  1.00  0.00     0.124 S 
ATOM     75  O   UNL A   1      42.643  18.606  27.054  1.00  0.00    -0.237 OA
ATOM     76  O   UNL A   1      40.788  19.406  25.630  1.00  0.00    -0.237 OA
ATOM     77  O   UNL A   1      43.112  19.587  24.837  1.00  0.00    -0.744 OA
ENDBRANCH  73  74
ENDBRANCH  45  68
BRANCH  57  78
ATOM     78  C   UNL A   1      47.781  26.853  31.313  1.00  0.00    -0.014 A 
ATOM     79  C   UNL A   1      48.037  26.215  32.539  1.00  0.00     0.010 A 
ATOM     80  C   UNL A   1      48.836  27.037  30.400  1.00  0.00     0.010 A 
ATOM     81  C   UNL A   1      49.333  25.795  32.857  1.00  0.00     0.020 A 
ATOM     82  C   UNL A   1      50.125  26.595  30.703  1.00  0.00     0.020 A 
ATOM     83  C   UNL A   1      50.368  25.989  31.937  1.00  0.00     0.054 A 
BRANCH  83  84
ATOM     84  S   UNL A   1      52.031  25.396  32.356  1.00  0.00     0.124 S 
ATOM     85  O   UNL A   1      51.877  23.949  32.233  1.00  0.00    -0.237 OA
ATOM     86  O   UNL A   1      52.864  26.029  31.336  1.00  0.00    -0.237 OA
ATOM     87  O   UNL A   1      52.242  25.887  33.716  1.00  0.00    -0.744 OA
ENDBRANCH  83  84
ENDBRANCH  57  78
ENDBRANCH  31  32
ENDBRANCH  24  26
ENDBRANCH  23  24
ENDBRANCH  22  23
ENDBRANCH  21  22
ENDBRANCH  20  21
ENDBRANCH   1  20
TORSDOF 22
ENDMDL
MODEL 2
REMARK VINA RESULT:      -8.8      4.527      6.747
REMARK SMILES C[C@H](C(=O)OCCOCCOC(=O)c1ccc(-c2c3nc(c(-c4ccc(S(=O)(=O)[O-])cc4)c4ccc([nH]4)c(-c4ccc(S(=O)(=O)[O-])cc4)c4nc(c(-c5ccc(S(=O)(=O)[O-])cc5)c5ccc2[nH]5)C=C4)C=C3)cc1)[C@@H](C)[N@@H+](C)C[C@H]1C[C@H](O)C1
REMARK SMILES IDX 7 1 6 2 5 3 3 4 4 5 2 6 1 7 74 8 75 9 76 10 77 11 78 13
REMARK SMILES IDX 79 14 83 15 80 16 81 17 82 18 8 20 9 21 10 22 11 23 12 24
REMARK SMILES IDX 13 25 14 26 15 27 73 28 16 29 72 30 17 31 18 32 19 33 66 34
REMARK SMILES IDX 20 35 71 36 65 37 67 38 21 39 70 40 64 41 63 42 22 44 52 45
REMARK SMILES IDX 33 46 51 47 34 48 37 49 50 50 68 51 35 52 36 53 49 55 69 56
REMARK SMILES IDX 38 57 23 58 24 59 32 60 25 61 31 62 26 63 27 64 28 65 29 66
REMARK SMILES IDX 30 67 53 68 54 69 62 70 55 71 61 72 56 73 57 74 58 75 59 76
REMARK SMILES IDX 60 77 39 78 40 79 48 80 41 81 47 82 42 83 43 84 44 85 45 86
REMARK SMILES IDX 46 87
REMARK H PARENT 76 12 82 19 67 43 37 54
REMARK Flexibility Score: inf
ROOT
ATOM      1  C   UNL A   1      33.077  29.708  26.604  1.00  0.00     0.202 C 
ENDROOT
BRANCH   1   2
ATOM      2  C   UNL A   1      32.486  28.530  27.376  1.00  0.00     0.261 C 
BRANCH   2   3
ATOM      3  O   UNL A   1      31.427  27.921  26.614  1.00  0.00    -0.463 OA
BRANCH   3   4
ATOM      4  C   UNL A   1      31.642  26.657  26.185  1.00  0.00     0.314 C 
ATOM      5  O   UNL A   1      31.576  25.659  26.897  1.00  0.00    -0.252 OA
BRANCH   4   6
ATOM      6  C   UNL A   1      31.899  26.554  24.691  1.00  0.00     0.154 C 
ATOM      7  C   UNL A   1      32.353  25.122  24.365  1.00  0.00     0.026 C 
BRANCH   6   8
ATOM      8  C   UNL A   1      30.775  27.013  23.714  1.00  0.00     0.194 C 
ATOM      9  C   UNL A   1      29.393  26.397  23.993  1.00  0.00     0.076 C 
BRANCH   8  10
ATOM     10  N   UNL A   1      30.763  28.495  23.580  1.00  0.00    -0.334 N 
ATOM     11  C   UNL A   1      31.777  29.039  22.685  1.00  0.00     0.332 C 
ATOM     12  H   UNL A   1      31.044  28.729  24.532  1.00  0.00     0.348 HD
BRANCH  10  13
ATOM     13  C   UNL A   1      29.476  29.202  23.500  1.00  0.00     0.265 C 
BRANCH  13  14
ATOM     14  C   UNL A   1      29.307  30.156  22.325  1.00  0.00     0.049 C 
ATOM     15  C   UNL A   1      29.127  31.676  22.581  1.00  0.00     0.041 C 
ATOM     16  C   UNL A   1      27.895  30.185  21.685  1.00  0.00     0.041 C 
ATOM     17  C   UNL A   1      28.119  31.689  21.412  1.00  0.00     0.115 C 
BRANCH  17  18
ATOM     18  O   UNL A   1      28.635  32.030  20.110  1.00  0.00    -0.393 OA
ATOM     19  H   UNL A   1      29.024  31.241  19.699  1.00  0.00     0.210 HD
ENDBRANCH  17  18
ENDBRANCH  13  14
ENDBRANCH  10  13
ENDBRANCH   8  10
ENDBRANCH   6   8
ENDBRANCH   4   6
ENDBRANCH   3   4
ENDBRANCH   2   3
ENDBRANCH   1   2
BRANCH   1  20
ATOM     20  O   UNL A   1      32.137  30.462  25.834  1.00  0.00    -0.374 OA
BRANCH  20  21
ATOM     21  C   UNL A   1      31.391  31.459  26.531  1.00  0.00     0.202 C 
BRANCH  21  22
ATOM     22  C   UNL A   1      32.135  32.759  26.848  1.00  0.00     0.261 C 
BRANCH  22  23
ATOM     23  O   UNL A   1      33.000  32.622  27.988  1.00  0.00    -0.460 OA
BRANCH  23  24
ATOM     24  C   UNL A   1      33.526  33.786  28.435  1.00  0.00     0.338 C 
ATOM     25  O   UNL A   1      33.088  34.913  28.240  1.00  0.00    -0.246 OA
BRANCH  24  26
ATOM     26  C   UNL A   1      34.641  33.524  29.362  1.00  0.00     0.060 A 
ATOM     27  C   UNL A   1      35.915  33.955  28.971  1.00  0.00     0.016 A 
ATOM     28  C   UNL A   1      34.468  32.805  30.547  1.00  0.00     0.016 A 
ATOM     29  C   UNL A   1      37.031  33.613  29.730  1.00  0.00     0.010 A 
ATOM     30  C   UNL A   1      35.591  32.457  31.306  1.00  0.00     0.010 A 
ATOM     31  C   UNL A   1      36.880  32.822  30.876  1.00  0.00    -0.014 A 
BRANCH  31  32
ATOM     32  C   UNL A   1      38.084  32.250  31.526  1.00  0.00     0.031 A 
ATOM     33  C   UNL A   1      38.520  32.798  32.859  1.00  0.00     0.074 A 
ATOM     34  C   UNL A   1      38.752  31.229  30.961  1.00  0.00     0.049 A 
ATOM     35  N   UNL A   1      39.535  32.448  33.606  1.00  0.00    -0.248 NA
ATOM     36  C   UNL A   1      37.701  33.882  33.427  1.00  0.00     0.031 C 
ATOM     37  C   UNL A   1      38.399  30.585  29.695  1.00  0.00     0.029 A 
ATOM     38  N   UNL A   1      39.869  30.553  31.383  1.00  0.00    -0.354 N 
ATOM     39  C   UNL A   1      39.483  33.272  34.724  1.00  0.00     0.074 A 
ATOM     40  C   UNL A   1      38.353  34.157  34.546  1.00  0.00     0.031 C 
ATOM     41  C   UNL A   1      39.285  29.606  29.443  1.00  0.00     0.029 A 
ATOM     42  C   UNL A   1      40.284  29.575  30.512  1.00  0.00     0.049 A 
ATOM     43  H   UNL A   1      40.329  30.750  32.231  1.00  0.00     0.167 HD
ATOM     44  C   UNL A   1      40.298  33.285  35.806  1.00  0.00     0.031 A 
ATOM     45  C   UNL A   1      41.355  28.760  30.561  1.00  0.00     0.031 A 
ATOM     46  C   UNL A   1      41.427  32.409  35.975  1.00  0.00     0.049 A 
ATOM     47  C   UNL A   1      42.287  28.840  31.741  1.00  0.00     0.074 A 
ATOM     48  C   UNL A   1      42.306  32.334  37.041  1.00  0.00     0.029 A 
ATOM     49  N   UNL A   1      41.838  31.461  35.050  1.00  0.00    -0.354 N 
ATOM     50  N   UNL A   1      42.211  29.608  32.802  1.00  0.00    -0.248 NA
ATOM     51  C   UNL A   1      43.446  27.936  31.734  1.00  0.00     0.031 C 
ATOM     52  C   UNL A   1      43.280  31.378  36.736  1.00  0.00     0.029 A 
ATOM     53  C   UNL A   1      42.973  30.815  35.507  1.00  0.00     0.049 A 
ATOM     54  H   UNL A   1      41.387  31.275  34.194  1.00  0.00     0.167 HD
ATOM     55  C   UNL A   1      43.296  29.262  33.601  1.00  0.00     0.074 A 
ATOM     56  C   UNL A   1      44.006  28.207  32.906  1.00  0.00     0.031 C 
ATOM     57  C   UNL A   1      43.669  29.768  34.802  1.00  0.00     0.031 A 
BRANCH  44  58
ATOM     58  C   UNL A   1      40.017  34.307  36.876  1.00  0.00    -0.014 A 
ATOM     59  C   UNL A   1      40.658  35.559  36.876  1.00  0.00     0.010 A 
ATOM     60  C   UNL A   1      39.073  34.021  37.879  1.00  0.00     0.010 A 
ATOM     61  C   UNL A   1      40.390  36.491  37.883  1.00  0.00     0.020 A 
ATOM     62  C   UNL A   1      38.782  34.961  38.873  1.00  0.00     0.020 A 
ATOM     63  C   UNL A   1      39.456  36.183  38.878  1.00  0.00     0.054 A 
BRANCH  63  64
ATOM     64  S   UNL A   1      39.113  37.417  40.162  1.00  0.00     0.124 S 
ATOM     65  O   UNL A   1      38.498  36.600  41.206  1.00  0.00    -0.237 OA
ATOM     66  O   UNL A   1      40.442  37.937  40.472  1.00  0.00    -0.237 OA
ATOM     67  O   UNL A   1      38.215  38.363  39.504  1.00  0.00    -0.744 OA
ENDBRANCH  63  64
ENDBRANCH  44  58
BRANCH  45  68
ATOM     68  C   UNL A   1      41.612  27.805  29.449  1.00  0.00    -0.014 A 
ATOM     69  C   UNL A   1      42.741  27.947  28.624  1.00  0.00     0.010 A 
ATOM     70  C   UNL A   1      40.723  26.740  29.213  1.00  0.00     0.010 A 
ATOM     71  C   UNL A   1      42.971  27.050  27.577  1.00  0.00     0.020 A 
ATOM     72  C   UNL A   1      40.963  25.826  28.184  1.00  0.00     0.020 A 
ATOM     73  C   UNL A   1      42.081  25.993  27.365  1.00  0.00     0.054 A 
BRANCH  73  74
ATOM     74  S   UNL A   1      42.427  24.808  26.035  1.00  0.00     0.124 S 
ATOM     75  O   UNL A   1      42.204  25.617  24.842  1.00  0.00    -0.237 OA
ATOM     76  O   UNL A   1      43.815  24.436  26.298  1.00  0.00    -0.237 OA
ATOM     77  O   UNL A   1      41.453  23.744  26.265  1.00  0.00    -0.744 OA
ENDBRANCH  73  74
ENDBRANCH  45  68
BRANCH  57  78
ATOM     78  C   UNL A   1      44.883  29.168  35.463  1.00  0.00    -0.014 A 
ATOM     79  C   UNL A   1      44.773  28.055  36.315  1.00  0.00     0.010 A 
ATOM     80  C   UNL A   1      46.157  29.693  35.178  1.00  0.00     0.010 A 
ATOM     81  C   UNL A   1      45.916  27.498  36.896  1.00  0.00     0.020 A 
ATOM     82  C   UNL A   1      47.302  29.121  35.735  1.00  0.00     0.020 A 
ATOM     83  C   UNL A   1      47.173  28.035  36.603  1.00  0.00     0.054 A 
BRANCH  83  84
ATOM     84  S   UNL A   1      48.645  27.266  37.335  1.00  0.00     0.124 S 
ATOM     85  O   UNL A   1      49.576  27.262  36.210  1.00  0.00    -0.237 OA
ATOM     86  O   UNL A   1      48.977  28.181  38.423  1.00  0.00    -0.237 OA
ATOM     87  O   UNL A   1      48.173  25.949  37.758  1.00  0.00    -0.744 OA
ENDBRANCH  83  84
ENDBRANCH  57  78
ENDBRANCH  31  32
ENDBRANCH  24  26
ENDBRANCH  23  24
ENDBRANCH  22  23
ENDBRANCH  21  22
ENDBRANCH  20  21
ENDBRANCH   1  20
TORSDOF 22
ENDMDL
MODEL 3
REMARK VINA RESULT:      -8.8      0.786      8.392
REMARK SMILES C[C@H](C(=O)OCCOCCOC(=O)c1ccc(-c2c3nc(c(-c4ccc(S(=O)(=O)[O-])cc4)c4ccc([nH]4)c(-c4ccc(S(=O)(=O)[O-])cc4)c4nc(c(-c5ccc(S(=O)(=O)[O-])cc5)c5ccc2[nH]5)C=C4)C=C3)cc1)[C@@H](C)[N@@H+](C)C[C@H]1C[C@H](O)C1
REMARK SMILES IDX 7 1 6 2 5 3 3 4 4 5 2 6 1 7 74 8 75 9 76 10 77 11 78 13
REMARK SMILES IDX 79 14 83 15 80 16 81 17 82 18 8 20 9 21 10 22 11 23 12 24
REMARK SMILES IDX 13 25 14 26 15 27 73 28 16 29 72 30 17 31 18 32 19 33 66 34
REMARK SMILES IDX 20 35 71 36 65 37 67 38 21 39 70 40 64 41 63 42 22 44 52 45
REMARK SMILES IDX 33 46 51 47 34 48 37 49 50 50 68 51 35 52 36 53 49 55 69 56
REMARK SMILES IDX 38 57 23 58 24 59 32 60 25 61 31 62 26 63 27 64 28 65 29 66
REMARK SMILES IDX 30 67 53 68 54 69 62 70 55 71 61 72 56 73 57 74 58 75 59 76
REMARK SMILES IDX 60 77 39 78 40 79 48 80 41 81 47 82 42 83 43 84 44 85 45 86
REMARK SMILES IDX 46 87
REMARK H PARENT 76 12 82 19 67 43 37 54
REMARK Flexibility Score: inf
ROOT
ATOM      1  C   UNL A   1      33.378  27.224  22.059  1.00  0.00     0.202 C 
ENDROOT
BRANCH   1   2
ATOM      2  C   UNL A   1      32.807  25.834  21.780  1.00  0.00     0.261 C 
BRANCH   2   3
ATOM      3  O   UNL A   1      33.772  24.824  22.131  1.00  0.00    -0.463 OA
BRANCH   3   4
ATOM      4  C   UNL A   1      33.625  24.246  23.344  1.00  0.00     0.314 C 
ATOM      5  O   UNL A   1      33.005  24.741  24.281  1.00  0.00    -0.252 OA
BRANCH   4   6
ATOM      6  C   UNL A   1      34.233  22.856  23.437  1.00  0.00     0.154 C 
ATOM      7  C   UNL A   1      35.762  22.990  23.520  1.00  0.00     0.026 C 
BRANCH   6   8
ATOM      8  C   UNL A   1      33.701  21.889  24.536  1.00  0.00     0.194 C 
ATOM      9  C   UNL A   1      32.177  21.933  24.746  1.00  0.00     0.076 C 
BRANCH   8  10
ATOM     10  N   UNL A   1      34.248  20.518  24.345  1.00  0.00    -0.334 N 
ATOM     11  C   UNL A   1      35.465  20.232  25.095  1.00  0.00     0.332 C 
ATOM     12  H   UNL A   1      34.511  20.603  23.364  1.00  0.00     0.348 HD
BRANCH  10  13
ATOM     13  C   UNL A   1      33.324  19.376  24.276  1.00  0.00     0.265 C 
BRANCH  13  14
ATOM     14  C   UNL A   1      33.915  18.015  24.619  1.00  0.00     0.049 C 
ATOM     15  C   UNL A   1      34.025  16.921  23.524  1.00  0.00     0.041 C 
ATOM     16  C   UNL A   1      32.967  17.045  25.370  1.00  0.00     0.041 C 
ATOM     17  C   UNL A   1      33.650  15.887  24.608  1.00  0.00     0.115 C 
BRANCH  17  18
ATOM     18  O   UNL A   1      34.739  15.233  25.288  1.00  0.00    -0.393 OA
ATOM     19  H   UNL A   1      34.418  14.851  26.121  1.00  0.00     0.210 HD
ENDBRANCH  17  18
ENDBRANCH  13  14
ENDBRANCH  10  13
ENDBRANCH   8  10
ENDBRANCH   6   8
ENDBRANCH   4   6
ENDBRANCH   3   4
ENDBRANCH   2   3
ENDBRANCH   1   2
BRANCH   1  20
ATOM     20  O   UNL A   1      32.886  27.854  23.245  1.00  0.00    -0.374 OA
BRANCH  20  21
ATOM     21  C   UNL A   1      33.842  28.125  24.269  1.00  0.00     0.202 C 
BRANCH  21  22
ATOM     22  C   UNL A   1      33.283  28.301  25.683  1.00  0.00     0.261 C 
BRANCH  22  23
ATOM     23  O   UNL A   1      34.322  28.312  26.677  1.00  0.00    -0.460 OA
BRANCH  23  24
ATOM     24  C   UNL A   1      34.388  29.451  27.406  1.00  0.00     0.338 C 
ATOM     25  O   UNL A   1      33.459  30.198  27.687  1.00  0.00    -0.246 OA
BRANCH  24  26
ATOM     26  C   UNL A   1      35.732  29.611  27.988  1.00  0.00     0.060 A 
ATOM     27  C   UNL A   1      36.766  29.982  27.120  1.00  0.00     0.016 A 
ATOM     28  C   UNL A   1      35.998  29.330  29.330  1.00  0.00     0.016 A 
ATOM     29  C   UNL A   1      38.082  30.010  27.574  1.00  0.00     0.010 A 
ATOM     30  C   UNL A   1      37.322  29.353  29.784  1.00  0.00     0.010 A 
ATOM     31  C   UNL A   1      38.372  29.650  28.896  1.00  0.00    -0.014 A 
BRANCH  31  32
ATOM     32  C   UNL A   1      39.784  29.433  29.295  1.00  0.00     0.031 A 
ATOM     33  C   UNL A   1      40.434  28.112  28.977  1.00  0.00     0.074 A 
ATOM     34  C   UNL A   1      40.490  30.411  29.890  1.00  0.00     0.049 A 
ATOM     35  N   UNL A   1      41.652  27.707  29.229  1.00  0.00    -0.248 NA
ATOM     36  C   UNL A   1      39.601  27.117  28.280  1.00  0.00     0.031 C 
ATOM     37  C   UNL A   1      39.983  31.746  30.207  1.00  0.00     0.029 A 
ATOM     38  N   UNL A   1      41.789  30.429  30.331  1.00  0.00    -0.354 N 
ATOM     39  C   UNL A   1      41.729  26.411  28.731  1.00  0.00     0.074 A 
ATOM     40  C   UNL A   1      40.429  26.088  28.187  1.00  0.00     0.031 C 
ATOM     41  C   UNL A   1      40.963  32.454  30.796  1.00  0.00     0.029 A 
ATOM     42  C   UNL A   1      42.153  31.614  30.923  1.00  0.00     0.049 A 
ATOM     43  H   UNL A   1      42.403  29.665  30.231  1.00  0.00     0.167 HD
ATOM     44  C   UNL A   1      42.790  25.570  28.720  1.00  0.00     0.031 A 
ATOM     45  C   UNL A   1      43.309  31.975  31.515  1.00  0.00     0.031 A 
ATOM     46  C   UNL A   1      44.080  25.892  29.271  1.00  0.00     0.049 A 
ATOM     47  C   UNL A   1      44.453  30.996  31.553  1.00  0.00     0.074 A 
ATOM     48  C   UNL A   1      45.223  25.112  29.297  1.00  0.00     0.029 A 
ATOM     49  N   UNL A   1      44.396  27.087  29.899  1.00  0.00    -0.354 N 
ATOM     50  N   UNL A   1      44.518  29.784  31.057  1.00  0.00    -0.248 NA
ATOM     51  C   UNL A   1      45.683  31.440  32.223  1.00  0.00     0.031 C 
ATOM     52  C   UNL A   1      46.214  25.817  29.989  1.00  0.00     0.029 A 
ATOM     53  C   UNL A   1      45.707  27.058  30.340  1.00  0.00     0.049 A 
ATOM     54  H   UNL A   1      43.777  27.845  30.013  1.00  0.00     0.167 HD
ATOM     55  C   UNL A   1      45.804  29.329  31.332  1.00  0.00     0.074 A 
ATOM     56  C   UNL A   1      46.486  30.401  32.028  1.00  0.00     0.031 C 
ATOM     57  C   UNL A   1      46.370  28.134  31.034  1.00  0.00     0.031 A 
BRANCH  44  58
ATOM     58  C   UNL A   1      42.586  24.202  28.125  1.00  0.00    -0.014 A 
ATOM     59  C   UNL A   1      42.716  23.981  26.742  1.00  0.00     0.010 A 
ATOM     60  C   UNL A   1      42.292  23.114  28.967  1.00  0.00     0.010 A 
ATOM     61  C   UNL A   1      42.515  22.704  26.207  1.00  0.00     0.020 A 
ATOM     62  C   UNL A   1      42.117  21.831  28.440  1.00  0.00     0.020 A 
ATOM     63  C   UNL A   1      42.212  21.638  27.060  1.00  0.00     0.054 A 
BRANCH  63  64
ATOM     64  S   UNL A   1      41.975  19.989  26.344  1.00  0.00     0.124 S 
ATOM     65  O   UNL A   1      42.921  20.006  25.231  1.00  0.00    -0.237 OA
ATOM     66  O   UNL A   1      42.324  19.104  27.452  1.00  0.00    -0.237 OA
ATOM     67  O   UNL A   1      40.565  19.977  25.960  1.00  0.00    -0.744 OA
ENDBRANCH  63  64
ENDBRANCH  44  58
BRANCH  45  68
ATOM     68  C   UNL A   1      43.436  33.322  32.134  1.00  0.00    -0.014 A 
ATOM     69  C   UNL A   1      43.861  34.426  31.375  1.00  0.00     0.010 A 
ATOM     70  C   UNL A   1      43.126  33.506  33.494  1.00  0.00     0.010 A 
ATOM     71  C   UNL A   1      43.985  35.686  31.967  1.00  0.00     0.020 A 
ATOM     72  C   UNL A   1      43.222  34.769  34.083  1.00  0.00     0.020 A 
ATOM     73  C   UNL A   1      43.662  35.850  33.317  1.00  0.00     0.054 A 
BRANCH  73  74
ATOM     74  S   UNL A   1      43.776  37.506  34.052  1.00  0.00     0.124 S 
ATOM     75  O   UNL A   1      42.740  37.455  35.078  1.00  0.00    -0.237 OA
ATOM     76  O   UNL A   1      45.152  37.539  34.542  1.00  0.00    -0.237 OA
ATOM     77  O   UNL A   1      43.503  38.397  32.927  1.00  0.00    -0.744 OA
ENDBRANCH  73  74
ENDBRANCH  45  68
BRANCH  57  78
ATOM     78  C   UNL A   1      47.810  27.929  31.426  1.00  0.00    -0.014 A 
ATOM     79  C   UNL A   1      48.857  28.210  30.531  1.00  0.00     0.010 A 
ATOM     80  C   UNL A   1      48.118  27.503  32.732  1.00  0.00     0.010 A 
ATOM     81  C   UNL A   1      50.186  28.039  30.927  1.00  0.00     0.020 A 
ATOM     82  C   UNL A   1      49.446  27.357  33.138  1.00  0.00     0.020 A 
ATOM     83  C   UNL A   1      50.473  27.613  32.227  1.00  0.00     0.054 A 
BRANCH  83  84
ATOM     84  S   UNL A   1      52.208  27.440  32.729  1.00  0.00     0.124 S 
ATOM     85  O   UNL A   1      52.630  28.833  32.841  1.00  0.00    -0.237 OA
ATOM     86  O   UNL A   1      52.106  26.710  33.990  1.00  0.00    -0.237 OA
ATOM     87  O   UNL A   1      52.814  26.692  31.630  1.00  0.00    -0.744 OA
ENDBRANCH  83  84
ENDBRANCH  57  78
ENDBRANCH  31  32
ENDBRANCH  24  26
ENDBRANCH  23  24
ENDBRANCH  22  23
ENDBRANCH  21  22
ENDBRANCH  20  21
ENDBRANCH   1  20
TORSDOF 22
ENDMDL
