MODEL 1
REMARK VINA RESULT:      -9.9      0.000      0.000
REMARK SMILES O=C(OCCOCCOC(=O)C1CCN(C(=O)CSCc2ccccc2)CC1)c1ccc(-c2c3nc(c(-c4ccc(S(=O)(=O)[O-])cc4)c4ccc([nH]4)c(-c4ccc(S(=O)(=O)[O-])cc4)c4nc(c(-c5ccc(S(=O)(=O)[O-])cc5)c5ccc2[nH]5)C=C4)C=C3)cc1
REMARK SMILES IDX 7 1 6 2 5 3 4 4 3 5 2 6 1 7 29 8 30 9 88 10 31 11 87 12
REMARK SMILES IDX 32 13 33 14 34 15 81 16 35 17 86 18 80 19 82 20 36 21 85 22
REMARK SMILES IDX 79 23 78 24 37 26 67 27 48 28 66 29 49 30 52 31 65 32 83 33
REMARK SMILES IDX 50 34 51 35 64 37 84 38 53 39 38 40 39 41 47 42 40 43 46 44
REMARK SMILES IDX 41 45 42 46 43 47 44 48 45 49 68 50 69 51 77 52 70 53 76 54
REMARK SMILES IDX 71 55 72 56 73 57 74 58 75 59 54 60 55 61 63 62 56 63 62 64
REMARK SMILES IDX 57 65 58 66 59 67 60 68 61 69 8 70 9 71 10 72 11 73 12 74
REMARK SMILES IDX 13 75 28 76 14 77 27 78 15 79 16 80 17 81 18 82 19 83 20 84
REMARK SMILES IDX 21 85 22 86 26 87 23 88 25 89 24 90
REMARK H PARENT 82 25 52 36
REMARK Flexibility Score: inf
ROOT
ATOM      1  C   UNL A   1      37.773  21.737  25.800  1.00  0.00     0.202 C 
ENDROOT
BRANCH   1   2
ATOM      2  O   UNL A   1      39.100  22.264  25.680  1.00  0.00    -0.374 OA
BRANCH   2   3
ATOM      3  C   UNL A   1      40.128  21.649  26.459  1.00  0.00     0.202 C 
BRANCH   3   4
ATOM      4  C   UNL A   1      40.568  22.453  27.684  1.00  0.00     0.261 C 
BRANCH   4   5
ATOM      5  O   UNL A   1      41.602  23.377  27.331  1.00  0.00    -0.460 OA
BRANCH   5   6
ATOM      6  C   UNL A   1      41.441  24.660  26.934  1.00  0.00     0.338 C 
ATOM      7  O   UNL A   1      41.402  24.893  25.726  1.00  0.00    -0.246 OA
BRANCH   6   8
ATOM      8  C   UNL A   1      41.297  25.817  27.875  1.00  0.00     0.060 A 
ATOM      9  C   UNL A   1      42.171  26.905  27.985  1.00  0.00     0.016 A 
ATOM     10  C   UNL A   1      40.121  25.841  28.639  1.00  0.00     0.016 A 
ATOM     11  C   UNL A   1      41.902  27.985  28.802  1.00  0.00     0.010 A 
ATOM     12  C   UNL A   1      39.849  26.910  29.490  1.00  0.00     0.010 A 
ATOM     13  C   UNL A   1      40.752  27.974  29.570  1.00  0.00    -0.014 A 
BRANCH  13  14
ATOM     14  C   UNL A   1      40.638  28.993  30.611  1.00  0.00     0.031 A 
ATOM     15  C   UNL A   1      41.609  28.909  31.740  1.00  0.00     0.074 A 
ATOM     16  C   UNL A   1      39.761  29.996  30.470  1.00  0.00     0.049 A 
ATOM     17  N   UNL A   1      41.632  29.574  32.858  1.00  0.00    -0.248 NA
ATOM     18  C   UNL A   1      42.709  27.938  31.584  1.00  0.00     0.031 C 
ATOM     19  C   UNL A   1      38.913  30.218  29.296  1.00  0.00     0.029 A 
ATOM     20  N   UNL A   1      39.438  31.013  31.321  1.00  0.00    -0.354 N 
ATOM     21  C   UNL A   1      42.711  29.062  33.565  1.00  0.00     0.074 A 
ATOM     22  C   UNL A   1      43.329  28.046  32.746  1.00  0.00     0.031 C 
ATOM     23  C   UNL A   1      38.141  31.294  29.517  1.00  0.00     0.029 A 
ATOM     24  C   UNL A   1      38.390  31.777  30.870  1.00  0.00     0.049 A 
ATOM     25  H   UNL A   1      39.908  31.181  32.169  1.00  0.00     0.167 HD
ATOM     26  C   UNL A   1      43.114  29.403  34.807  1.00  0.00     0.031 A 
ATOM     27  C   UNL A   1      37.675  32.711  31.523  1.00  0.00     0.031 A 
ATOM     28  C   UNL A   1      42.428  30.397  35.583  1.00  0.00     0.049 A 
ATOM     29  C   UNL A   1      38.067  33.008  32.945  1.00  0.00     0.074 A 
ATOM     30  C   UNL A   1      42.671  30.810  36.876  1.00  0.00     0.029 A 
ATOM     31  N   UNL A   1      41.340  31.130  35.117  1.00  0.00    -0.354 N 
ATOM     32  N   UNL A   1      39.038  32.476  33.655  1.00  0.00    -0.248 NA
ATOM     33  C   UNL A   1      37.277  34.013  33.660  1.00  0.00     0.031 C 
ATOM     34  C   UNL A   1      41.691  31.750  37.213  1.00  0.00     0.029 A 
ATOM     35  C   UNL A   1      40.884  31.980  36.104  1.00  0.00     0.049 A 
ATOM     36  H   UNL A   1      40.951  31.054  34.217  1.00  0.00     0.167 HD
ATOM     37  C   UNL A   1      38.996  33.100  34.892  1.00  0.00     0.074 A 
ATOM     38  C   UNL A   1      37.899  34.051  34.832  1.00  0.00     0.031 C 
ATOM     39  C   UNL A   1      39.791  32.917  35.977  1.00  0.00     0.031 A 
BRANCH  26  40
ATOM     40  C   UNL A   1      44.239  28.600  35.402  1.00  0.00    -0.014 A 
ATOM     41  C   UNL A   1      44.051  27.284  35.867  1.00  0.00     0.010 A 
ATOM     42  C   UNL A   1      45.492  29.213  35.580  1.00  0.00     0.010 A 
ATOM     43  C   UNL A   1      45.070  26.629  36.565  1.00  0.00     0.020 A 
ATOM     44  C   UNL A   1      46.525  28.548  36.248  1.00  0.00     0.020 A 
ATOM     45  C   UNL A   1      46.296  27.271  36.762  1.00  0.00     0.054 A 
BRANCH  45  46
ATOM     46  S   UNL A   1      47.586  26.419  37.711  1.00  0.00     0.124 S 
ATOM     47  O   UNL A   1      47.130  26.619  39.084  1.00  0.00    -0.237 OA
ATOM     48  O   UNL A   1      47.497  25.049  37.214  1.00  0.00    -0.237 OA
ATOM     49  O   UNL A   1      48.810  27.132  37.350  1.00  0.00    -0.744 OA
ENDBRANCH  45  46
ENDBRANCH  26  40
BRANCH  27  50
ATOM     50  C   UNL A   1      36.507  33.343  30.853  1.00  0.00    -0.014 A 
ATOM     51  C   UNL A   1      35.241  33.356  31.461  1.00  0.00     0.010 A 
ATOM     52  C   UNL A   1      36.680  34.018  29.629  1.00  0.00     0.010 A 
ATOM     53  C   UNL A   1      34.176  34.040  30.864  1.00  0.00     0.020 A 
ATOM     54  C   UNL A   1      35.627  34.726  29.042  1.00  0.00     0.020 A 
ATOM     55  C   UNL A   1      34.378  34.730  29.663  1.00  0.00     0.054 A 
BRANCH  55  56
ATOM     56  S   UNL A   1      33.005  35.684  28.956  1.00  0.00     0.124 S 
ATOM     57  O   UNL A   1      32.346  34.690  28.114  1.00  0.00    -0.237 OA
ATOM     58  O   UNL A   1      32.264  36.097  30.146  1.00  0.00    -0.237 OA
ATOM     59  O   UNL A   1      33.672  36.769  28.239  1.00  0.00    -0.744 OA
ENDBRANCH  55  56
ENDBRANCH  27  50
BRANCH  39  60
ATOM     60  C   UNL A   1      39.546  33.802  37.165  1.00  0.00    -0.014 A 
ATOM     61  C   UNL A   1      38.732  33.386  38.230  1.00  0.00     0.010 A 
ATOM     62  C   UNL A   1      40.267  35.006  37.267  1.00  0.00     0.010 A 
ATOM     63  C   UNL A   1      38.648  34.163  39.386  1.00  0.00     0.020 A 
ATOM     64  C   UNL A   1      40.207  35.768  38.431  1.00  0.00     0.020 A 
ATOM     65  C   UNL A   1      39.397  35.341  39.484  1.00  0.00     0.054 A 
BRANCH  65  66
ATOM     66  S   UNL A   1      39.360  36.268  41.041  1.00  0.00     0.124 S 
ATOM     67  O   UNL A   1      38.070  35.872  41.599  1.00  0.00    -0.237 OA
ATOM     68  O   UNL A   1      40.534  35.756  41.744  1.00  0.00    -0.237 OA
ATOM     69  O   UNL A   1      39.454  37.663  40.617  1.00  0.00    -0.744 OA
ENDBRANCH  65  66
ENDBRANCH  39  60
ENDBRANCH  13  14
ENDBRANCH   6   8
ENDBRANCH   5   6
ENDBRANCH   4   5
ENDBRANCH   3   4
ENDBRANCH   2   3
ENDBRANCH   1   2
BRANCH   1  70
ATOM     70  C   UNL A   1      37.100  21.715  24.432  1.00  0.00     0.261 C 
BRANCH  70  71
ATOM     71  O   UNL A   1      35.726  22.049  24.636  1.00  0.00    -0.463 OA
BRANCH  71  72
ATOM     72  C   UNL A   1      35.180  22.736  23.590  1.00  0.00     0.309 C 
ATOM     73  O   UNL A   1      35.791  23.256  22.675  1.00  0.00    -0.252 OA
BRANCH  72  74
ATOM     74  C   UNL A   1      33.674  22.731  23.744  1.00  0.00     0.103 C 
ATOM     75  C   UNL A   1      32.970  23.019  22.409  1.00  0.00     0.037 C 
ATOM     76  C   UNL A   1      33.321  23.767  24.801  1.00  0.00     0.037 C 
ATOM     77  C   UNL A   1      33.145  24.471  21.954  1.00  0.00     0.120 C 
ATOM     78  C   UNL A   1      33.708  25.141  24.267  1.00  0.00     0.120 C 
ATOM     79  N   UNL A   1      32.920  25.399  23.064  1.00  0.00    -0.342 N 
ATOM     80  C   UNL A   1      31.959  26.389  22.948  1.00  0.00     0.232 C 
ATOM     81  O   UNL A   1      31.313  26.549  21.910  1.00  0.00    -0.274 OA
BRANCH  80  82
ATOM     82  C   UNL A   1      31.707  27.289  24.149  1.00  0.00     0.169 C 
BRANCH  82  83
ATOM     83  S   UNL A   1      32.497  28.939  23.987  1.00  0.00    -0.147 SA
BRANCH  83  84
ATOM     84  C   UNL A   1      31.872  29.745  25.502  1.00  0.00     0.105 C 
BRANCH  84  85
ATOM     85  C   UNL A   1      32.991  30.039  26.460  1.00  0.00    -0.038 A 
ATOM     86  C   UNL A   1      34.077  29.155  26.568  1.00  0.00     0.004 A 
ATOM     87  C   UNL A   1      32.995  31.219  27.213  1.00  0.00     0.004 A 
ATOM     88  C   UNL A   1      35.171  29.474  27.366  1.00  0.00     0.000 A 
ATOM     89  C   UNL A   1      34.086  31.529  28.024  1.00  0.00     0.000 A 
ATOM     90  C   UNL A   1      35.176  30.663  28.091  1.00  0.00     0.000 A 
ENDBRANCH  84  85
ENDBRANCH  83  84
ENDBRANCH  82  83
ENDBRANCH  80  82
ENDBRANCH  72  74
ENDBRANCH  71  72
ENDBRANCH  70  71
ENDBRANCH   1  70
TORSDOF 21
ENDMDL
MODEL 2
REMARK VINA RESULT:      -9.5      5.483      9.620
REMARK SMILES O=C(OCCOCCOC(=O)C1CCN(C(=O)CSCc2ccccc2)CC1)c1ccc(-c2c3nc(c(-c4ccc(S(=O)(=O)[O-])cc4)c4ccc([nH]4)c(-c4ccc(S(=O)(=O)[O-])cc4)c4nc(c(-c5ccc(S(=O)(=O)[O-])cc5)c5ccc2[nH]5)C=C4)C=C3)cc1
REMARK SMILES IDX 7 1 6 2 5 3 4 4 3 5 2 6 1 7 29 8 30 9 88 10 31 11 87 12
REMARK SMILES IDX 32 13 33 14 34 15 81 16 35 17 86 18 80 19 82 20 36 21 85 22
REMARK SMILES IDX 79 23 78 24 37 26 67 27 48 28 66 29 49 30 52 31 65 32 83 33
REMARK SMILES IDX 50 34 51 35 64 37 84 38 53 39 38 40 39 41 47 42 40 43 46 44
REMARK SMILES IDX 41 45 42 46 43 47 44 48 45 49 68 50 69 51 77 52 70 53 76 54
REMARK SMILES IDX 71 55 72 56 73 57 74 58 75 59 54 60 55 61 63 62 56 63 62 64
REMARK SMILES IDX 57 65 58 66 59 67 60 68 61 69 8 70 9 71 10 72 11 73 12 74
REMARK SMILES IDX 13 75 28 76 14 77 27 78 15 79 16 80 17 81 18 82 19 83 20 84
REMARK SMILES IDX 21 85 22 86 26 87 23 88 25 89 24 90
REMARK H PARENT 82 25 52 36
REMARK Flexibility Score: inf
ROOT
ATOM      1  C   UNL A   1      34.400  21.337  26.383  1.00  0.00     0.202 C 
ENDROOT
BRANCH   1   2
ATOM      2  O   UNL A   1      35.612  22.001  26.004  1.00  0.00    -0.374 OA
BRANCH   2   3
ATOM      3  C   UNL A   1      36.615  21.221  25.350  1.00  0.00     0.202 C 
BRANCH   3   4
ATOM      4  C   UNL A   1      37.892  21.988  24.999  1.00  0.00     0.261 C 
BRANCH   4   5
ATOM      5  O   UNL A   1      38.299  22.811  26.096  1.00  0.00    -0.460 OA
BRANCH   5   6
ATOM      6  C   UNL A   1      39.537  22.885  26.637  1.00  0.00     0.338 C 
ATOM      7  O   UNL A   1      40.166  21.838  26.790  1.00  0.00    -0.246 OA
BRANCH   6   8
ATOM      8  C   UNL A   1      40.194  24.165  27.054  1.00  0.00     0.060 A 
ATOM      9  C   UNL A   1      40.077  25.401  26.408  1.00  0.00     0.016 A 
ATOM     10  C   UNL A   1      40.910  24.119  28.259  1.00  0.00     0.016 A 
ATOM     11  C   UNL A   1      40.628  26.556  26.926  1.00  0.00     0.010 A 
ATOM     12  C   UNL A   1      41.495  25.271  28.781  1.00  0.00     0.010 A 
ATOM     13  C   UNL A   1      41.356  26.484  28.100  1.00  0.00    -0.014 A 
BRANCH  13  14
ATOM     14  C   UNL A   1      42.143  27.659  28.468  1.00  0.00     0.031 A 
ATOM     15  C   UNL A   1      41.407  28.782  29.117  1.00  0.00     0.074 A 
ATOM     16  C   UNL A   1      43.473  27.647  28.309  1.00  0.00     0.049 A 
ATOM     17  N   UNL A   1      41.819  29.984  29.395  1.00  0.00    -0.248 NA
ATOM     18  C   UNL A   1      40.011  28.509  29.507  1.00  0.00     0.031 C 
ATOM     19  C   UNL A   1      44.259  26.501  27.843  1.00  0.00     0.029 A 
ATOM     20  N   UNL A   1      44.397  28.629  28.521  1.00  0.00    -0.354 N 
ATOM     21  C   UNL A   1      40.717  30.630  29.938  1.00  0.00     0.074 A 
ATOM     22  C   UNL A   1      39.625  29.686  29.967  1.00  0.00     0.031 C 
ATOM     23  C   UNL A   1      45.551  26.859  27.776  1.00  0.00     0.029 A 
ATOM     24  C   UNL A   1      45.661  28.273  28.119  1.00  0.00     0.049 A 
ATOM     25  H   UNL A   1      44.179  29.501  28.921  1.00  0.00     0.167 HD
ATOM     26  C   UNL A   1      40.636  31.917  30.340  1.00  0.00     0.031 A 
ATOM     27  C   UNL A   1      46.757  29.040  27.980  1.00  0.00     0.031 A 
ATOM     28  C   UNL A   1      41.752  32.814  30.246  1.00  0.00     0.049 A 
ATOM     29  C   UNL A   1      46.626  30.497  28.331  1.00  0.00     0.074 A 
ATOM     30  C   UNL A   1      41.814  34.158  30.551  1.00  0.00     0.029 A 
ATOM     31  N   UNL A   1      43.015  32.438  29.795  1.00  0.00    -0.354 N 
ATOM     32  N   UNL A   1      45.568  31.141  28.773  1.00  0.00    -0.248 NA
ATOM     33  C   UNL A   1      47.817  31.334  28.163  1.00  0.00     0.031 C 
ATOM     34  C   UNL A   1      43.099  34.607  30.226  1.00  0.00     0.029 A 
ATOM     35  C   UNL A   1      43.860  33.528  29.792  1.00  0.00     0.049 A 
ATOM     36  H   UNL A   1      43.267  31.529  29.518  1.00  0.00     0.167 HD
ATOM     37  C   UNL A   1      45.969  32.455  28.963  1.00  0.00     0.074 A 
ATOM     38  C   UNL A   1      47.372  32.512  28.586  1.00  0.00     0.031 C 
ATOM     39  C   UNL A   1      45.256  33.517  29.416  1.00  0.00     0.031 A 
BRANCH  26  40
ATOM     40  C   UNL A   1      39.282  32.411  30.770  1.00  0.00    -0.014 A 
ATOM     41  C   UNL A   1      38.546  33.334  30.003  1.00  0.00     0.010 A 
ATOM     42  C   UNL A   1      38.776  32.006  32.019  1.00  0.00     0.010 A 
ATOM     43  C   UNL A   1      37.372  33.899  30.511  1.00  0.00     0.020 A 
ATOM     44  C   UNL A   1      37.585  32.543  32.516  1.00  0.00     0.020 A 
ATOM     45  C   UNL A   1      36.907  33.509  31.771  1.00  0.00     0.054 A 
BRANCH  45  46
ATOM     46  S   UNL A   1      35.407  34.290  32.428  1.00  0.00     0.124 S 
ATOM     47  O   UNL A   1      34.689  34.640  31.205  1.00  0.00    -0.237 OA
ATOM     48  O   UNL A   1      34.809  33.219  33.220  1.00  0.00    -0.237 OA
ATOM     49  O   UNL A   1      35.915  35.423  33.198  1.00  0.00    -0.744 OA
ENDBRANCH  45  46
ENDBRANCH  26  40
BRANCH  27  50
ATOM     50  C   UNL A   1      48.003  28.446  27.426  1.00  0.00    -0.014 A 
ATOM     51  C   UNL A   1      49.094  28.142  28.256  1.00  0.00     0.010 A 
ATOM     52  C   UNL A   1      48.068  28.097  26.062  1.00  0.00     0.010 A 
ATOM     53  C   UNL A   1      50.220  27.492  27.736  1.00  0.00     0.020 A 
ATOM     54  C   UNL A   1      49.178  27.423  25.544  1.00  0.00     0.020 A 
ATOM     55  C   UNL A   1      50.251  27.127  26.386  1.00  0.00     0.054 A 
BRANCH  55  56
ATOM     56  S   UNL A   1      51.683  26.206  25.757  1.00  0.00     0.124 S 
ATOM     57  O   UNL A   1      51.603  26.462  24.323  1.00  0.00    -0.237 OA
ATOM     58  O   UNL A   1      52.797  26.845  26.454  1.00  0.00    -0.237 OA
ATOM     59  O   UNL A   1      51.412  24.828  26.164  1.00  0.00    -0.744 OA
ENDBRANCH  55  56
ENDBRANCH  27  50
BRANCH  39  60
ATOM     60  C   UNL A   1      45.991  34.815  29.587  1.00  0.00    -0.014 A 
ATOM     61  C   UNL A   1      46.041  35.767  28.557  1.00  0.00     0.010 A 
ATOM     62  C   UNL A   1      46.510  35.132  30.856  1.00  0.00     0.010 A 
ATOM     63  C   UNL A   1      46.596  37.025  28.798  1.00  0.00     0.020 A 
ATOM     64  C   UNL A   1      47.038  36.396  31.106  1.00  0.00     0.020 A 
ATOM     65  C   UNL A   1      47.078  37.334  30.074  1.00  0.00     0.054 A 
BRANCH  65  66
ATOM     66  S   UNL A   1      47.686  39.012  30.391  1.00  0.00     0.124 S 
ATOM     67  O   UNL A   1      47.249  39.724  29.193  1.00  0.00    -0.237 OA
ATOM     68  O   UNL A   1      46.993  39.375  31.625  1.00  0.00    -0.237 OA
ATOM     69  O   UNL A   1      49.131  38.840  30.521  1.00  0.00    -0.744 OA
ENDBRANCH  65  66
ENDBRANCH  39  60
ENDBRANCH  13  14
ENDBRANCH   6   8
ENDBRANCH   5   6
ENDBRANCH   4   5
ENDBRANCH   3   4
ENDBRANCH   2   3
ENDBRANCH   1   2
BRANCH   1  70
ATOM     70  C   UNL A   1      33.820  20.595  25.185  1.00  0.00     0.261 C 
BRANCH  70  71
ATOM     71  O   UNL A   1      32.489  21.080  24.997  1.00  0.00    -0.463 OA
BRANCH  71  72
ATOM     72  C   UNL A   1      32.427  22.170  24.177  1.00  0.00     0.309 C 
ATOM     73  O   UNL A   1      33.310  22.564  23.438  1.00  0.00    -0.252 OA
BRANCH  72  74
ATOM     74  C   UNL A   1      31.060  22.804  24.322  1.00  0.00     0.103 C 
ATOM     75  C   UNL A   1      30.836  23.906  23.275  1.00  0.00     0.037 C 
ATOM     76  C   UNL A   1      30.959  23.348  25.740  1.00  0.00     0.037 C 
ATOM     77  C   UNL A   1      31.691  25.150  23.538  1.00  0.00     0.120 C 
ATOM     78  C   UNL A   1      31.986  24.464  25.895  1.00  0.00     0.120 C 
ATOM     79  N   UNL A   1      31.647  25.526  24.952  1.00  0.00    -0.342 N 
ATOM     80  C   UNL A   1      31.234  26.797  25.311  1.00  0.00     0.232 C 
ATOM     81  O   UNL A   1      30.945  27.650  24.468  1.00  0.00    -0.274 OA
BRANCH  80  82
ATOM     82  C   UNL A   1      31.135  27.129  26.794  1.00  0.00     0.169 C 
BRANCH  82  83
ATOM     83  S   UNL A   1      31.874  28.756  27.215  1.00  0.00    -0.147 SA
BRANCH  83  84
ATOM     84  C   UNL A   1      33.648  28.360  27.033  1.00  0.00     0.105 C 
BRANCH  84  85
ATOM     85  C   UNL A   1      34.504  29.559  27.327  1.00  0.00    -0.038 A 
ATOM     86  C   UNL A   1      33.926  30.837  27.400  1.00  0.00     0.004 A 
ATOM     87  C   UNL A   1      35.871  29.413  27.590  1.00  0.00     0.004 A 
ATOM     88  C   UNL A   1      34.688  31.936  27.784  1.00  0.00     0.000 A 
ATOM     89  C   UNL A   1      36.636  30.519  27.959  1.00  0.00     0.000 A 
ATOM     90  C   UNL A   1      36.041  31.776  28.067  1.00  0.00     0.000 A 
ENDBRANCH  84  85
ENDBRANCH  83  84
ENDBRANCH  82  83
ENDBRANCH  80  82
ENDBRANCH  72  74
ENDBRANCH  71  72
ENDBRANCH  70  71
ENDBRANCH   1  70
TORSDOF 21
ENDMDL
MODEL 3
REMARK VINA RESULT:      -9.5      1.545      8.437
REMARK SMILES O=C(OCCOCCOC(=O)C1CCN(C(=O)CSCc2ccccc2)CC1)c1ccc(-c2c3nc(c(-c4ccc(S(=O)(=O)[O-])cc4)c4ccc([nH]4)c(-c4ccc(S(=O)(=O)[O-])cc4)c4nc(c(-c5ccc(S(=O)(=O)[O-])cc5)c5ccc2[nH]5)C=C4)C=C3)cc1
REMARK SMILES IDX 7 1 6 2 5 3 4 4 3 5 2 6 1 7 29 8 30 9 88 10 31 11 87 12
REMARK SMILES IDX 32 13 33 14 34 15 81 16 35 17 86 18 80 19 82 20 36 21 85 22
REMARK SMILES IDX 79 23 78 24 37 26 67 27 48 28 66 29 49 30 52 31 65 32 83 33
REMARK SMILES IDX 50 34 51 35 64 37 84 38 53 39 38 40 39 41 47 42 40 43 46 44
REMARK SMILES IDX 41 45 42 46 43 47 44 48 45 49 68 50 69 51 77 52 70 53 76 54
REMARK SMILES IDX 71 55 72 56 73 57 74 58 75 59 54 60 55 61 63 62 56 63 62 64
REMARK SMILES IDX 57 65 58 66 59 67 60 68 61 69 8 70 9 71 10 72 11 73 12 74
REMARK SMILES IDX 13 75 28 76 14 77 27 78 15 79 16 80 17 81 18 82 19 83 20 84
REMARK SMILES IDX 21 85 22 86 26 87 23 88 25 89 24 90
REMARK H PARENT 82 25 52 36
REMARK Flexibility Score: inf
ROOT
ATOM      1  C   UNL A   1      39.784  21.374  25.770  1.00  0.00     0.202 C 
ENDROOT
BRANCH   1   2
ATOM      2  O   UNL A   1      40.628  22.194  26.587  1.00  0.00    -0.374 OA
BRANCH   2   3
ATOM      3  C   UNL A   1      42.021  21.875  26.627  1.00  0.00     0.202 C 
BRANCH   3   4
ATOM      4  C   UNL A   1      42.944  22.981  26.113  1.00  0.00     0.261 C 
BRANCH   4   5
ATOM      5  O   UNL A   1      42.192  24.157  25.801  1.00  0.00    -0.460 OA
BRANCH   5   6
ATOM      6  C   UNL A   1      42.598  25.440  25.946  1.00  0.00     0.338 C 
ATOM      7  O   UNL A   1      43.264  25.943  25.041  1.00  0.00    -0.246 OA
BRANCH   6   8
ATOM      8  C   UNL A   1      42.281  26.290  27.138  1.00  0.00     0.060 A 
ATOM      9  C   UNL A   1      42.806  27.559  27.410  1.00  0.00     0.016 A 
ATOM     10  C   UNL A   1      41.290  25.792  27.996  1.00  0.00     0.016 A 
ATOM     11  C   UNL A   1      42.372  28.321  28.476  1.00  0.00     0.010 A 
ATOM     12  C   UNL A   1      40.861  26.538  29.093  1.00  0.00     0.010 A 
ATOM     13  C   UNL A   1      41.416  27.799  29.329  1.00  0.00    -0.014 A 
BRANCH  13  14
ATOM     14  C   UNL A   1      41.183  28.511  30.583  1.00  0.00     0.031 A 
ATOM     15  C   UNL A   1      40.028  29.453  30.614  1.00  0.00     0.074 A 
ATOM     16  C   UNL A   1      41.929  28.227  31.659  1.00  0.00     0.049 A 
ATOM     17  N   UNL A   1      39.695  30.317  31.527  1.00  0.00    -0.248 NA
ATOM     18  C   UNL A   1      39.120  29.412  29.451  1.00  0.00     0.031 C 
ATOM     19  C   UNL A   1      42.956  27.184  31.725  1.00  0.00     0.029 A 
ATOM     20  N   UNL A   1      41.938  28.792  32.901  1.00  0.00    -0.354 N 
ATOM     21  C   UNL A   1      38.575  30.965  31.025  1.00  0.00     0.074 A 
ATOM     22  C   UNL A   1      38.273  30.385  29.738  1.00  0.00     0.031 C 
ATOM     23  C   UNL A   1      43.519  27.206  32.944  1.00  0.00     0.029 A 
ATOM     24  C   UNL A   1      42.943  28.310  33.703  1.00  0.00     0.049 A 
ATOM     25  H   UNL A   1      41.291  29.474  33.192  1.00  0.00     0.167 HD
ATOM     26  C   UNL A   1      37.891  31.982  31.593  1.00  0.00     0.031 A 
ATOM     27  C   UNL A   1      43.383  28.773  34.887  1.00  0.00     0.031 A 
ATOM     28  C   UNL A   1      38.271  32.538  32.861  1.00  0.00     0.049 A 
ATOM     29  C   UNL A   1      42.680  29.973  35.461  1.00  0.00     0.074 A 
ATOM     30  C   UNL A   1      37.722  33.606  33.539  1.00  0.00     0.029 A 
ATOM     31  N   UNL A   1      39.322  32.057  33.636  1.00  0.00    -0.354 N 
ATOM     32  N   UNL A   1      41.668  30.646  34.960  1.00  0.00    -0.248 NA
ATOM     33  C   UNL A   1      43.171  30.485  36.743  1.00  0.00     0.031 C 
ATOM     34  C   UNL A   1      38.482  33.809  34.697  1.00  0.00     0.029 A 
ATOM     35  C   UNL A   1      39.454  32.819  34.779  1.00  0.00     0.049 A 
ATOM     36  H   UNL A   1      39.888  31.287  33.404  1.00  0.00     0.167 HD
ATOM     37  C   UNL A   1      41.379  31.646  35.877  1.00  0.00     0.074 A 
ATOM     38  C   UNL A   1      42.329  31.487  36.965  1.00  0.00     0.031 C 
ATOM     39  C   UNL A   1      40.416  32.601  35.835  1.00  0.00     0.031 A 
BRANCH  26  40
ATOM     40  C   UNL A   1      36.788  32.599  30.777  1.00  0.00    -0.014 A 
ATOM     41  C   UNL A   1      37.050  33.524  29.748  1.00  0.00     0.010 A 
ATOM     42  C   UNL A   1      35.452  32.313  31.112  1.00  0.00     0.010 A 
ATOM     43  C   UNL A   1      35.999  34.204  29.124  1.00  0.00     0.020 A 
ATOM     44  C   UNL A   1      34.398  32.966  30.467  1.00  0.00     0.020 A 
ATOM     45  C   UNL A   1      34.680  33.929  29.498  1.00  0.00     0.054 A 
BRANCH  45  46
ATOM     46  S   UNL A   1      33.337  34.858  28.708  1.00  0.00     0.124 S 
ATOM     47  O   UNL A   1      32.500  35.208  29.853  1.00  0.00    -0.237 OA
ATOM     48  O   UNL A   1      34.043  35.973  28.084  1.00  0.00    -0.237 OA
ATOM     49  O   UNL A   1      32.750  33.896  27.779  1.00  0.00    -0.744 OA
ENDBRANCH  45  46
ENDBRANCH  26  40
BRANCH  27  50
ATOM     50  C   UNL A   1      44.566  28.139  35.529  1.00  0.00    -0.014 A 
ATOM     51  C   UNL A   1      44.420  27.061  36.416  1.00  0.00     0.010 A 
ATOM     52  C   UNL A   1      45.864  28.563  35.181  1.00  0.00     0.010 A 
ATOM     53  C   UNL A   1      45.548  26.412  36.934  1.00  0.00     0.020 A 
ATOM     54  C   UNL A   1      46.993  27.902  35.673  1.00  0.00     0.020 A 
ATOM     55  C   UNL A   1      46.827  26.829  36.551  1.00  0.00     0.054 A 
BRANCH  55  56
ATOM     56  S   UNL A   1      48.270  25.915  37.165  1.00  0.00     0.124 S 
ATOM     57  O   UNL A   1      48.219  26.192  38.597  1.00  0.00    -0.237 OA
ATOM     58  O   UNL A   1      47.961  24.541  36.774  1.00  0.00    -0.237 OA
ATOM     59  O   UNL A   1      49.392  26.520  36.449  1.00  0.00    -0.744 OA
ENDBRANCH  55  56
ENDBRANCH  27  50
BRANCH  39  60
ATOM     60  C   UNL A   1      40.300  33.511  37.024  1.00  0.00    -0.014 A 
ATOM     61  C   UNL A   1      41.151  34.615  37.185  1.00  0.00     0.010 A 
ATOM     62  C   UNL A   1      39.222  33.326  37.910  1.00  0.00     0.010 A 
ATOM     63  C   UNL A   1      40.919  35.529  38.214  1.00  0.00     0.020 A 
ATOM     64  C   UNL A   1      38.972  34.252  38.920  1.00  0.00     0.020 A 
ATOM     65  C   UNL A   1      39.824  35.348  39.065  1.00  0.00     0.054 A 
BRANCH  65  66
ATOM     66  S   UNL A   1      39.478  36.611  40.319  1.00  0.00     0.124 S 
ATOM     67  O   UNL A   1      38.528  37.475  39.624  1.00  0.00    -0.237 OA
ATOM     68  O   UNL A   1      38.926  35.825  41.419  1.00  0.00    -0.237 OA
ATOM     69  O   UNL A   1      40.786  37.207  40.581  1.00  0.00    -0.744 OA
ENDBRANCH  65  66
ENDBRANCH  39  60
ENDBRANCH  13  14
ENDBRANCH   6   8
ENDBRANCH   5   6
ENDBRANCH   4   5
ENDBRANCH   3   4
ENDBRANCH   2   3
ENDBRANCH   1   2
BRANCH   1  70
ATOM     70  C   UNL A   1      38.325  21.763  25.979  1.00  0.00     0.261 C 
BRANCH  70  71
ATOM     71  O   UNL A   1      37.741  21.909  24.684  1.00  0.00    -0.463 OA
BRANCH  71  72
ATOM     72  C   UNL A   1      36.379  21.818  24.697  1.00  0.00     0.309 C 
ATOM     73  O   UNL A   1      35.728  20.790  24.754  1.00  0.00    -0.252 OA
BRANCH  72  74
ATOM     74  C   UNL A   1      35.802  23.216  24.646  1.00  0.00     0.103 C 
ATOM     75  C   UNL A   1      35.519  23.760  26.056  1.00  0.00     0.037 C 
ATOM     76  C   UNL A   1      34.536  23.156  23.803  1.00  0.00     0.037 C 
ATOM     77  C   UNL A   1      34.341  23.054  26.733  1.00  0.00     0.120 C 
ATOM     78  C   UNL A   1      33.521  22.283  24.531  1.00  0.00     0.120 C 
ATOM     79  N   UNL A   1      33.212  22.916  25.811  1.00  0.00    -0.342 N 
ATOM     80  C   UNL A   1      31.977  23.437  26.154  1.00  0.00     0.232 C 
ATOM     81  O   UNL A   1      31.779  23.976  27.246  1.00  0.00    -0.274 OA
BRANCH  80  82
ATOM     82  C   UNL A   1      30.846  23.335  25.140  1.00  0.00     0.169 C 
BRANCH  82  83
ATOM     83  S   UNL A   1      30.816  24.739  23.956  1.00  0.00    -0.147 SA
BRANCH  83  84
ATOM     84  C   UNL A   1      29.824  25.941  24.909  1.00  0.00     0.105 C 
BRANCH  84  85
ATOM     85  C   UNL A   1      30.604  27.196  25.178  1.00  0.00    -0.038 A 
ATOM     86  C   UNL A   1      31.347  27.324  26.363  1.00  0.00     0.004 A 
ATOM     87  C   UNL A   1      30.650  28.225  24.231  1.00  0.00     0.004 A 
ATOM     88  C   UNL A   1      32.163  28.431  26.569  1.00  0.00     0.000 A 
ATOM     89  C   UNL A   1      31.457  29.341  24.447  1.00  0.00     0.000 A 
ATOM     90  C   UNL A   1      32.220  29.438  25.609  1.00  0.00     0.000 A 
ENDBRANCH  84  85
ENDBRANCH  83  84
ENDBRANCH  82  83
ENDBRANCH  80  82
ENDBRANCH  72  74
ENDBRANCH  71  72
ENDBRANCH  70  71
ENDBRANCH   1  70
TORSDOF 21
ENDMDL
