MODEL 1
REMARK VINA RESULT:      -9.2      0.000      0.000
REMARK SMILES CCN1CC(=O)N(C[C@@H]([NH3+])C(=O)OCCOCCOC(=O)c2ccc(-c3c4nc(c(-c5ccc(S(=O)(=O)[O-])cc5)c5ccc([nH]5)c(-c5ccc(S(=O)(=O)[O-])cc5)c5nc(c(-c6ccc(S(=O)(=O)[O-])cc6)c6ccc3[nH]6)C=C5)C=C4)cc2)CC1=O
REMARK SMILES IDX 16 1 15 2 14 3 13 4 11 5 12 6 9 7 8 8 7 9 3 10 4 11 83 12
REMARK SMILES IDX 5 13 82 14 84 15 6 16 2 17 1 18 10 19 17 23 18 24 19 25
REMARK SMILES IDX 20 26 21 27 22 28 23 29 81 30 24 31 80 32 25 33 26 34 27 35
REMARK SMILES IDX 74 36 28 37 79 38 73 39 75 40 29 41 78 42 72 43 71 44 30 46
REMARK SMILES IDX 60 47 41 48 59 49 42 50 45 51 58 52 76 53 43 54 44 55 57 57
REMARK SMILES IDX 77 58 46 59 31 60 32 61 40 62 33 63 39 64 34 65 35 66 36 67
REMARK SMILES IDX 37 68 38 69 61 70 62 71 70 72 63 73 69 74 64 75 65 76 66 77
REMARK SMILES IDX 67 78 68 79 47 80 48 81 56 82 49 83 55 84 50 85 51 86 52 87
REMARK SMILES IDX 53 88 54 89
REMARK H PARENT 10 20 10 21 10 22 75 45 45 56
REMARK Flexibility Score: inf
ROOT
ATOM      1  O   UNL A   1      35.140  33.465  27.700  1.00  0.00    -0.374 OA
ENDROOT
BRANCH   1   2
ATOM      2  C   UNL A   1      33.754  33.619  28.004  1.00  0.00     0.202 C 
BRANCH   2   3
ATOM      3  C   UNL A   1      33.319  34.997  28.507  1.00  0.00     0.261 C 
BRANCH   3   4
ATOM      4  O   UNL A   1      34.031  35.381  29.695  1.00  0.00    -0.459 OA
BRANCH   4   5
ATOM      5  C   UNL A   1      33.256  35.764  30.741  1.00  0.00     0.366 C 
ATOM      6  O   UNL A   1      32.350  36.593  30.682  1.00  0.00    -0.245 OA
BRANCH   5   7
ATOM      7  C   UNL A   1      33.621  35.086  32.072  1.00  0.00     0.311 C 
BRANCH   7   8
ATOM      8  C   UNL A   1      34.906  35.619  32.741  1.00  0.00     0.197 C 
BRANCH   8   9
ATOM      9  N   UNL A   1      35.818  34.566  33.218  1.00  0.00    -0.325 N 
ATOM     10  N   UNL A   1      37.816  33.080  34.463  1.00  0.00    -0.332 N 
ATOM     11  C   UNL A   1      37.663  32.950  33.012  1.00  0.00     0.219 C 
ATOM     12  C   UNL A   1      36.708  33.402  35.242  1.00  0.00     0.242 C 
ATOM     13  C   UNL A   1      36.796  34.047  32.380  1.00  0.00     0.242 C 
ATOM     14  C   UNL A   1      35.482  33.850  34.448  1.00  0.00     0.220 C 
ATOM     15  O   UNL A   1      36.657  33.209  36.455  1.00  0.00    -0.273 OA
ATOM     16  O   UNL A   1      36.880  34.338  31.188  1.00  0.00    -0.273 OA
BRANCH  10  17
ATOM     17  C   UNL A   1      39.050  32.631  35.101  1.00  0.00     0.116 C 
ATOM     18  C   UNL A   1      40.197  32.420  34.123  1.00  0.00     0.027 C 
ENDBRANCH  10  17
ENDBRANCH   8   9
ENDBRANCH   7   8
BRANCH   7  19
ATOM     19  N   UNL A   1      32.431  35.173  32.965  1.00  0.00    -0.344 N 
ATOM     20  H   UNL A   1      32.697  34.908  33.913  1.00  0.00     0.345 HD
ATOM     21  H   UNL A   1      31.705  34.541  32.627  1.00  0.00     0.345 HD
ATOM     22  H   UNL A   1      32.077  36.129  32.967  1.00  0.00     0.345 HD
ENDBRANCH   7  19
ENDBRANCH   5   7
ENDBRANCH   4   5
ENDBRANCH   3   4
ENDBRANCH   2   3
ENDBRANCH   1   2
BRANCH   1  23
ATOM     23  C   UNL A   1      35.845  32.403  28.344  1.00  0.00     0.202 C 
BRANCH  23  24
ATOM     24  C   UNL A   1      35.081  31.092  28.569  1.00  0.00     0.261 C 
BRANCH  24  25
ATOM     25  O   UNL A   1      35.954  29.955  28.718  1.00  0.00    -0.460 OA
BRANCH  25  26
ATOM     26  C   UNL A   1      36.663  29.936  29.871  1.00  0.00     0.338 C 
ATOM     27  O   UNL A   1      36.220  29.771  31.004  1.00  0.00    -0.246 OA
BRANCH  26  28
ATOM     28  C   UNL A   1      38.111  29.962  29.600  1.00  0.00     0.060 A 
ATOM     29  C   UNL A   1      38.516  29.831  28.265  1.00  0.00     0.016 A 
ATOM     30  C   UNL A   1      39.061  30.014  30.624  1.00  0.00     0.016 A 
ATOM     31  C   UNL A   1      39.866  29.688  27.955  1.00  0.00     0.010 A 
ATOM     32  C   UNL A   1      40.419  29.865  30.308  1.00  0.00     0.010 A 
ATOM     33  C   UNL A   1      40.823  29.659  28.977  1.00  0.00    -0.014 A 
BRANCH  33  34
ATOM     34  C   UNL A   1      42.217  29.270  28.644  1.00  0.00     0.031 A 
ATOM     35  C   UNL A   1      42.506  27.848  28.239  1.00  0.00     0.074 A 
ATOM     36  C   UNL A   1      43.201  30.187  28.626  1.00  0.00     0.049 A 
ATOM     37  N   UNL A   1      43.632  27.315  27.834  1.00  0.00    -0.248 NA
ATOM     38  C   UNL A   1      41.378  26.905  28.291  1.00  0.00     0.031 C 
ATOM     39  C   UNL A   1      43.043  31.602  28.959  1.00  0.00     0.029 A 
ATOM     40  N   UNL A   1      44.528  30.063  28.298  1.00  0.00    -0.354 N 
ATOM     41  C   UNL A   1      43.348  25.979  27.580  1.00  0.00     0.074 A 
ATOM     42  C   UNL A   1      41.954  25.773  27.911  1.00  0.00     0.031 C 
ATOM     43  C   UNL A   1      44.228  32.219  28.807  1.00  0.00     0.029 A 
ATOM     44  C   UNL A   1      45.230  31.240  28.389  1.00  0.00     0.049 A 
ATOM     45  H   UNL A   1      44.938  29.211  28.025  1.00  0.00     0.167 HD
ATOM     46  C   UNL A   1      44.167  25.009  27.104  1.00  0.00     0.031 A 
ATOM     47  C   UNL A   1      46.533  31.501  28.162  1.00  0.00     0.031 A 
ATOM     48  C   UNL A   1      45.559  25.204  26.794  1.00  0.00     0.049 A 
ATOM     49  C   UNL A   1      47.441  30.394  27.697  1.00  0.00     0.074 A 
ATOM     50  C   UNL A   1      46.470  24.285  26.302  1.00  0.00     0.029 A 
ATOM     51  N   UNL A   1      46.245  26.398  26.954  1.00  0.00    -0.354 N 
ATOM     52  N   UNL A   1      47.149  29.140  27.441  1.00  0.00    -0.248 NA
ATOM     53  C   UNL A   1      48.851  30.743  27.479  1.00  0.00     0.031 C 
ATOM     54  C   UNL A   1      47.719  24.911  26.213  1.00  0.00     0.029 A 
ATOM     55  C   UNL A   1      47.573  26.235  26.594  1.00  0.00     0.049 A 
ATOM     56  H   UNL A   1      45.847  27.239  27.276  1.00  0.00     0.167 HD
ATOM     57  C   UNL A   1      48.335  28.557  27.008  1.00  0.00     0.074 A 
ATOM     58  C   UNL A   1      49.343  29.599  27.022  1.00  0.00     0.031 C 
ATOM     59  C   UNL A   1      48.570  27.275  26.629  1.00  0.00     0.031 A 
BRANCH  46  60
ATOM     60  C   UNL A   1      43.576  23.635  26.926  1.00  0.00    -0.014 A 
ATOM     61  C   UNL A   1      43.247  22.834  28.035  1.00  0.00     0.010 A 
ATOM     62  C   UNL A   1      43.333  23.143  25.631  1.00  0.00     0.010 A 
ATOM     63  C   UNL A   1      42.732  21.547  27.851  1.00  0.00     0.020 A 
ATOM     64  C   UNL A   1      42.794  21.868  25.443  1.00  0.00     0.020 A 
ATOM     65  C   UNL A   1      42.516  21.069  26.555  1.00  0.00     0.054 A 
BRANCH  65  66
ATOM     66  S   UNL A   1      41.848  19.397  26.341  1.00  0.00     0.124 S 
ATOM     67  O   UNL A   1      42.489  18.974  25.098  1.00  0.00    -0.237 OA
ATOM     68  O   UNL A   1      42.305  18.710  27.547  1.00  0.00    -0.237 OA
ATOM     69  O   UNL A   1      40.405  19.607  26.258  1.00  0.00    -0.744 OA
ENDBRANCH  65  66
ENDBRANCH  46  60
BRANCH  47  70
ATOM     70  C   UNL A   1      47.057  32.878  28.369  1.00  0.00    -0.014 A 
ATOM     71  C   UNL A   1      47.621  33.254  29.601  1.00  0.00     0.010 A 
ATOM     72  C   UNL A   1      47.006  33.818  27.324  1.00  0.00     0.010 A 
ATOM     73  C   UNL A   1      48.116  34.548  29.786  1.00  0.00     0.020 A 
ATOM     74  C   UNL A   1      47.521  35.106  27.497  1.00  0.00     0.020 A 
ATOM     75  C   UNL A   1      48.067  35.465  28.731  1.00  0.00     0.054 A 
BRANCH  75  76
ATOM     76  S   UNL A   1      48.777  37.118  28.971  1.00  0.00     0.124 S 
ATOM     77  O   UNL A   1      47.613  37.890  29.393  1.00  0.00    -0.237 OA
ATOM     78  O   UNL A   1      49.787  36.881  30.000  1.00  0.00    -0.237 OA
ATOM     79  O   UNL A   1      49.311  37.454  27.653  1.00  0.00    -0.744 OA
ENDBRANCH  75  76
ENDBRANCH  47  70
BRANCH  59  80
ATOM     80  C   UNL A   1      49.967  26.937  26.177  1.00  0.00    -0.014 A 
ATOM     81  C   UNL A   1      50.923  26.432  27.076  1.00  0.00     0.010 A 
ATOM     82  C   UNL A   1      50.321  27.110  24.826  1.00  0.00     0.010 A 
ATOM     83  C   UNL A   1      52.223  26.152  26.642  1.00  0.00     0.020 A 
ATOM     84  C   UNL A   1      51.612  26.806  24.383  1.00  0.00     0.020 A 
ATOM     85  C   UNL A   1      52.561  26.349  25.300  1.00  0.00     0.054 A 
BRANCH  85  86
ATOM     86  S   UNL A   1      54.250  25.972  24.757  1.00  0.00     0.124 S 
ATOM     87  O   UNL A   1      55.049  26.796  25.661  1.00  0.00    -0.237 OA
ATOM     88  O   UNL A   1      54.345  24.530  24.972  1.00  0.00    -0.237 OA
ATOM     89  O   UNL A   1      54.264  26.389  23.357  1.00  0.00    -0.744 OA
ENDBRANCH  85  86
ENDBRANCH  59  80
ENDBRANCH  33  34
ENDBRANCH  26  28
ENDBRANCH  25  26
ENDBRANCH  24  25
ENDBRANCH  23  24
ENDBRANCH   1  23
TORSDOF 21
ENDMDL
MODEL 2
REMARK VINA RESULT:      -9.2      3.976     10.060
REMARK SMILES CCN1CC(=O)N(C[C@@H]([NH3+])C(=O)OCCOCCOC(=O)c2ccc(-c3c4nc(c(-c5ccc(S(=O)(=O)[O-])cc5)c5ccc([nH]5)c(-c5ccc(S(=O)(=O)[O-])cc5)c5nc(c(-c6ccc(S(=O)(=O)[O-])cc6)c6ccc3[nH]6)C=C5)C=C4)cc2)CC1=O
REMARK SMILES IDX 16 1 15 2 14 3 13 4 11 5 12 6 9 7 8 8 7 9 3 10 4 11 83 12
REMARK SMILES IDX 5 13 82 14 84 15 6 16 2 17 1 18 10 19 17 23 18 24 19 25
REMARK SMILES IDX 20 26 21 27 22 28 23 29 81 30 24 31 80 32 25 33 26 34 27 35
REMARK SMILES IDX 74 36 28 37 79 38 73 39 75 40 29 41 78 42 72 43 71 44 30 46
REMARK SMILES IDX 60 47 41 48 59 49 42 50 45 51 58 52 76 53 43 54 44 55 57 57
REMARK SMILES IDX 77 58 46 59 31 60 32 61 40 62 33 63 39 64 34 65 35 66 36 67
REMARK SMILES IDX 37 68 38 69 61 70 62 71 70 72 63 73 69 74 64 75 65 76 66 77
REMARK SMILES IDX 67 78 68 79 47 80 48 81 56 82 49 83 55 84 50 85 51 86 52 87
REMARK SMILES IDX 53 88 54 89
REMARK H PARENT 10 20 10 21 10 22 75 45 45 56
REMARK Flexibility Score: inf
ROOT
ATOM      1  O   UNL A   1      34.299  30.781  27.207  1.00  0.00    -0.374 OA
ENDROOT
BRANCH   1   2
ATOM      2  C   UNL A   1      33.220  29.845  27.205  1.00  0.00     0.202 C 
BRANCH   2   3
ATOM      3  C   UNL A   1      33.183  28.857  26.038  1.00  0.00     0.261 C 
BRANCH   3   4
ATOM      4  O   UNL A   1      32.960  29.520  24.782  1.00  0.00    -0.459 OA
BRANCH   4   5
ATOM      5  C   UNL A   1      31.807  29.194  24.147  1.00  0.00     0.366 C 
ATOM      6  O   UNL A   1      30.683  29.267  24.642  1.00  0.00    -0.245 OA
BRANCH   5   7
ATOM      7  C   UNL A   1      32.006  28.674  22.714  1.00  0.00     0.311 C 
BRANCH   7   8
ATOM      8  C   UNL A   1      31.396  27.283  22.437  1.00  0.00     0.197 C 
BRANCH   8   9
ATOM      9  N   UNL A   1      32.236  26.158  22.881  1.00  0.00    -0.325 N 
ATOM     10  N   UNL A   1      34.194  24.519  23.989  1.00  0.00    -0.332 N 
ATOM     11  C   UNL A   1      33.845  24.320  22.581  1.00  0.00     0.219 C 
ATOM     12  C   UNL A   1      33.237  25.020  24.868  1.00  0.00     0.242 C 
ATOM     13  C   UNL A   1      33.035  25.473  21.975  1.00  0.00     0.242 C 
ATOM     14  C   UNL A   1      31.979  25.565  24.193  1.00  0.00     0.220 C 
ATOM     15  O   UNL A   1      33.318  24.910  26.089  1.00  0.00    -0.273 OA
ATOM     16  O   UNL A   1      33.000  25.678  20.763  1.00  0.00    -0.273 OA
BRANCH  10  17
ATOM     17  C   UNL A   1      35.440  23.963  24.509  1.00  0.00     0.116 C 
ATOM     18  C   UNL A   1      35.598  22.473  24.240  1.00  0.00     0.027 C 
ENDBRANCH  10  17
ENDBRANCH   8   9
ENDBRANCH   7   8
BRANCH   7  19
ATOM     19  N   UNL A   1      31.500  29.718  21.779  1.00  0.00    -0.344 N 
ATOM     20  H   UNL A   1      32.251  30.007  21.152  1.00  0.00     0.345 HD
ATOM     21  H   UNL A   1      31.173  30.524  22.313  1.00  0.00     0.345 HD
ATOM     22  H   UNL A   1      30.728  29.338  21.231  1.00  0.00     0.345 HD
ENDBRANCH   7  19
ENDBRANCH   5   7
ENDBRANCH   4   5
ENDBRANCH   3   4
ENDBRANCH   2   3
ENDBRANCH   1   2
BRANCH   1  23
ATOM     23  C   UNL A   1      34.365  31.712  28.288  1.00  0.00     0.202 C 
BRANCH  23  24
ATOM     24  C   UNL A   1      35.514  31.539  29.290  1.00  0.00     0.261 C 
BRANCH  24  25
ATOM     25  O   UNL A   1      36.641  30.838  28.732  1.00  0.00    -0.460 OA
BRANCH  25  26
ATOM     26  C   UNL A   1      37.125  29.839  29.508  1.00  0.00     0.338 C 
ATOM     27  O   UNL A   1      36.552  29.294  30.446  1.00  0.00    -0.246 OA
BRANCH  26  28
ATOM     28  C   UNL A   1      38.402  29.331  28.977  1.00  0.00     0.060 A 
ATOM     29  C   UNL A   1      39.368  28.926  29.908  1.00  0.00     0.016 A 
ATOM     30  C   UNL A   1      38.698  29.339  27.611  1.00  0.00     0.016 A 
ATOM     31  C   UNL A   1      40.650  28.587  29.483  1.00  0.00     0.010 A 
ATOM     32  C   UNL A   1      39.991  29.002  27.187  1.00  0.00     0.010 A 
ATOM     33  C   UNL A   1      40.983  28.665  28.125  1.00  0.00    -0.014 A 
BRANCH  33  34
ATOM     34  C   UNL A   1      42.408  28.532  27.728  1.00  0.00     0.031 A 
ATOM     35  C   UNL A   1      43.348  29.686  27.958  1.00  0.00     0.074 A 
ATOM     36  C   UNL A   1      42.880  27.370  27.239  1.00  0.00     0.049 A 
ATOM     37  N   UNL A   1      44.640  29.755  27.759  1.00  0.00    -0.248 NA
ATOM     38  C   UNL A   1      42.754  30.923  28.488  1.00  0.00     0.031 C 
ATOM     39  C   UNL A   1      42.082  26.166  27.006  1.00  0.00     0.029 A 
ATOM     40  N   UNL A   1      44.150  27.010  26.866  1.00  0.00    -0.354 N 
ATOM     41  C   UNL A   1      45.014  31.038  28.141  1.00  0.00     0.074 A 
ATOM     42  C   UNL A   1      43.807  31.725  28.550  1.00  0.00     0.031 C 
ATOM     43  C   UNL A   1      42.887  25.196  26.540  1.00  0.00     0.029 A 
ATOM     44  C   UNL A   1      44.248  25.715  26.420  1.00  0.00     0.049 A 
ATOM     45  H   UNL A   1      44.920  27.623  26.914  1.00  0.00     0.167 HD
ATOM     46  C   UNL A   1      46.250  31.594  28.163  1.00  0.00     0.031 A 
ATOM     47  C   UNL A   1      45.313  25.025  25.966  1.00  0.00     0.031 A 
ATOM     48  C   UNL A   1      47.449  30.921  27.738  1.00  0.00     0.049 A 
ATOM     49  C   UNL A   1      46.666  25.684  25.936  1.00  0.00     0.074 A 
ATOM     50  C   UNL A   1      48.748  31.399  27.727  1.00  0.00     0.029 A 
ATOM     51  N   UNL A   1      47.496  29.628  27.239  1.00  0.00    -0.354 N 
ATOM     52  N   UNL A   1      47.005  26.891  26.323  1.00  0.00    -0.248 NA
ATOM     53  C   UNL A   1      47.782  24.880  25.419  1.00  0.00     0.031 C 
ATOM     54  C   UNL A   1      49.573  30.412  27.174  1.00  0.00     0.029 A 
ATOM     55  C   UNL A   1      48.797  29.299  26.894  1.00  0.00     0.049 A 
ATOM     56  H   UNL A   1      46.719  29.031  27.144  1.00  0.00     0.167 HD
ATOM     57  C   UNL A   1      48.378  26.982  26.119  1.00  0.00     0.074 A 
ATOM     58  C   UNL A   1      48.807  25.703  25.589  1.00  0.00     0.031 C 
ATOM     59  C   UNL A   1      49.210  28.029  26.352  1.00  0.00     0.031 A 
BRANCH  46  60
ATOM     60  C   UNL A   1      46.354  33.021  28.634  1.00  0.00    -0.014 A 
ATOM     61  C   UNL A   1      46.227  34.096  27.735  1.00  0.00     0.010 A 
ATOM     62  C   UNL A   1      46.571  33.292  29.997  1.00  0.00     0.010 A 
ATOM     63  C   UNL A   1      46.361  35.413  28.183  1.00  0.00     0.020 A 
ATOM     64  C   UNL A   1      46.680  34.608  30.453  1.00  0.00     0.020 A 
ATOM     65  C   UNL A   1      46.595  35.661  29.539  1.00  0.00     0.054 A 
BRANCH  65  66
ATOM     66  S   UNL A   1      46.767  37.378  30.096  1.00  0.00     0.124 S 
ATOM     67  O   UNL A   1      48.034  37.768  29.481  1.00  0.00    -0.237 OA
ATOM     68  O   UNL A   1      45.577  38.018  29.541  1.00  0.00    -0.237 OA
ATOM     69  O   UNL A   1      46.789  37.269  31.553  1.00  0.00    -0.744 OA
ENDBRANCH  65  66
ENDBRANCH  46  60
BRANCH  47  70
ATOM     70  C   UNL A   1      45.140  23.621  25.503  1.00  0.00    -0.014 A 
ATOM     71  C   UNL A   1      44.792  23.342  24.170  1.00  0.00     0.010 A 
ATOM     72  C   UNL A   1      45.338  22.553  26.397  1.00  0.00     0.010 A 
ATOM     73  C   UNL A   1      44.637  22.020  23.742  1.00  0.00     0.020 A 
ATOM     74  C   UNL A   1      45.207  21.230  25.967  1.00  0.00     0.020 A 
ATOM     75  C   UNL A   1      44.850  20.972  24.642  1.00  0.00     0.054 A 
BRANCH  75  76
ATOM     76  S   UNL A   1      44.710  19.262  24.049  1.00  0.00     0.124 S 
ATOM     77  O   UNL A   1      43.552  18.776  24.793  1.00  0.00    -0.237 OA
ATOM     78  O   UNL A   1      44.509  19.443  22.613  1.00  0.00    -0.237 OA
ATOM     79  O   UNL A   1      45.991  18.667  24.420  1.00  0.00    -0.744 OA
ENDBRANCH  75  76
ENDBRANCH  47  70
BRANCH  59  80
ATOM     80  C   UNL A   1      50.672  27.823  26.056  1.00  0.00    -0.014 A 
ATOM     81  C   UNL A   1      51.210  28.123  24.792  1.00  0.00     0.010 A 
ATOM     82  C   UNL A   1      51.525  27.341  27.066  1.00  0.00     0.010 A 
ATOM     83  C   UNL A   1      52.565  27.897  24.528  1.00  0.00     0.020 A 
ATOM     84  C   UNL A   1      52.885  27.139  26.814  1.00  0.00     0.020 A 
ATOM     85  C   UNL A   1      53.392  27.398  25.539  1.00  0.00     0.054 A 
BRANCH  85  86
ATOM     86  S   UNL A   1      55.148  27.120  25.179  1.00  0.00     0.124 S 
ATOM     87  O   UNL A   1      55.502  26.101  26.164  1.00  0.00    -0.237 OA
ATOM     88  O   UNL A   1      55.125  26.668  23.789  1.00  0.00    -0.237 OA
ATOM     89  O   UNL A   1      55.756  28.431  25.391  1.00  0.00    -0.744 OA
ENDBRANCH  85  86
ENDBRANCH  59  80
ENDBRANCH  33  34
ENDBRANCH  26  28
ENDBRANCH  25  26
ENDBRANCH  24  25
ENDBRANCH  23  24
ENDBRANCH   1  23
TORSDOF 21
ENDMDL
MODEL 3
REMARK VINA RESULT:      -9.0      5.734     14.010
REMARK SMILES CCN1CC(=O)N(C[C@@H]([NH3+])C(=O)OCCOCCOC(=O)c2ccc(-c3c4nc(c(-c5ccc(S(=O)(=O)[O-])cc5)c5ccc([nH]5)c(-c5ccc(S(=O)(=O)[O-])cc5)c5nc(c(-c6ccc(S(=O)(=O)[O-])cc6)c6ccc3[nH]6)C=C5)C=C4)cc2)CC1=O
REMARK SMILES IDX 16 1 15 2 14 3 13 4 11 5 12 6 9 7 8 8 7 9 3 10 4 11 83 12
REMARK SMILES IDX 5 13 82 14 84 15 6 16 2 17 1 18 10 19 17 23 18 24 19 25
REMARK SMILES IDX 20 26 21 27 22 28 23 29 81 30 24 31 80 32 25 33 26 34 27 35
REMARK SMILES IDX 74 36 28 37 79 38 73 39 75 40 29 41 78 42 72 43 71 44 30 46
REMARK SMILES IDX 60 47 41 48 59 49 42 50 45 51 58 52 76 53 43 54 44 55 57 57
REMARK SMILES IDX 77 58 46 59 31 60 32 61 40 62 33 63 39 64 34 65 35 66 36 67
REMARK SMILES IDX 37 68 38 69 61 70 62 71 70 72 63 73 69 74 64 75 65 76 66 77
REMARK SMILES IDX 67 78 68 79 47 80 48 81 56 82 49 83 55 84 50 85 51 86 52 87
REMARK SMILES IDX 53 88 54 89
REMARK H PARENT 10 20 10 21 10 22 75 45 45 56
REMARK Flexibility Score: inf
ROOT
ATOM      1  O   UNL A   1      46.114  22.721  26.331  1.00  0.00    -0.374 OA
ENDROOT
BRANCH   1   2
ATOM      2  C   UNL A   1      46.040  22.195  25.005  1.00  0.00     0.202 C 
BRANCH   2   3
ATOM      3  C   UNL A   1      45.765  20.695  24.884  1.00  0.00     0.261 C 
BRANCH   3   4
ATOM      4  O   UNL A   1      44.361  20.400  24.975  1.00  0.00    -0.459 OA
BRANCH   4   5
ATOM      5  C   UNL A   1      44.054  19.181  25.482  1.00  0.00     0.366 C 
ATOM      6  O   UNL A   1      44.605  18.127  25.170  1.00  0.00    -0.245 OA
BRANCH   5   7
ATOM      7  C   UNL A   1      42.898  19.196  26.496  1.00  0.00     0.311 C 
BRANCH   7   8
ATOM      8  C   UNL A   1      41.486  19.212  25.871  1.00  0.00     0.197 C 
BRANCH   8   9
ATOM      9  N   UNL A   1      40.669  20.375  26.259  1.00  0.00    -0.325 N 
ATOM     10  N   UNL A   1      39.270  22.779  26.373  1.00  0.00    -0.332 N 
ATOM     11  C   UNL A   1      40.197  22.470  27.463  1.00  0.00     0.219 C 
ATOM     12  C   UNL A   1      38.657  21.738  25.679  1.00  0.00     0.242 C 
ATOM     13  C   UNL A   1      41.165  21.322  27.146  1.00  0.00     0.242 C 
ATOM     14  C   UNL A   1      39.236  20.354  25.969  1.00  0.00     0.220 C 
ATOM     15  O   UNL A   1      37.643  21.884  24.999  1.00  0.00    -0.273 OA
ATOM     16  O   UNL A   1      42.236  21.190  27.737  1.00  0.00    -0.273 OA
BRANCH  10  17
ATOM     17  C   UNL A   1      38.804  24.150  26.189  1.00  0.00     0.116 C 
ATOM     18  C   UNL A   1      38.634  24.913  27.495  1.00  0.00     0.027 C 
ENDBRANCH  10  17
ENDBRANCH   8   9
ENDBRANCH   7   8
BRANCH   7  19
ATOM     19  N   UNL A   1      43.098  18.052  27.429  1.00  0.00    -0.344 N 
ATOM     20  H   UNL A   1      44.082  17.784  27.433  1.00  0.00     0.345 HD
ATOM     21  H   UNL A   1      42.531  17.260  27.124  1.00  0.00     0.345 HD
ATOM     22  H   UNL A   1      42.818  18.328  28.371  1.00  0.00     0.345 HD
ENDBRANCH   7  19
ENDBRANCH   5   7
ENDBRANCH   4   5
ENDBRANCH   3   4
ENDBRANCH   2   3
ENDBRANCH   1   2
BRANCH   1  23
ATOM     23  C   UNL A   1      45.261  23.819  26.656  1.00  0.00     0.202 C 
BRANCH  23  24
ATOM     24  C   UNL A   1      44.250  24.260  25.590  1.00  0.00     0.261 C 
BRANCH  24  25
ATOM     25  O   UNL A   1      42.908  24.365  26.103  1.00  0.00    -0.460 OA
BRANCH  25  26
ATOM     26  C   UNL A   1      42.340  25.584  25.950  1.00  0.00     0.338 C 
ATOM     27  O   UNL A   1      41.746  26.000  24.959  1.00  0.00    -0.246 OA
BRANCH  26  28
ATOM     28  C   UNL A   1      42.355  26.336  27.217  1.00  0.00     0.060 A 
ATOM     29  C   UNL A   1      41.493  25.901  28.232  1.00  0.00     0.016 A 
ATOM     30  C   UNL A   1      43.116  27.497  27.386  1.00  0.00     0.016 A 
ATOM     31  C   UNL A   1      41.341  26.656  29.392  1.00  0.00     0.010 A 
ATOM     32  C   UNL A   1      42.956  28.257  28.553  1.00  0.00     0.010 A 
ATOM     33  C   UNL A   1      42.038  27.862  29.541  1.00  0.00    -0.014 A 
BRANCH  33  34
ATOM     34  C   UNL A   1      41.681  28.761  30.669  1.00  0.00     0.031 A 
ATOM     35  C   UNL A   1      42.553  28.782  31.897  1.00  0.00     0.074 A 
ATOM     36  C   UNL A   1      40.638  29.605  30.571  1.00  0.00     0.049 A 
ATOM     37  N   UNL A   1      42.469  29.544  32.959  1.00  0.00    -0.248 NA
ATOM     38  C   UNL A   1      43.669  27.824  31.930  1.00  0.00     0.031 C 
ATOM     39  C   UNL A   1      39.740  29.710  29.421  1.00  0.00     0.029 A 
ATOM     40  N   UNL A   1      40.169  30.547  31.452  1.00  0.00    -0.354 N 
ATOM     41  C   UNL A   1      43.520  29.160  33.783  1.00  0.00     0.074 A 
ATOM     42  C   UNL A   1      44.206  28.074  33.115  1.00  0.00     0.031 C 
ATOM     43  C   UNL A   1      38.834  30.673  29.663  1.00  0.00     0.029 A 
ATOM     44  C   UNL A   1      39.073  31.235  30.991  1.00  0.00     0.049 A 
ATOM     45  H   UNL A   1      40.578  30.713  32.332  1.00  0.00     0.167 HD
ATOM     46  C   UNL A   1      43.892  29.670  34.983  1.00  0.00     0.031 A 
ATOM     47  C   UNL A   1      38.343  32.207  31.573  1.00  0.00     0.031 A 
ATOM     48  C   UNL A   1      43.201  30.734  35.660  1.00  0.00     0.049 A 
ATOM     49  C   UNL A   1      38.734  32.714  32.935  1.00  0.00     0.074 A 
ATOM     50  C   UNL A   1      43.503  31.323  36.876  1.00  0.00     0.029 A 
ATOM     51  N   UNL A   1      42.061  31.366  35.185  1.00  0.00    -0.354 N 
ATOM     52  N   UNL A   1      39.745  32.355  33.690  1.00  0.00    -0.248 NA
ATOM     53  C   UNL A   1      37.891  33.767  33.517  1.00  0.00     0.031 C 
ATOM     54  C   UNL A   1      42.517  32.276  37.159  1.00  0.00     0.029 A 
ATOM     55  C   UNL A   1      41.633  32.321  36.093  1.00  0.00     0.049 A 
ATOM     56  H   UNL A   1      41.621  31.166  34.328  1.00  0.00     0.167 HD
ATOM     57  C   UNL A   1      39.673  33.155  34.826  1.00  0.00     0.074 A 
ATOM     58  C   UNL A   1      38.529  34.027  34.650  1.00  0.00     0.031 C 
ATOM     59  C   UNL A   1      40.483  33.171  35.915  1.00  0.00     0.031 A 
BRANCH  46  60
ATOM     60  C   UNL A   1      45.089  29.048  35.653  1.00  0.00    -0.014 A 
ATOM     61  C   UNL A   1      46.372  29.610  35.519  1.00  0.00     0.010 A 
ATOM     62  C   UNL A   1      44.927  27.893  36.440  1.00  0.00     0.010 A 
ATOM     63  C   UNL A   1      47.478  29.001  36.121  1.00  0.00     0.020 A 
ATOM     64  C   UNL A   1      46.026  27.296  37.063  1.00  0.00     0.020 A 
ATOM     65  C   UNL A   1      47.299  27.842  36.881  1.00  0.00     0.054 A 
BRANCH  65  66
ATOM     66  S   UNL A   1      48.748  27.069  37.650  1.00  0.00     0.124 S 
ATOM     67  O   UNL A   1      48.138  26.285  38.721  1.00  0.00    -0.237 OA
ATOM     68  O   UNL A   1      49.320  26.293  36.552  1.00  0.00    -0.237 OA
ATOM     69  O   UNL A   1      49.554  28.205  38.091  1.00  0.00    -0.744 OA
ENDBRANCH  65  66
ENDBRANCH  46  60
BRANCH  47  70
ATOM     70  C   UNL A   1      37.164  32.772  30.861  1.00  0.00    -0.014 A 
ATOM     71  C   UNL A   1      35.867  32.304  31.137  1.00  0.00     0.010 A 
ATOM     72  C   UNL A   1      37.335  33.794  29.910  1.00  0.00     0.010 A 
ATOM     73  C   UNL A   1      34.764  32.842  30.469  1.00  0.00     0.020 A 
ATOM     74  C   UNL A   1      36.233  34.351  29.257  1.00  0.00     0.020 A 
ATOM     75  C   UNL A   1      34.954  33.866  29.535  1.00  0.00     0.054 A 
BRANCH  75  76
ATOM     76  S   UNL A   1      33.502  34.598  28.728  1.00  0.00     0.124 S 
ATOM     77  O   UNL A   1      33.052  33.510  27.867  1.00  0.00    -0.237 OA
ATOM     78  O   UNL A   1      32.634  34.909  29.862  1.00  0.00    -0.237 OA
ATOM     79  O   UNL A   1      34.048  35.763  28.036  1.00  0.00    -0.744 OA
ENDBRANCH  75  76
ENDBRANCH  47  70
BRANCH  59  80
ATOM     80  C   UNL A   1      40.170  34.179  36.989  1.00  0.00    -0.014 A 
ATOM     81  C   UNL A   1      39.292  33.873  38.044  1.00  0.00     0.010 A 
ATOM     82  C   UNL A   1      40.781  35.446  36.952  1.00  0.00     0.010 A 
ATOM     83  C   UNL A   1      38.992  34.833  39.016  1.00  0.00     0.020 A 
ATOM     84  C   UNL A   1      40.504  36.400  37.937  1.00  0.00     0.020 A 
ATOM     85  C   UNL A   1      39.594  36.094  38.950  1.00  0.00     0.054 A 
BRANCH  85  86
ATOM     86  S   UNL A   1      39.196  37.322  40.225  1.00  0.00     0.124 S 
ATOM     87  O   UNL A   1      40.523  37.795  40.614  1.00  0.00    -0.237 OA
ATOM     88  O   UNL A   1      38.374  38.287  39.499  1.00  0.00    -0.237 OA
ATOM     89  O   UNL A   1      38.488  36.548  41.241  1.00  0.00    -0.744 OA
ENDBRANCH  85  86
ENDBRANCH  59  80
ENDBRANCH  33  34
ENDBRANCH  26  28
ENDBRANCH  25  26
ENDBRANCH  24  25
ENDBRANCH  23  24
ENDBRANCH   1  23
TORSDOF 21
ENDMDL
