MODEL 1
REMARK VINA RESULT:     -11.3      0.000      0.000
REMARK SMILES Cc1ccccc1C[C@H](C[C@@H]1Cc2ccccc21)C(=O)OCCOCCOC(=O)c1ccc(-c2c3nc(c(-c4ccc(S(=O)(=O)[O-])cc4)c4ccc([nH]4)c(-c4ccc(S(=O)(=O)[O-])cc4)c4nc(c(-c5ccc(S(=O)(=O)[O-])cc5)c5ccc2[nH]5)C=C4)C=C3)cc1
REMARK SMILES IDX 25 1 24 2 23 3 22 4 21 5 19 6 20 7 9 8 8 9 7 10 1 11 2 12
REMARK SMILES IDX 3 13 4 14 6 15 5 16 10 17 11 18 12 19 18 20 13 21 17 22
REMARK SMILES IDX 14 23 16 24 15 25 26 26 27 27 28 28 29 29 30 30 31 31 89 32
REMARK SMILES IDX 32 33 88 34 33 35 34 36 35 37 82 38 36 39 87 40 81 41 83 42
REMARK SMILES IDX 37 43 86 44 80 45 79 46 38 48 68 49 49 50 67 51 50 52 53 53
REMARK SMILES IDX 66 54 84 55 51 56 52 57 65 59 85 60 54 61 39 62 40 63 48 64
REMARK SMILES IDX 41 65 47 66 42 67 43 68 44 69 45 70 46 71 69 72 70 73 78 74
REMARK SMILES IDX 71 75 77 76 72 77 73 78 74 79 75 80 76 81 55 82 56 83 64 84
REMARK SMILES IDX 57 85 63 86 58 87 59 88 60 89 61 90 62 91
REMARK H PARENT 83 47 53 58
REMARK Flexibility Score: inf
ROOT
ATOM      1  C   UNL A   1      36.634  22.496  24.225  1.00  0.00     0.202 C 
ENDROOT
BRANCH   1   2
ATOM      2  O   UNL A   1      35.240  22.246  24.314  1.00  0.00    -0.374 OA
BRANCH   2   3
ATOM      3  C   UNL A   1      34.929  21.083  25.071  1.00  0.00     0.202 C 
BRANCH   3   4
ATOM      4  C   UNL A   1      33.514  20.692  24.808  1.00  0.00     0.261 C 
BRANCH   4   5
ATOM      5  O   UNL A   1      32.672  21.726  24.277  1.00  0.00    -0.463 OA
BRANCH   5   6
ATOM      6  C   UNL A   1      31.673  22.322  24.972  1.00  0.00     0.309 C 
ATOM      7  O   UNL A   1      30.822  21.833  25.709  1.00  0.00    -0.252 OA
BRANCH   6   8
ATOM      8  C   UNL A   1      31.791  23.799  24.795  1.00  0.00     0.104 C 
BRANCH   8   9
ATOM      9  C   UNL A   1      31.799  24.654  26.139  1.00  0.00     0.051 C 
BRANCH   9  10
ATOM     10  C   UNL A   1      32.320  26.115  26.355  1.00  0.00    -0.044 A 
ATOM     11  C   UNL A   1      34.828  25.449  25.380  1.00  0.00     0.044 C 
ATOM     12  C   UNL A   1      34.046  26.614  26.032  1.00  0.00    -0.048 A 
ATOM     13  C   UNL A   1      34.467  28.426  26.019  1.00  0.00     0.004 A 
ATOM     14  C   UNL A   1      33.217  29.690  26.612  1.00  0.00     0.000 A 
ATOM     15  C   UNL A   1      31.098  27.378  26.825  1.00  0.00     0.004 A 
ATOM     16  C   UNL A   1      31.543  29.117  27.031  1.00  0.00     0.000 A 
ENDBRANCH   9  10
ENDBRANCH   8   9
BRANCH   8  17
ATOM     17  C   UNL A   1      30.744  24.114  23.691  1.00  0.00     0.024 C 
BRANCH  17  18
ATOM     18  C   UNL A   1      31.344  24.943  22.510  1.00  0.00     0.025 C 
ATOM     19  C   UNL A   1      32.866  25.064  22.200  1.00  0.00     0.044 C 
ATOM     20  C   UNL A   1      31.377  26.412  22.807  1.00  0.00    -0.041 A 
ATOM     21  C   UNL A   1      32.716  26.519  22.535  1.00  0.00    -0.044 A 
ATOM     22  C   UNL A   1      30.570  27.482  23.111  1.00  0.00     0.004 A 
ATOM     23  C   UNL A   1      33.345  27.734  22.577  1.00  0.00     0.004 A 
ATOM     24  C   UNL A   1      31.190  28.722  23.193  1.00  0.00     0.000 A 
ATOM     25  C   UNL A   1      32.570  28.845  22.932  1.00  0.00     0.000 A 
ENDBRANCH  17  18
ENDBRANCH   8  17
ENDBRANCH   6   8
ENDBRANCH   5   6
ENDBRANCH   4   5
ENDBRANCH   3   4
ENDBRANCH   2   3
ENDBRANCH   1   2
BRANCH   1  26
ATOM     26  C   UNL A   1      37.396  21.815  25.364  1.00  0.00     0.261 C 
BRANCH  26  27
ATOM     27  O   UNL A   1      38.319  22.782  25.903  1.00  0.00    -0.460 OA
BRANCH  27  28
ATOM     28  C   UNL A   1      39.451  22.257  26.441  1.00  0.00     0.338 C 
ATOM     29  O   UNL A   1      39.685  21.064  26.526  1.00  0.00    -0.246 OA
BRANCH  28  30
ATOM     30  C   UNL A   1      40.357  23.345  26.918  1.00  0.00     0.060 A 
ATOM     31  C   UNL A   1      40.976  23.236  28.162  1.00  0.00     0.016 A 
ATOM     32  C   UNL A   1      40.566  24.507  26.167  1.00  0.00     0.016 A 
ATOM     33  C   UNL A   1      41.771  24.293  28.643  1.00  0.00     0.010 A 
ATOM     34  C   UNL A   1      41.294  25.585  26.684  1.00  0.00     0.010 A 
ATOM     35  C   UNL A   1      41.854  25.547  27.978  1.00  0.00    -0.014 A 
BRANCH  35  36
ATOM     36  C   UNL A   1      42.742  26.766  28.416  1.00  0.00     0.031 A 
ATOM     37  C   UNL A   1      41.817  27.921  28.229  1.00  0.00     0.074 A 
ATOM     38  C   UNL A   1      44.041  26.813  28.995  1.00  0.00     0.049 A 
ATOM     39  N   UNL A   1      42.095  29.161  28.102  1.00  0.00    -0.248 NA
ATOM     40  C   UNL A   1      40.334  27.752  28.232  1.00  0.00     0.031 C 
ATOM     41  C   UNL A   1      45.066  27.761  29.449  1.00  0.00     0.029 A 
ATOM     42  N   UNL A   1      44.976  25.788  29.186  1.00  0.00    -0.354 N 
ATOM     43  C   UNL A   1      41.098  29.741  28.869  1.00  0.00     0.074 A 
ATOM     44  C   UNL A   1      39.928  28.958  28.612  1.00  0.00     0.031 C 
ATOM     45  C   UNL A   1      46.336  27.318  29.115  1.00  0.00     0.029 A 
ATOM     46  C   UNL A   1      46.148  26.002  28.458  1.00  0.00     0.049 A 
ATOM     47  H   UNL A   1      44.825  25.007  29.766  1.00  0.00     0.167 HD
ATOM     48  C   UNL A   1      41.499  30.477  29.948  1.00  0.00     0.031 A 
ATOM     49  C   UNL A   1      46.369  25.442  27.111  1.00  0.00     0.031 A 
ATOM     50  C   UNL A   1      42.958  30.726  29.892  1.00  0.00     0.049 A 
ATOM     51  C   UNL A   1      46.455  27.216  26.608  1.00  0.00     0.074 A 
ATOM     52  C   UNL A   1      44.025  30.630  30.767  1.00  0.00     0.029 A 
ATOM     53  N   UNL A   1      43.552  30.916  28.632  1.00  0.00    -0.354 N 
ATOM     54  N   UNL A   1      45.511  28.137  26.827  1.00  0.00    -0.248 NA
ATOM     55  C   UNL A   1      47.660  27.871  26.041  1.00  0.00     0.031 C 
ATOM     56  C   UNL A   1      45.232  30.647  29.990  1.00  0.00     0.029 A 
ATOM     57  C   UNL A   1      44.884  30.548  28.640  1.00  0.00     0.049 A 
ATOM     58  H   UNL A   1      43.079  31.265  27.843  1.00  0.00     0.167 HD
ATOM     59  C   UNL A   1      46.062  29.419  26.744  1.00  0.00     0.074 A 
ATOM     60  C   UNL A   1      47.333  29.183  26.066  1.00  0.00     0.031 C 
ATOM     61  C   UNL A   1      45.658  30.580  27.390  1.00  0.00     0.031 A 
BRANCH  48  62
ATOM     62  C   UNL A   1      40.625  30.722  31.173  1.00  0.00    -0.014 A 
ATOM     63  C   UNL A   1      40.824  29.930  32.319  1.00  0.00     0.010 A 
ATOM     64  C   UNL A   1      39.608  31.698  31.287  1.00  0.00     0.010 A 
ATOM     65  C   UNL A   1      40.097  30.113  33.504  1.00  0.00     0.020 A 
ATOM     66  C   UNL A   1      38.880  31.909  32.473  1.00  0.00     0.020 A 
ATOM     67  C   UNL A   1      39.150  31.125  33.585  1.00  0.00     0.054 A 
BRANCH  67  68
ATOM     68  S   UNL A   1      38.365  31.453  35.183  1.00  0.00     0.124 S 
ATOM     69  O   UNL A   1      37.043  31.934  34.790  1.00  0.00    -0.237 OA
ATOM     70  O   UNL A   1      38.392  30.137  35.816  1.00  0.00    -0.237 OA
ATOM     71  O   UNL A   1      39.231  32.454  35.799  1.00  0.00    -0.744 OA
ENDBRANCH  67  68
ENDBRANCH  48  62
BRANCH  49  72
ATOM     72  C   UNL A   1      45.812  23.737  25.937  1.00  0.00    -0.014 A 
ATOM     73  C   UNL A   1      46.478  22.902  24.829  1.00  0.00     0.010 A 
ATOM     74  C   UNL A   1      44.497  22.792  26.064  1.00  0.00     0.010 A 
ATOM     75  C   UNL A   1      46.106  21.590  24.276  1.00  0.00     0.020 A 
ATOM     76  C   UNL A   1      44.128  21.522  25.543  1.00  0.00     0.020 A 
ATOM     77  C   UNL A   1      44.982  20.886  24.695  1.00  0.00     0.054 A 
BRANCH  77  78
ATOM     78  S   UNL A   1      44.769  19.094  24.401  1.00  0.00     0.124 S 
ATOM     79  O   UNL A   1      44.640  19.023  22.951  1.00  0.00    -0.237 OA
ATOM     80  O   UNL A   1      45.997  18.516  24.946  1.00  0.00    -0.237 OA
ATOM     81  O   UNL A   1      43.560  18.768  25.155  1.00  0.00    -0.744 OA
ENDBRANCH  77  78
ENDBRANCH  49  72
BRANCH  61  82
ATOM     82  C   UNL A   1      45.983  32.016  26.985  1.00  0.00    -0.014 A 
ATOM     83  C   UNL A   1      45.169  32.820  26.188  1.00  0.00     0.010 A 
ATOM     84  C   UNL A   1      47.040  32.679  27.684  1.00  0.00     0.010 A 
ATOM     85  C   UNL A   1      45.403  34.207  26.107  1.00  0.00     0.020 A 
ATOM     86  C   UNL A   1      47.235  34.047  27.671  1.00  0.00     0.020 A 
ATOM     87  C   UNL A   1      46.420  34.809  26.863  1.00  0.00     0.054 A 
BRANCH  87  88
ATOM     88  S   UNL A   1      46.653  36.597  26.857  1.00  0.00     0.124 S 
ATOM     89  O   UNL A   1      47.483  36.787  28.043  1.00  0.00    -0.237 OA
ATOM     90  O   UNL A   1      47.314  36.833  25.576  1.00  0.00    -0.237 OA
ATOM     91  O   UNL A   1      45.294  37.125  26.954  1.00  0.00    -0.744 OA
ENDBRANCH  87  88
ENDBRANCH  61  82
ENDBRANCH  35  36
ENDBRANCH  28  30
ENDBRANCH  27  28
ENDBRANCH  26  27
ENDBRANCH   1  26
TORSDOF 21
ENDMDL
MODEL 2
REMARK VINA RESULT:     -11.1      1.233      2.163
REMARK SMILES Cc1ccccc1C[C@H](C[C@@H]1Cc2ccccc21)C(=O)OCCOCCOC(=O)c1ccc(-c2c3nc(c(-c4ccc(S(=O)(=O)[O-])cc4)c4ccc([nH]4)c(-c4ccc(S(=O)(=O)[O-])cc4)c4nc(c(-c5ccc(S(=O)(=O)[O-])cc5)c5ccc2[nH]5)C=C4)C=C3)cc1
REMARK SMILES IDX 25 1 24 2 23 3 22 4 21 5 19 6 20 7 9 8 8 9 7 10 1 11 2 12
REMARK SMILES IDX 3 13 4 14 6 15 5 16 10 17 11 18 12 19 18 20 13 21 17 22
REMARK SMILES IDX 14 23 16 24 15 25 26 26 27 27 28 28 29 29 30 30 31 31 89 32
REMARK SMILES IDX 32 33 88 34 33 35 34 36 35 37 82 38 36 39 87 40 81 41 83 42
REMARK SMILES IDX 37 43 86 44 80 45 79 46 38 48 68 49 49 50 67 51 50 52 53 53
REMARK SMILES IDX 66 54 84 55 51 56 52 57 65 59 85 60 54 61 39 62 40 63 48 64
REMARK SMILES IDX 41 65 47 66 42 67 43 68 44 69 45 70 46 71 69 72 70 73 78 74
REMARK SMILES IDX 71 75 77 76 72 77 73 78 74 79 75 80 76 81 55 82 56 83 64 84
REMARK SMILES IDX 57 85 63 86 58 87 59 88 60 89 61 90 62 91
REMARK H PARENT 83 47 53 58
REMARK Flexibility Score: inf
ROOT
ATOM      1  C   UNL A   1      36.861  22.750  24.132  1.00  0.00     0.202 C 
ENDROOT
BRANCH   1   2
ATOM      2  O   UNL A   1      35.461  22.869  24.329  1.00  0.00    -0.374 OA
BRANCH   2   3
ATOM      3  C   UNL A   1      34.758  23.218  23.143  1.00  0.00     0.202 C 
BRANCH   3   4
ATOM      4  C   UNL A   1      33.520  23.965  23.511  1.00  0.00     0.261 C 
BRANCH   4   5
ATOM      5  O   UNL A   1      33.714  25.322  23.932  1.00  0.00    -0.463 OA
BRANCH   5   6
ATOM      6  C   UNL A   1      33.496  25.764  25.194  1.00  0.00     0.309 C 
ATOM      7  O   UNL A   1      33.233  25.136  26.217  1.00  0.00    -0.252 OA
BRANCH   6   8
ATOM      8  C   UNL A   1      33.725  27.238  25.226  1.00  0.00     0.104 C 
BRANCH   8   9
ATOM      9  C   UNL A   1      33.773  27.896  26.676  1.00  0.00     0.051 C 
BRANCH   9  10
ATOM     10  C   UNL A   1      34.357  29.289  27.089  1.00  0.00    -0.044 A 
ATOM     11  C   UNL A   1      31.852  30.469  26.954  1.00  0.00     0.044 C 
ATOM     12  C   UNL A   1      33.346  30.805  27.179  1.00  0.00    -0.048 A 
ATOM     13  C   UNL A   1      34.070  32.319  27.982  1.00  0.00     0.004 A 
ATOM     14  C   UNL A   1      35.891  32.375  28.421  1.00  0.00     0.000 A 
ATOM     15  C   UNL A   1      36.096  29.341  27.623  1.00  0.00     0.004 A 
ATOM     16  C   UNL A   1      36.878  30.864  28.202  1.00  0.00     0.000 A 
ENDBRANCH   9  10
ENDBRANCH   8   9
BRANCH   8  17
ATOM     17  C   UNL A   1      32.721  27.780  24.170  1.00  0.00     0.024 C 
BRANCH  17  18
ATOM     18  C   UNL A   1      31.236  27.691  24.649  1.00  0.00     0.025 C 
ATOM     19  C   UNL A   1      30.199  26.653  24.124  1.00  0.00     0.044 C 
ATOM     20  C   UNL A   1      30.372  28.742  24.018  1.00  0.00    -0.041 A 
ATOM     21  C   UNL A   1      29.461  27.830  23.556  1.00  0.00    -0.044 A 
ATOM     22  C   UNL A   1      30.223  30.102  23.897  1.00  0.00     0.004 A 
ATOM     23  C   UNL A   1      28.328  28.239  22.906  1.00  0.00     0.004 A 
ATOM     24  C   UNL A   1      29.098  30.543  23.213  1.00  0.00     0.000 A 
ATOM     25  C   UNL A   1      28.160  29.616  22.716  1.00  0.00     0.000 A 
ENDBRANCH  17  18
ENDBRANCH   8  17
ENDBRANCH   6   8
ENDBRANCH   5   6
ENDBRANCH   4   5
ENDBRANCH   3   4
ENDBRANCH   2   3
ENDBRANCH   1   2
BRANCH   1  26
ATOM     26  C   UNL A   1      37.481  21.758  25.119  1.00  0.00     0.261 C 
BRANCH  26  27
ATOM     27  O   UNL A   1      38.242  22.522  26.076  1.00  0.00    -0.460 OA
BRANCH  27  28
ATOM     28  C   UNL A   1      39.498  22.060  26.310  1.00  0.00     0.338 C 
ATOM     29  O   UNL A   1      39.855  20.909  26.127  1.00  0.00    -0.246 OA
BRANCH  28  30
ATOM     30  C   UNL A   1      40.371  23.157  26.827  1.00  0.00     0.060 A 
ATOM     31  C   UNL A   1      40.480  23.368  28.200  1.00  0.00     0.016 A 
ATOM     32  C   UNL A   1      41.052  24.021  25.961  1.00  0.00     0.016 A 
ATOM     33  C   UNL A   1      41.243  24.447  28.682  1.00  0.00     0.010 A 
ATOM     34  C   UNL A   1      41.746  25.135  26.445  1.00  0.00     0.010 A 
ATOM     35  C   UNL A   1      41.797  25.435  27.823  1.00  0.00    -0.014 A 
BRANCH  35  36
ATOM     36  C   UNL A   1      42.692  26.647  28.266  1.00  0.00     0.031 A 
ATOM     37  C   UNL A   1      41.789  27.812  28.040  1.00  0.00     0.074 A 
ATOM     38  C   UNL A   1      43.977  26.682  28.875  1.00  0.00     0.049 A 
ATOM     39  N   UNL A   1      42.089  29.046  27.904  1.00  0.00    -0.248 NA
ATOM     40  C   UNL A   1      40.305  27.665  28.010  1.00  0.00     0.031 C 
ATOM     41  C   UNL A   1      45.006  27.621  29.340  1.00  0.00     0.029 A 
ATOM     42  N   UNL A   1      44.892  25.646  29.102  1.00  0.00    -0.354 N 
ATOM     43  C   UNL A   1      41.082  29.652  28.638  1.00  0.00     0.074 A 
ATOM     44  C   UNL A   1      39.907  28.882  28.364  1.00  0.00     0.031 C 
ATOM     45  C   UNL A   1      46.276  27.154  29.043  1.00  0.00     0.029 A 
ATOM     46  C   UNL A   1      46.084  25.833  28.400  1.00  0.00     0.049 A 
ATOM     47  H   UNL A   1      44.715  24.876  29.689  1.00  0.00     0.167 HD
ATOM     48  C   UNL A   1      41.469  30.396  29.717  1.00  0.00     0.031 A 
ATOM     49  C   UNL A   1      46.329  25.251  27.067  1.00  0.00     0.031 A 
ATOM     50  C   UNL A   1      42.933  30.623  29.692  1.00  0.00     0.049 A 
ATOM     51  C   UNL A   1      46.454  27.016  26.542  1.00  0.00     0.074 A 
ATOM     52  C   UNL A   1      43.977  30.524  30.594  1.00  0.00     0.029 A 
ATOM     53  N   UNL A   1      43.560  30.787  28.444  1.00  0.00    -0.354 N 
ATOM     54  N   UNL A   1      45.519  27.954  26.725  1.00  0.00    -0.248 NA
ATOM     55  C   UNL A   1      47.681  27.645  25.995  1.00  0.00     0.031 C 
ATOM     56  C   UNL A   1      45.202  30.512  29.846  1.00  0.00     0.029 A 
ATOM     57  C   UNL A   1      44.885  30.399  28.490  1.00  0.00     0.049 A 
ATOM     58  H   UNL A   1      43.111  31.132  27.640  1.00  0.00     0.167 HD
ATOM     59  C   UNL A   1      46.090  29.226  26.638  1.00  0.00     0.074 A 
ATOM     60  C   UNL A   1      47.374  28.962  25.994  1.00  0.00     0.031 C 
ATOM     61  C   UNL A   1      45.689  30.403  27.259  1.00  0.00     0.031 A 
BRANCH  48  62
ATOM     62  C   UNL A   1      40.570  30.671  30.917  1.00  0.00    -0.014 A 
ATOM     63  C   UNL A   1      40.686  29.852  32.056  1.00  0.00     0.010 A 
ATOM     64  C   UNL A   1      39.605  31.701  31.014  1.00  0.00     0.010 A 
ATOM     65  C   UNL A   1      39.932  30.058  33.219  1.00  0.00     0.020 A 
ATOM     66  C   UNL A   1      38.851  31.934  32.180  1.00  0.00     0.020 A 
ATOM     67  C   UNL A   1      39.040  31.120  33.287  1.00  0.00     0.054 A 
BRANCH  67  68
ATOM     68  S   UNL A   1      38.222  31.466  34.863  1.00  0.00     0.124 S 
ATOM     69  O   UNL A   1      36.916  31.963  34.437  1.00  0.00    -0.237 OA
ATOM     70  O   UNL A   1      38.217  30.154  35.504  1.00  0.00    -0.237 OA
ATOM     71  O   UNL A   1      39.087  32.460  35.495  1.00  0.00    -0.744 OA
ENDBRANCH  67  68
ENDBRANCH  48  62
BRANCH  49  72
ATOM     72  C   UNL A   1      45.774  23.538  25.903  1.00  0.00    -0.014 A 
ATOM     73  C   UNL A   1      46.417  22.732  24.760  1.00  0.00     0.010 A 
ATOM     74  C   UNL A   1      44.495  22.552  26.077  1.00  0.00     0.010 A 
ATOM     75  C   UNL A   1      46.062  21.413  24.212  1.00  0.00     0.020 A 
ATOM     76  C   UNL A   1      44.143  21.275  25.562  1.00  0.00     0.020 A 
ATOM     77  C   UNL A   1      44.979  20.672  24.673  1.00  0.00     0.054 A 
BRANCH  77  78
ATOM     78  S   UNL A   1      44.808  18.877  24.373  1.00  0.00     0.124 S 
ATOM     79  O   UNL A   1      43.550  18.561  25.038  1.00  0.00    -0.237 OA
ATOM     80  O   UNL A   1      44.782  18.781  22.914  1.00  0.00    -0.237 OA
ATOM     81  O   UNL A   1      46.005  18.313  24.995  1.00  0.00    -0.744 OA
ENDBRANCH  77  78
ENDBRANCH  49  72
BRANCH  61  82
ATOM     82  C   UNL A   1      46.045  31.827  26.841  1.00  0.00    -0.014 A 
ATOM     83  C   UNL A   1      45.212  32.673  26.111  1.00  0.00     0.010 A 
ATOM     84  C   UNL A   1      47.176  32.438  27.468  1.00  0.00     0.010 A 
ATOM     85  C   UNL A   1      45.498  34.050  26.024  1.00  0.00     0.020 A 
ATOM     86  C   UNL A   1      47.428  33.797  27.452  1.00  0.00     0.020 A 
ATOM     87  C   UNL A   1      46.591  34.601  26.709  1.00  0.00     0.054 A 
BRANCH  87  88
ATOM     88  S   UNL A   1      46.898  36.378  26.700  1.00  0.00     0.124 S 
ATOM     89  O   UNL A   1      47.695  36.542  27.913  1.00  0.00    -0.237 OA
ATOM     90  O   UNL A   1      47.612  36.575  25.441  1.00  0.00    -0.237 OA
ATOM     91  O   UNL A   1      45.560  36.962  26.747  1.00  0.00    -0.744 OA
ENDBRANCH  87  88
ENDBRANCH  61  82
ENDBRANCH  35  36
ENDBRANCH  28  30
ENDBRANCH  27  28
ENDBRANCH  26  27
ENDBRANCH   1  26
TORSDOF 21
ENDMDL
MODEL 3
REMARK VINA RESULT:     -11.0      0.874      2.157
REMARK SMILES Cc1ccccc1C[C@H](C[C@@H]1Cc2ccccc21)C(=O)OCCOCCOC(=O)c1ccc(-c2c3nc(c(-c4ccc(S(=O)(=O)[O-])cc4)c4ccc([nH]4)c(-c4ccc(S(=O)(=O)[O-])cc4)c4nc(c(-c5ccc(S(=O)(=O)[O-])cc5)c5ccc2[nH]5)C=C4)C=C3)cc1
REMARK SMILES IDX 25 1 24 2 23 3 22 4 21 5 19 6 20 7 9 8 8 9 7 10 1 11 2 12
REMARK SMILES IDX 3 13 4 14 6 15 5 16 10 17 11 18 12 19 18 20 13 21 17 22
REMARK SMILES IDX 14 23 16 24 15 25 26 26 27 27 28 28 29 29 30 30 31 31 89 32
REMARK SMILES IDX 32 33 88 34 33 35 34 36 35 37 82 38 36 39 87 40 81 41 83 42
REMARK SMILES IDX 37 43 86 44 80 45 79 46 38 48 68 49 49 50 67 51 50 52 53 53
REMARK SMILES IDX 66 54 84 55 51 56 52 57 65 59 85 60 54 61 39 62 40 63 48 64
REMARK SMILES IDX 41 65 47 66 42 67 43 68 44 69 45 70 46 71 69 72 70 73 78 74
REMARK SMILES IDX 71 75 77 76 72 77 73 78 74 79 75 80 76 81 55 82 56 83 64 84
REMARK SMILES IDX 57 85 63 86 58 87 59 88 60 89 61 90 62 91
REMARK H PARENT 83 47 53 58
REMARK Flexibility Score: inf
ROOT
ATOM      1  C   UNL A   1      36.209  22.567  24.571  1.00  0.00     0.202 C 
ENDROOT
BRANCH   1   2
ATOM      2  O   UNL A   1      34.840  22.678  24.929  1.00  0.00    -0.374 OA
BRANCH   2   3
ATOM      3  C   UNL A   1      34.114  21.470  24.736  1.00  0.00     0.202 C 
BRANCH   3   4
ATOM      4  C   UNL A   1      32.805  21.785  24.093  1.00  0.00     0.261 C 
BRANCH   4   5
ATOM      5  O   UNL A   1      32.214  23.038  24.465  1.00  0.00    -0.463 OA
BRANCH   5   6
ATOM      6  C   UNL A   1      31.153  23.159  25.298  1.00  0.00     0.309 C 
ATOM      7  O   UNL A   1      30.615  22.323  26.020  1.00  0.00    -0.252 OA
BRANCH   6   8
ATOM      8  C   UNL A   1      30.723  24.588  25.312  1.00  0.00     0.104 C 
BRANCH   8   9
ATOM      9  C   UNL A   1      30.443  25.237  23.885  1.00  0.00     0.051 C 
BRANCH   9  10
ATOM     10  C   UNL A   1      29.802  26.628  23.562  1.00  0.00    -0.044 A 
ATOM     11  C   UNL A   1      32.158  27.538  22.420  1.00  0.00     0.044 C 
ATOM     12  C   UNL A   1      30.738  28.006  22.816  1.00  0.00    -0.048 A 
ATOM     13  C   UNL A   1      29.804  29.488  22.188  1.00  0.00     0.004 A 
ATOM     14  C   UNL A   1      27.981  29.689  22.578  1.00  0.00     0.000 A 
ATOM     15  C   UNL A   1      28.011  26.806  23.832  1.00  0.00     0.004 A 
ATOM     16  C   UNL A   1      27.125  28.329  23.428  1.00  0.00     0.000 A 
ENDBRANCH   9  10
ENDBRANCH   8   9
BRANCH   8  17
ATOM     17  C   UNL A   1      31.741  25.260  26.275  1.00  0.00     0.024 C 
BRANCH  17  18
ATOM     18  C   UNL A   1      32.638  26.321  25.559  1.00  0.00     0.025 C 
ATOM     19  C   UNL A   1      34.174  26.470  25.775  1.00  0.00     0.044 C 
ATOM     20  C   UNL A   1      32.508  27.682  26.174  1.00  0.00    -0.041 A 
ATOM     21  C   UNL A   1      33.858  27.813  26.364  1.00  0.00    -0.044 A 
ATOM     22  C   UNL A   1      31.597  28.675  26.444  1.00  0.00     0.004 A 
ATOM     23  C   UNL A   1      34.385  28.969  26.873  1.00  0.00     0.004 A 
ATOM     24  C   UNL A   1      32.102  29.846  26.991  1.00  0.00     0.000 A 
ATOM     25  C   UNL A   1      33.487  29.990  27.209  1.00  0.00     0.000 A 
ENDBRANCH  17  18
ENDBRANCH   8  17
ENDBRANCH   6   8
ENDBRANCH   5   6
ENDBRANCH   4   5
ENDBRANCH   3   4
ENDBRANCH   2   3
ENDBRANCH   1   2
BRANCH   1  26
ATOM     26  C   UNL A   1      37.025  21.908  25.685  1.00  0.00     0.261 C 
BRANCH  26  27
ATOM     27  O   UNL A   1      38.023  22.859  26.107  1.00  0.00    -0.460 OA
BRANCH  27  28
ATOM     28  C   UNL A   1      39.244  22.328  26.376  1.00  0.00     0.338 C 
ATOM     29  O   UNL A   1      39.524  21.148  26.257  1.00  0.00    -0.246 OA
BRANCH  28  30
ATOM     30  C   UNL A   1      40.187  23.390  26.842  1.00  0.00     0.060 A 
ATOM     31  C   UNL A   1      40.783  23.286  28.096  1.00  0.00     0.016 A 
ATOM     32  C   UNL A   1      40.451  24.526  26.067  1.00  0.00     0.016 A 
ATOM     33  C   UNL A   1      41.612  24.322  28.564  1.00  0.00     0.010 A 
ATOM     34  C   UNL A   1      41.214  25.586  26.571  1.00  0.00     0.010 A 
ATOM     35  C   UNL A   1      41.754  25.556  27.873  1.00  0.00    -0.014 A 
BRANCH  35  36
ATOM     36  C   UNL A   1      42.684  26.749  28.297  1.00  0.00     0.031 A 
ATOM     37  C   UNL A   1      41.809  27.935  28.065  1.00  0.00     0.074 A 
ATOM     38  C   UNL A   1      43.973  26.759  28.897  1.00  0.00     0.049 A 
ATOM     39  N   UNL A   1      42.139  29.159  27.913  1.00  0.00    -0.248 NA
ATOM     40  C   UNL A   1      40.321  27.826  28.047  1.00  0.00     0.031 C 
ATOM     41  C   UNL A   1      45.029  27.676  29.345  1.00  0.00     0.029 A 
ATOM     42  N   UNL A   1      44.863  25.702  29.129  1.00  0.00    -0.354 N 
ATOM     43  C   UNL A   1      41.154  29.798  28.649  1.00  0.00     0.074 A 
ATOM     44  C   UNL A   1      39.957  29.056  28.391  1.00  0.00     0.031 C 
ATOM     45  C   UNL A   1      46.285  27.174  29.043  1.00  0.00     0.029 A 
ATOM     46  C   UNL A   1      46.055  25.851  28.416  1.00  0.00     0.049 A 
ATOM     47  H   UNL A   1      44.671  24.942  29.725  1.00  0.00     0.167 HD
ATOM     48  C   UNL A   1      41.567  30.544  29.716  1.00  0.00     0.031 A 
ATOM     49  C   UNL A   1      46.275  25.248  27.087  1.00  0.00     0.031 A 
ATOM     50  C   UNL A   1      43.036  30.733  29.679  1.00  0.00     0.049 A 
ATOM     51  C   UNL A   1      46.441  27.005  26.542  1.00  0.00     0.074 A 
ATOM     52  C   UNL A   1      44.083  30.617  30.575  1.00  0.00     0.029 A 
ATOM     53  N   UNL A   1      43.657  30.867  28.425  1.00  0.00    -0.354 N 
ATOM     54  N   UNL A   1      45.531  27.968  26.723  1.00  0.00    -0.248 NA
ATOM     55  C   UNL A   1      47.680  27.596  25.981  1.00  0.00     0.031 C 
ATOM     56  C   UNL A   1      45.302  30.565  29.818  1.00  0.00     0.029 A 
ATOM     57  C   UNL A   1      44.972  30.447  28.465  1.00  0.00     0.049 A 
ATOM     58  H   UNL A   1      43.211  31.215  27.620  1.00  0.00     0.167 HD
ATOM     59  C   UNL A   1      46.134  29.224  26.618  1.00  0.00     0.074 A 
ATOM     60  C   UNL A   1      47.406  28.920  25.967  1.00  0.00     0.031 C 
ATOM     61  C   UNL A   1      45.768  30.417  27.229  1.00  0.00     0.031 A 
BRANCH  48  62
ATOM     62  C   UNL A   1      40.684  30.855  30.919  1.00  0.00    -0.014 A 
ATOM     63  C   UNL A   1      40.262  29.795  31.745  1.00  0.00     0.010 A 
ATOM     64  C   UNL A   1      40.235  32.137  31.312  1.00  0.00     0.010 A 
ATOM     65  C   UNL A   1      39.486  29.992  32.895  1.00  0.00     0.020 A 
ATOM     66  C   UNL A   1      39.470  32.357  32.473  1.00  0.00     0.020 A 
ATOM     67  C   UNL A   1      39.120  31.277  33.272  1.00  0.00     0.054 A 
BRANCH  67  68
ATOM     68  S   UNL A   1      38.278  31.511  34.857  1.00  0.00     0.124 S 
ATOM     69  O   UNL A   1      38.436  30.205  35.491  1.00  0.00    -0.237 OA
ATOM     70  O   UNL A   1      39.046  32.598  35.457  1.00  0.00    -0.237 OA
ATOM     71  O   UNL A   1      36.910  31.855  34.479  1.00  0.00    -0.744 OA
ENDBRANCH  67  68
ENDBRANCH  48  62
BRANCH  49  72
ATOM     72  C   UNL A   1      45.668  23.538  25.946  1.00  0.00    -0.014 A 
ATOM     73  C   UNL A   1      46.335  22.620  24.907  1.00  0.00     0.010 A 
ATOM     74  C   UNL A   1      44.288  22.686  26.033  1.00  0.00     0.010 A 
ATOM     75  C   UNL A   1      45.906  21.313  24.381  1.00  0.00     0.020 A 
ATOM     76  C   UNL A   1      43.864  21.423  25.538  1.00  0.00     0.020 A 
ATOM     77  C   UNL A   1      44.718  20.701  24.762  1.00  0.00     0.054 A 
BRANCH  77  78
ATOM     78  S   UNL A   1      44.401  18.916  24.521  1.00  0.00     0.124 S 
ATOM     79  O   UNL A   1      43.008  18.782  24.928  1.00  0.00    -0.237 OA
ATOM     80  O   UNL A   1      44.654  18.720  23.094  1.00  0.00    -0.237 OA
ATOM     81  O   UNL A   1      45.376  18.276  25.402  1.00  0.00    -0.744 OA
ENDBRANCH  77  78
ENDBRANCH  49  72
BRANCH  61  82
ATOM     82  C   UNL A   1      46.157  31.827  26.794  1.00  0.00    -0.014 A 
ATOM     83  C   UNL A   1      45.287  32.747  26.209  1.00  0.00     0.010 A 
ATOM     84  C   UNL A   1      47.405  32.344  27.262  1.00  0.00     0.010 A 
ATOM     85  C   UNL A   1      45.651  34.104  26.110  1.00  0.00     0.020 A 
ATOM     86  C   UNL A   1      47.744  33.684  27.237  1.00  0.00     0.020 A 
ATOM     87  C   UNL A   1      46.866  34.562  26.641  1.00  0.00     0.054 A 
BRANCH  87  88
ATOM     88  S   UNL A   1      47.290  36.315  26.624  1.00  0.00     0.124 S 
ATOM     89  O   UNL A   1      45.976  36.932  26.473  1.00  0.00    -0.237 OA
ATOM     90  O   UNL A   1      47.934  36.505  27.921  1.00  0.00    -0.237 OA
ATOM     91  O   UNL A   1      48.179  36.446  25.471  1.00  0.00    -0.744 OA
ENDBRANCH  87  88
ENDBRANCH  61  82
ENDBRANCH  35  36
ENDBRANCH  28  30
ENDBRANCH  27  28
ENDBRANCH  26  27
ENDBRANCH   1  26
TORSDOF 21
ENDMDL
