MODEL 1
REMARK VINA RESULT:     -12.5      0.000      0.000
REMARK SMILES Cc1ccc(S(=O)(=O)N2c3ccc(C(=O)OCCOCCOC(=O)c4ccc(-c5c6nc(c(-c7ccc(S(=O)(=O)[O-])cc7)c7ccc([nH]7)c(-c7ccc(S(=O)(=O)[O-])cc7)c7nc(c(-c8ccc(S(=O)(=O)[O-])cc8)c8ccc5[nH]8)C=C7)C=C6)cc4)cc3C[C@H]2C)cc1
REMARK SMILES IDX 20 1 19 2 18 3 17 4 16 5 14 6 15 7 13 8 9 9 10 10 88 11
REMARK SMILES IDX 11 12 86 13 87 14 89 15 12 16 85 17 6 18 7 19 8 20 5 21 1 22
REMARK SMILES IDX 2 23 3 24 91 25 4 26 90 27 21 28 22 29 23 30 24 31 25 32
REMARK SMILES IDX 26 33 84 34 27 35 83 36 28 37 29 38 30 39 77 40 31 41 82 42
REMARK SMILES IDX 76 43 78 44 32 45 81 46 75 47 74 48 33 50 63 51 44 52 62 53
REMARK SMILES IDX 45 54 48 55 61 56 79 57 46 58 47 59 60 61 80 62 49 63 34 64
REMARK SMILES IDX 35 65 43 66 36 67 42 68 37 69 38 70 39 71 40 72 41 73 64 74
REMARK SMILES IDX 65 75 73 76 66 77 72 78 67 79 68 80 69 81 70 82 71 83 50 84
REMARK SMILES IDX 51 85 59 86 52 87 58 88 53 89 54 90 55 91 56 92 57 93
REMARK H PARENT 78 49 48 60
REMARK Flexibility Score: inf
ROOT
ATOM      1  C   UNL A   1      31.763  29.931  25.591  1.00  0.00     0.202 C 
ENDROOT
BRANCH   1   2
ATOM      2  O   UNL A   1      32.374  28.798  25.017  1.00  0.00    -0.374 OA
BRANCH   2   3
ATOM      3  C   UNL A   1      32.162  28.669  23.615  1.00  0.00     0.202 C 
BRANCH   3   4
ATOM      4  C   UNL A   1      30.701  28.841  23.417  1.00  0.00     0.261 C 
BRANCH   4   5
ATOM      5  O   UNL A   1      30.107  27.651  22.904  1.00  0.00    -0.460 OA
BRANCH   5   6
ATOM      6  C   UNL A   1      29.266  26.930  23.678  1.00  0.00     0.338 C 
ATOM      7  O   UNL A   1      28.068  27.050  23.867  1.00  0.00    -0.246 OA
BRANCH   6   8
ATOM      8  C   UNL A   1      30.081  25.791  24.089  1.00  0.00     0.060 A 
ATOM      9  N   UNL A   1      33.219  23.240  24.940  1.00  0.00    -0.263 N 
ATOM     10  C   UNL A   1      32.140  24.172  24.779  1.00  0.00     0.055 A 
ATOM     11  C   UNL A   1      33.737  23.063  23.520  1.00  0.00     0.101 C 
ATOM     12  C   UNL A   1      31.491  24.831  25.802  1.00  0.00     0.028 A 
ATOM     13  C   UNL A   1      31.750  24.272  23.441  1.00  0.00    -0.021 A 
ATOM     14  C   UNL A   1      32.585  23.415  22.563  1.00  0.00     0.063 C 
ATOM     15  C   UNL A   1      34.909  24.050  23.350  1.00  0.00     0.032 C 
ATOM     16  C   UNL A   1      30.422  25.626  25.451  1.00  0.00     0.018 A 
ATOM     17  C   UNL A   1      30.700  25.072  23.071  1.00  0.00     0.021 A 
BRANCH   9  18
ATOM     18  S   UNL A   1      32.599  21.858  25.760  1.00  0.00     0.264 S 
ATOM     19  O   UNL A   1      31.152  21.918  25.717  1.00  0.00    -0.201 OA
ATOM     20  O   UNL A   1      33.308  21.722  27.020  1.00  0.00    -0.201 OA
BRANCH  18  21
ATOM     21  C   UNL A   1      33.047  20.418  24.845  1.00  0.00     0.088 A 
ATOM     22  C   UNL A   1      34.134  16.582  23.311  1.00  0.00     0.044 C 
ATOM     23  C   UNL A   1      33.777  17.949  23.800  1.00  0.00    -0.051 A 
ATOM     24  C   UNL A   1      34.681  18.662  24.596  1.00  0.00     0.005 A 
ATOM     25  C   UNL A   1      32.551  18.528  23.455  1.00  0.00     0.005 A 
ATOM     26  C   UNL A   1      34.312  19.889  25.129  1.00  0.00     0.022 A 
ATOM     27  C   UNL A   1      32.201  19.779  23.950  1.00  0.00     0.022 A 
ENDBRANCH  18  21
ENDBRANCH   9  18
ENDBRANCH   6   8
ENDBRANCH   5   6
ENDBRANCH   4   5
ENDBRANCH   3   4
ENDBRANCH   2   3
ENDBRANCH   1   2
BRANCH   1  28
ATOM     28  C   UNL A   1      32.508  30.471  26.820  1.00  0.00     0.261 C 
BRANCH  28  29
ATOM     29  O   UNL A   1      33.931  30.292  26.654  1.00  0.00    -0.460 OA
BRANCH  29  30
ATOM     30  C   UNL A   1      34.732  31.058  27.451  1.00  0.00     0.338 C 
ATOM     31  O   UNL A   1      34.611  32.259  27.604  1.00  0.00    -0.246 OA
BRANCH  30  32
ATOM     32  C   UNL A   1      35.816  30.214  28.031  1.00  0.00     0.060 A 
ATOM     33  C   UNL A   1      35.759  29.759  29.367  1.00  0.00     0.016 A 
ATOM     34  C   UNL A   1      36.998  30.096  27.305  1.00  0.00     0.016 A 
ATOM     35  C   UNL A   1      36.921  29.293  30.008  1.00  0.00     0.010 A 
ATOM     36  C   UNL A   1      38.148  29.748  27.966  1.00  0.00     0.010 A 
ATOM     37  C   UNL A   1      38.128  29.355  29.318  1.00  0.00    -0.014 A 
BRANCH  37  38
ATOM     38  C   UNL A   1      39.474  29.131  29.852  1.00  0.00     0.031 A 
ATOM     39  C   UNL A   1      40.100  27.846  29.492  1.00  0.00     0.074 A 
ATOM     40  C   UNL A   1      40.212  30.185  30.278  1.00  0.00     0.049 A 
ATOM     41  N   UNL A   1      41.260  27.470  29.879  1.00  0.00    -0.248 NA
ATOM     42  C   UNL A   1      39.449  26.855  28.633  1.00  0.00     0.031 C 
ATOM     43  C   UNL A   1      41.661  30.385  30.294  1.00  0.00     0.029 A 
ATOM     44  N   UNL A   1      39.741  31.356  30.854  1.00  0.00    -0.354 N 
ATOM     45  C   UNL A   1      41.652  26.437  29.061  1.00  0.00     0.074 A 
ATOM     46  C   UNL A   1      40.458  26.027  28.368  1.00  0.00     0.031 C 
ATOM     47  C   UNL A   1      41.965  31.441  31.078  1.00  0.00     0.029 A 
ATOM     48  C   UNL A   1      40.724  31.929  31.663  1.00  0.00     0.049 A 
ATOM     49  H   UNL A   1      38.842  31.729  30.712  1.00  0.00     0.167 HD
ATOM     50  C   UNL A   1      42.985  26.172  28.967  1.00  0.00     0.031 A 
ATOM     51  C   UNL A   1      40.404  32.095  32.972  1.00  0.00     0.031 A 
ATOM     52  C   UNL A   1      43.729  26.997  29.940  1.00  0.00     0.049 A 
ATOM     53  C   UNL A   1      41.134  30.983  33.689  1.00  0.00     0.074 A 
ATOM     54  C   UNL A   1      44.523  28.126  29.828  1.00  0.00     0.029 A 
ATOM     55  N   UNL A   1      43.345  26.941  31.289  1.00  0.00    -0.354 N 
ATOM     56  N   UNL A   1      41.491  29.862  33.104  1.00  0.00    -0.248 NA
ATOM     57  C   UNL A   1      41.750  31.148  35.001  1.00  0.00     0.031 C 
ATOM     58  C   UNL A   1      44.473  28.821  31.083  1.00  0.00     0.029 A 
ATOM     59  C   UNL A   1      43.659  28.115  31.962  1.00  0.00     0.049 A 
ATOM     60  H   UNL A   1      42.907  26.165  31.707  1.00  0.00     0.167 HD
ATOM     61  C   UNL A   1      42.503  29.289  33.812  1.00  0.00     0.074 A 
ATOM     62  C   UNL A   1      42.574  30.086  35.034  1.00  0.00     0.031 C 
ATOM     63  C   UNL A   1      43.310  28.273  33.378  1.00  0.00     0.031 A 
BRANCH  50  64
ATOM     64  C   UNL A   1      43.589  25.363  27.833  1.00  0.00    -0.014 A 
ATOM     65  C   UNL A   1      44.126  24.084  28.082  1.00  0.00     0.010 A 
ATOM     66  C   UNL A   1      43.693  25.813  26.499  1.00  0.00     0.010 A 
ATOM     67  C   UNL A   1      44.735  23.318  27.068  1.00  0.00     0.020 A 
ATOM     68  C   UNL A   1      44.328  25.079  25.484  1.00  0.00     0.020 A 
ATOM     69  C   UNL A   1      44.833  23.822  25.771  1.00  0.00     0.054 A 
BRANCH  69  70
ATOM     70  S   UNL A   1      45.566  22.809  24.460  1.00  0.00     0.124 S 
ATOM     71  O   UNL A   1      46.142  21.692  25.203  1.00  0.00    -0.237 OA
ATOM     72  O   UNL A   1      44.406  22.486  23.632  1.00  0.00    -0.237 OA
ATOM     73  O   UNL A   1      46.542  23.699  23.833  1.00  0.00    -0.744 OA
ENDBRANCH  69  70
ENDBRANCH  50  64
BRANCH  51  74
ATOM     74  C   UNL A   1      39.015  32.691  33.107  1.00  0.00    -0.014 A 
ATOM     75  C   UNL A   1      38.808  33.925  32.424  1.00  0.00     0.010 A 
ATOM     76  C   UNL A   1      37.864  31.932  33.397  1.00  0.00     0.010 A 
ATOM     77  C   UNL A   1      37.544  34.317  31.942  1.00  0.00     0.020 A 
ATOM     78  C   UNL A   1      36.586  32.323  32.913  1.00  0.00     0.020 A 
ATOM     79  C   UNL A   1      36.441  33.494  32.159  1.00  0.00     0.054 A 
BRANCH  79  80
ATOM     80  S   UNL A   1      34.903  33.844  31.222  1.00  0.00     0.124 S 
ATOM     81  O   UNL A   1      34.215  34.799  32.084  1.00  0.00    -0.237 OA
ATOM     82  O   UNL A   1      35.412  34.399  29.969  1.00  0.00    -0.237 OA
ATOM     83  O   UNL A   1      34.274  32.531  31.101  1.00  0.00    -0.744 OA
ENDBRANCH  79  80
ENDBRANCH  51  74
BRANCH  63  84
ATOM     84  C   UNL A   1      43.886  27.306  34.371  1.00  0.00    -0.014 A 
ATOM     85  C   UNL A   1      43.124  26.255  34.910  1.00  0.00     0.010 A 
ATOM     86  C   UNL A   1      45.271  27.313  34.631  1.00  0.00     0.010 A 
ATOM     87  C   UNL A   1      43.696  25.314  35.758  1.00  0.00     0.020 A 
ATOM     88  C   UNL A   1      45.868  26.329  35.416  1.00  0.00     0.020 A 
ATOM     89  C   UNL A   1      45.065  25.361  36.008  1.00  0.00     0.054 A 
BRANCH  89  90
ATOM     90  S   UNL A   1      45.785  24.117  37.094  1.00  0.00     0.124 S 
ATOM     91  O   UNL A   1      45.401  22.880  36.416  1.00  0.00    -0.237 OA
ATOM     92  O   UNL A   1      47.210  24.438  37.054  1.00  0.00    -0.237 OA
ATOM     93  O   UNL A   1      45.132  24.359  38.377  1.00  0.00    -0.744 OA
ENDBRANCH  89  90
ENDBRANCH  63  84
ENDBRANCH  37  38
ENDBRANCH  30  32
ENDBRANCH  29  30
ENDBRANCH  28  29
ENDBRANCH   1  28
TORSDOF 19
ENDMDL
MODEL 2
REMARK VINA RESULT:     -12.3      1.355      2.088
REMARK SMILES Cc1ccc(S(=O)(=O)N2c3ccc(C(=O)OCCOCCOC(=O)c4ccc(-c5c6nc(c(-c7ccc(S(=O)(=O)[O-])cc7)c7ccc([nH]7)c(-c7ccc(S(=O)(=O)[O-])cc7)c7nc(c(-c8ccc(S(=O)(=O)[O-])cc8)c8ccc5[nH]8)C=C7)C=C6)cc4)cc3C[C@H]2C)cc1
REMARK SMILES IDX 20 1 19 2 18 3 17 4 16 5 14 6 15 7 13 8 9 9 10 10 88 11
REMARK SMILES IDX 11 12 86 13 87 14 89 15 12 16 85 17 6 18 7 19 8 20 5 21 1 22
REMARK SMILES IDX 2 23 3 24 91 25 4 26 90 27 21 28 22 29 23 30 24 31 25 32
REMARK SMILES IDX 26 33 84 34 27 35 83 36 28 37 29 38 30 39 77 40 31 41 82 42
REMARK SMILES IDX 76 43 78 44 32 45 81 46 75 47 74 48 33 50 63 51 44 52 62 53
REMARK SMILES IDX 45 54 48 55 61 56 79 57 46 58 47 59 60 61 80 62 49 63 34 64
REMARK SMILES IDX 35 65 43 66 36 67 42 68 37 69 38 70 39 71 40 72 41 73 64 74
REMARK SMILES IDX 65 75 73 76 66 77 72 78 67 79 68 80 69 81 70 82 71 83 50 84
REMARK SMILES IDX 51 85 59 86 52 87 58 88 53 89 54 90 55 91 56 92 57 93
REMARK H PARENT 78 49 48 60
REMARK Flexibility Score: inf
ROOT
ATOM      1  C   UNL A   1      31.715  29.208  26.872  1.00  0.00     0.202 C 
ENDROOT
BRANCH   1   2
ATOM      2  O   UNL A   1      31.443  28.611  25.624  1.00  0.00    -0.374 OA
BRANCH   2   3
ATOM      3  C   UNL A   1      31.047  29.532  24.612  1.00  0.00     0.202 C 
BRANCH   3   4
ATOM      4  C   UNL A   1      31.632  29.011  23.351  1.00  0.00     0.261 C 
BRANCH   4   5
ATOM      5  O   UNL A   1      32.979  28.588  23.545  1.00  0.00    -0.460 OA
BRANCH   5   6
ATOM      6  C   UNL A   1      33.590  27.834  22.605  1.00  0.00     0.338 C 
ATOM      7  O   UNL A   1      34.373  28.149  21.726  1.00  0.00    -0.246 OA
BRANCH   6   8
ATOM      8  C   UNL A   1      33.278  26.467  23.014  1.00  0.00     0.060 A 
ATOM      9  N   UNL A   1      31.509  23.102  24.633  1.00  0.00    -0.263 N 
ATOM     10  C   UNL A   1      32.049  24.244  23.951  1.00  0.00     0.055 A 
ATOM     11  C   UNL A   1      31.634  23.484  26.100  1.00  0.00     0.101 C 
ATOM     12  C   UNL A   1      31.953  24.488  22.598  1.00  0.00     0.028 A 
ATOM     13  C   UNL A   1      32.779  25.057  24.823  1.00  0.00    -0.021 A 
ATOM     14  C   UNL A   1      32.758  24.528  26.209  1.00  0.00     0.063 C 
ATOM     15  C   UNL A   1      30.280  24.093  26.516  1.00  0.00     0.032 C 
ATOM     16  C   UNL A   1      32.609  25.601  22.119  1.00  0.00     0.018 A 
ATOM     17  C   UNL A   1      33.423  26.177  24.368  1.00  0.00     0.021 A 
BRANCH   9  18
ATOM     18  S   UNL A   1      32.360  21.711  24.077  1.00  0.00     0.264 S 
ATOM     19  O   UNL A   1      32.265  21.670  22.631  1.00  0.00    -0.201 OA
ATOM     20  O   UNL A   1      31.954  20.576  24.888  1.00  0.00    -0.201 OA
BRANCH  18  21
ATOM     21  C   UNL A   1      34.073  21.922  24.440  1.00  0.00     0.088 A 
ATOM     22  C   UNL A   1      38.254  21.667  25.277  1.00  0.00     0.044 C 
ATOM     23  C   UNL A   1      36.790  21.808  25.010  1.00  0.00    -0.051 A 
ATOM     24  C   UNL A   1      35.863  21.332  25.944  1.00  0.00     0.005 A 
ATOM     25  C   UNL A   1      36.339  22.428  23.840  1.00  0.00     0.005 A 
ATOM     26  C   UNL A   1      34.506  21.375  25.653  1.00  0.00     0.022 A 
ATOM     27  C   UNL A   1      34.977  22.516  23.571  1.00  0.00     0.022 A 
ENDBRANCH  18  21
ENDBRANCH   9  18
ENDBRANCH   6   8
ENDBRANCH   5   6
ENDBRANCH   4   5
ENDBRANCH   3   4
ENDBRANCH   2   3
ENDBRANCH   1   2
BRANCH   1  28
ATOM     28  C   UNL A   1      32.446  30.554  26.759  1.00  0.00     0.261 C 
BRANCH  28  29
ATOM     29  O   UNL A   1      33.872  30.339  26.705  1.00  0.00    -0.460 OA
BRANCH  29  30
ATOM     30  C   UNL A   1      34.626  31.067  27.581  1.00  0.00     0.338 C 
ATOM     31  O   UNL A   1      34.453  32.246  27.828  1.00  0.00    -0.246 OA
BRANCH  30  32
ATOM     32  C   UNL A   1      35.731  30.221  28.115  1.00  0.00     0.060 A 
ATOM     33  C   UNL A   1      35.741  29.784  29.458  1.00  0.00     0.016 A 
ATOM     34  C   UNL A   1      36.873  30.084  27.330  1.00  0.00     0.016 A 
ATOM     35  C   UNL A   1      36.931  29.316  30.043  1.00  0.00     0.010 A 
ATOM     36  C   UNL A   1      38.053  29.733  27.935  1.00  0.00     0.010 A 
ATOM     37  C   UNL A   1      38.101  29.359  29.291  1.00  0.00    -0.014 A 
BRANCH  37  38
ATOM     38  C   UNL A   1      39.470  29.130  29.757  1.00  0.00     0.031 A 
ATOM     39  C   UNL A   1      40.062  27.829  29.392  1.00  0.00     0.074 A 
ATOM     40  C   UNL A   1      40.242  30.183  30.120  1.00  0.00     0.049 A 
ATOM     41  N   UNL A   1      41.237  27.448  29.725  1.00  0.00    -0.248 NA
ATOM     42  C   UNL A   1      39.356  26.829  28.591  1.00  0.00     0.031 C 
ATOM     43  C   UNL A   1      41.692  30.366  30.055  1.00  0.00     0.029 A 
ATOM     44  N   UNL A   1      39.816  31.372  30.695  1.00  0.00    -0.354 N 
ATOM     45  C   UNL A   1      41.574  26.394  28.909  1.00  0.00     0.074 A 
ATOM     46  C   UNL A   1      40.340  25.984  28.290  1.00  0.00     0.031 C 
ATOM     47  C   UNL A   1      42.049  31.434  30.798  1.00  0.00     0.029 A 
ATOM     48  C   UNL A   1      40.846  31.949  31.438  1.00  0.00     0.049 A 
ATOM     49  H   UNL A   1      38.914  31.753  30.593  1.00  0.00     0.167 HD
ATOM     50  C   UNL A   1      42.896  26.111  28.751  1.00  0.00     0.031 A 
ATOM     51  C   UNL A   1      40.598  32.147  32.758  1.00  0.00     0.031 A 
ATOM     52  C   UNL A   1      43.701  26.947  29.664  1.00  0.00     0.049 A 
ATOM     53  C   UNL A   1      41.354  31.041  33.459  1.00  0.00     0.074 A 
ATOM     54  C   UNL A   1      44.499  28.064  29.486  1.00  0.00     0.029 A 
ATOM     55  N   UNL A   1      43.388  26.923  31.032  1.00  0.00    -0.354 N 
ATOM     56  N   UNL A   1      41.667  29.904  32.880  1.00  0.00    -0.248 NA
ATOM     57  C   UNL A   1      42.041  31.226  34.732  1.00  0.00     0.031 C 
ATOM     58  C   UNL A   1      44.525  28.785  30.726  1.00  0.00     0.029 A 
ATOM     59  C   UNL A   1      43.751  28.108  31.662  1.00  0.00     0.049 A 
ATOM     60  H   UNL A   1      42.965  26.162  31.490  1.00  0.00     0.167 HD
ATOM     61  C   UNL A   1      42.709  29.334  33.545  1.00  0.00     0.074 A 
ATOM     62  C   UNL A   1      42.854  30.155  34.744  1.00  0.00     0.031 C 
ATOM     63  C   UNL A   1      43.480  28.300  33.091  1.00  0.00     0.031 A 
BRANCH  50  64
ATOM     64  C   UNL A   1      43.430  25.270  27.604  1.00  0.00    -0.014 A 
ATOM     65  C   UNL A   1      43.638  23.887  27.774  1.00  0.00     0.010 A 
ATOM     66  C   UNL A   1      43.782  25.782  26.335  1.00  0.00     0.010 A 
ATOM     67  C   UNL A   1      44.173  23.079  26.751  1.00  0.00     0.020 A 
ATOM     68  C   UNL A   1      44.348  25.000  25.317  1.00  0.00     0.020 A 
ATOM     69  C   UNL A   1      44.526  23.642  25.525  1.00  0.00     0.054 A 
BRANCH  69  70
ATOM     70  S   UNL A   1      45.160  22.587  24.194  1.00  0.00     0.124 S 
ATOM     71  O   UNL A   1      45.512  21.359  24.900  1.00  0.00    -0.237 OA
ATOM     72  O   UNL A   1      44.009  22.494  23.299  1.00  0.00    -0.237 OA
ATOM     73  O   UNL A   1      46.296  23.339  23.662  1.00  0.00    -0.744 OA
ENDBRANCH  69  70
ENDBRANCH  50  64
BRANCH  51  74
ATOM     74  C   UNL A   1      39.226  32.763  32.954  1.00  0.00    -0.014 A 
ATOM     75  C   UNL A   1      38.976  33.955  32.214  1.00  0.00     0.010 A 
ATOM     76  C   UNL A   1      38.094  32.033  33.370  1.00  0.00     0.010 A 
ATOM     77  C   UNL A   1      37.683  34.329  31.799  1.00  0.00     0.020 A 
ATOM     78  C   UNL A   1      36.787  32.405  32.954  1.00  0.00     0.020 A 
ATOM     79  C   UNL A   1      36.595  33.530  32.143  1.00  0.00     0.054 A 
BRANCH  79  80
ATOM     80  S   UNL A   1      34.996  33.836  31.297  1.00  0.00     0.124 S 
ATOM     81  O   UNL A   1      35.416  34.355  30.000  1.00  0.00    -0.237 OA
ATOM     82  O   UNL A   1      34.392  32.505  31.263  1.00  0.00    -0.237 OA
ATOM     83  O   UNL A   1      34.326  34.791  32.176  1.00  0.00    -0.744 OA
ENDBRANCH  79  80
ENDBRANCH  51  74
BRANCH  63  84
ATOM     84  C   UNL A   1      44.098  27.347  34.073  1.00  0.00    -0.014 A 
ATOM     85  C   UNL A   1      43.316  26.492  34.869  1.00  0.00     0.010 A 
ATOM     86  C   UNL A   1      45.494  27.148  34.070  1.00  0.00     0.010 A 
ATOM     87  C   UNL A   1      43.905  25.551  35.707  1.00  0.00     0.020 A 
ATOM     88  C   UNL A   1      46.087  26.155  34.847  1.00  0.00     0.020 A 
ATOM     89  C   UNL A   1      45.288  25.393  35.692  1.00  0.00     0.054 A 
BRANCH  89  90
ATOM     90  S   UNL A   1      46.024  24.153  36.771  1.00  0.00     0.124 S 
ATOM     91  O   UNL A   1      47.383  24.667  36.922  1.00  0.00    -0.237 OA
ATOM     92  O   UNL A   1      45.188  24.228  37.968  1.00  0.00    -0.237 OA
ATOM     93  O   UNL A   1      45.901  22.914  36.008  1.00  0.00    -0.744 OA
ENDBRANCH  89  90
ENDBRANCH  63  84
ENDBRANCH  37  38
ENDBRANCH  30  32
ENDBRANCH  29  30
ENDBRANCH  28  29
ENDBRANCH   1  28
TORSDOF 19
ENDMDL
MODEL 3
REMARK VINA RESULT:     -11.7      3.467      9.954
REMARK SMILES Cc1ccc(S(=O)(=O)N2c3ccc(C(=O)OCCOCCOC(=O)c4ccc(-c5c6nc(c(-c7ccc(S(=O)(=O)[O-])cc7)c7ccc([nH]7)c(-c7ccc(S(=O)(=O)[O-])cc7)c7nc(c(-c8ccc(S(=O)(=O)[O-])cc8)c8ccc5[nH]8)C=C7)C=C6)cc4)cc3C[C@H]2C)cc1
REMARK SMILES IDX 20 1 19 2 18 3 17 4 16 5 14 6 15 7 13 8 9 9 10 10 88 11
REMARK SMILES IDX 11 12 86 13 87 14 89 15 12 16 85 17 6 18 7 19 8 20 5 21 1 22
REMARK SMILES IDX 2 23 3 24 91 25 4 26 90 27 21 28 22 29 23 30 24 31 25 32
REMARK SMILES IDX 26 33 84 34 27 35 83 36 28 37 29 38 30 39 77 40 31 41 82 42
REMARK SMILES IDX 76 43 78 44 32 45 81 46 75 47 74 48 33 50 63 51 44 52 62 53
REMARK SMILES IDX 45 54 48 55 61 56 79 57 46 58 47 59 60 61 80 62 49 63 34 64
REMARK SMILES IDX 35 65 43 66 36 67 42 68 37 69 38 70 39 71 40 72 41 73 64 74
REMARK SMILES IDX 65 75 73 76 66 77 72 78 67 79 68 80 69 81 70 82 71 83 50 84
REMARK SMILES IDX 51 85 59 86 52 87 58 88 53 89 54 90 55 91 56 92 57 93
REMARK H PARENT 78 49 48 60
REMARK Flexibility Score: inf
ROOT
ATOM      1  C   UNL A   1      37.607  20.346  24.707  1.00  0.00     0.202 C 
ENDROOT
BRANCH   1   2
ATOM      2  O   UNL A   1      36.307  19.804  24.756  1.00  0.00    -0.374 OA
BRANCH   2   3
ATOM      3  C   UNL A   1      36.268  18.406  25.022  1.00  0.00     0.202 C 
BRANCH   3   4
ATOM      4  C   UNL A   1      35.057  17.903  24.325  1.00  0.00     0.261 C 
BRANCH   4   5
ATOM      5  O   UNL A   1      33.886  18.574  24.780  1.00  0.00    -0.460 OA
BRANCH   5   6
ATOM      6  C   UNL A   1      32.924  18.923  23.897  1.00  0.00     0.338 C 
ATOM      7  O   UNL A   1      32.290  18.243  23.109  1.00  0.00    -0.246 OA
BRANCH   6   8
ATOM      8  C   UNL A   1      32.630  20.309  24.250  1.00  0.00     0.060 A 
ATOM      9  N   UNL A   1      32.876  24.366  24.998  1.00  0.00    -0.263 N 
ATOM     10  C   UNL A   1      32.753  22.991  24.604  1.00  0.00     0.055 A 
ATOM     11  C   UNL A   1      33.858  24.307  26.159  1.00  0.00     0.101 C 
ATOM     12  C   UNL A   1      32.153  22.539  23.448  1.00  0.00     0.028 A 
ATOM     13  C   UNL A   1      33.243  22.134  25.594  1.00  0.00    -0.021 A 
ATOM     14  C   UNL A   1      33.783  22.889  26.751  1.00  0.00     0.063 C 
ATOM     15  C   UNL A   1      35.256  24.580  25.571  1.00  0.00     0.032 C 
ATOM     16  C   UNL A   1      32.059  21.174  23.288  1.00  0.00     0.018 A 
ATOM     17  C   UNL A   1      33.176  20.774  25.443  1.00  0.00     0.021 A 
BRANCH   9  18
ATOM     18  S   UNL A   1      31.291  24.968  25.300  1.00  0.00     0.264 S 
ATOM     19  O   UNL A   1      31.291  25.610  26.599  1.00  0.00    -0.201 OA
ATOM     20  O   UNL A   1      30.338  23.920  24.980  1.00  0.00    -0.201 OA
BRANCH  18  21
ATOM     21  C   UNL A   1      30.947  26.246  24.133  1.00  0.00     0.088 A 
ATOM     22  C   UNL A   1      29.927  29.757  21.924  1.00  0.00     0.044 C 
ATOM     23  C   UNL A   1      30.275  28.496  22.649  1.00  0.00    -0.051 A 
ATOM     24  C   UNL A   1      29.275  27.777  23.312  1.00  0.00     0.005 A 
ATOM     25  C   UNL A   1      31.591  28.022  22.657  1.00  0.00     0.005 A 
ATOM     26  C   UNL A   1      29.612  26.660  24.065  1.00  0.00     0.022 A 
ATOM     27  C   UNL A   1      31.921  26.876  23.371  1.00  0.00     0.022 A 
ENDBRANCH  18  21
ENDBRANCH   9  18
ENDBRANCH   6   8
ENDBRANCH   5   6
ENDBRANCH   4   5
ENDBRANCH   3   4
ENDBRANCH   2   3
ENDBRANCH   1   2
BRANCH   1  28
ATOM     28  C   UNL A   1      37.633  21.880  24.773  1.00  0.00     0.261 C 
BRANCH  28  29
ATOM     29  O   UNL A   1      37.819  22.313  26.137  1.00  0.00    -0.460 OA
BRANCH  29  30
ATOM     30  C   UNL A   1      39.110  22.513  26.535  1.00  0.00     0.338 C 
ATOM     31  O   UNL A   1      39.920  21.626  26.728  1.00  0.00    -0.246 OA
BRANCH  30  32
ATOM     32  C   UNL A   1      39.341  23.966  26.775  1.00  0.00     0.060 A 
ATOM     33  C   UNL A   1      40.072  24.756  25.860  1.00  0.00     0.016 A 
ATOM     34  C   UNL A   1      39.036  24.467  28.037  1.00  0.00     0.016 A 
ATOM     35  C   UNL A   1      40.595  26.000  26.256  1.00  0.00     0.010 A 
ATOM     36  C   UNL A   1      39.640  25.627  28.453  1.00  0.00     0.010 A 
ATOM     37  C   UNL A   1      40.430  26.397  27.580  1.00  0.00    -0.014 A 
BRANCH  37  38
ATOM     38  C   UNL A   1      41.063  27.531  28.256  1.00  0.00     0.031 A 
ATOM     39  C   UNL A   1      40.221  28.730  28.421  1.00  0.00     0.074 A 
ATOM     40  C   UNL A   1      42.166  27.329  29.018  1.00  0.00     0.049 A 
ATOM     41  N   UNL A   1      40.609  29.819  28.971  1.00  0.00    -0.248 NA
ATOM     42  C   UNL A   1      38.831  28.796  27.971  1.00  0.00     0.031 C 
ATOM     43  C   UNL A   1      42.647  28.041  30.202  1.00  0.00     0.029 A 
ATOM     44  N   UNL A   1      43.155  26.377  28.819  1.00  0.00    -0.354 N 
ATOM     45  C   UNL A   1      39.484  30.543  29.286  1.00  0.00     0.074 A 
ATOM     46  C   UNL A   1      38.411  29.914  28.560  1.00  0.00     0.031 C 
ATOM     47  C   UNL A   1      43.929  27.699  30.448  1.00  0.00     0.029 A 
ATOM     48  C   UNL A   1      44.358  26.800  29.386  1.00  0.00     0.049 A 
ATOM     49  H   UNL A   1      43.027  25.525  28.344  1.00  0.00     0.167 HD
ATOM     50  C   UNL A   1      39.591  31.493  30.256  1.00  0.00     0.031 A 
ATOM     51  C   UNL A   1      45.414  26.919  28.541  1.00  0.00     0.031 A 
ATOM     52  C   UNL A   1      41.005  31.644  30.655  1.00  0.00     0.049 A 
ATOM     53  C   UNL A   1      45.552  28.406  28.307  1.00  0.00     0.074 A 
ATOM     54  C   UNL A   1      41.735  31.241  31.762  1.00  0.00     0.029 A 
ATOM     55  N   UNL A   1      41.953  31.902  29.654  1.00  0.00    -0.354 N 
ATOM     56  N   UNL A   1      44.555  29.250  28.443  1.00  0.00    -0.248 NA
ATOM     57  C   UNL A   1      46.839  29.078  28.179  1.00  0.00     0.031 C 
ATOM     58  C   UNL A   1      43.105  31.112  31.357  1.00  0.00     0.029 A 
ATOM     59  C   UNL A   1      43.215  31.442  30.011  1.00  0.00     0.049 A 
ATOM     60  H   UNL A   1      41.750  32.353  28.804  1.00  0.00     0.167 HD
ATOM     61  C   UNL A   1      45.052  30.503  28.640  1.00  0.00     0.074 A 
ATOM     62  C   UNL A   1      46.482  30.358  28.384  1.00  0.00     0.031 C 
ATOM     63  C   UNL A   1      44.345  31.585  29.085  1.00  0.00     0.031 A 
BRANCH  50  64
ATOM     64  C   UNL A   1      38.390  32.074  30.981  1.00  0.00    -0.014 A 
ATOM     65  C   UNL A   1      38.018  31.578  32.247  1.00  0.00     0.010 A 
ATOM     66  C   UNL A   1      37.559  33.091  30.463  1.00  0.00     0.010 A 
ATOM     67  C   UNL A   1      36.885  32.058  32.935  1.00  0.00     0.020 A 
ATOM     68  C   UNL A   1      36.409  33.557  31.118  1.00  0.00     0.020 A 
ATOM     69  C   UNL A   1      36.085  33.047  32.364  1.00  0.00     0.054 A 
BRANCH  69  70
ATOM     70  S   UNL A   1      34.664  33.701  33.279  1.00  0.00     0.124 S 
ATOM     71  O   UNL A   1      34.636  35.102  32.870  1.00  0.00    -0.237 OA
ATOM     72  O   UNL A   1      33.567  32.874  32.780  1.00  0.00    -0.237 OA
ATOM     73  O   UNL A   1      35.016  33.477  34.681  1.00  0.00    -0.744 OA
ENDBRANCH  69  70
ENDBRANCH  50  64
BRANCH  51  74
ATOM     74  C   UNL A   1      45.509  25.705  27.636  1.00  0.00    -0.014 A 
ATOM     75  C   UNL A   1      45.573  24.446  28.302  1.00  0.00     0.010 A 
ATOM     76  C   UNL A   1      45.054  25.686  26.302  1.00  0.00     0.010 A 
ATOM     77  C   UNL A   1      45.091  23.258  27.720  1.00  0.00     0.020 A 
ATOM     78  C   UNL A   1      44.565  24.492  25.709  1.00  0.00     0.020 A 
ATOM     79  C   UNL A   1      44.554  23.293  26.434  1.00  0.00     0.054 A 
BRANCH  79  80
ATOM     80  S   UNL A   1      43.615  21.830  25.848  1.00  0.00     0.124 S 
ATOM     81  O   UNL A   1      42.688  22.412  24.883  1.00  0.00    -0.237 OA
ATOM     82  O   UNL A   1      44.663  20.990  25.269  1.00  0.00    -0.237 OA
ATOM     83  O   UNL A   1      43.013  21.304  27.070  1.00  0.00    -0.744 OA
ENDBRANCH  79  80
ENDBRANCH  51  74
BRANCH  63  84
ATOM     84  C   UNL A   1      44.744  32.964  28.649  1.00  0.00    -0.014 A 
ATOM     85  C   UNL A   1      44.507  33.426  27.342  1.00  0.00     0.010 A 
ATOM     86  C   UNL A   1      45.185  33.901  29.606  1.00  0.00     0.010 A 
ATOM     87  C   UNL A   1      44.799  34.736  26.978  1.00  0.00     0.020 A 
ATOM     88  C   UNL A   1      45.406  35.234  29.270  1.00  0.00     0.020 A 
ATOM     89  C   UNL A   1      45.251  35.630  27.946  1.00  0.00     0.054 A 
BRANCH  89  90
ATOM     90  S   UNL A   1      45.602  37.327  27.453  1.00  0.00     0.124 S 
ATOM     91  O   UNL A   1      44.276  37.797  27.060  1.00  0.00    -0.237 OA
ATOM     92  O   UNL A   1      46.139  37.915  28.678  1.00  0.00    -0.237 OA
ATOM     93  O   UNL A   1      46.565  37.178  26.365  1.00  0.00    -0.744 OA
ENDBRANCH  89  90
ENDBRANCH  63  84
ENDBRANCH  37  38
ENDBRANCH  30  32
ENDBRANCH  29  30
ENDBRANCH  28  29
ENDBRANCH   1  28
TORSDOF 19
ENDMDL
