MODEL 1
REMARK VINA RESULT:      -9.1      0.000      0.000
REMARK SMILES C[C@H](Nc1ccc(N(C)C)cc1)[C@@H](C)C(=O)OCCOCCOC(=O)c1ccc(-c2c3nc(c(-c4ccc(S(=O)(=O)[O-])cc4)c4ccc([nH]4)c(-c4ccc(S(=O)(=O)[O-])cc4)c4nc(c(-c5ccc(S(=O)(=O)[O-])cc5)c5ccc2[nH]5)C=C4)C=C3)cc1
REMARK SMILES IDX 19 1 18 2 17 3 15 4 16 5 13 6 14 7 2 8 1 9 3 10 4 12 5 13
REMARK SMILES IDX 12 14 6 15 11 16 7 17 8 18 9 19 10 20 20 21 21 22 22 23
REMARK SMILES IDX 23 24 24 25 25 26 26 27 27 28 85 29 28 30 84 31 29 32 30 33
REMARK SMILES IDX 31 34 78 35 32 36 83 37 77 38 79 39 33 40 82 41 76 42 75 43
REMARK SMILES IDX 34 45 64 46 45 47 63 48 46 49 49 50 62 51 80 52 47 53 48 54
REMARK SMILES IDX 61 56 81 57 50 58 35 59 36 60 44 61 37 62 43 63 38 64 39 65
REMARK SMILES IDX 40 66 41 67 42 68 65 69 66 70 74 71 67 72 73 73 68 74 69 75
REMARK SMILES IDX 70 76 71 77 72 78 51 79 52 80 60 81 53 82 59 83 54 84 55 85
REMARK SMILES IDX 56 86 57 87 58 88
REMARK H PARENT 3 11 79 44 49 55
REMARK Flexibility Score: inf
ROOT
ATOM      1  C   UNL A   1      32.580  30.142  26.350  1.00  0.00     0.202 C 
ENDROOT
BRANCH   1   2
ATOM      2  C   UNL A   1      32.828  29.291  25.099  1.00  0.00     0.261 C 
BRANCH   2   3
ATOM      3  O   UNL A   1      31.722  29.272  24.168  1.00  0.00    -0.463 OA
BRANCH   3   4
ATOM      4  C   UNL A   1      31.858  28.426  23.111  1.00  0.00     0.310 C 
ATOM      5  O   UNL A   1      32.873  28.325  22.429  1.00  0.00    -0.252 OA
BRANCH   4   6
ATOM      6  C   UNL A   1      30.583  27.679  22.758  1.00  0.00     0.118 C 
ATOM      7  C   UNL A   1      29.424  28.666  22.936  1.00  0.00     0.022 C 
BRANCH   6   8
ATOM      8  C   UNL A   1      30.337  26.330  23.482  1.00  0.00     0.090 C 
ATOM      9  C   UNL A   1      29.036  26.347  24.285  1.00  0.00     0.031 C 
BRANCH   8  10
ATOM     10  N   UNL A   1      31.525  26.010  24.302  1.00  0.00    -0.382 N 
ATOM     11  H   UNL A   1      31.933  26.753  24.803  1.00  0.00     0.160 HD
BRANCH  10  12
ATOM     12  C   UNL A   1      32.117  24.772  24.434  1.00  0.00     0.034 A 
ATOM     13  C   UNL A   1      32.707  24.392  25.636  1.00  0.00     0.028 A 
ATOM     14  C   UNL A   1      32.157  23.858  23.386  1.00  0.00     0.028 A 
ATOM     15  C   UNL A   1      33.280  23.117  25.796  1.00  0.00     0.028 A 
ATOM     16  C   UNL A   1      32.724  22.586  23.551  1.00  0.00     0.028 A 
ATOM     17  C   UNL A   1      33.298  22.168  24.762  1.00  0.00     0.036 A 
BRANCH  17  18
ATOM     18  N   UNL A   1      33.854  20.904  24.906  1.00  0.00    -0.378 N 
ATOM     19  C   UNL A   1      35.287  20.668  24.999  1.00  0.00     0.143 C 
ATOM     20  C   UNL A   1      32.993  19.750  25.149  1.00  0.00     0.143 C 
ENDBRANCH  17  18
ENDBRANCH  10  12
ENDBRANCH   8  10
ENDBRANCH   6   8
ENDBRANCH   4   6
ENDBRANCH   3   4
ENDBRANCH   2   3
ENDBRANCH   1   2
BRANCH   1  21
ATOM     21  O   UNL A   1      33.735  30.613  27.045  1.00  0.00    -0.374 OA
BRANCH  21  22
ATOM     22  C   UNL A   1      33.651  31.909  27.631  1.00  0.00     0.202 C 
BRANCH  22  23
ATOM     23  C   UNL A   1      34.976  32.497  28.138  1.00  0.00     0.261 C 
BRANCH  23  24
ATOM     24  O   UNL A   1      36.072  31.573  27.993  1.00  0.00    -0.460 OA
BRANCH  24  25
ATOM     25  C   UNL A   1      36.574  31.117  29.163  1.00  0.00     0.338 C 
ATOM     26  O   UNL A   1      36.051  31.199  30.269  1.00  0.00    -0.246 OA
BRANCH  25  27
ATOM     27  C   UNL A   1      37.791  30.316  28.941  1.00  0.00     0.060 A 
ATOM     28  C   UNL A   1      38.658  30.169  30.030  1.00  0.00     0.016 A 
ATOM     29  C   UNL A   1      38.150  29.829  27.681  1.00  0.00     0.016 A 
ATOM     30  C   UNL A   1      39.920  29.610  29.847  1.00  0.00     0.010 A 
ATOM     31  C   UNL A   1      39.422  29.266  27.500  1.00  0.00     0.010 A 
ATOM     32  C   UNL A   1      40.332  29.203  28.570  1.00  0.00    -0.014 A 
BRANCH  32  33
ATOM     33  C   UNL A   1      41.772  28.891  28.364  1.00  0.00     0.031 A 
ATOM     34  C   UNL A   1      42.172  27.482  28.004  1.00  0.00     0.074 A 
ATOM     35  C   UNL A   1      42.699  29.867  28.378  1.00  0.00     0.049 A 
ATOM     36  N   UNL A   1      43.344  27.021  27.645  1.00  0.00    -0.248 NA
ATOM     37  C   UNL A   1      41.113  26.461  28.049  1.00  0.00     0.031 C 
ATOM     38  C   UNL A   1      42.439  31.275  28.675  1.00  0.00     0.029 A 
ATOM     39  N   UNL A   1      44.045  29.822  28.109  1.00  0.00    -0.354 N 
ATOM     40  C   UNL A   1      43.162  25.662  27.410  1.00  0.00     0.074 A 
ATOM     41  C   UNL A   1      41.777  25.366  27.709  1.00  0.00     0.031 C 
ATOM     42  C   UNL A   1      43.587  31.965  28.555  1.00  0.00     0.029 A 
ATOM     43  C   UNL A   1      44.664  31.046  28.187  1.00  0.00     0.049 A 
ATOM     44  H   UNL A   1      44.521  28.991  27.883  1.00  0.00     0.167 HD
ATOM     45  C   UNL A   1      44.057  24.744  26.972  1.00  0.00     0.031 A 
ATOM     46  C   UNL A   1      45.950  31.393  27.978  1.00  0.00     0.031 A 
ATOM     47  C   UNL A   1      45.437  25.029  26.687  1.00  0.00     0.049 A 
ATOM     48  C   UNL A   1      46.940  30.345  27.544  1.00  0.00     0.074 A 
ATOM     49  C   UNL A   1      46.420  24.166  26.231  1.00  0.00     0.029 A 
ATOM     50  N   UNL A   1      46.036  26.271  26.833  1.00  0.00    -0.354 N 
ATOM     51  N   UNL A   1      46.741  29.072  27.298  1.00  0.00    -0.248 NA
ATOM     52  C   UNL A   1      48.328  30.787  27.342  1.00  0.00     0.031 C 
ATOM     53  C   UNL A   1      47.623  24.876  26.149  1.00  0.00     0.029 A 
ATOM     54  C   UNL A   1      47.378  26.193  26.501  1.00  0.00     0.049 A 
ATOM     55  H   UNL A   1      45.574  27.089  27.131  1.00  0.00     0.167 HD
ATOM     56  C   UNL A   1      47.972  28.566  26.891  1.00  0.00     0.074 A 
ATOM     57  C   UNL A   1      48.905  29.674  26.909  1.00  0.00     0.031 C 
ATOM     58  C   UNL A   1      48.300  27.300  26.534  1.00  0.00     0.031 A 
BRANCH  45  59
ATOM     59  C   UNL A   1      43.569  23.329  26.803  1.00  0.00    -0.014 A 
ATOM     60  C   UNL A   1      43.272  22.525  27.919  1.00  0.00     0.010 A 
ATOM     61  C   UNL A   1      43.377  22.808  25.511  1.00  0.00     0.010 A 
ATOM     62  C   UNL A   1      42.830  21.210  27.745  1.00  0.00     0.020 A 
ATOM     63  C   UNL A   1      42.912  21.501  25.333  1.00  0.00     0.020 A 
ATOM     64  C   UNL A   1      42.658  20.705  26.453  1.00  0.00     0.054 A 
BRANCH  64  65
ATOM     65  S   UNL A   1      42.069  19.000  26.253  1.00  0.00     0.124 S 
ATOM     66  O   UNL A   1      40.719  19.208  25.735  1.00  0.00    -0.237 OA
ATOM     67  O   UNL A   1      43.026  18.438  25.303  1.00  0.00    -0.237 OA
ATOM     68  O   UNL A   1      42.140  18.449  27.604  1.00  0.00    -0.744 OA
ENDBRANCH  64  65
ENDBRANCH  45  59
BRANCH  46  69
ATOM     69  C   UNL A   1      46.378  32.805  28.178  1.00  0.00    -0.014 A 
ATOM     70  C   UNL A   1      46.366  33.720  27.112  1.00  0.00     0.010 A 
ATOM     71  C   UNL A   1      46.798  33.239  29.448  1.00  0.00     0.010 A 
ATOM     72  C   UNL A   1      46.779  35.042  27.309  1.00  0.00     0.020 A 
ATOM     73  C   UNL A   1      47.187  34.564  29.655  1.00  0.00     0.020 A 
ATOM     74  C   UNL A   1      47.184  35.456  28.581  1.00  0.00     0.054 A 
BRANCH  74  75
ATOM     75  S   UNL A   1      47.656  37.190  28.834  1.00  0.00     0.124 S 
ATOM     76  O   UNL A   1      47.515  37.336  30.279  1.00  0.00    -0.237 OA
ATOM     77  O   UNL A   1      49.024  37.224  28.324  1.00  0.00    -0.237 OA
ATOM     78  O   UNL A   1      46.683  37.927  28.030  1.00  0.00    -0.744 OA
ENDBRANCH  74  75
ENDBRANCH  46  69
BRANCH  58  79
ATOM     79  C   UNL A   1      49.722  27.048  26.110  1.00  0.00    -0.014 A 
ATOM     80  C   UNL A   1      50.124  27.217  24.773  1.00  0.00     0.010 A 
ATOM     81  C   UNL A   1      50.678  26.668  27.070  1.00  0.00     0.010 A 
ATOM     82  C   UNL A   1      51.448  26.968  24.397  1.00  0.00     0.020 A 
ATOM     83  C   UNL A   1      52.006  26.442  26.702  1.00  0.00     0.020 A 
ATOM     84  C   UNL A   1      52.379  26.575  25.363  1.00  0.00     0.054 A 
BRANCH  84  85
ATOM     85  S   UNL A   1      54.095  26.275  24.856  1.00  0.00     0.124 S 
ATOM     86  O   UNL A   1      54.095  24.833  24.629  1.00  0.00    -0.237 OA
ATOM     87  O   UNL A   1      54.227  27.100  23.658  1.00  0.00    -0.237 OA
ATOM     88  O   UNL A   1      54.878  26.725  26.004  1.00  0.00    -0.744 OA
ENDBRANCH  84  85
ENDBRANCH  58  79
ENDBRANCH  32  33
ENDBRANCH  25  27
ENDBRANCH  24  25
ENDBRANCH  23  24
ENDBRANCH  22  23
ENDBRANCH  21  22
ENDBRANCH   1  21
TORSDOF 21
ENDMDL
MODEL 2
REMARK VINA RESULT:      -8.8      6.160     10.328
REMARK SMILES C[C@H](Nc1ccc(N(C)C)cc1)[C@@H](C)C(=O)OCCOCCOC(=O)c1ccc(-c2c3nc(c(-c4ccc(S(=O)(=O)[O-])cc4)c4ccc([nH]4)c(-c4ccc(S(=O)(=O)[O-])cc4)c4nc(c(-c5ccc(S(=O)(=O)[O-])cc5)c5ccc2[nH]5)C=C4)C=C3)cc1
REMARK SMILES IDX 19 1 18 2 17 3 15 4 16 5 13 6 14 7 2 8 1 9 3 10 4 12 5 13
REMARK SMILES IDX 12 14 6 15 11 16 7 17 8 18 9 19 10 20 20 21 21 22 22 23
REMARK SMILES IDX 23 24 24 25 25 26 26 27 27 28 85 29 28 30 84 31 29 32 30 33
REMARK SMILES IDX 31 34 78 35 32 36 83 37 77 38 79 39 33 40 82 41 76 42 75 43
REMARK SMILES IDX 34 45 64 46 45 47 63 48 46 49 49 50 62 51 80 52 47 53 48 54
REMARK SMILES IDX 61 56 81 57 50 58 35 59 36 60 44 61 37 62 43 63 38 64 39 65
REMARK SMILES IDX 40 66 41 67 42 68 65 69 66 70 74 71 67 72 73 73 68 74 69 75
REMARK SMILES IDX 70 76 71 77 72 78 51 79 52 80 60 81 53 82 59 83 54 84 55 85
REMARK SMILES IDX 56 86 57 87 58 88
REMARK H PARENT 3 11 79 44 49 55
REMARK Flexibility Score: inf
ROOT
ATOM      1  C   UNL A   1      31.436  30.530  26.471  1.00  0.00     0.202 C 
ENDROOT
BRANCH   1   2
ATOM      2  C   UNL A   1      31.878  29.812  25.191  1.00  0.00     0.261 C 
BRANCH   2   3
ATOM      3  O   UNL A   1      30.794  29.492  24.288  1.00  0.00    -0.463 OA
BRANCH   3   4
ATOM      4  C   UNL A   1      31.074  28.555  23.343  1.00  0.00     0.310 C 
ATOM      5  O   UNL A   1      32.194  28.337  22.892  1.00  0.00    -0.252 OA
BRANCH   4   6
ATOM      6  C   UNL A   1      29.842  27.861  22.786  1.00  0.00     0.118 C 
ATOM      7  C   UNL A   1      28.741  28.921  22.679  1.00  0.00     0.022 C 
BRANCH   6   8
ATOM      8  C   UNL A   1      29.369  26.579  23.520  1.00  0.00     0.090 C 
ATOM      9  C   UNL A   1      27.893  26.664  23.913  1.00  0.00     0.031 C 
BRANCH   8  10
ATOM     10  N   UNL A   1      30.267  26.332  24.669  1.00  0.00    -0.382 N 
ATOM     11  H   UNL A   1      30.439  27.093  25.269  1.00  0.00     0.160 HD
BRANCH  10  12
ATOM     12  C   UNL A   1      30.885  25.140  24.981  1.00  0.00     0.034 A 
ATOM     13  C   UNL A   1      30.908  24.092  24.066  1.00  0.00     0.028 A 
ATOM     14  C   UNL A   1      31.501  24.929  26.210  1.00  0.00     0.028 A 
ATOM     15  C   UNL A   1      31.568  22.885  24.358  1.00  0.00     0.028 A 
ATOM     16  C   UNL A   1      32.163  23.726  26.495  1.00  0.00     0.028 A 
ATOM     17  C   UNL A   1      32.227  22.665  25.578  1.00  0.00     0.036 A 
BRANCH  17  18
ATOM     18  N   UNL A   1      32.888  21.483  25.878  1.00  0.00    -0.378 N 
ATOM     19  C   UNL A   1      32.596  20.216  25.223  1.00  0.00     0.143 C 
ATOM     20  C   UNL A   1      34.050  21.498  26.762  1.00  0.00     0.143 C 
ENDBRANCH  17  18
ENDBRANCH  10  12
ENDBRANCH   8  10
ENDBRANCH   6   8
ENDBRANCH   4   6
ENDBRANCH   3   4
ENDBRANCH   2   3
ENDBRANCH   1   2
BRANCH   1  21
ATOM     21  O   UNL A   1      31.608  31.948  26.503  1.00  0.00    -0.374 OA
BRANCH  21  22
ATOM     22  C   UNL A   1      32.632  32.454  27.353  1.00  0.00     0.202 C 
BRANCH  22  23
ATOM     23  C   UNL A   1      32.524  33.944  27.711  1.00  0.00     0.261 C 
BRANCH  23  24
ATOM     24  O   UNL A   1      33.803  34.515  28.051  1.00  0.00    -0.460 OA
BRANCH  24  25
ATOM     25  C   UNL A   1      34.113  34.441  29.366  1.00  0.00     0.338 C 
ATOM     26  O   UNL A   1      33.419  34.812  30.306  1.00  0.00    -0.246 OA
BRANCH  25  27
ATOM     27  C   UNL A   1      35.352  33.673  29.575  1.00  0.00     0.060 A 
ATOM     28  C   UNL A   1      35.247  32.495  30.324  1.00  0.00     0.016 A 
ATOM     29  C   UNL A   1      36.605  34.143  29.170  1.00  0.00     0.016 A 
ATOM     30  C   UNL A   1      36.396  31.829  30.742  1.00  0.00     0.010 A 
ATOM     31  C   UNL A   1      37.761  33.468  29.593  1.00  0.00     0.010 A 
ATOM     32  C   UNL A   1      37.662  32.339  30.425  1.00  0.00    -0.014 A 
BRANCH  32  33
ATOM     33  C   UNL A   1      38.844  31.773  31.129  1.00  0.00     0.031 A 
ATOM     34  C   UNL A   1      39.182  32.270  32.511  1.00  0.00     0.074 A 
ATOM     35  C   UNL A   1      39.537  30.748  30.598  1.00  0.00     0.049 A 
ATOM     36  N   UNL A   1      40.075  31.821  33.357  1.00  0.00    -0.248 NA
ATOM     37  C   UNL A   1      38.409  33.419  33.010  1.00  0.00     0.031 C 
ATOM     38  C   UNL A   1      39.290  30.150  29.287  1.00  0.00     0.029 A 
ATOM     39  N   UNL A   1      40.575  30.012  31.114  1.00  0.00    -0.354 N 
ATOM     40  C   UNL A   1      39.964  32.622  34.488  1.00  0.00     0.074 A 
ATOM     41  C   UNL A   1      38.947  33.611  34.205  1.00  0.00     0.031 C 
ATOM     42  C   UNL A   1      40.143  29.126  29.107  1.00  0.00     0.029 A 
ATOM     43  C   UNL A   1      41.004  29.006  30.283  1.00  0.00     0.049 A 
ATOM     44  H   UNL A   1      40.976  30.191  31.995  1.00  0.00     0.167 HD
ATOM     45  C   UNL A   1      40.634  32.537  35.663  1.00  0.00     0.031 A 
ATOM     46  C   UNL A   1      41.974  28.084  30.451  1.00  0.00     0.031 A 
ATOM     47  C   UNL A   1      41.656  31.565  35.947  1.00  0.00     0.049 A 
ATOM     48  C   UNL A   1      42.743  28.042  31.744  1.00  0.00     0.074 A 
ATOM     49  C   UNL A   1      42.386  31.397  37.110  1.00  0.00     0.029 A 
ATOM     50  N   UNL A   1      42.098  30.600  35.056  1.00  0.00    -0.354 N 
ATOM     51  N   UNL A   1      42.601  28.790  32.813  1.00  0.00    -0.248 NA
ATOM     52  C   UNL A   1      43.793  27.020  31.859  1.00  0.00     0.031 C 
ATOM     53  C   UNL A   1      43.303  30.359  36.906  1.00  0.00     0.029 A 
ATOM     54  C   UNL A   1      43.106  29.847  35.634  1.00  0.00     0.049 A 
ATOM     55  H   UNL A   1      41.746  30.468  34.145  1.00  0.00     0.167 HD
ATOM     56  C   UNL A   1      43.529  28.313  33.735  1.00  0.00     0.074 A 
ATOM     57  C   UNL A   1      44.213  27.203  33.103  1.00  0.00     0.031 C 
ATOM     58  C   UNL A   1      43.788  28.753  34.991  1.00  0.00     0.031 A 
BRANCH  45  59
ATOM     59  C   UNL A   1      40.298  33.551  36.725  1.00  0.00    -0.014 A 
ATOM     60  C   UNL A   1      39.257  33.322  37.645  1.00  0.00     0.010 A 
ATOM     61  C   UNL A   1      41.052  34.734  36.824  1.00  0.00     0.010 A 
ATOM     62  C   UNL A   1      38.952  34.277  38.619  1.00  0.00     0.020 A 
ATOM     63  C   UNL A   1      40.764  35.681  37.812  1.00  0.00     0.020 A 
ATOM     64  C   UNL A   1      39.704  35.453  38.692  1.00  0.00     0.054 A 
BRANCH  64  65
ATOM     65  S   UNL A   1      39.296  36.672  39.973  1.00  0.00     0.124 S 
ATOM     66  O   UNL A   1      38.712  37.753  39.184  1.00  0.00    -0.237 OA
ATOM     67  O   UNL A   1      38.362  35.942  40.826  1.00  0.00    -0.237 OA
ATOM     68  O   UNL A   1      40.588  36.975  40.586  1.00  0.00    -0.744 OA
ENDBRANCH  64  65
ENDBRANCH  45  59
BRANCH  46  69
ATOM     69  C   UNL A   1      42.274  27.118  29.358  1.00  0.00    -0.014 A 
ATOM     70  C   UNL A   1      41.511  25.948  29.199  1.00  0.00     0.010 A 
ATOM     71  C   UNL A   1      43.330  27.372  28.465  1.00  0.00     0.010 A 
ATOM     72  C   UNL A   1      41.807  25.044  28.175  1.00  0.00     0.020 A 
ATOM     73  C   UNL A   1      43.614  26.484  27.426  1.00  0.00     0.020 A 
ATOM     74  C   UNL A   1      42.856  25.319  27.292  1.00  0.00     0.054 A 
BRANCH  74  75
ATOM     75  S   UNL A   1      43.187  24.166  25.930  1.00  0.00     0.124 S 
ATOM     76  O   UNL A   1      43.340  25.071  24.796  1.00  0.00    -0.237 OA
ATOM     77  O   UNL A   1      44.405  23.494  26.373  1.00  0.00    -0.237 OA
ATOM     78  O   UNL A   1      41.994  23.322  25.904  1.00  0.00    -0.744 OA
ENDBRANCH  74  75
ENDBRANCH  46  69
BRANCH  58  79
ATOM     79  C   UNL A   1      44.843  28.018  35.776  1.00  0.00    -0.014 A 
ATOM     80  C   UNL A   1      44.519  26.893  36.555  1.00  0.00     0.010 A 
ATOM     81  C   UNL A   1      46.182  28.441  35.707  1.00  0.00     0.010 A 
ATOM     82  C   UNL A   1      45.510  26.230  37.285  1.00  0.00     0.020 A 
ATOM     83  C   UNL A   1      47.180  27.766  36.416  1.00  0.00     0.020 A 
ATOM     84  C   UNL A   1      46.833  26.676  37.216  1.00  0.00     0.054 A 
BRANCH  84  85
ATOM     85  S   UNL A   1      48.106  25.790  38.158  1.00  0.00     0.124 S 
ATOM     86  O   UNL A   1      47.597  25.890  39.523  1.00  0.00    -0.237 OA
ATOM     87  O   UNL A   1      48.072  24.453  37.570  1.00  0.00    -0.237 OA
ATOM     88  O   UNL A   1      49.325  26.549  37.890  1.00  0.00    -0.744 OA
ENDBRANCH  84  85
ENDBRANCH  58  79
ENDBRANCH  32  33
ENDBRANCH  25  27
ENDBRANCH  24  25
ENDBRANCH  23  24
ENDBRANCH  22  23
ENDBRANCH  21  22
ENDBRANCH   1  21
TORSDOF 21
ENDMDL
MODEL 3
REMARK VINA RESULT:      -8.4      5.213     11.308
REMARK SMILES C[C@H](Nc1ccc(N(C)C)cc1)[C@@H](C)C(=O)OCCOCCOC(=O)c1ccc(-c2c3nc(c(-c4ccc(S(=O)(=O)[O-])cc4)c4ccc([nH]4)c(-c4ccc(S(=O)(=O)[O-])cc4)c4nc(c(-c5ccc(S(=O)(=O)[O-])cc5)c5ccc2[nH]5)C=C4)C=C3)cc1
REMARK SMILES IDX 19 1 18 2 17 3 15 4 16 5 13 6 14 7 2 8 1 9 3 10 4 12 5 13
REMARK SMILES IDX 12 14 6 15 11 16 7 17 8 18 9 19 10 20 20 21 21 22 22 23
REMARK SMILES IDX 23 24 24 25 25 26 26 27 27 28 85 29 28 30 84 31 29 32 30 33
REMARK SMILES IDX 31 34 78 35 32 36 83 37 77 38 79 39 33 40 82 41 76 42 75 43
REMARK SMILES IDX 34 45 64 46 45 47 63 48 46 49 49 50 62 51 80 52 47 53 48 54
REMARK SMILES IDX 61 56 81 57 50 58 35 59 36 60 44 61 37 62 43 63 38 64 39 65
REMARK SMILES IDX 40 66 41 67 42 68 65 69 66 70 74 71 67 72 73 73 68 74 69 75
REMARK SMILES IDX 70 76 71 77 72 78 51 79 52 80 60 81 53 82 59 83 54 84 55 85
REMARK SMILES IDX 56 86 57 87 58 88
REMARK H PARENT 3 11 79 44 49 55
REMARK Flexibility Score: inf
ROOT
ATOM      1  C   UNL A   1      46.060  19.791  24.327  1.00  0.00     0.202 C 
ENDROOT
BRANCH   1   2
ATOM      2  C   UNL A   1      44.744  19.077  24.655  1.00  0.00     0.261 C 
BRANCH   2   3
ATOM      3  O   UNL A   1      43.663  19.967  25.020  1.00  0.00    -0.463 OA
BRANCH   3   4
ATOM      4  C   UNL A   1      42.711  19.433  25.830  1.00  0.00     0.310 C 
ATOM      5  O   UNL A   1      42.464  18.234  25.916  1.00  0.00    -0.252 OA
BRANCH   4   6
ATOM      6  C   UNL A   1      41.872  20.473  26.555  1.00  0.00     0.118 C 
ATOM      7  C   UNL A   1      40.420  20.266  26.111  1.00  0.00     0.022 C 
BRANCH   6   8
ATOM      8  C   UNL A   1      42.330  21.950  26.436  1.00  0.00     0.090 C 
ATOM      9  C   UNL A   1      42.938  22.461  27.743  1.00  0.00     0.031 C 
BRANCH   8  10
ATOM     10  N   UNL A   1      41.188  22.762  25.965  1.00  0.00    -0.382 N 
ATOM     11  H   UNL A   1      40.673  22.408  25.205  1.00  0.00     0.160 HD
BRANCH  10  12
ATOM     12  C   UNL A   1      40.773  23.969  26.488  1.00  0.00     0.034 A 
ATOM     13  C   UNL A   1      39.810  24.013  27.492  1.00  0.00     0.028 A 
ATOM     14  C   UNL A   1      41.286  25.182  26.041  1.00  0.00     0.028 A 
ATOM     15  C   UNL A   1      39.407  25.235  28.061  1.00  0.00     0.028 A 
ATOM     16  C   UNL A   1      40.885  26.398  26.615  1.00  0.00     0.028 A 
ATOM     17  C   UNL A   1      39.938  26.467  27.649  1.00  0.00     0.036 A 
BRANCH  17  18
ATOM     18  N   UNL A   1      39.555  27.679  28.204  1.00  0.00    -0.378 N 
ATOM     19  C   UNL A   1      39.605  28.940  27.479  1.00  0.00     0.143 C 
ATOM     20  C   UNL A   1      38.909  27.712  29.513  1.00  0.00     0.143 C 
ENDBRANCH  17  18
ENDBRANCH  10  12
ENDBRANCH   8  10
ENDBRANCH   6   8
ENDBRANCH   4   6
ENDBRANCH   3   4
ENDBRANCH   2   3
ENDBRANCH   1   2
BRANCH   1  21
ATOM     21  O   UNL A   1      46.374  20.947  25.104  1.00  0.00    -0.374 OA
BRANCH  21  22
ATOM     22  C   UNL A   1      46.396  22.197  24.421  1.00  0.00     0.202 C 
BRANCH  22  23
ATOM     23  C   UNL A   1      46.312  23.444  25.312  1.00  0.00     0.261 C 
BRANCH  23  24
ATOM     24  O   UNL A   1      46.497  24.661  24.563  1.00  0.00    -0.460 OA
BRANCH  24  25
ATOM     25  C   UNL A   1      47.457  25.477  25.056  1.00  0.00     0.338 C 
ATOM     26  O   UNL A   1      48.656  25.438  24.802  1.00  0.00    -0.246 OA
BRANCH  25  27
ATOM     27  C   UNL A   1      46.866  26.584  25.829  1.00  0.00     0.060 A 
ATOM     28  C   UNL A   1      45.893  27.356  25.184  1.00  0.00     0.016 A 
ATOM     29  C   UNL A   1      47.332  26.947  27.096  1.00  0.00     0.016 A 
ATOM     30  C   UNL A   1      45.443  28.539  25.765  1.00  0.00     0.010 A 
ATOM     31  C   UNL A   1      46.875  28.139  27.679  1.00  0.00     0.010 A 
ATOM     32  C   UNL A   1      45.969  28.967  26.992  1.00  0.00    -0.014 A 
BRANCH  32  33
ATOM     33  C   UNL A   1      45.686  30.360  27.430  1.00  0.00     0.031 A 
ATOM     34  C   UNL A   1      44.452  30.633  28.252  1.00  0.00     0.074 A 
ATOM     35  C   UNL A   1      46.572  31.348  27.203  1.00  0.00     0.049 A 
ATOM     36  N   UNL A   1      44.087  31.737  28.855  1.00  0.00    -0.248 NA
ATOM     37  C   UNL A   1      43.510  29.516  28.424  1.00  0.00     0.031 C 
ATOM     38  C   UNL A   1      47.819  31.209  26.454  1.00  0.00     0.029 A 
ATOM     39  N   UNL A   1      46.565  32.661  27.607  1.00  0.00    -0.354 N 
ATOM     40  C   UNL A   1      42.882  31.445  29.485  1.00  0.00     0.074 A 
ATOM     41  C   UNL A   1      42.557  30.074  29.157  1.00  0.00     0.031 C 
ATOM     42  C   UNL A   1      48.469  32.386  26.465  1.00  0.00     0.029 A 
ATOM     43  C   UNL A   1      47.677  33.364  27.210  1.00  0.00     0.049 A 
ATOM     44  H   UNL A   1      45.833  33.059  28.129  1.00  0.00     0.167 HD
ATOM     45  C   UNL A   1      42.119  32.237  30.277  1.00  0.00     0.031 A 
ATOM     46  C   UNL A   1      48.024  34.649  27.428  1.00  0.00     0.031 A 
ATOM     47  C   UNL A   1      42.429  33.605  30.596  1.00  0.00     0.049 A 
ATOM     48  C   UNL A   1      47.134  35.527  28.268  1.00  0.00     0.074 A 
ATOM     49  C   UNL A   1      41.721  34.485  31.396  1.00  0.00     0.029 A 
ATOM     50  N   UNL A   1      43.536  34.295  30.127  1.00  0.00    -0.354 N 
ATOM     51  N   UNL A   1      46.014  35.223  28.880  1.00  0.00    -0.248 NA
ATOM     52  C   UNL A   1      47.566  36.919  28.459  1.00  0.00     0.031 C 
ATOM     53  C   UNL A   1      42.375  35.722  31.372  1.00  0.00     0.029 A 
ATOM     54  C   UNL A   1      43.519  35.596  30.600  1.00  0.00     0.049 A 
ATOM     55  H   UNL A   1      44.233  33.916  29.543  1.00  0.00     0.167 HD
ATOM     56  C   UNL A   1      45.620  36.379  29.546  1.00  0.00     0.074 A 
ATOM     57  C   UNL A   1      46.629  37.383  29.276  1.00  0.00     0.031 C 
ATOM     58  C   UNL A   1      44.523  36.590  30.315  1.00  0.00     0.031 A 
BRANCH  45  59
ATOM     59  C   UNL A   1      40.852  31.643  30.832  1.00  0.00    -0.014 A 
ATOM     60  C   UNL A   1      40.833  31.019  32.094  1.00  0.00     0.010 A 
ATOM     61  C   UNL A   1      39.657  31.737  30.096  1.00  0.00     0.010 A 
ATOM     62  C   UNL A   1      39.650  30.465  32.591  1.00  0.00     0.020 A 
ATOM     63  C   UNL A   1      38.466  31.205  30.601  1.00  0.00     0.020 A 
ATOM     64  C   UNL A   1      38.476  30.556  31.838  1.00  0.00     0.054 A 
BRANCH  64  65
ATOM     65  S   UNL A   1      36.949  29.840  32.511  1.00  0.00     0.124 S 
ATOM     66  O   UNL A   1      36.140  29.674  31.306  1.00  0.00    -0.237 OA
ATOM     67  O   UNL A   1      37.419  28.603  33.128  1.00  0.00    -0.237 OA
ATOM     68  O   UNL A   1      36.473  30.858  33.445  1.00  0.00    -0.744 OA
ENDBRANCH  64  65
ENDBRANCH  45  59
BRANCH  46  69
ATOM     69  C   UNL A   1      49.281  35.186  26.839  1.00  0.00    -0.014 A 
ATOM     70  C   UNL A   1      50.493  35.129  27.549  1.00  0.00     0.010 A 
ATOM     71  C   UNL A   1      49.268  35.757  25.554  1.00  0.00     0.010 A 
ATOM     72  C   UNL A   1      51.667  35.643  26.989  1.00  0.00     0.020 A 
ATOM     73  C   UNL A   1      50.442  36.251  24.981  1.00  0.00     0.020 A 
ATOM     74  C   UNL A   1      51.634  36.199  25.706  1.00  0.00     0.054 A 
BRANCH  74  75
ATOM     75  S   UNL A   1      53.177  36.806  24.970  1.00  0.00     0.124 S 
ATOM     76  O   UNL A   1      52.860  36.793  23.545  1.00  0.00    -0.237 OA
ATOM     77  O   UNL A   1      53.320  38.127  25.575  1.00  0.00    -0.237 OA
ATOM     78  O   UNL A   1      54.169  35.823  25.401  1.00  0.00    -0.744 OA
ENDBRANCH  74  75
ENDBRANCH  46  69
BRANCH  58  79
ATOM     79  C   UNL A   1      44.367  37.952  30.937  1.00  0.00    -0.014 A 
ATOM     80  C   UNL A   1      43.690  38.986  30.266  1.00  0.00     0.010 A 
ATOM     81  C   UNL A   1      44.878  38.191  32.226  1.00  0.00     0.010 A 
ATOM     82  C   UNL A   1      43.565  40.247  30.856  1.00  0.00     0.020 A 
ATOM     83  C   UNL A   1      44.732  39.443  32.829  1.00  0.00     0.020 A 
ATOM     84  C   UNL A   1      44.093  40.469  32.131  1.00  0.00     0.054 A 
BRANCH  84  85
ATOM     85  S   UNL A   1      43.903  42.109  32.885  1.00  0.00     0.124 S 
ATOM     86  O   UNL A   1      42.490  42.111  33.253  1.00  0.00    -0.237 OA
ATOM     87  O   UNL A   1      44.844  42.063  34.001  1.00  0.00    -0.237 OA
ATOM     88  O   UNL A   1      44.269  43.028  31.809  1.00  0.00    -0.744 OA
ENDBRANCH  84  85
ENDBRANCH  58  79
ENDBRANCH  32  33
ENDBRANCH  25  27
ENDBRANCH  24  25
ENDBRANCH  23  24
ENDBRANCH  22  23
ENDBRANCH  21  22
ENDBRANCH   1  21
TORSDOF 21
ENDMDL
