MODEL 1
REMARK VINA RESULT:     -11.6      0.000      0.000
REMARK SMILES O=C(OCCOCCOC(=O)c1nccnc1C(=O)Nc1n[nH]c2ncccc12)c1ccc(-c2c3nc(c(-c4ccc(S(=O)(=O)[O-])cc4)c4ccc([nH]4)c(-c4ccc(S(=O)(=O)[O-])cc4)c4nc(c(-c5ccc(S(=O)(=O)[O-])cc5)c5ccc2[nH]5)C=C4)C=C3)cc1
REMARK SMILES IDX 5 1 4 2 3 3 2 4 1 5 30 6 31 7 89 8 32 9 88 10 33 11 34 12
REMARK SMILES IDX 35 13 82 14 36 15 87 16 81 17 83 18 37 19 86 20 80 21 79 22
REMARK SMILES IDX 38 24 68 25 49 26 67 27 50 28 53 29 66 30 84 31 51 32 52 33
REMARK SMILES IDX 65 35 85 36 54 37 39 38 40 39 48 40 41 41 47 42 42 43 43 44
REMARK SMILES IDX 44 45 45 46 46 47 69 48 70 49 78 50 71 51 77 52 72 53 73 54
REMARK SMILES IDX 74 55 75 56 76 57 55 58 56 59 64 60 57 61 63 62 58 63 59 64
REMARK SMILES IDX 60 65 61 66 62 67 6 68 7 69 8 70 9 71 10 72 11 73 12 74
REMARK SMILES IDX 13 75 17 76 14 77 16 78 15 79 18 80 19 81 20 82 21 84 22 85
REMARK SMILES IDX 29 86 23 87 24 88 28 89 25 91 27 92 26 93
REMARK H PARENT 83 23 53 34 20 83 23 90
REMARK Flexibility Score: inf
ROOT
ATOM      1  C   UNL A   1      38.102  22.484  25.468  1.00  0.00     0.202 C 
ENDROOT
BRANCH   1   2
ATOM      2  C   UNL A   1      38.885  23.153  26.598  1.00  0.00     0.261 C 
BRANCH   2   3
ATOM      3  O   UNL A   1      38.760  24.586  26.600  1.00  0.00    -0.460 OA
BRANCH   3   4
ATOM      4  C   UNL A   1      39.768  25.466  26.844  1.00  0.00     0.338 C 
ATOM      5  O   UNL A   1      40.784  25.447  26.156  1.00  0.00    -0.246 OA
BRANCH   4   6
ATOM      6  C   UNL A   1      39.657  26.477  27.924  1.00  0.00     0.060 A 
ATOM      7  C   UNL A   1      40.002  27.815  27.742  1.00  0.00     0.016 A 
ATOM      8  C   UNL A   1      39.093  26.096  29.141  1.00  0.00     0.016 A 
ATOM      9  C   UNL A   1      40.026  28.708  28.794  1.00  0.00     0.010 A 
ATOM     10  C   UNL A   1      38.980  27.031  30.174  1.00  0.00     0.010 A 
ATOM     11  C   UNL A   1      39.513  28.324  30.024  1.00  0.00    -0.014 A 
BRANCH  11  12
ATOM     12  C   UNL A   1      39.686  29.228  31.177  1.00  0.00     0.031 A 
ATOM     13  C   UNL A   1      40.962  29.110  31.957  1.00  0.00     0.074 A 
ATOM     14  C   UNL A   1      38.784  30.192  31.446  1.00  0.00     0.049 A 
ATOM     15  N   UNL A   1      41.277  29.619  33.114  1.00  0.00    -0.248 NA
ATOM     16  C   UNL A   1      42.025  28.286  31.352  1.00  0.00     0.031 C 
ATOM     17  C   UNL A   1      37.593  30.496  30.645  1.00  0.00     0.029 A 
ATOM     18  N   UNL A   1      38.745  31.119  32.452  1.00  0.00    -0.354 N 
ATOM     19  C   UNL A   1      42.532  29.101  33.417  1.00  0.00     0.074 A 
ATOM     20  C   UNL A   1      42.926  28.252  32.319  1.00  0.00     0.031 C 
ATOM     21  C   UNL A   1      36.972  31.568  31.163  1.00  0.00     0.029 A 
ATOM     22  C   UNL A   1      37.651  31.952  32.392  1.00  0.00     0.049 A 
ATOM     23  H   UNL A   1      39.433  31.185  33.152  1.00  0.00     0.167 HD
ATOM     24  C   UNL A   1      43.268  29.310  34.530  1.00  0.00     0.031 A 
ATOM     25  C   UNL A   1      37.224  32.880  33.269  1.00  0.00     0.031 A 
ATOM     26  C   UNL A   1      42.844  30.196  35.578  1.00  0.00     0.049 A 
ATOM     27  C   UNL A   1      38.020  33.046  34.535  1.00  0.00     0.074 A 
ATOM     28  C   UNL A   1      43.454  30.469  36.787  1.00  0.00     0.029 A 
ATOM     29  N   UNL A   1      41.692  30.973  35.519  1.00  0.00    -0.354 N 
ATOM     30  N   UNL A   1      39.142  32.458  34.885  1.00  0.00    -0.248 NA
ATOM     31  C   UNL A   1      37.485  33.974  35.536  1.00  0.00     0.031 C 
ATOM     32  C   UNL A   1      42.643  31.378  37.478  1.00  0.00     0.029 A 
ATOM     33  C   UNL A   1      41.564  31.718  36.673  1.00  0.00     0.049 A 
ATOM     34  H   UNL A   1      41.061  30.990  34.763  1.00  0.00     0.167 HD
ATOM     35  C   UNL A   1      39.459  32.958  36.141  1.00  0.00     0.074 A 
ATOM     36  C   UNL A   1      38.416  33.911  36.478  1.00  0.00     0.031 C 
ATOM     37  C   UNL A   1      40.506  32.659  36.950  1.00  0.00     0.031 A 
BRANCH  24  38
ATOM     38  C   UNL A   1      44.520  28.488  34.690  1.00  0.00    -0.014 A 
ATOM     39  C   UNL A   1      44.511  27.218  35.294  1.00  0.00     0.010 A 
ATOM     40  C   UNL A   1      45.748  29.038  34.279  1.00  0.00     0.010 A 
ATOM     41  C   UNL A   1      45.712  26.542  35.541  1.00  0.00     0.020 A 
ATOM     42  C   UNL A   1      46.948  28.353  34.495  1.00  0.00     0.020 A 
ATOM     43  C   UNL A   1      46.923  27.120  35.148  1.00  0.00     0.054 A 
BRANCH  43  44
ATOM     44  S   UNL A   1      48.469  26.237  35.499  1.00  0.00     0.124 S 
ATOM     45  O   UNL A   1      48.053  24.841  35.374  1.00  0.00    -0.237 OA
ATOM     46  O   UNL A   1      49.360  26.722  34.448  1.00  0.00    -0.237 OA
ATOM     47  O   UNL A   1      48.814  26.665  36.852  1.00  0.00    -0.744 OA
ENDBRANCH  43  44
ENDBRANCH  24  38
BRANCH  25  48
ATOM     48  C   UNL A   1      35.971  33.649  33.018  1.00  0.00    -0.014 A 
ATOM     49  C   UNL A   1      34.713  33.097  33.321  1.00  0.00     0.010 A 
ATOM     50  C   UNL A   1      36.024  34.950  32.481  1.00  0.00     0.010 A 
ATOM     51  C   UNL A   1      33.540  33.821  33.077  1.00  0.00     0.020 A 
ATOM     52  C   UNL A   1      34.857  35.690  32.267  1.00  0.00     0.020 A 
ATOM     53  C   UNL A   1      33.619  35.115  32.554  1.00  0.00     0.054 A 
BRANCH  53  54
ATOM     54  S   UNL A   1      32.087  36.051  32.284  1.00  0.00     0.124 S 
ATOM     55  O   UNL A   1      31.065  35.058  32.599  1.00  0.00    -0.237 OA
ATOM     56  O   UNL A   1      32.217  37.151  33.235  1.00  0.00    -0.237 OA
ATOM     57  O   UNL A   1      32.169  36.440  30.877  1.00  0.00    -0.744 OA
ENDBRANCH  53  54
ENDBRANCH  25  48
BRANCH  37  58
ATOM     58  C   UNL A   1      40.593  33.415  38.243  1.00  0.00    -0.014 A 
ATOM     59  C   UNL A   1      41.283  34.636  38.330  1.00  0.00     0.010 A 
ATOM     60  C   UNL A   1      39.920  32.915  39.372  1.00  0.00     0.010 A 
ATOM     61  C   UNL A   1      41.327  35.329  39.539  1.00  0.00     0.020 A 
ATOM     62  C   UNL A   1      39.936  33.621  40.574  1.00  0.00     0.020 A 
ATOM     63  C   UNL A   1      40.653  34.816  40.653  1.00  0.00     0.054 A 
BRANCH  63  64
ATOM     64  S   UNL A   1      40.686  35.758  42.201  1.00  0.00     0.124 S 
ATOM     65  O   UNL A   1      40.597  34.697  43.201  1.00  0.00    -0.237 OA
ATOM     66  O   UNL A   1      41.971  36.449  42.129  1.00  0.00    -0.237 OA
ATOM     67  O   UNL A   1      39.514  36.624  42.103  1.00  0.00    -0.744 OA
ENDBRANCH  63  64
ENDBRANCH  37  58
ENDBRANCH  11  12
ENDBRANCH   4   6
ENDBRANCH   3   4
ENDBRANCH   2   3
ENDBRANCH   1   2
BRANCH   1  68
ATOM     68  O   UNL A   1      36.854  21.922  25.832  1.00  0.00    -0.374 OA
BRANCH  68  69
ATOM     69  C   UNL A   1      35.652  22.485  25.312  1.00  0.00     0.202 C 
BRANCH  69  70
ATOM     70  C   UNL A   1      35.825  23.128  23.772  1.00  0.00     0.261 C 
BRANCH  70  71
ATOM     71  O   UNL A   1      34.609  24.428  22.776  1.00  0.00    -0.458 OA
BRANCH  71  72
ATOM     72  C   UNL A   1      33.665  25.464  22.472  1.00  0.00     0.359 C 
ATOM     73  O   UNL A   1      33.420  25.762  21.303  1.00  0.00    -0.244 OA
BRANCH  72  74
ATOM     74  C   UNL A   1      33.016  26.302  23.549  1.00  0.00     0.179 A 
ATOM     75  N   UNL A   1      33.915  27.294  23.913  1.00  0.00    -0.245 NA
ATOM     76  C   UNL A   1      31.777  26.162  24.208  1.00  0.00     0.161 A 
ATOM     77  C   UNL A   1      33.569  28.127  24.908  1.00  0.00     0.132 A 
ATOM     78  N   UNL A   1      31.501  27.026  25.254  1.00  0.00    -0.247 NA
ATOM     79  C   UNL A   1      32.382  27.990  25.575  1.00  0.00     0.132 A 
BRANCH  76  80
ATOM     80  C   UNL A   1      30.561  25.237  24.054  1.00  0.00     0.278 C 
ATOM     81  O   UNL A   1      29.462  25.764  23.818  1.00  0.00    -0.267 OA
ATOM     82  N   UNL A   1      30.527  23.870  24.101  1.00  0.00    -0.303 N 
ATOM     83  H   UNL A   1      29.752  23.451  23.662  1.00  0.00     0.172 HD
BRANCH  82  84
ATOM     84  C   UNL A   1      31.408  23.015  24.665  1.00  0.00     0.164 A 
ATOM     85  N   UNL A   1      31.641  23.067  25.983  1.00  0.00    -0.155 NA
ATOM     86  C   UNL A   1      32.012  21.952  24.000  1.00  0.00     0.063 A 
ATOM     87  N   UNL A   1      32.029  21.823  26.399  1.00  0.00    -0.259 N 
ATOM     88  C   UNL A   1      32.236  20.934  25.390  1.00  0.00     0.157 A 
ATOM     89  C   UNL A   1      32.047  21.188  22.336  1.00  0.00     0.017 A 
ATOM     90  H   UNL A   1      32.149  21.591  27.348  1.00  0.00     0.192 HD
ATOM     91  N   UNL A   1      32.476  19.241  25.315  1.00  0.00    -0.237 NA
ATOM     92  C   UNL A   1      32.251  19.416  22.211  1.00  0.00     0.021 A 
ATOM     93  C   UNL A   1      32.421  18.516  23.720  1.00  0.00     0.113 A 
ENDBRANCH  82  84
ENDBRANCH  76  80
ENDBRANCH  72  74
ENDBRANCH  71  72
ENDBRANCH  70  71
ENDBRANCH  69  70
ENDBRANCH  68  69
ENDBRANCH   1  68
TORSDOF 19
ENDMDL
MODEL 2
REMARK VINA RESULT:     -11.5      5.130      6.370
REMARK SMILES O=C(OCCOCCOC(=O)c1nccnc1C(=O)Nc1n[nH]c2ncccc12)c1ccc(-c2c3nc(c(-c4ccc(S(=O)(=O)[O-])cc4)c4ccc([nH]4)c(-c4ccc(S(=O)(=O)[O-])cc4)c4nc(c(-c5ccc(S(=O)(=O)[O-])cc5)c5ccc2[nH]5)C=C4)C=C3)cc1
REMARK SMILES IDX 5 1 4 2 3 3 2 4 1 5 30 6 31 7 89 8 32 9 88 10 33 11 34 12
REMARK SMILES IDX 35 13 82 14 36 15 87 16 81 17 83 18 37 19 86 20 80 21 79 22
REMARK SMILES IDX 38 24 68 25 49 26 67 27 50 28 53 29 66 30 84 31 51 32 52 33
REMARK SMILES IDX 65 35 85 36 54 37 39 38 40 39 48 40 41 41 47 42 42 43 43 44
REMARK SMILES IDX 44 45 45 46 46 47 69 48 70 49 78 50 71 51 77 52 72 53 73 54
REMARK SMILES IDX 74 55 75 56 76 57 55 58 56 59 64 60 57 61 63 62 58 63 59 64
REMARK SMILES IDX 60 65 61 66 62 67 6 68 7 69 8 70 9 71 10 72 11 73 12 74
REMARK SMILES IDX 13 75 17 76 14 77 16 78 15 79 18 80 19 81 20 82 21 84 22 85
REMARK SMILES IDX 29 86 23 87 24 88 28 89 25 91 27 92 26 93
REMARK H PARENT 83 23 53 34 20 83 23 90
REMARK Flexibility Score: inf
ROOT
ATOM      1  C   UNL A   1      36.763  21.864  24.439  1.00  0.00     0.202 C 
ENDROOT
BRANCH   1   2
ATOM      2  C   UNL A   1      37.730  21.063  25.310  1.00  0.00     0.261 C 
BRANCH   2   3
ATOM      3  O   UNL A   1      39.040  21.652  25.389  1.00  0.00    -0.460 OA
BRANCH   3   4
ATOM      4  C   UNL A   1      39.773  21.801  26.525  1.00  0.00     0.338 C 
ATOM      5  O   UNL A   1      40.174  20.814  27.134  1.00  0.00    -0.246 OA
BRANCH   4   6
ATOM      6  C   UNL A   1      40.120  23.148  27.041  1.00  0.00     0.060 A 
ATOM      7  C   UNL A   1      39.454  24.303  26.638  1.00  0.00     0.016 A 
ATOM      8  C   UNL A   1      41.087  23.252  28.040  1.00  0.00     0.016 A 
ATOM      9  C   UNL A   1      39.883  25.559  27.020  1.00  0.00     0.010 A 
ATOM     10  C   UNL A   1      41.433  24.511  28.540  1.00  0.00     0.010 A 
ATOM     11  C   UNL A   1      40.878  25.675  27.978  1.00  0.00    -0.014 A 
BRANCH  11  12
ATOM     12  C   UNL A   1      41.436  27.012  28.262  1.00  0.00     0.031 A 
ATOM     13  C   UNL A   1      42.883  27.237  27.935  1.00  0.00     0.074 A 
ATOM     14  C   UNL A   1      40.648  28.017  28.691  1.00  0.00     0.049 A 
ATOM     15  N   UNL A   1      43.666  28.223  28.269  1.00  0.00    -0.248 NA
ATOM     16  C   UNL A   1      43.542  26.190  27.132  1.00  0.00     0.031 C 
ATOM     17  C   UNL A   1      39.194  27.942  28.879  1.00  0.00     0.029 A 
ATOM     18  N   UNL A   1      40.953  29.311  29.017  1.00  0.00    -0.354 N 
ATOM     19  C   UNL A   1      44.926  27.870  27.800  1.00  0.00     0.074 A 
ATOM     20  C   UNL A   1      44.803  26.589  27.146  1.00  0.00     0.031 C 
ATOM     21  C   UNL A   1      38.732  29.151  29.235  1.00  0.00     0.029 A 
ATOM     22  C   UNL A   1      39.862  30.050  29.416  1.00  0.00     0.049 A 
ATOM     23  H   UNL A   1      41.865  29.678  28.970  1.00  0.00     0.167 HD
ATOM     24  C   UNL A   1      46.082  28.558  27.932  1.00  0.00     0.031 A 
ATOM     25  C   UNL A   1      39.804  31.296  29.922  1.00  0.00     0.031 A 
ATOM     26  C   UNL A   1      46.142  29.848  28.560  1.00  0.00     0.049 A 
ATOM     27  C   UNL A   1      41.109  32.017  30.125  1.00  0.00     0.074 A 
ATOM     28  C   UNL A   1      47.244  30.641  28.815  1.00  0.00     0.029 A 
ATOM     29  N   UNL A   1      45.027  30.541  29.019  1.00  0.00    -0.354 N 
ATOM     30  N   UNL A   1      42.323  31.628  29.802  1.00  0.00    -0.248 NA
ATOM     31  C   UNL A   1      41.047  33.325  30.784  1.00  0.00     0.031 C 
ATOM     32  C   UNL A   1      46.796  31.795  29.470  1.00  0.00     0.029 A 
ATOM     33  C   UNL A   1      45.412  31.748  29.567  1.00  0.00     0.049 A 
ATOM     34  H   UNL A   1      44.099  30.218  28.961  1.00  0.00     0.167 HD
ATOM     35  C   UNL A   1      43.169  32.654  30.202  1.00  0.00     0.074 A 
ATOM     36  C   UNL A   1      42.323  33.686  30.774  1.00  0.00     0.031 C 
ATOM     37  C   UNL A   1      44.520  32.741  30.116  1.00  0.00     0.031 A 
BRANCH  24  38
ATOM     38  C   UNL A   1      47.345  27.870  27.485  1.00  0.00    -0.014 A 
ATOM     39  C   UNL A   1      48.065  27.004  28.328  1.00  0.00     0.010 A 
ATOM     40  C   UNL A   1      47.855  28.155  26.206  1.00  0.00     0.010 A 
ATOM     41  C   UNL A   1      49.301  26.486  27.922  1.00  0.00     0.020 A 
ATOM     42  C   UNL A   1      49.075  27.616  25.784  1.00  0.00     0.020 A 
ATOM     43  C   UNL A   1      49.802  26.805  26.656  1.00  0.00     0.054 A 
BRANCH  43  44
ATOM     44  S   UNL A   1      51.416  26.143  26.161  1.00  0.00     0.124 S 
ATOM     45  O   UNL A   1      52.335  27.026  26.878  1.00  0.00    -0.237 OA
ATOM     46  O   UNL A   1      51.362  24.767  26.648  1.00  0.00    -0.237 OA
ATOM     47  O   UNL A   1      51.421  26.288  24.708  1.00  0.00    -0.744 OA
ENDBRANCH  43  44
ENDBRANCH  24  38
BRANCH  25  48
ATOM     48  C   UNL A   1      38.500  31.895  30.331  1.00  0.00    -0.014 A 
ATOM     49  C   UNL A   1      37.967  31.656  31.610  1.00  0.00     0.010 A 
ATOM     50  C   UNL A   1      37.781  32.720  29.444  1.00  0.00     0.010 A 
ATOM     51  C   UNL A   1      36.740  32.215  31.986  1.00  0.00     0.020 A 
ATOM     52  C   UNL A   1      36.571  33.307  29.827  1.00  0.00     0.020 A 
ATOM     53  C   UNL A   1      36.050  33.040  31.092  1.00  0.00     0.054 A 
BRANCH  53  54
ATOM     54  S   UNL A   1      34.480  33.786  31.616  1.00  0.00     0.124 S 
ATOM     55  O   UNL A   1      33.824  34.043  30.338  1.00  0.00    -0.237 OA
ATOM     56  O   UNL A   1      33.886  32.731  32.433  1.00  0.00    -0.237 OA
ATOM     57  O   UNL A   1      34.898  34.976  32.355  1.00  0.00    -0.744 OA
ENDBRANCH  53  54
ENDBRANCH  25  48
BRANCH  37  58
ATOM     58  C   UNL A   1      45.144  34.016  30.600  1.00  0.00    -0.014 A 
ATOM     59  C   UNL A   1      45.518  34.181  31.944  1.00  0.00     0.010 A 
ATOM     60  C   UNL A   1      45.407  35.042  29.674  1.00  0.00     0.010 A 
ATOM     61  C   UNL A   1      46.117  35.369  32.362  1.00  0.00     0.020 A 
ATOM     62  C   UNL A   1      46.034  36.218  30.082  1.00  0.00     0.020 A 
ATOM     63  C   UNL A   1      46.371  36.380  31.427  1.00  0.00     0.054 A 
BRANCH  63  64
ATOM     64  S   UNL A   1      47.192  37.896  31.984  1.00  0.00     0.124 S 
ATOM     65  O   UNL A   1      48.264  37.367  32.822  1.00  0.00    -0.237 OA
ATOM     66  O   UNL A   1      47.618  38.510  30.729  1.00  0.00    -0.237 OA
ATOM     67  O   UNL A   1      46.140  38.616  32.697  1.00  0.00    -0.744 OA
ENDBRANCH  63  64
ENDBRANCH  37  58
ENDBRANCH  11  12
ENDBRANCH   4   6
ENDBRANCH   3   4
ENDBRANCH   2   3
ENDBRANCH   1   2
BRANCH   1  68
ATOM     68  O   UNL A   1      35.885  22.734  25.132  1.00  0.00    -0.374 OA
BRANCH  68  69
ATOM     69  C   UNL A   1      35.879  22.737  26.556  1.00  0.00     0.202 C 
BRANCH  69  70
ATOM     70  C   UNL A   1      34.394  22.331  27.222  1.00  0.00     0.261 C 
BRANCH  70  71
ATOM     71  O   UNL A   1      32.527  22.943  26.676  1.00  0.00    -0.458 OA
BRANCH  71  72
ATOM     72  C   UNL A   1      31.335  23.722  26.501  1.00  0.00     0.359 C 
ATOM     73  O   UNL A   1      30.384  23.589  27.270  1.00  0.00    -0.244 OA
BRANCH  72  74
ATOM     74  C   UNL A   1      31.147  24.651  25.324  1.00  0.00     0.179 A 
ATOM     75  N   UNL A   1      29.969  25.356  25.526  1.00  0.00    -0.245 NA
ATOM     76  C   UNL A   1      31.901  24.812  24.143  1.00  0.00     0.161 A 
ATOM     77  C   UNL A   1      29.568  26.205  24.565  1.00  0.00     0.132 A 
ATOM     78  N   UNL A   1      31.409  25.669  23.174  1.00  0.00    -0.247 NA
ATOM     79  C   UNL A   1      30.274  26.354  23.402  1.00  0.00     0.132 A 
BRANCH  76  80
ATOM     80  C   UNL A   1      33.227  24.245  23.612  1.00  0.00     0.278 C 
ATOM     81  O   UNL A   1      34.156  25.043  23.413  1.00  0.00    -0.267 OA
ATOM     82  N   UNL A   1      33.548  22.939  23.362  1.00  0.00    -0.303 N 
ATOM     83  H   UNL A   1      34.511  22.735  23.351  1.00  0.00     0.172 HD
BRANCH  82  84
ATOM     84  C   UNL A   1      32.729  21.890  23.129  1.00  0.00     0.164 A 
ATOM     85  N   UNL A   1      31.761  21.988  22.207  1.00  0.00    -0.155 NA
ATOM     86  C   UNL A   1      32.894  20.622  23.677  1.00  0.00     0.063 A 
ATOM     87  N   UNL A   1      31.502  20.736  21.723  1.00  0.00    -0.259 N 
ATOM     88  C   UNL A   1      32.137  19.734  22.390  1.00  0.00     0.157 A 
ATOM     89  C   UNL A   1      34.021  19.732  24.815  1.00  0.00     0.017 A 
ATOM     90  H   UNL A   1      30.904  20.572  20.958  1.00  0.00     0.192 HD
ATOM     91  N   UNL A   1      32.384  18.067  22.095  1.00  0.00    -0.237 NA
ATOM     92  C   UNL A   1      34.343  17.997  24.519  1.00  0.00     0.021 A 
ATOM     93  C   UNL A   1      33.530  17.251  23.141  1.00  0.00     0.113 A 
ENDBRANCH  82  84
ENDBRANCH  76  80
ENDBRANCH  72  74
ENDBRANCH  71  72
ENDBRANCH  70  71
ENDBRANCH  69  70
ENDBRANCH  68  69
ENDBRANCH   1  68
TORSDOF 19
ENDMDL
MODEL 3
REMARK VINA RESULT:     -11.3      5.689     10.370
REMARK SMILES O=C(OCCOCCOC(=O)c1nccnc1C(=O)Nc1n[nH]c2ncccc12)c1ccc(-c2c3nc(c(-c4ccc(S(=O)(=O)[O-])cc4)c4ccc([nH]4)c(-c4ccc(S(=O)(=O)[O-])cc4)c4nc(c(-c5ccc(S(=O)(=O)[O-])cc5)c5ccc2[nH]5)C=C4)C=C3)cc1
REMARK SMILES IDX 5 1 4 2 3 3 2 4 1 5 30 6 31 7 89 8 32 9 88 10 33 11 34 12
REMARK SMILES IDX 35 13 82 14 36 15 87 16 81 17 83 18 37 19 86 20 80 21 79 22
REMARK SMILES IDX 38 24 68 25 49 26 67 27 50 28 53 29 66 30 84 31 51 32 52 33
REMARK SMILES IDX 65 35 85 36 54 37 39 38 40 39 48 40 41 41 47 42 42 43 43 44
REMARK SMILES IDX 44 45 45 46 46 47 69 48 70 49 78 50 71 51 77 52 72 53 73 54
REMARK SMILES IDX 74 55 75 56 76 57 55 58 56 59 64 60 57 61 63 62 58 63 59 64
REMARK SMILES IDX 60 65 61 66 62 67 6 68 7 69 8 70 9 71 10 72 11 73 12 74
REMARK SMILES IDX 13 75 17 76 14 77 16 78 15 79 18 80 19 81 20 82 21 84 22 85
REMARK SMILES IDX 29 86 23 87 24 88 28 89 25 91 27 92 26 93
REMARK H PARENT 83 23 53 34 20 83 23 90
REMARK Flexibility Score: inf
ROOT
ATOM      1  C   UNL A   1      36.919  22.424  25.192  1.00  0.00     0.202 C 
ENDROOT
BRANCH   1   2
ATOM      2  C   UNL A   1      37.889  21.283  25.500  1.00  0.00     0.261 C 
BRANCH   2   3
ATOM      3  O   UNL A   1      39.261  21.711  25.570  1.00  0.00    -0.460 OA
BRANCH   3   4
ATOM      4  C   UNL A   1      39.992  21.835  26.710  1.00  0.00     0.338 C 
ATOM      5  O   UNL A   1      40.264  20.844  27.379  1.00  0.00    -0.246 OA
BRANCH   4   6
ATOM      6  C   UNL A   1      40.493  23.158  27.157  1.00  0.00     0.060 A 
ATOM      7  C   UNL A   1      40.056  24.357  26.599  1.00  0.00     0.016 A 
ATOM      8  C   UNL A   1      41.364  23.210  28.245  1.00  0.00     0.016 A 
ATOM      9  C   UNL A   1      40.636  25.565  26.929  1.00  0.00     0.010 A 
ATOM     10  C   UNL A   1      41.852  24.445  28.683  1.00  0.00     0.010 A 
ATOM     11  C   UNL A   1      41.541  25.622  27.978  1.00  0.00    -0.014 A 
BRANCH  11  12
ATOM     12  C   UNL A   1      42.269  26.883  28.219  1.00  0.00     0.031 A 
ATOM     13  C   UNL A   1      41.538  27.969  28.951  1.00  0.00     0.074 A 
ATOM     14  C   UNL A   1      43.570  27.007  27.893  1.00  0.00     0.049 A 
ATOM     15  N   UNL A   1      41.855  29.223  29.106  1.00  0.00    -0.248 NA
ATOM     16  C   UNL A   1      40.259  27.589  29.580  1.00  0.00     0.031 C 
ATOM     17  C   UNL A   1      44.415  25.947  27.330  1.00  0.00     0.029 A 
ATOM     18  N   UNL A   1      44.423  28.070  28.020  1.00  0.00    -0.354 N 
ATOM     19  C   UNL A   1      40.775  29.799  29.766  1.00  0.00     0.074 A 
ATOM     20  C   UNL A   1      39.801  28.758  29.994  1.00  0.00     0.031 C 
ATOM     21  C   UNL A   1      45.673  26.401  27.210  1.00  0.00     0.029 A 
ATOM     22  C   UNL A   1      45.698  27.810  27.573  1.00  0.00     0.049 A 
ATOM     23  H   UNL A   1      44.149  28.939  28.394  1.00  0.00     0.167 HD
ATOM     24  C   UNL A   1      40.616  31.092  30.124  1.00  0.00     0.031 A 
ATOM     25  C   UNL A   1      46.746  28.642  27.427  1.00  0.00     0.031 A 
ATOM     26  C   UNL A   1      41.634  32.082  29.906  1.00  0.00     0.049 A 
ATOM     27  C   UNL A   1      46.526  30.092  27.765  1.00  0.00     0.074 A 
ATOM     28  C   UNL A   1      41.598  33.438  30.164  1.00  0.00     0.029 A 
ATOM     29  N   UNL A   1      42.892  31.800  29.385  1.00  0.00    -0.354 N 
ATOM     30  N   UNL A   1      45.456  30.666  28.267  1.00  0.00    -0.248 NA
ATOM     31  C   UNL A   1      47.636  31.010  27.492  1.00  0.00     0.031 C 
ATOM     32  C   UNL A   1      42.822  33.982  29.755  1.00  0.00     0.029 A 
ATOM     33  C   UNL A   1      43.640  32.956  29.302  1.00  0.00     0.049 A 
ATOM     34  H   UNL A   1      43.203  30.905  29.116  1.00  0.00     0.167 HD
ATOM     35  C   UNL A   1      45.769  32.013  28.389  1.00  0.00     0.074 A 
ATOM     36  C   UNL A   1      47.136  32.161  27.924  1.00  0.00     0.031 C 
ATOM     37  C   UNL A   1      45.003  33.040  28.836  1.00  0.00     0.031 A 
BRANCH  24  38
ATOM     38  C   UNL A   1      39.272  31.492  30.672  1.00  0.00    -0.014 A 
ATOM     39  C   UNL A   1      38.197  31.850  29.837  1.00  0.00     0.010 A 
ATOM     40  C   UNL A   1      39.105  31.574  32.067  1.00  0.00     0.010 A 
ATOM     41  C   UNL A   1      37.006  32.340  30.385  1.00  0.00     0.020 A 
ATOM     42  C   UNL A   1      37.906  32.033  32.621  1.00  0.00     0.020 A 
ATOM     43  C   UNL A   1      36.873  32.437  31.774  1.00  0.00     0.054 A 
BRANCH  43  44
ATOM     44  S   UNL A   1      35.330  33.098  32.462  1.00  0.00     0.124 S 
ATOM     45  O   UNL A   1      34.322  32.381  31.682  1.00  0.00    -0.237 OA
ATOM     46  O   UNL A   1      35.419  32.719  33.870  1.00  0.00    -0.237 OA
ATOM     47  O   UNL A   1      35.417  34.532  32.198  1.00  0.00    -0.744 OA
ENDBRANCH  43  44
ENDBRANCH  24  38
BRANCH  25  48
ATOM     48  C   UNL A   1      48.043  28.148  26.879  1.00  0.00    -0.014 A 
ATOM     49  C   UNL A   1      48.204  27.921  25.500  1.00  0.00     0.010 A 
ATOM     50  C   UNL A   1      49.137  27.907  27.734  1.00  0.00     0.010 A 
ATOM     51  C   UNL A   1      49.421  27.451  24.992  1.00  0.00     0.020 A 
ATOM     52  C   UNL A   1      50.364  27.470  27.227  1.00  0.00     0.020 A 
ATOM     53  C   UNL A   1      50.495  27.230  25.860  1.00  0.00     0.054 A 
BRANCH  53  54
ATOM     54  S   UNL A   1      52.076  26.659  25.173  1.00  0.00     0.124 S 
ATOM     55  O   UNL A   1      51.833  26.744  23.737  1.00  0.00    -0.237 OA
ATOM     56  O   UNL A   1      53.024  27.630  25.714  1.00  0.00    -0.237 OA
ATOM     57  O   UNL A   1      52.210  25.305  25.707  1.00  0.00    -0.744 OA
ENDBRANCH  53  54
ENDBRANCH  25  48
BRANCH  37  58
ATOM     58  C   UNL A   1      45.655  34.390  28.890  1.00  0.00    -0.014 A 
ATOM     59  C   UNL A   1      45.674  35.238  27.770  1.00  0.00     0.010 A 
ATOM     60  C   UNL A   1      46.207  34.832  30.106  1.00  0.00     0.010 A 
ATOM     61  C   UNL A   1      46.267  36.497  27.856  1.00  0.00     0.020 A 
ATOM     62  C   UNL A   1      46.773  36.102  30.204  1.00  0.00     0.020 A 
ATOM     63  C   UNL A   1      46.813  36.921  29.074  1.00  0.00     0.054 A 
BRANCH  63  64
ATOM     64  S   UNL A   1      47.536  38.578  29.174  1.00  0.00     0.124 S 
ATOM     65  O   UNL A   1      48.787  38.319  29.880  1.00  0.00    -0.237 OA
ATOM     66  O   UNL A   1      47.672  38.955  27.769  1.00  0.00    -0.237 OA
ATOM     67  O   UNL A   1      46.542  39.344  29.925  1.00  0.00    -0.744 OA
ENDBRANCH  63  64
ENDBRANCH  37  58
ENDBRANCH  11  12
ENDBRANCH   4   6
ENDBRANCH   3   4
ENDBRANCH   2   3
ENDBRANCH   1   2
BRANCH   1  68
ATOM     68  O   UNL A   1      36.057  22.803  26.250  1.00  0.00    -0.374 OA
BRANCH  68  69
ATOM     69  C   UNL A   1      35.129  21.856  26.772  1.00  0.00     0.202 C 
BRANCH  69  70
ATOM     70  C   UNL A   1      33.975  22.536  27.784  1.00  0.00     0.261 C 
BRANCH  70  71
ATOM     71  O   UNL A   1      32.043  23.044  27.377  1.00  0.00    -0.458 OA
BRANCH  71  72
ATOM     72  C   UNL A   1      30.877  23.681  26.836  1.00  0.00     0.359 C 
ATOM     73  O   UNL A   1      29.764  23.449  27.306  1.00  0.00    -0.244 OA
BRANCH  72  74
ATOM     74  C   UNL A   1      30.940  24.571  25.616  1.00  0.00     0.179 A 
ATOM     75  N   UNL A   1      29.782  25.335  25.590  1.00  0.00    -0.245 NA
ATOM     76  C   UNL A   1      31.891  24.650  24.577  1.00  0.00     0.161 A 
ATOM     77  C   UNL A   1      29.595  26.163  24.549  1.00  0.00     0.132 A 
ATOM     78  N   UNL A   1      31.615  25.491  23.512  1.00  0.00    -0.247 NA
ATOM     79  C   UNL A   1      30.495  26.234  23.521  1.00  0.00     0.132 A 
BRANCH  76  80
ATOM     80  C   UNL A   1      33.256  24.004  24.300  1.00  0.00     0.278 C 
ATOM     81  O   UNL A   1      34.263  24.725  24.386  1.00  0.00    -0.267 OA
ATOM     82  N   UNL A   1      33.529  22.696  24.005  1.00  0.00    -0.303 N 
ATOM     83  H   UNL A   1      34.451  22.405  24.186  1.00  0.00     0.172 HD
BRANCH  82  84
ATOM     84  C   UNL A   1      32.708  21.749  23.499  1.00  0.00     0.164 A 
ATOM     85  N   UNL A   1      31.951  22.021  22.428  1.00  0.00    -0.155 NA
ATOM     86  C   UNL A   1      32.683  20.422  23.918  1.00  0.00     0.063 A 
ATOM     87  N   UNL A   1      31.715  20.851  21.762  1.00  0.00    -0.259 N 
ATOM     88  C   UNL A   1      32.142  19.736  22.416  1.00  0.00     0.157 A 
ATOM     89  C   UNL A   1      33.504  19.329  25.138  1.00  0.00     0.017 A 
ATOM     90  H   UNL A   1      31.272  20.817  20.883  1.00  0.00     0.192 HD
ATOM     91  N   UNL A   1      32.338  18.093  21.981  1.00  0.00    -0.237 NA
ATOM     92  C   UNL A   1      33.770  17.614  24.709  1.00  0.00     0.021 A 
ATOM     93  C   UNL A   1      33.202  17.082  23.125  1.00  0.00     0.113 A 
ENDBRANCH  82  84
ENDBRANCH  76  80
ENDBRANCH  72  74
ENDBRANCH  71  72
ENDBRANCH  70  71
ENDBRANCH  69  70
ENDBRANCH  68  69
ENDBRANCH   1  68
TORSDOF 19
ENDMDL
