MODEL 1
REMARK VINA RESULT:     -11.2      0.000      0.000
REMARK SMILES O=C(OCCOCCOC(=O)[C@H](c1c[nH]c2cc(F)ccc12)[NH+]1CCN(c2ccccc2)CC1)c1ccc(-c2c3nc(c(-c4ccc(S(=O)(=O)[O-])cc4)c4ccc([nH]4)c(-c4ccc(S(=O)(=O)[O-])cc4)c4nc(c(-c5ccc(S(=O)(=O)[O-])cc5)c5ccc2[nH]5)C=C4)C=C3)cc1
REMARK SMILES IDX 5 1 4 2 3 3 2 4 1 5 35 6 36 7 94 8 37 9 93 10 38 11 39 12
REMARK SMILES IDX 40 13 87 14 41 15 92 16 86 17 88 18 42 19 91 20 85 21 84 22
REMARK SMILES IDX 43 24 73 25 54 26 72 27 55 28 58 29 71 30 89 31 56 32 57 33
REMARK SMILES IDX 70 35 90 36 59 37 44 38 45 39 53 40 46 41 52 42 47 43 48 44
REMARK SMILES IDX 49 45 50 46 51 47 74 48 75 49 83 50 76 51 82 52 77 53 78 54
REMARK SMILES IDX 79 55 80 56 81 57 60 58 61 59 69 60 62 61 68 62 63 63 64 64
REMARK SMILES IDX 65 65 66 66 67 67 6 68 7 69 8 70 9 71 10 72 11 73 12 74
REMARK SMILES IDX 23 75 24 76 34 77 25 79 33 80 26 81 27 82 28 83 32 84 29 85
REMARK SMILES IDX 31 86 30 87 13 88 14 89 22 90 15 91 16 92 21 93 17 95 20 96
REMARK SMILES IDX 18 97 19 98
REMARK H PARENT 88 23 58 34 23 78 15 94
REMARK Flexibility Score: inf
ROOT
ATOM      1  C   UNL A   1      32.517  29.587  25.250  1.00  0.00     0.202 C 
ENDROOT
BRANCH   1   2
ATOM      2  C   UNL A   1      33.095  29.438  26.658  1.00  0.00     0.261 C 
BRANCH   2   3
ATOM      3  O   UNL A   1      34.020  30.506  26.924  1.00  0.00    -0.460 OA
BRANCH   3   4
ATOM      4  C   UNL A   1      34.723  30.789  28.043  1.00  0.00     0.338 C 
ATOM      5  O   UNL A   1      34.218  31.573  28.847  1.00  0.00    -0.246 OA
BRANCH   4   6
ATOM      6  C   UNL A   1      36.093  30.261  28.356  1.00  0.00     0.060 A 
ATOM      7  C   UNL A   1      36.484  29.659  29.555  1.00  0.00     0.016 A 
ATOM      8  C   UNL A   1      37.026  30.275  27.302  1.00  0.00     0.016 A 
ATOM      9  C   UNL A   1      37.736  29.085  29.711  1.00  0.00     0.010 A 
ATOM     10  C   UNL A   1      38.299  29.720  27.452  1.00  0.00     0.010 A 
ATOM     11  C   UNL A   1      38.653  29.133  28.669  1.00  0.00    -0.014 A 
BRANCH  11  12
ATOM     12  C   UNL A   1      40.034  28.739  28.977  1.00  0.00     0.031 A 
ATOM     13  C   UNL A   1      40.848  29.692  29.798  1.00  0.00     0.074 A 
ATOM     14  C   UNL A   1      40.463  27.501  28.676  1.00  0.00     0.049 A 
ATOM     15  N   UNL A   1      42.074  29.577  30.224  1.00  0.00    -0.248 NA
ATOM     16  C   UNL A   1      40.172  30.934  30.221  1.00  0.00     0.031 C 
ATOM     17  C   UNL A   1      39.659  26.466  28.021  1.00  0.00     0.029 A 
ATOM     18  N   UNL A   1      41.664  26.892  28.916  1.00  0.00    -0.354 N 
ATOM     19  C   UNL A   1      42.322  30.734  30.951  1.00  0.00     0.074 A 
ATOM     20  C   UNL A   1      41.123  31.537  30.916  1.00  0.00     0.031 C 
ATOM     21  C   UNL A   1      40.391  25.342  27.923  1.00  0.00     0.029 A 
ATOM     22  C   UNL A   1      41.724  25.598  28.457  1.00  0.00     0.049 A 
ATOM     23  H   UNL A   1      42.412  27.338  29.374  1.00  0.00     0.167 HD
ATOM     24  C   UNL A   1      43.466  31.096  31.574  1.00  0.00     0.031 A 
ATOM     25  C   UNL A   1      42.762  24.739  28.451  1.00  0.00     0.031 A 
ATOM     26  C   UNL A   1      44.653  30.292  31.543  1.00  0.00     0.049 A 
ATOM     27  C   UNL A   1      44.064  25.217  29.038  1.00  0.00     0.074 A 
ATOM     28  C   UNL A   1      45.913  30.584  32.027  1.00  0.00     0.029 A 
ATOM     29  N   UNL A   1      44.718  29.023  30.980  1.00  0.00    -0.354 N 
ATOM     30  N   UNL A   1      44.324  26.353  29.647  1.00  0.00    -0.248 NA
ATOM     31  C   UNL A   1      45.217  24.315  28.924  1.00  0.00     0.031 C 
ATOM     32  C   UNL A   1      46.751  29.509  31.712  1.00  0.00     0.029 A 
ATOM     33  C   UNL A   1      46.000  28.524  31.084  1.00  0.00     0.049 A 
ATOM     34  H   UNL A   1      43.960  28.550  30.566  1.00  0.00     0.167 HD
ATOM     35  C   UNL A   1      45.667  26.300  29.997  1.00  0.00     0.074 A 
ATOM     36  C   UNL A   1      46.158  25.008  29.552  1.00  0.00     0.031 C 
ATOM     37  C   UNL A   1      46.433  27.228  30.621  1.00  0.00     0.031 A 
BRANCH  24  38
ATOM     38  C   UNL A   1      43.484  32.452  32.222  1.00  0.00    -0.014 A 
ATOM     39  C   UNL A   1      43.855  33.606  31.507  1.00  0.00     0.010 A 
ATOM     40  C   UNL A   1      43.187  32.562  33.592  1.00  0.00     0.010 A 
ATOM     41  C   UNL A   1      43.976  34.835  32.164  1.00  0.00     0.020 A 
ATOM     42  C   UNL A   1      43.286  33.792  34.247  1.00  0.00     0.020 A 
ATOM     43  C   UNL A   1      43.702  34.917  33.532  1.00  0.00     0.054 A 
BRANCH  43  44
ATOM     44  S   UNL A   1      43.893  36.516  34.369  1.00  0.00     0.124 S 
ATOM     45  O   UNL A   1      42.999  37.370  33.590  1.00  0.00    -0.237 OA
ATOM     46  O   UNL A   1      43.451  36.222  35.730  1.00  0.00    -0.237 OA
ATOM     47  O   UNL A   1      45.317  36.814  34.229  1.00  0.00    -0.744 OA
ENDBRANCH  43  44
ENDBRANCH  24  38
BRANCH  25  48
ATOM     48  C   UNL A   1      42.631  23.396  27.815  1.00  0.00    -0.014 A 
ATOM     49  C   UNL A   1      43.010  23.179  26.478  1.00  0.00     0.010 A 
ATOM     50  C   UNL A   1      42.116  22.315  28.555  1.00  0.00     0.010 A 
ATOM     51  C   UNL A   1      42.861  21.915  25.893  1.00  0.00     0.020 A 
ATOM     52  C   UNL A   1      41.992  21.045  27.983  1.00  0.00     0.020 A 
ATOM     53  C   UNL A   1      42.353  20.856  26.650  1.00  0.00     0.054 A 
BRANCH  53  54
ATOM     54  S   UNL A   1      42.202  19.216  25.885  1.00  0.00     0.124 S 
ATOM     55  O   UNL A   1      43.023  19.363  24.687  1.00  0.00    -0.237 OA
ATOM     56  O   UNL A   1      42.740  18.333  26.917  1.00  0.00    -0.237 OA
ATOM     57  O   UNL A   1      40.766  19.080  25.647  1.00  0.00    -0.744 OA
ENDBRANCH  53  54
ENDBRANCH  25  48
BRANCH  37  58
ATOM     58  C   UNL A   1      47.868  26.866  30.874  1.00  0.00    -0.014 A 
ATOM     59  C   UNL A   1      48.877  27.233  29.967  1.00  0.00     0.010 A 
ATOM     60  C   UNL A   1      48.214  26.222  32.076  1.00  0.00     0.010 A 
ATOM     61  C   UNL A   1      50.211  26.942  30.249  1.00  0.00     0.020 A 
ATOM     62  C   UNL A   1      49.549  25.953  32.372  1.00  0.00     0.020 A 
ATOM     63  C   UNL A   1      50.539  26.305  31.452  1.00  0.00     0.054 A 
BRANCH  63  64
ATOM     64  S   UNL A   1      52.285  25.994  31.825  1.00  0.00     0.124 S 
ATOM     65  O   UNL A   1      52.599  27.092  32.736  1.00  0.00    -0.237 OA
ATOM     66  O   UNL A   1      52.254  24.664  32.428  1.00  0.00    -0.237 OA
ATOM     67  O   UNL A   1      52.935  26.063  30.518  1.00  0.00    -0.744 OA
ENDBRANCH  63  64
ENDBRANCH  37  58
ENDBRANCH  11  12
ENDBRANCH   4   6
ENDBRANCH   3   4
ENDBRANCH   2   3
ENDBRANCH   1   2
BRANCH   1  68
ATOM     68  O   UNL A   1      32.350  28.354  24.561  1.00  0.00    -0.374 OA
BRANCH  68  69
ATOM     69  C   UNL A   1      33.387  27.964  23.655  1.00  0.00     0.202 C 
BRANCH  69  70
ATOM     70  C   UNL A   1      33.808  26.541  24.014  1.00  0.00     0.261 C 
BRANCH  70  71
ATOM     71  O   UNL A   1      33.906  25.828  22.775  1.00  0.00    -0.459 OA
BRANCH  71  72
ATOM     72  C   UNL A   1      33.544  24.525  22.798  1.00  0.00     0.370 C 
ATOM     73  O   UNL A   1      33.611  23.787  21.818  1.00  0.00    -0.245 OA
BRANCH  72  74
ATOM     74  C   UNL A   1      33.187  24.038  24.220  1.00  0.00     0.328 C 
BRANCH  74  75
ATOM     75  N   UNL A   1      31.766  23.729  24.565  1.00  0.00    -0.316 N 
ATOM     76  C   UNL A   1      31.169  24.469  25.692  1.00  0.00     0.284 C 
ATOM     77  C   UNL A   1      30.785  23.638  23.484  1.00  0.00     0.284 C 
ATOM     78  H   UNL A   1      31.950  22.772  24.867  1.00  0.00     0.349 HD
ATOM     79  C   UNL A   1      30.256  25.710  25.416  1.00  0.00     0.178 C 
ATOM     80  C   UNL A   1      30.224  24.978  22.996  1.00  0.00     0.178 C 
ATOM     81  N   UNL A   1      29.595  25.731  24.097  1.00  0.00    -0.360 N 
BRANCH  81  82
ATOM     82  C   UNL A   1      28.862  26.855  23.693  1.00  0.00     0.037 A 
ATOM     83  C   UNL A   1      27.487  27.009  23.932  1.00  0.00     0.026 A 
ATOM     84  C   UNL A   1      29.509  27.923  23.046  1.00  0.00     0.026 A 
ATOM     85  C   UNL A   1      26.808  28.187  23.592  1.00  0.00     0.002 A 
ATOM     86  C   UNL A   1      28.838  29.099  22.697  1.00  0.00     0.002 A 
ATOM     87  C   UNL A   1      27.486  29.236  22.980  1.00  0.00     0.000 A 
ENDBRANCH  81  82
ENDBRANCH  74  75
BRANCH  74  88
ATOM     88  C   UNL A   1      34.101  22.881  24.589  1.00  0.00     0.046 A 
ATOM     89  C   UNL A   1      33.801  21.534  24.443  1.00  0.00     0.094 A 
ATOM     90  C   UNL A   1      35.471  22.941  25.024  1.00  0.00     0.009 A 
ATOM     91  N   UNL A   1      34.885  20.795  24.811  1.00  0.00    -0.361 N 
ATOM     92  C   UNL A   1      35.920  21.623  25.169  1.00  0.00     0.049 A 
ATOM     93  C   UNL A   1      36.387  23.986  25.280  1.00  0.00     0.014 A 
ATOM     94  H   UNL A   1      34.921  19.811  24.818  1.00  0.00     0.166 HD
ATOM     95  C   UNL A   1      37.216  21.298  25.580  1.00  0.00     0.065 A 
ATOM     96  C   UNL A   1      37.695  23.678  25.679  1.00  0.00     0.040 A 
ATOM     97  C   UNL A   1      38.088  22.354  25.830  1.00  0.00     0.125 A 
ATOM     98  F   UNL A   1      39.341  22.082  26.220  1.00  0.00    -0.207 F 
ENDBRANCH  74  88
ENDBRANCH  72  74
ENDBRANCH  71  72
ENDBRANCH  70  71
ENDBRANCH  69  70
ENDBRANCH  68  69
ENDBRANCH   1  68
TORSDOF 20
ENDMDL
MODEL 2
REMARK VINA RESULT:     -11.0      3.511      9.534
REMARK SMILES O=C(OCCOCCOC(=O)[C@H](c1c[nH]c2cc(F)ccc12)[NH+]1CCN(c2ccccc2)CC1)c1ccc(-c2c3nc(c(-c4ccc(S(=O)(=O)[O-])cc4)c4ccc([nH]4)c(-c4ccc(S(=O)(=O)[O-])cc4)c4nc(c(-c5ccc(S(=O)(=O)[O-])cc5)c5ccc2[nH]5)C=C4)C=C3)cc1
REMARK SMILES IDX 5 1 4 2 3 3 2 4 1 5 35 6 36 7 94 8 37 9 93 10 38 11 39 12
REMARK SMILES IDX 40 13 87 14 41 15 92 16 86 17 88 18 42 19 91 20 85 21 84 22
REMARK SMILES IDX 43 24 73 25 54 26 72 27 55 28 58 29 71 30 89 31 56 32 57 33
REMARK SMILES IDX 70 35 90 36 59 37 44 38 45 39 53 40 46 41 52 42 47 43 48 44
REMARK SMILES IDX 49 45 50 46 51 47 74 48 75 49 83 50 76 51 82 52 77 53 78 54
REMARK SMILES IDX 79 55 80 56 81 57 60 58 61 59 69 60 62 61 68 62 63 63 64 64
REMARK SMILES IDX 65 65 66 66 67 67 6 68 7 69 8 70 9 71 10 72 11 73 12 74
REMARK SMILES IDX 23 75 24 76 34 77 25 79 33 80 26 81 27 82 28 83 32 84 29 85
REMARK SMILES IDX 31 86 30 87 13 88 14 89 22 90 15 91 16 92 21 93 17 95 20 96
REMARK SMILES IDX 18 97 19 98
REMARK H PARENT 88 23 58 34 23 78 15 94
REMARK Flexibility Score: inf
ROOT
ATOM      1  C   UNL A   1      34.135  31.489  27.677  1.00  0.00     0.202 C 
ENDROOT
BRANCH   1   2
ATOM      2  C   UNL A   1      35.533  30.896  27.863  1.00  0.00     0.261 C 
BRANCH   2   3
ATOM      3  O   UNL A   1      35.833  30.779  29.264  1.00  0.00    -0.460 OA
BRANCH   3   4
ATOM      4  C   UNL A   1      36.707  29.971  29.902  1.00  0.00     0.338 C 
ATOM      5  O   UNL A   1      36.319  29.415  30.931  1.00  0.00    -0.246 OA
BRANCH   4   6
ATOM      6  C   UNL A   1      38.129  29.737  29.483  1.00  0.00     0.060 A 
ATOM      7  C   UNL A   1      38.590  29.640  28.167  1.00  0.00     0.016 A 
ATOM      8  C   UNL A   1      39.092  29.732  30.510  1.00  0.00     0.016 A 
ATOM      9  C   UNL A   1      39.941  29.551  27.870  1.00  0.00     0.010 A 
ATOM     10  C   UNL A   1      40.456  29.621  30.226  1.00  0.00     0.010 A 
ATOM     11  C   UNL A   1      40.875  29.519  28.898  1.00  0.00    -0.014 A 
BRANCH  11  12
ATOM     12  C   UNL A   1      42.254  29.172  28.535  1.00  0.00     0.031 A 
ATOM     13  C   UNL A   1      42.513  27.757  28.115  1.00  0.00     0.074 A 
ATOM     14  C   UNL A   1      43.183  30.136  28.424  1.00  0.00     0.049 A 
ATOM     15  N   UNL A   1      43.625  27.200  27.728  1.00  0.00    -0.248 NA
ATOM     16  C   UNL A   1      41.346  26.854  28.102  1.00  0.00     0.031 C 
ATOM     17  C   UNL A   1      42.951  31.563  28.661  1.00  0.00     0.029 A 
ATOM     18  N   UNL A   1      44.496  30.068  28.045  1.00  0.00    -0.354 N 
ATOM     19  C   UNL A   1      43.298  25.881  27.439  1.00  0.00     0.074 A 
ATOM     20  C   UNL A   1      41.885  25.718  27.689  1.00  0.00     0.031 C 
ATOM     21  C   UNL A   1      44.086  32.238  28.409  1.00  0.00     0.029 A 
ATOM     22  C   UNL A   1      45.131  31.287  28.048  1.00  0.00     0.049 A 
ATOM     23  H   UNL A   1      44.942  29.228  27.795  1.00  0.00     0.167 HD
ATOM     24  C   UNL A   1      44.119  24.892  27.023  1.00  0.00     0.031 A 
ATOM     25  C   UNL A   1      46.425  31.580  27.812  1.00  0.00     0.031 A 
ATOM     26  C   UNL A   1      45.528  25.082  26.834  1.00  0.00     0.049 A 
ATOM     27  C   UNL A   1      47.347  30.436  27.474  1.00  0.00     0.074 A 
ATOM     28  C   UNL A   1      46.497  24.147  26.530  1.00  0.00     0.029 A 
ATOM     29  N   UNL A   1      46.168  26.311  26.944  1.00  0.00    -0.354 N 
ATOM     30  N   UNL A   1      47.050  29.168  27.291  1.00  0.00    -0.248 NA
ATOM     31  C   UNL A   1      48.772  30.750  27.329  1.00  0.00     0.031 C 
ATOM     32  C   UNL A   1      47.732  24.805  26.503  1.00  0.00     0.029 A 
ATOM     33  C   UNL A   1      47.524  26.159  26.734  1.00  0.00     0.049 A 
ATOM     34  H   UNL A   1      45.720  27.165  27.143  1.00  0.00     0.167 HD
ATOM     35  C   UNL A   1      48.251  28.534  27.001  1.00  0.00     0.074 A 
ATOM     36  C   UNL A   1      49.274  29.563  27.010  1.00  0.00     0.031 C 
ATOM     37  C   UNL A   1      48.497  27.223  26.755  1.00  0.00     0.031 A 
BRANCH  24  38
ATOM     38  C   UNL A   1      43.509  23.527  26.865  1.00  0.00    -0.014 A 
ATOM     39  C   UNL A   1      43.271  22.694  27.974  1.00  0.00     0.010 A 
ATOM     40  C   UNL A   1      43.231  23.045  25.575  1.00  0.00     0.010 A 
ATOM     41  C   UNL A   1      42.813  21.386  27.789  1.00  0.00     0.020 A 
ATOM     42  C   UNL A   1      42.752  21.745  25.387  1.00  0.00     0.020 A 
ATOM     43  C   UNL A   1      42.567  20.916  26.495  1.00  0.00     0.054 A 
BRANCH  43  44
ATOM     44  S   UNL A   1      41.999  19.207  26.277  1.00  0.00     0.124 S 
ATOM     45  O   UNL A   1      42.223  18.645  27.607  1.00  0.00    -0.237 OA
ATOM     46  O   UNL A   1      40.600  19.378  25.896  1.00  0.00    -0.237 OA
ATOM     47  O   UNL A   1      42.869  18.683  25.225  1.00  0.00    -0.744 OA
ENDBRANCH  43  44
ENDBRANCH  24  38
BRANCH  25  48
ATOM     48  C   UNL A   1      46.926  32.977  27.957  1.00  0.00    -0.014 A 
ATOM     49  C   UNL A   1      47.016  33.841  26.852  1.00  0.00     0.010 A 
ATOM     50  C   UNL A   1      47.324  33.452  29.222  1.00  0.00     0.010 A 
ATOM     51  C   UNL A   1      47.508  35.144  27.006  1.00  0.00     0.020 A 
ATOM     52  C   UNL A   1      47.789  34.761  29.385  1.00  0.00     0.020 A 
ATOM     53  C   UNL A   1      47.891  35.595  28.273  1.00  0.00     0.054 A 
BRANCH  53  54
ATOM     54  S   UNL A   1      48.491  37.299  28.459  1.00  0.00     0.124 S 
ATOM     55  O   UNL A   1      47.893  37.960  27.303  1.00  0.00    -0.237 OA
ATOM     56  O   UNL A   1      47.951  37.686  29.759  1.00  0.00    -0.237 OA
ATOM     57  O   UNL A   1      49.945  37.156  28.415  1.00  0.00    -0.744 OA
ENDBRANCH  53  54
ENDBRANCH  25  48
BRANCH  37  58
ATOM     58  C   UNL A   1      49.919  26.843  26.458  1.00  0.00    -0.014 A 
ATOM     59  C   UNL A   1      50.801  26.480  27.490  1.00  0.00     0.010 A 
ATOM     60  C   UNL A   1      50.347  26.771  25.120  1.00  0.00     0.010 A 
ATOM     61  C   UNL A   1      52.100  26.070  27.188  1.00  0.00     0.020 A 
ATOM     62  C   UNL A   1      51.636  26.338  24.814  1.00  0.00     0.020 A 
ATOM     63  C   UNL A   1      52.508  26.001  25.851  1.00  0.00     0.054 A 
BRANCH  63  64
ATOM     64  S   UNL A   1      54.179  25.405  25.480  1.00  0.00     0.124 S 
ATOM     65  O   UNL A   1      54.407  25.955  24.146  1.00  0.00    -0.237 OA
ATOM     66  O   UNL A   1      54.977  25.998  26.550  1.00  0.00    -0.237 OA
ATOM     67  O   UNL A   1      54.048  23.951  25.542  1.00  0.00    -0.744 OA
ENDBRANCH  63  64
ENDBRANCH  37  58
ENDBRANCH  11  12
ENDBRANCH   4   6
ENDBRANCH   3   4
ENDBRANCH   2   3
ENDBRANCH   1   2
BRANCH   1  68
ATOM     68  O   UNL A   1      33.108  30.514  27.544  1.00  0.00    -0.374 OA
BRANCH  68  69
ATOM     69  C   UNL A   1      33.046  29.791  26.310  1.00  0.00     0.202 C 
BRANCH  69  70
ATOM     70  C   UNL A   1      33.164  28.304  26.637  1.00  0.00     0.261 C 
BRANCH  70  71
ATOM     71  O   UNL A   1      32.605  27.604  25.519  1.00  0.00    -0.459 OA
BRANCH  71  72
ATOM     72  C   UNL A   1      31.451  26.934  25.742  1.00  0.00     0.370 C 
ATOM     73  O   UNL A   1      30.796  27.040  26.776  1.00  0.00    -0.245 OA
BRANCH  72  74
ATOM     74  C   UNL A   1      30.978  26.147  24.500  1.00  0.00     0.328 C 
BRANCH  74  75
ATOM     75  N   UNL A   1      30.841  24.660  24.570  1.00  0.00    -0.316 N 
ATOM     76  C   UNL A   1      31.148  23.896  23.346  1.00  0.00     0.284 C 
ATOM     77  C   UNL A   1      31.403  23.956  25.722  1.00  0.00     0.284 C 
ATOM     78  H   UNL A   1      29.829  24.666  24.702  1.00  0.00     0.349 HD
ATOM     79  C   UNL A   1      32.545  23.210  23.184  1.00  0.00     0.178 C 
ATOM     80  C   UNL A   1      32.906  23.670  25.644  1.00  0.00     0.178 C 
ATOM     81  N   UNL A   1      33.242  22.883  24.442  1.00  0.00    -0.360 N 
BRANCH  81  82
ATOM     82  C   UNL A   1      34.552  22.387  24.414  1.00  0.00     0.037 A 
ATOM     83  C   UNL A   1      35.642  23.108  23.901  1.00  0.00     0.026 A 
ATOM     84  C   UNL A   1      34.837  21.121  24.954  1.00  0.00     0.026 A 
ATOM     85  C   UNL A   1      36.952  22.614  23.973  1.00  0.00     0.002 A 
ATOM     86  C   UNL A   1      36.140  20.617  25.024  1.00  0.00     0.002 A 
ATOM     87  C   UNL A   1      37.201  21.370  24.542  1.00  0.00     0.000 A 
ENDBRANCH  81  82
ENDBRANCH  74  75
BRANCH  74  88
ATOM     88  C   UNL A   1      29.706  26.787  23.967  1.00  0.00     0.046 A 
ATOM     89  C   UNL A   1      28.413  26.349  24.218  1.00  0.00     0.094 A 
ATOM     90  C   UNL A   1      29.577  28.015  23.228  1.00  0.00     0.009 A 
ATOM     91  N   UNL A   1      27.533  27.210  23.634  1.00  0.00    -0.361 N 
ATOM     92  C   UNL A   1      28.211  28.236  23.025  1.00  0.00     0.049 A 
ATOM     93  C   UNL A   1      30.486  28.980  22.739  1.00  0.00     0.014 A 
ATOM     94  H   UNL A   1      26.553  27.110  23.648  1.00  0.00     0.166 HD
ATOM     95  C   UNL A   1      27.711  29.347  22.338  1.00  0.00     0.065 A 
ATOM     96  C   UNL A   1      30.001  30.107  22.062  1.00  0.00     0.040 A 
ATOM     97  C   UNL A   1      28.637  30.272  21.864  1.00  0.00     0.125 A 
ATOM     98  F   UNL A   1      28.195  31.354  21.207  1.00  0.00    -0.207 F 
ENDBRANCH  74  88
ENDBRANCH  72  74
ENDBRANCH  71  72
ENDBRANCH  70  71
ENDBRANCH  69  70
ENDBRANCH  68  69
ENDBRANCH   1  68
TORSDOF 20
ENDMDL
MODEL 3
REMARK VINA RESULT:     -10.9      4.162      9.985
REMARK SMILES O=C(OCCOCCOC(=O)[C@H](c1c[nH]c2cc(F)ccc12)[NH+]1CCN(c2ccccc2)CC1)c1ccc(-c2c3nc(c(-c4ccc(S(=O)(=O)[O-])cc4)c4ccc([nH]4)c(-c4ccc(S(=O)(=O)[O-])cc4)c4nc(c(-c5ccc(S(=O)(=O)[O-])cc5)c5ccc2[nH]5)C=C4)C=C3)cc1
REMARK SMILES IDX 5 1 4 2 3 3 2 4 1 5 35 6 36 7 94 8 37 9 93 10 38 11 39 12
REMARK SMILES IDX 40 13 87 14 41 15 92 16 86 17 88 18 42 19 91 20 85 21 84 22
REMARK SMILES IDX 43 24 73 25 54 26 72 27 55 28 58 29 71 30 89 31 56 32 57 33
REMARK SMILES IDX 70 35 90 36 59 37 44 38 45 39 53 40 46 41 52 42 47 43 48 44
REMARK SMILES IDX 49 45 50 46 51 47 74 48 75 49 83 50 76 51 82 52 77 53 78 54
REMARK SMILES IDX 79 55 80 56 81 57 60 58 61 59 69 60 62 61 68 62 63 63 64 64
REMARK SMILES IDX 65 65 66 66 67 67 6 68 7 69 8 70 9 71 10 72 11 73 12 74
REMARK SMILES IDX 23 75 24 76 34 77 25 79 33 80 26 81 27 82 28 83 32 84 29 85
REMARK SMILES IDX 31 86 30 87 13 88 14 89 22 90 15 91 16 92 21 93 17 95 20 96
REMARK SMILES IDX 18 97 19 98
REMARK H PARENT 88 23 58 34 23 78 15 94
REMARK Flexibility Score: inf
ROOT
ATOM      1  C   UNL A   1      31.481  32.131  26.595  1.00  0.00     0.202 C 
ENDROOT
BRANCH   1   2
ATOM      2  C   UNL A   1      32.655  32.392  27.540  1.00  0.00     0.261 C 
BRANCH   2   3
ATOM      3  O   UNL A   1      32.725  33.792  27.861  1.00  0.00    -0.460 OA
BRANCH   3   4
ATOM      4  C   UNL A   1      33.490  34.439  28.767  1.00  0.00     0.338 C 
ATOM      5  O   UNL A   1      33.273  35.640  28.937  1.00  0.00    -0.246 OA
BRANCH   4   6
ATOM      6  C   UNL A   1      34.614  33.821  29.545  1.00  0.00     0.060 A 
ATOM      7  C   UNL A   1      34.491  32.804  30.495  1.00  0.00     0.016 A 
ATOM      8  C   UNL A   1      35.916  34.230  29.196  1.00  0.00     0.016 A 
ATOM      9  C   UNL A   1      35.600  32.204  31.072  1.00  0.00     0.010 A 
ATOM     10  C   UNL A   1      37.042  33.649  29.786  1.00  0.00     0.010 A 
ATOM     11  C   UNL A   1      36.875  32.639  30.736  1.00  0.00    -0.014 A 
BRANCH  11  12
ATOM     12  C   UNL A   1      37.987  32.147  31.560  1.00  0.00     0.031 A 
ATOM     13  C   UNL A   1      38.844  31.068  30.972  1.00  0.00     0.074 A 
ATOM     14  C   UNL A   1      38.304  32.774  32.705  1.00  0.00     0.049 A 
ATOM     15  N   UNL A   1      39.891  30.478  31.476  1.00  0.00    -0.248 NA
ATOM     16  C   UNL A   1      38.485  30.612  29.615  1.00  0.00     0.031 C 
ATOM     17  C   UNL A   1      37.605  33.940  33.251  1.00  0.00     0.029 A 
ATOM     18  N   UNL A   1      39.318  32.544  33.594  1.00  0.00    -0.354 N 
ATOM     19  C   UNL A   1      40.308  29.574  30.507  1.00  0.00     0.074 A 
ATOM     20  C   UNL A   1      39.409  29.693  29.384  1.00  0.00     0.031 C 
ATOM     21  C   UNL A   1      38.222  34.331  34.379  1.00  0.00     0.029 A 
ATOM     22  C   UNL A   1      39.320  33.412  34.660  1.00  0.00     0.049 A 
ATOM     23  H   UNL A   1      39.981  31.826  33.482  1.00  0.00     0.167 HD
ATOM     24  C   UNL A   1      41.343  28.707  30.568  1.00  0.00     0.031 A 
ATOM     25  C   UNL A   1      40.111  33.429  35.750  1.00  0.00     0.031 A 
ATOM     26  C   UNL A   1      42.184  28.585  31.723  1.00  0.00     0.049 A 
ATOM     27  C   UNL A   1      41.177  32.368  35.852  1.00  0.00     0.074 A 
ATOM     28  C   UNL A   1      43.192  27.674  31.971  1.00  0.00     0.029 A 
ATOM     29  N   UNL A   1      42.100  29.412  32.837  1.00  0.00    -0.354 N 
ATOM     30  N   UNL A   1      41.512  31.452  34.972  1.00  0.00    -0.248 NA
ATOM     31  C   UNL A   1      41.958  32.327  37.094  1.00  0.00     0.031 C 
ATOM     32  C   UNL A   1      43.685  27.922  33.257  1.00  0.00     0.029 A 
ATOM     33  C   UNL A   1      43.023  29.023  33.786  1.00  0.00     0.049 A 
ATOM     34  H   UNL A   1      41.473  30.165  32.935  1.00  0.00     0.167 HD
ATOM     35  C   UNL A   1      42.548  30.729  35.548  1.00  0.00     0.074 A 
ATOM     36  C   UNL A   1      42.800  31.332  36.844  1.00  0.00     0.031 C 
ATOM     37  C   UNL A   1      43.230  29.661  35.063  1.00  0.00     0.031 A 
BRANCH  24  38
ATOM     38  C   UNL A   1      41.519  27.779  29.399  1.00  0.00    -0.014 A 
ATOM     39  C   UNL A   1      40.832  26.553  29.323  1.00  0.00     0.010 A 
ATOM     40  C   UNL A   1      42.440  28.112  28.390  1.00  0.00     0.010 A 
ATOM     41  C   UNL A   1      41.102  25.656  28.284  1.00  0.00     0.020 A 
ATOM     42  C   UNL A   1      42.696  27.228  27.339  1.00  0.00     0.020 A 
ATOM     43  C   UNL A   1      42.042  25.995  27.305  1.00  0.00     0.054 A 
BRANCH  43  44
ATOM     44  S   UNL A   1      42.396  24.805  25.982  1.00  0.00     0.124 S 
ATOM     45  O   UNL A   1      42.352  25.654  24.795  1.00  0.00    -0.237 OA
ATOM     46  O   UNL A   1      43.718  24.303  26.345  1.00  0.00    -0.237 OA
ATOM     47  O   UNL A   1      41.311  23.831  26.092  1.00  0.00    -0.744 OA
ENDBRANCH  43  44
ENDBRANCH  24  38
BRANCH  25  48
ATOM     48  C   UNL A   1      39.880  34.419  36.841  1.00  0.00    -0.014 A 
ATOM     49  C   UNL A   1      40.461  35.698  36.804  1.00  0.00     0.010 A 
ATOM     50  C   UNL A   1      39.066  34.077  37.939  1.00  0.00     0.010 A 
ATOM     51  C   UNL A   1      40.247  36.607  37.849  1.00  0.00     0.020 A 
ATOM     52  C   UNL A   1      38.827  34.992  38.969  1.00  0.00     0.020 A 
ATOM     53  C   UNL A   1      39.431  36.248  38.925  1.00  0.00     0.054 A 
BRANCH  53  54
ATOM     54  S   UNL A   1      39.135  37.452  40.251  1.00  0.00     0.124 S 
ATOM     55  O   UNL A   1      38.224  38.394  39.608  1.00  0.00    -0.237 OA
ATOM     56  O   UNL A   1      38.551  36.628  41.306  1.00  0.00    -0.237 OA
ATOM     57  O   UNL A   1      40.469  37.973  40.544  1.00  0.00    -0.744 OA
ENDBRANCH  53  54
ENDBRANCH  25  48
BRANCH  37  58
ATOM     58  C   UNL A   1      44.320  29.101  35.930  1.00  0.00    -0.014 A 
ATOM     59  C   UNL A   1      44.063  28.045  36.821  1.00  0.00     0.010 A 
ATOM     60  C   UNL A   1      45.632  29.587  35.787  1.00  0.00     0.010 A 
ATOM     61  C   UNL A   1      45.102  27.496  37.573  1.00  0.00     0.020 A 
ATOM     62  C   UNL A   1      46.676  29.023  36.518  1.00  0.00     0.020 A 
ATOM     63  C   UNL A   1      46.403  27.988  37.415  1.00  0.00     0.054 A 
BRANCH  63  64
ATOM     64  S   UNL A   1      47.746  27.216  38.356  1.00  0.00     0.124 S 
ATOM     65  O   UNL A   1      48.465  28.381  38.866  1.00  0.00    -0.237 OA
ATOM     66  O   UNL A   1      47.029  26.431  39.357  1.00  0.00    -0.237 OA
ATOM     67  O   UNL A   1      48.462  26.431  37.353  1.00  0.00    -0.744 OA
ENDBRANCH  63  64
ENDBRANCH  37  58
ENDBRANCH  11  12
ENDBRANCH   4   6
ENDBRANCH   3   4
ENDBRANCH   2   3
ENDBRANCH   1   2
BRANCH   1  68
ATOM     68  O   UNL A   1      31.509  30.850  25.979  1.00  0.00    -0.374 OA
BRANCH  68  69
ATOM     69  C   UNL A   1      32.477  29.912  26.462  1.00  0.00     0.202 C 
BRANCH  69  70
ATOM     70  C   UNL A   1      31.729  28.832  27.241  1.00  0.00     0.261 C 
BRANCH  70  71
ATOM     71  O   UNL A   1      32.297  27.581  26.835  1.00  0.00    -0.459 OA
BRANCH  71  72
ATOM     72  C   UNL A   1      31.511  26.777  26.083  1.00  0.00     0.370 C 
ATOM     73  O   UNL A   1      30.393  26.404  26.433  1.00  0.00    -0.245 OA
BRANCH  72  74
ATOM     74  C   UNL A   1      32.108  26.510  24.684  1.00  0.00     0.328 C 
BRANCH  74  75
ATOM     75  N   UNL A   1      31.803  25.229  23.977  1.00  0.00    -0.316 N 
ATOM     76  C   UNL A   1      32.573  24.933  22.755  1.00  0.00     0.284 C 
ATOM     77  C   UNL A   1      31.677  24.004  24.766  1.00  0.00     0.284 C 
ATOM     78  H   UNL A   1      30.856  25.496  23.707  1.00  0.00     0.349 HD
ATOM     79  C   UNL A   1      33.801  23.966  22.819  1.00  0.00     0.178 C 
ATOM     80  C   UNL A   1      33.000  23.321  25.129  1.00  0.00     0.178 C 
ATOM     81  N   UNL A   1      33.781  22.988  23.924  1.00  0.00    -0.360 N 
BRANCH  81  82
ATOM     82  C   UNL A   1      34.890  22.163  24.155  1.00  0.00     0.037 A 
ATOM     83  C   UNL A   1      36.204  22.515  23.807  1.00  0.00     0.026 A 
ATOM     84  C   UNL A   1      34.723  20.925  24.800  1.00  0.00     0.026 A 
ATOM     85  C   UNL A   1      37.297  21.701  24.136  1.00  0.00     0.002 A 
ATOM     86  C   UNL A   1      35.807  20.103  25.126  1.00  0.00     0.002 A 
ATOM     87  C   UNL A   1      37.098  20.497  24.803  1.00  0.00     0.000 A 
ENDBRANCH  81  82
ENDBRANCH  74  75
BRANCH  74  88
ATOM     88  C   UNL A   1      31.824  27.707  23.791  1.00  0.00     0.046 A 
ATOM     89  C   UNL A   1      32.779  28.479  23.143  1.00  0.00     0.094 A 
ATOM     90  C   UNL A   1      30.546  28.188  23.338  1.00  0.00     0.009 A 
ATOM     91  N   UNL A   1      32.149  29.414  22.379  1.00  0.00    -0.361 N 
ATOM     92  C   UNL A   1      30.788  29.262  22.475  1.00  0.00     0.049 A 
ATOM     93  C   UNL A   1      29.205  27.797  23.551  1.00  0.00     0.014 A 
ATOM     94  H   UNL A   1      32.604  30.098  21.837  1.00  0.00     0.166 HD
ATOM     95  C   UNL A   1      29.767  29.979  21.842  1.00  0.00     0.065 A 
ATOM     96  C   UNL A   1      28.171  28.494  22.912  1.00  0.00     0.040 A 
ATOM     97  C   UNL A   1      28.459  29.569  22.081  1.00  0.00     0.125 A 
ATOM     98  F   UNL A   1      27.454  30.227  21.487  1.00  0.00    -0.207 F 
ENDBRANCH  74  88
ENDBRANCH  72  74
ENDBRANCH  71  72
ENDBRANCH  70  71
ENDBRANCH  69  70
ENDBRANCH  68  69
ENDBRANCH   1  68
TORSDOF 20
ENDMDL
