MODEL 1
REMARK VINA RESULT:     -11.9      0.000      0.000
REMARK SMILES CC1(C)[C@H](O)CC[C@@]2(C)[C@@H]1CC[C@@]1(C)Oc3oc(C(=O)OCCOCCOC(=O)c4ccc(-c5c6nc(c(-c7ccc(S(=O)(=O)[O-])cc7)c7ccc([nH]7)c(-c7ccc(S(=O)(=O)[O-])cc7)c7nc(c(-c8ccc(S(=O)(=O)[O-])cc8)c8ccc5[nH]8)C=C7)C=C6)cc4)cc(=O)c3C[C@@H]21
REMARK SMILES IDX 25 1 24 2 23 3 22 4 21 5 19 6 20 7 18 8 1 9 2 10 4 11 10 12
REMARK SMILES IDX 3 13 6 14 8 15 11 16 7 17 95 18 9 19 12 20 13 21 94 22 15 23
REMARK SMILES IDX 14 24 93 25 16 26 91 27 17 28 90 29 92 30 5 31 26 33 27 34
REMARK SMILES IDX 28 35 29 36 30 37 31 38 89 39 32 40 88 41 33 42 34 43 35 44
REMARK SMILES IDX 82 45 36 46 87 47 81 48 83 49 37 50 86 51 80 52 79 53 38 55
REMARK SMILES IDX 68 56 49 57 67 58 50 59 53 60 66 61 84 62 51 63 52 64 65 66
REMARK SMILES IDX 85 67 54 68 39 69 40 70 48 71 41 72 47 73 42 74 43 75 44 76
REMARK SMILES IDX 45 77 46 78 69 79 70 80 78 81 71 82 77 83 72 84 73 85 74 86
REMARK SMILES IDX 75 87 76 88 55 89 56 90 64 91 57 92 63 93 58 94 59 95 60 96
REMARK SMILES IDX 61 97 62 98
REMARK H PARENT 5 32 83 54 53 65
REMARK Flexibility Score: inf
ROOT
ATOM      1  C   UNL A   1      44.378  24.041  26.334  1.00  0.00     0.202 C 
ENDROOT
BRANCH   1   2
ATOM      2  O   UNL A   1      44.562  22.624  26.336  1.00  0.00    -0.374 OA
BRANCH   2   3
ATOM      3  C   UNL A   1      43.772  21.859  25.431  1.00  0.00     0.202 C 
BRANCH   3   4
ATOM      4  C   UNL A   1      42.856  20.803  26.051  1.00  0.00     0.261 C 
BRANCH   4   5
ATOM      5  O   UNL A   1      41.481  21.036  25.753  1.00  0.00    -0.457 OA
BRANCH   5   6
ATOM      6  C   UNL A   1      40.606  21.194  26.793  1.00  0.00     0.374 C 
ATOM      7  O   UNL A   1      40.747  20.814  27.937  1.00  0.00    -0.242 OA
BRANCH   6   8
ATOM      8  C   UNL A   1      39.440  21.961  26.275  1.00  0.00     0.219 A 
ATOM      9  C   UNL A   1      30.592  25.770  26.301  1.00  0.00     0.014 C 
ATOM     10  C   UNL A   1      31.807  25.948  25.335  1.00  0.00    -0.006 C 
ATOM     11  C   UNL A   1      32.967  26.562  26.320  1.00  0.00     0.120 C 
ATOM     12  C   UNL A   1      32.266  24.338  24.448  1.00  0.00     0.004 C 
ATOM     13  C   UNL A   1      31.358  27.100  24.383  1.00  0.00     0.014 C 
ATOM     14  C   UNL A   1      34.222  26.788  25.538  1.00  0.00     0.033 C 
ATOM     15  C   UNL A   1      33.572  24.263  25.209  1.00  0.00    -0.022 C 
ATOM     16  C   UNL A   1      32.941  23.671  23.058  1.00  0.00     0.009 C 
ATOM     17  C   UNL A   1      34.171  25.655  24.583  1.00  0.00     0.010 C 
ATOM     18  C   UNL A   1      34.786  23.304  25.318  1.00  0.00     0.044 C 
ATOM     19  C   UNL A   1      32.822  23.655  26.485  1.00  0.00     0.012 C 
ATOM     20  C   UNL A   1      34.356  22.866  22.984  1.00  0.00     0.049 C 
ATOM     21  C   UNL A   1      34.905  22.215  24.286  1.00  0.00     0.113 C 
ATOM     22  C   UNL A   1      36.038  24.145  25.475  1.00  0.00     0.055 C 
ATOM     23  O   UNL A   1      36.294  21.653  24.255  1.00  0.00    -0.458 OA
ATOM     24  C   UNL A   1      34.017  20.987  24.603  1.00  0.00     0.057 C 
ATOM     25  C   UNL A   1      37.193  23.329  25.699  1.00  0.00     0.081 A 
ATOM     26  C   UNL A   1      37.302  22.125  25.147  1.00  0.00     0.292 A 
ATOM     27  C   UNL A   1      38.247  24.015  26.444  1.00  0.00     0.192 A 
ATOM     28  O   UNL A   1      38.476  21.380  25.416  1.00  0.00    -0.418 OA
ATOM     29  C   UNL A   1      39.406  23.221  26.731  1.00  0.00     0.107 A 
ATOM     30  O   UNL A   1      38.172  25.180  26.807  1.00  0.00    -0.289 OA
BRANCH  11  31
ATOM     31  O   UNL A   1      32.633  27.758  27.005  1.00  0.00    -0.393 OA
ATOM     32  H   UNL A   1      31.700  27.728  27.269  1.00  0.00     0.210 HD
ENDBRANCH  11  31
ENDBRANCH   6   8
ENDBRANCH   5   6
ENDBRANCH   4   5
ENDBRANCH   3   4
ENDBRANCH   2   3
ENDBRANCH   1   2
BRANCH   1  33
ATOM     33  C   UNL A   1      43.695  24.653  25.108  1.00  0.00     0.261 C 
BRANCH  33  34
ATOM     34  O   UNL A   1      43.398  26.050  25.285  1.00  0.00    -0.460 OA
BRANCH  34  35
ATOM     35  C   UNL A   1      42.157  26.299  25.771  1.00  0.00     0.338 C 
ATOM     36  O   UNL A   1      41.090  26.100  25.219  1.00  0.00    -0.246 OA
BRANCH  35  37
ATOM     37  C   UNL A   1      42.242  26.761  27.164  1.00  0.00     0.060 A 
ATOM     38  C   UNL A   1      41.347  26.219  28.096  1.00  0.00     0.016 A 
ATOM     39  C   UNL A   1      43.062  27.840  27.500  1.00  0.00     0.016 A 
ATOM     40  C   UNL A   1      41.233  26.792  29.359  1.00  0.00     0.010 A 
ATOM     41  C   UNL A   1      42.933  28.423  28.763  1.00  0.00     0.010 A 
ATOM     42  C   UNL A   1      41.987  27.928  29.677  1.00  0.00    -0.014 A 
BRANCH  42  43
ATOM     43  C   UNL A   1      41.655  28.707  30.890  1.00  0.00     0.031 A 
ATOM     44  C   UNL A   1      40.482  29.649  30.846  1.00  0.00     0.074 A 
ATOM     45  C   UNL A   1      42.374  28.566  32.016  1.00  0.00     0.049 A 
ATOM     46  N   UNL A   1      40.048  30.467  31.768  1.00  0.00    -0.248 NA
ATOM     47  C   UNL A   1      39.693  29.665  29.603  1.00  0.00     0.031 C 
ATOM     48  C   UNL A   1      43.491  27.640  32.193  1.00  0.00     0.029 A 
ATOM     49  N   UNL A   1      42.268  29.207  33.222  1.00  0.00    -0.354 N 
ATOM     50  C   UNL A   1      38.941  31.101  31.216  1.00  0.00     0.074 A 
ATOM     51  C   UNL A   1      38.777  30.583  29.876  1.00  0.00     0.031 C 
ATOM     52  C   UNL A   1      43.977  27.782  33.438  1.00  0.00     0.029 A 
ATOM     53  C   UNL A   1      43.228  28.830  34.129  1.00  0.00     0.049 A 
ATOM     54  H   UNL A   1      41.572  29.875  33.420  1.00  0.00     0.167 HD
ATOM     55  C   UNL A   1      38.135  32.031  31.777  1.00  0.00     0.031 A 
ATOM     56  C   UNL A   1      43.490  29.298  35.366  1.00  0.00     0.031 A 
ATOM     57  C   UNL A   1      38.312  32.556  33.104  1.00  0.00     0.049 A 
ATOM     58  C   UNL A   1      42.640  30.398  35.935  1.00  0.00     0.074 A 
ATOM     59  C   UNL A   1      37.541  33.495  33.766  1.00  0.00     0.029 A 
ATOM     60  N   UNL A   1      39.336  32.195  33.966  1.00  0.00    -0.354 N 
ATOM     61  N   UNL A   1      41.600  30.993  35.401  1.00  0.00    -0.248 NA
ATOM     62  C   UNL A   1      43.002  30.896  37.269  1.00  0.00     0.031 C 
ATOM     63  C   UNL A   1      38.131  33.741  35.010  1.00  0.00     0.029 A 
ATOM     64  C   UNL A   1      39.239  32.917  35.141  1.00  0.00     0.049 A 
ATOM     65  H   UNL A   1      40.029  31.524  33.770  1.00  0.00     0.167 HD
ATOM     66  C   UNL A   1      41.179  31.932  36.334  1.00  0.00     0.074 A 
ATOM     67  C   UNL A   1      42.068  31.818  37.474  1.00  0.00     0.031 C 
ATOM     68  C   UNL A   1      40.147  32.808  36.255  1.00  0.00     0.031 A 
BRANCH  55  69
ATOM     69  C   UNL A   1      37.008  32.572  30.943  1.00  0.00    -0.014 A 
ATOM     70  C   UNL A   1      35.690  32.118  31.120  1.00  0.00     0.010 A 
ATOM     71  C   UNL A   1      37.265  33.589  30.005  1.00  0.00     0.010 A 
ATOM     72  C   UNL A   1      34.649  32.660  30.362  1.00  0.00     0.020 A 
ATOM     73  C   UNL A   1      36.224  34.147  29.259  1.00  0.00     0.020 A 
ATOM     74  C   UNL A   1      34.922  33.674  29.439  1.00  0.00     0.054 A 
BRANCH  74  75
ATOM     75  S   UNL A   1      33.546  34.375  28.488  1.00  0.00     0.124 S 
ATOM     76  O   UNL A   1      33.119  33.232  27.684  1.00  0.00    -0.237 OA
ATOM     77  O   UNL A   1      32.617  34.785  29.538  1.00  0.00    -0.237 OA
ATOM     78  O   UNL A   1      34.159  35.466  27.736  1.00  0.00    -0.744 OA
ENDBRANCH  74  75
ENDBRANCH  55  69
BRANCH  56  79
ATOM     79  C   UNL A   1      44.632  28.729  36.126  1.00  0.00    -0.014 A 
ATOM     80  C   UNL A   1      45.918  29.280  36.002  1.00  0.00     0.010 A 
ATOM     81  C   UNL A   1      44.420  27.675  37.035  1.00  0.00     0.010 A 
ATOM     82  C   UNL A   1      46.969  28.801  36.789  1.00  0.00     0.020 A 
ATOM     83  C   UNL A   1      45.463  27.207  37.837  1.00  0.00     0.020 A 
ATOM     84  C   UNL A   1      46.730  27.779  37.714  1.00  0.00     0.054 A 
BRANCH  84  85
ATOM     85  S   UNL A   1      48.093  27.245  38.788  1.00  0.00     0.124 S 
ATOM     86  O   UNL A   1      49.231  27.261  37.873  1.00  0.00    -0.237 OA
ATOM     87  O   UNL A   1      48.094  28.282  39.816  1.00  0.00    -0.237 OA
ATOM     88  O   UNL A   1      47.675  25.922  39.242  1.00  0.00    -0.744 OA
ENDBRANCH  84  85
ENDBRANCH  56  79
BRANCH  68  89
ATOM     89  C   UNL A   1      39.918  33.725  37.425  1.00  0.00    -0.014 A 
ATOM     90  C   UNL A   1      40.384  35.050  37.400  1.00  0.00     0.010 A 
ATOM     91  C   UNL A   1      39.153  33.283  38.520  1.00  0.00     0.010 A 
ATOM     92  C   UNL A   1      40.099  35.917  38.458  1.00  0.00     0.020 A 
ATOM     93  C   UNL A   1      38.848  34.153  39.570  1.00  0.00     0.020 A 
ATOM     94  C   UNL A   1      39.327  35.465  39.533  1.00  0.00     0.054 A 
BRANCH  94  95
ATOM     95  S   UNL A   1      38.940  36.627  40.870  1.00  0.00     0.124 S 
ATOM     96  O   UNL A   1      40.256  36.871  41.456  1.00  0.00    -0.237 OA
ATOM     97  O   UNL A   1      38.355  37.753  40.148  1.00  0.00    -0.237 OA
ATOM     98  O   UNL A   1      38.012  35.885  41.721  1.00  0.00    -0.744 OA
ENDBRANCH  94  95
ENDBRANCH  68  89
ENDBRANCH  42  43
ENDBRANCH  35  37
ENDBRANCH  34  35
ENDBRANCH  33  34
ENDBRANCH   1  33
TORSDOF 18
ENDMDL
MODEL 2
REMARK VINA RESULT:     -11.4      5.507     11.909
REMARK SMILES CC1(C)[C@H](O)CC[C@@]2(C)[C@@H]1CC[C@@]1(C)Oc3oc(C(=O)OCCOCCOC(=O)c4ccc(-c5c6nc(c(-c7ccc(S(=O)(=O)[O-])cc7)c7ccc([nH]7)c(-c7ccc(S(=O)(=O)[O-])cc7)c7nc(c(-c8ccc(S(=O)(=O)[O-])cc8)c8ccc5[nH]8)C=C7)C=C6)cc4)cc(=O)c3C[C@@H]21
REMARK SMILES IDX 25 1 24 2 23 3 22 4 21 5 19 6 20 7 18 8 1 9 2 10 4 11 10 12
REMARK SMILES IDX 3 13 6 14 8 15 11 16 7 17 95 18 9 19 12 20 13 21 94 22 15 23
REMARK SMILES IDX 14 24 93 25 16 26 91 27 17 28 90 29 92 30 5 31 26 33 27 34
REMARK SMILES IDX 28 35 29 36 30 37 31 38 89 39 32 40 88 41 33 42 34 43 35 44
REMARK SMILES IDX 82 45 36 46 87 47 81 48 83 49 37 50 86 51 80 52 79 53 38 55
REMARK SMILES IDX 68 56 49 57 67 58 50 59 53 60 66 61 84 62 51 63 52 64 65 66
REMARK SMILES IDX 85 67 54 68 39 69 40 70 48 71 41 72 47 73 42 74 43 75 44 76
REMARK SMILES IDX 45 77 46 78 69 79 70 80 78 81 71 82 77 83 72 84 73 85 74 86
REMARK SMILES IDX 75 87 76 88 55 89 56 90 64 91 57 92 63 93 58 94 59 95 60 96
REMARK SMILES IDX 61 97 62 98
REMARK H PARENT 5 32 83 54 53 65
REMARK Flexibility Score: inf
ROOT
ATOM      1  C   UNL A   1      36.657  32.870  32.083  1.00  0.00     0.202 C 
ENDROOT
BRANCH   1   2
ATOM      2  O   UNL A   1      35.832  34.032  32.194  1.00  0.00    -0.374 OA
BRANCH   2   3
ATOM      3  C   UNL A   1      34.851  34.239  31.183  1.00  0.00     0.202 C 
BRANCH   3   4
ATOM      4  C   UNL A   1      34.409  33.002  30.399  1.00  0.00     0.261 C 
BRANCH   4   5
ATOM      5  O   UNL A   1      33.937  33.328  29.094  1.00  0.00    -0.457 OA
BRANCH   5   6
ATOM      6  C   UNL A   1      34.698  32.971  28.015  1.00  0.00     0.374 C 
ATOM      7  O   UNL A   1      35.512  33.657  27.431  1.00  0.00    -0.242 OA
BRANCH   6   8
ATOM      8  C   UNL A   1      34.376  31.553  27.697  1.00  0.00     0.219 A 
ATOM      9  C   UNL A   1      33.742  23.573  22.341  1.00  0.00     0.014 C 
ATOM     10  C   UNL A   1      33.511  23.834  23.863  1.00  0.00    -0.006 C 
ATOM     11  C   UNL A   1      34.978  24.369  24.366  1.00  0.00     0.120 C 
ATOM     12  C   UNL A   1      32.064  25.015  24.181  1.00  0.00     0.004 C 
ATOM     13  C   UNL A   1      33.316  22.404  24.459  1.00  0.00     0.014 C 
ATOM     14  C   UNL A   1      34.926  24.677  25.829  1.00  0.00     0.033 C 
ATOM     15  C   UNL A   1      33.013  26.077  24.693  1.00  0.00    -0.022 C 
ATOM     16  C   UNL A   1      30.853  25.456  25.265  1.00  0.00     0.009 C 
ATOM     17  C   UNL A   1      33.539  25.184  25.965  1.00  0.00     0.010 C 
ATOM     18  C   UNL A   1      32.933  27.534  25.219  1.00  0.00     0.044 C 
ATOM     19  C   UNL A   1      33.379  26.508  23.196  1.00  0.00     0.012 C 
ATOM     20  C   UNL A   1      30.790  26.855  26.096  1.00  0.00     0.049 C 
ATOM     21  C   UNL A   1      31.568  28.082  25.540  1.00  0.00     0.113 C 
ATOM     22  C   UNL A   1      33.939  27.685  26.343  1.00  0.00     0.055 C 
ATOM     23  O   UNL A   1      31.669  29.299  26.409  1.00  0.00    -0.458 OA
ATOM     24  C   UNL A   1      30.813  28.584  24.286  1.00  0.00     0.057 C 
ATOM     25  C   UNL A   1      34.009  29.039  26.806  1.00  0.00     0.081 A 
ATOM     26  C   UNL A   1      32.935  29.822  26.805  1.00  0.00     0.292 A 
ATOM     27  C   UNL A   1      35.303  29.381  27.392  1.00  0.00     0.192 A 
ATOM     28  O   UNL A   1      33.086  31.148  27.279  1.00  0.00    -0.418 OA
ATOM     29  C   UNL A   1      35.434  30.741  27.829  1.00  0.00     0.107 A 
ATOM     30  O   UNL A   1      36.223  28.585  27.514  1.00  0.00    -0.289 OA
BRANCH  11  31
ATOM     31  O   UNL A   1      36.074  23.503  24.120  1.00  0.00    -0.393 OA
ATOM     32  H   UNL A   1      35.959  22.685  24.627  1.00  0.00     0.210 HD
ENDBRANCH  11  31
ENDBRANCH   6   8
ENDBRANCH   5   6
ENDBRANCH   4   5
ENDBRANCH   3   4
ENDBRANCH   2   3
ENDBRANCH   1   2
BRANCH   1  33
ATOM     33  C   UNL A   1      36.235  31.638  32.888  1.00  0.00     0.261 C 
BRANCH  33  34
ATOM     34  O   UNL A   1      37.188  30.565  32.788  1.00  0.00    -0.460 OA
BRANCH  34  35
ATOM     35  C   UNL A   1      37.228  29.964  31.573  1.00  0.00     0.338 C 
ATOM     36  O   UNL A   1      36.305  29.445  30.972  1.00  0.00    -0.246 OA
BRANCH  35  37
ATOM     37  C   UNL A   1      38.564  30.114  30.978  1.00  0.00     0.060 A 
ATOM     38  C   UNL A   1      38.666  30.130  29.580  1.00  0.00     0.016 A 
ATOM     39  C   UNL A   1      39.704  30.054  31.780  1.00  0.00     0.016 A 
ATOM     40  C   UNL A   1      39.916  30.032  28.977  1.00  0.00     0.010 A 
ATOM     41  C   UNL A   1      40.956  29.938  31.172  1.00  0.00     0.010 A 
ATOM     42  C   UNL A   1      41.060  29.882  29.771  1.00  0.00    -0.014 A 
BRANCH  42  43
ATOM     43  C   UNL A   1      42.338  29.482  29.141  1.00  0.00     0.031 A 
ATOM     44  C   UNL A   1      42.487  28.071  28.641  1.00  0.00     0.074 A 
ATOM     45  C   UNL A   1      43.340  30.365  29.002  1.00  0.00     0.049 A 
ATOM     46  N   UNL A   1      43.531  27.491  28.110  1.00  0.00    -0.248 NA
ATOM     47  C   UNL A   1      41.301  27.203  28.747  1.00  0.00     0.031 C 
ATOM     48  C   UNL A   1      43.288  31.772  29.393  1.00  0.00     0.029 A 
ATOM     49  N   UNL A   1      44.602  30.200  28.493  1.00  0.00    -0.354 N 
ATOM     50  C   UNL A   1      43.134  26.190  27.826  1.00  0.00     0.074 A 
ATOM     51  C   UNL A   1      41.758  26.061  28.254  1.00  0.00     0.031 C 
ATOM     52  C   UNL A   1      44.472  32.343  29.118  1.00  0.00     0.029 A 
ATOM     53  C   UNL A   1      45.375  31.334  28.567  1.00  0.00     0.049 A 
ATOM     54  H   UNL A   1      44.925  29.351  28.112  1.00  0.00     0.167 HD
ATOM     55  C   UNL A   1      43.852  25.194  27.259  1.00  0.00     0.031 A 
ATOM     56  C   UNL A   1      46.671  31.526  28.251  1.00  0.00     0.031 A 
ATOM     57  C   UNL A   1      45.225  25.322  26.852  1.00  0.00     0.049 A 
ATOM     58  C   UNL A   1      47.478  30.380  27.710  1.00  0.00     0.074 A 
ATOM     59  C   UNL A   1      46.037  24.371  26.259  1.00  0.00     0.029 A 
ATOM     60  N   UNL A   1      45.991  26.467  27.004  1.00  0.00    -0.354 N 
ATOM     61  N   UNL A   1      47.092  29.154  27.451  1.00  0.00    -0.248 NA
ATOM     62  C   UNL A   1      48.896  30.641  27.425  1.00  0.00     0.031 C 
ATOM     63  C   UNL A   1      47.311  24.927  26.101  1.00  0.00     0.029 A 
ATOM     64  C   UNL A   1      47.276  26.239  26.548  1.00  0.00     0.049 A 
ATOM     65  H   UNL A   1      45.667  27.318  27.380  1.00  0.00     0.167 HD
ATOM     66  C   UNL A   1      48.217  28.496  26.968  1.00  0.00     0.074 A 
ATOM     67  C   UNL A   1      49.296  29.464  26.958  1.00  0.00     0.031 C 
ATOM     68  C   UNL A   1      48.344  27.207  26.568  1.00  0.00     0.031 A 
BRANCH  55  69
ATOM     69  C   UNL A   1      43.179  23.862  27.082  1.00  0.00    -0.014 A 
ATOM     70  C   UNL A   1      43.071  22.955  28.150  1.00  0.00     0.010 A 
ATOM     71  C   UNL A   1      42.597  23.538  25.842  1.00  0.00     0.010 A 
ATOM     72  C   UNL A   1      42.407  21.738  27.977  1.00  0.00     0.020 A 
ATOM     73  C   UNL A   1      41.916  22.330  25.671  1.00  0.00     0.020 A 
ATOM     74  C   UNL A   1      41.830  21.435  26.739  1.00  0.00     0.054 A 
BRANCH  74  75
ATOM     75  S   UNL A   1      40.954  19.858  26.554  1.00  0.00     0.124 S 
ATOM     76  O   UNL A   1      41.868  19.100  25.702  1.00  0.00    -0.237 OA
ATOM     77  O   UNL A   1      40.852  19.392  27.935  1.00  0.00    -0.237 OA
ATOM     78  O   UNL A   1      39.689  20.231  25.926  1.00  0.00    -0.744 OA
ENDBRANCH  74  75
ENDBRANCH  55  69
BRANCH  56  79
ATOM     79  C   UNL A   1      47.276  32.865  28.470  1.00  0.00    -0.014 A 
ATOM     80  C   UNL A   1      47.905  33.174  29.687  1.00  0.00     0.010 A 
ATOM     81  C   UNL A   1      47.286  33.814  27.430  1.00  0.00     0.010 A 
ATOM     82  C   UNL A   1      48.554  34.400  29.854  1.00  0.00     0.020 A 
ATOM     83  C   UNL A   1      47.949  35.032  27.586  1.00  0.00     0.020 A 
ATOM     84  C   UNL A   1      48.586  35.315  28.796  1.00  0.00     0.054 A 
BRANCH  84  85
ATOM     85  S   UNL A   1      49.517  36.858  29.011  1.00  0.00     0.124 S 
ATOM     86  O   UNL A   1      50.176  37.004  27.716  1.00  0.00    -0.237 OA
ATOM     87  O   UNL A   1      48.454  37.818  29.293  1.00  0.00    -0.237 OA
ATOM     88  O   UNL A   1      50.406  36.570  30.134  1.00  0.00    -0.744 OA
ENDBRANCH  84  85
ENDBRANCH  56  79
BRANCH  68  89
ATOM     89  C   UNL A   1      49.696  26.754  26.090  1.00  0.00    -0.014 A 
ATOM     90  C   UNL A   1      50.119  27.020  24.777  1.00  0.00     0.010 A 
ATOM     91  C   UNL A   1      50.584  26.136  26.989  1.00  0.00     0.010 A 
ATOM     92  C   UNL A   1      51.407  26.665  24.366  1.00  0.00     0.020 A 
ATOM     93  C   UNL A   1      51.879  25.798  26.589  1.00  0.00     0.020 A 
ATOM     94  C   UNL A   1      52.281  26.062  25.278  1.00  0.00     0.054 A 
BRANCH  94  95
ATOM     95  S   UNL A   1      53.958  25.651  24.725  1.00  0.00     0.124 S 
ATOM     96  O   UNL A   1      53.937  24.189  24.740  1.00  0.00    -0.237 OA
ATOM     97  O   UNL A   1      54.013  26.265  23.402  1.00  0.00    -0.237 OA
ATOM     98  O   UNL A   1      54.819  26.267  25.732  1.00  0.00    -0.744 OA
ENDBRANCH  94  95
ENDBRANCH  68  89
ENDBRANCH  42  43
ENDBRANCH  35  37
ENDBRANCH  34  35
ENDBRANCH  33  34
ENDBRANCH   1  33
TORSDOF 18
ENDMDL
MODEL 3
REMARK VINA RESULT:     -11.4      3.546      9.097
REMARK SMILES CC1(C)[C@H](O)CC[C@@]2(C)[C@@H]1CC[C@@]1(C)Oc3oc(C(=O)OCCOCCOC(=O)c4ccc(-c5c6nc(c(-c7ccc(S(=O)(=O)[O-])cc7)c7ccc([nH]7)c(-c7ccc(S(=O)(=O)[O-])cc7)c7nc(c(-c8ccc(S(=O)(=O)[O-])cc8)c8ccc5[nH]8)C=C7)C=C6)cc4)cc(=O)c3C[C@@H]21
REMARK SMILES IDX 25 1 24 2 23 3 22 4 21 5 19 6 20 7 18 8 1 9 2 10 4 11 10 12
REMARK SMILES IDX 3 13 6 14 8 15 11 16 7 17 95 18 9 19 12 20 13 21 94 22 15 23
REMARK SMILES IDX 14 24 93 25 16 26 91 27 17 28 90 29 92 30 5 31 26 33 27 34
REMARK SMILES IDX 28 35 29 36 30 37 31 38 89 39 32 40 88 41 33 42 34 43 35 44
REMARK SMILES IDX 82 45 36 46 87 47 81 48 83 49 37 50 86 51 80 52 79 53 38 55
REMARK SMILES IDX 68 56 49 57 67 58 50 59 53 60 66 61 84 62 51 63 52 64 65 66
REMARK SMILES IDX 85 67 54 68 39 69 40 70 48 71 41 72 47 73 42 74 43 75 44 76
REMARK SMILES IDX 45 77 46 78 69 79 70 80 78 81 71 82 77 83 72 84 73 85 74 86
REMARK SMILES IDX 75 87 76 88 55 89 56 90 64 91 57 92 63 93 58 94 59 95 60 96
REMARK SMILES IDX 61 97 62 98
REMARK H PARENT 5 32 83 54 53 65
REMARK Flexibility Score: inf
ROOT
ATOM      1  C   UNL A   1      37.366  20.594  24.887  1.00  0.00     0.202 C 
ENDROOT
BRANCH   1   2
ATOM      2  O   UNL A   1      36.974  19.221  24.918  1.00  0.00    -0.374 OA
BRANCH   2   3
ATOM      3  C   UNL A   1      35.607  18.923  24.649  1.00  0.00     0.202 C 
BRANCH   3   4
ATOM      4  C   UNL A   1      35.204  17.450  24.718  1.00  0.00     0.261 C 
BRANCH   4   5
ATOM      5  O   UNL A   1      34.083  17.156  23.888  1.00  0.00    -0.457 OA
BRANCH   5   6
ATOM      6  C   UNL A   1      32.827  17.311  24.407  1.00  0.00     0.374 C 
ATOM      7  O   UNL A   1      32.116  16.450  24.882  1.00  0.00    -0.242 OA
BRANCH   6   8
ATOM      8  C   UNL A   1      32.489  18.759  24.321  1.00  0.00     0.219 A 
ATOM      9  C   UNL A   1      34.087  28.219  23.467  1.00  0.00     0.014 C 
ATOM     10  C   UNL A   1      32.774  27.373  23.456  1.00  0.00    -0.006 C 
ATOM     11  C   UNL A   1      32.990  26.385  22.163  1.00  0.00     0.120 C 
ATOM     12  C   UNL A   1      32.468  26.494  25.106  1.00  0.00     0.004 C 
ATOM     13  C   UNL A   1      31.672  28.405  23.064  1.00  0.00     0.014 C 
ATOM     14  C   UNL A   1      31.802  25.487  22.014  1.00  0.00     0.033 C 
ATOM     15  C   UNL A   1      32.705  25.146  24.459  1.00  0.00    -0.022 C 
ATOM     16  C   UNL A   1      31.297  25.882  26.149  1.00  0.00     0.009 C 
ATOM     17  C   UNL A   1      31.431  25.266  23.432  1.00  0.00     0.010 C 
ATOM     18  C   UNL A   1      32.747  23.656  24.888  1.00  0.00     0.044 C 
ATOM     19  C   UNL A   1      34.289  25.347  24.559  1.00  0.00     0.012 C 
ATOM     20  C   UNL A   1      31.057  24.305  26.483  1.00  0.00     0.049 C 
ATOM     21  C   UNL A   1      32.235  23.315  26.262  1.00  0.00     0.113 C 
ATOM     22  C   UNL A   1      32.134  22.828  23.777  1.00  0.00     0.055 C 
ATOM     23  O   UNL A   1      31.947  21.849  26.378  1.00  0.00    -0.458 OA
ATOM     24  C   UNL A   1      33.279  23.576  27.374  1.00  0.00     0.057 C 
ATOM     25  C   UNL A   1      32.242  21.426  24.047  1.00  0.00     0.081 A 
ATOM     26  C   UNL A   1      32.188  20.959  25.290  1.00  0.00     0.292 A 
ATOM     27  C   UNL A   1      32.260  20.606  22.837  1.00  0.00     0.192 A 
ATOM     28  O   UNL A   1      32.302  19.559  25.473  1.00  0.00    -0.418 OA
ATOM     29  C   UNL A   1      32.412  19.197  23.057  1.00  0.00     0.107 A 
ATOM     30  O   UNL A   1      32.154  21.062  21.708  1.00  0.00    -0.289 OA
BRANCH  11  31
ATOM     31  O   UNL A   1      33.237  27.027  20.923  1.00  0.00    -0.393 OA
ATOM     32  H   UNL A   1      32.798  26.535  20.212  1.00  0.00     0.210 HD
ENDBRANCH  11  31
ENDBRANCH   6   8
ENDBRANCH   5   6
ENDBRANCH   4   5
ENDBRANCH   3   4
ENDBRANCH   2   3
ENDBRANCH   1   2
BRANCH   1  33
ATOM     33  C   UNL A   1      38.586  20.989  25.725  1.00  0.00     0.261 C 
BRANCH  33  34
ATOM     34  O   UNL A   1      38.689  22.412  25.907  1.00  0.00    -0.460 OA
BRANCH  34  35
ATOM     35  C   UNL A   1      39.902  22.832  26.343  1.00  0.00     0.338 C 
ATOM     36  O   UNL A   1      40.964  22.242  26.264  1.00  0.00    -0.246 OA
BRANCH  35  37
ATOM     37  C   UNL A   1      39.808  24.208  26.854  1.00  0.00     0.060 A 
ATOM     38  C   UNL A   1      40.401  25.233  26.105  1.00  0.00     0.016 A 
ATOM     39  C   UNL A   1      39.309  24.451  28.134  1.00  0.00     0.016 A 
ATOM     40  C   UNL A   1      40.543  26.502  26.659  1.00  0.00     0.010 A 
ATOM     41  C   UNL A   1      39.468  25.721  28.695  1.00  0.00     0.010 A 
ATOM     42  C   UNL A   1      40.125  26.734  27.975  1.00  0.00    -0.014 A 
BRANCH  42  43
ATOM     43  C   UNL A   1      40.539  27.977  28.663  1.00  0.00     0.031 A 
ATOM     44  C   UNL A   1      41.938  28.070  29.208  1.00  0.00     0.074 A 
ATOM     45  C   UNL A   1      39.690  29.011  28.784  1.00  0.00     0.049 A 
ATOM     46  N   UNL A   1      42.494  29.036  29.891  1.00  0.00    -0.248 NA
ATOM     47  C   UNL A   1      42.829  26.927  28.942  1.00  0.00     0.031 C 
ATOM     48  C   UNL A   1      38.334  29.058  28.242  1.00  0.00     0.029 A 
ATOM     49  N   UNL A   1      39.850  30.221  29.407  1.00  0.00    -0.354 N 
ATOM     50  C   UNL A   1      43.795  28.617  30.144  1.00  0.00     0.074 A 
ATOM     51  C   UNL A   1      43.943  27.305  29.553  1.00  0.00     0.031 C 
ATOM     52  C   UNL A   1      37.778  30.237  28.567  1.00  0.00     0.029 A 
ATOM     53  C   UNL A   1      38.726  31.010  29.367  1.00  0.00     0.049 A 
ATOM     54  H   UNL A   1      40.688  30.499  29.843  1.00  0.00     0.167 HD
ATOM     55  C   UNL A   1      44.776  29.268  30.810  1.00  0.00     0.031 A 
ATOM     56  C   UNL A   1      38.481  32.207  29.936  1.00  0.00     0.031 A 
ATOM     57  C   UNL A   1      44.619  30.564  31.411  1.00  0.00     0.049 A 
ATOM     58  C   UNL A   1      39.555  32.871  30.751  1.00  0.00     0.074 A 
ATOM     59  C   UNL A   1      45.558  31.311  32.099  1.00  0.00     0.029 A 
ATOM     60  N   UNL A   1      43.445  31.300  31.405  1.00  0.00    -0.354 N 
ATOM     61  N   UNL A   1      40.779  32.462  30.987  1.00  0.00    -0.248 NA
ATOM     62  C   UNL A   1      39.214  34.154  31.382  1.00  0.00     0.031 C 
ATOM     63  C   UNL A   1      44.936  32.478  32.555  1.00  0.00     0.029 A 
ATOM     64  C   UNL A   1      43.623  32.479  32.106  1.00  0.00     0.049 A 
ATOM     65  H   UNL A   1      42.607  31.026  30.965  1.00  0.00     0.167 HD
ATOM     66  C   UNL A   1      41.357  33.437  31.790  1.00  0.00     0.074 A 
ATOM     67  C   UNL A   1      40.354  34.465  31.988  1.00  0.00     0.031 C 
ATOM     68  C   UNL A   1      42.607  33.479  32.313  1.00  0.00     0.031 A 
BRANCH  55  69
ATOM     69  C   UNL A   1      46.099  28.570  30.958  1.00  0.00    -0.014 A 
ATOM     70  C   UNL A   1      47.133  28.768  30.027  1.00  0.00     0.010 A 
ATOM     71  C   UNL A   1      46.328  27.747  32.076  1.00  0.00     0.010 A 
ATOM     72  C   UNL A   1      48.369  28.141  30.202  1.00  0.00     0.020 A 
ATOM     73  C   UNL A   1      47.570  27.134  32.265  1.00  0.00     0.020 A 
ATOM     74  C   UNL A   1      48.581  27.332  31.323  1.00  0.00     0.054 A 
BRANCH  74  75
ATOM     75  S   UNL A   1      50.205  26.553  31.534  1.00  0.00     0.124 S 
ATOM     76  O   UNL A   1      51.003  27.652  32.072  1.00  0.00    -0.237 OA
ATOM     77  O   UNL A   1      49.915  25.471  32.471  1.00  0.00    -0.237 OA
ATOM     78  O   UNL A   1      50.568  26.128  30.184  1.00  0.00    -0.744 OA
ENDBRANCH  74  75
ENDBRANCH  55  69
BRANCH  56  79
ATOM     79  C   UNL A   1      37.144  32.829  29.763  1.00  0.00    -0.014 A 
ATOM     80  C   UNL A   1      36.220  32.842  30.820  1.00  0.00     0.010 A 
ATOM     81  C   UNL A   1      36.817  33.476  28.556  1.00  0.00     0.010 A 
ATOM     82  C   UNL A   1      35.000  33.510  30.683  1.00  0.00     0.020 A 
ATOM     83  C   UNL A   1      35.608  34.160  28.421  1.00  0.00     0.020 A 
ATOM     84  C   UNL A   1      34.709  34.180  29.489  1.00  0.00     0.054 A 
BRANCH  84  85
ATOM     85  S   UNL A   1      33.159  35.117  29.376  1.00  0.00     0.124 S 
ATOM     86  O   UNL A   1      32.616  34.979  30.724  1.00  0.00    -0.237 OA
ATOM     87  O   UNL A   1      33.635  36.451  29.019  1.00  0.00    -0.237 OA
ATOM     88  O   UNL A   1      32.414  34.424  28.329  1.00  0.00    -0.744 OA
ENDBRANCH  84  85
ENDBRANCH  56  79
BRANCH  68  89
ATOM     89  C   UNL A   1      42.970  34.667  33.161  1.00  0.00    -0.014 A 
ATOM     90  C   UNL A   1      42.867  34.608  34.562  1.00  0.00     0.010 A 
ATOM     91  C   UNL A   1      43.503  35.820  32.557  1.00  0.00     0.010 A 
ATOM     92  C   UNL A   1      43.280  35.689  35.345  1.00  0.00     0.020 A 
ATOM     93  C   UNL A   1      43.937  36.895  33.337  1.00  0.00     0.020 A 
ATOM     94  C   UNL A   1      43.819  36.823  34.727  1.00  0.00     0.054 A 
BRANCH  94  95
ATOM     95  S   UNL A   1      44.384  38.191  35.775  1.00  0.00     0.124 S 
ATOM     96  O   UNL A   1      43.669  37.938  37.024  1.00  0.00    -0.237 OA
ATOM     97  O   UNL A   1      45.827  37.976  35.822  1.00  0.00    -0.237 OA
ATOM     98  O   UNL A   1      43.957  39.385  35.049  1.00  0.00    -0.744 OA
ENDBRANCH  94  95
ENDBRANCH  68  89
ENDBRANCH  42  43
ENDBRANCH  35  37
ENDBRANCH  34  35
ENDBRANCH  33  34
ENDBRANCH   1  33
TORSDOF 18
ENDMDL
