MODEL 1
REMARK VINA RESULT:      -8.9      0.000      0.000
REMARK SMILES N#C[C@H]1CN(C(=O)[C@H]([NH3+])CC(=O)OCCOCCOC(=O)c2ccc(-c3c4nc(c(-c5ccc(S(=O)(=O)[O-])cc5)c5ccc([nH]5)c(-c5ccc(S(=O)(=O)[O-])cc5)c5nc(c(-c6ccc(S(=O)(=O)[O-])cc6)c6ccc3[nH]6)C=C5)C=C4)cc2)CCO1
REMARK SMILES IDX 15 1 14 2 13 3 11 4 12 5 10 6 8 7 6 8 7 9 5 10 3 11 4 12
REMARK SMILES IDX 84 13 83 14 82 15 2 16 1 17 9 18 16 22 17 23 18 24 19 25
REMARK SMILES IDX 20 26 21 27 22 28 23 29 81 30 24 31 80 32 25 33 26 34 27 35
REMARK SMILES IDX 74 36 28 37 79 38 73 39 75 40 29 41 78 42 72 43 71 44 30 46
REMARK SMILES IDX 60 47 41 48 59 49 42 50 45 51 58 52 76 53 43 54 44 55 57 57
REMARK SMILES IDX 77 58 46 59 31 60 32 61 40 62 33 63 39 64 34 65 35 66 36 67
REMARK SMILES IDX 37 68 38 69 61 70 62 71 70 72 63 73 69 74 64 75 65 76 66 77
REMARK SMILES IDX 67 78 68 79 47 80 48 81 56 82 49 83 55 84 50 85 51 86 52 87
REMARK SMILES IDX 53 88 54 89
REMARK H PARENT 9 19 9 20 9 21 75 45 45 56
REMARK Flexibility Score: inf
ROOT
ATOM      1  C   UNL A   1      32.939  35.978  29.918  1.00  0.00     0.202 C 
ENDROOT
BRANCH   1   2
ATOM      2  C   UNL A   1      32.543  36.437  31.325  1.00  0.00     0.261 C 
BRANCH   2   3
ATOM      3  O   UNL A   1      33.159  35.628  32.335  1.00  0.00    -0.463 OA
BRANCH   3   4
ATOM      4  C   UNL A   1      34.002  36.286  33.161  1.00  0.00     0.312 C 
ATOM      5  O   UNL A   1      34.072  37.503  33.279  1.00  0.00    -0.252 OA
BRANCH   4   6
ATOM      6  C   UNL A   1      34.914  35.375  33.938  1.00  0.00     0.198 C 
BRANCH   6   7
ATOM      7  C   UNL A   1      34.864  33.849  33.754  1.00  0.00     0.282 C 
BRANCH   7   8
ATOM      8  C   UNL A   1      36.193  33.255  34.280  1.00  0.00     0.281 C 
ATOM      9  O   UNL A   1      36.302  32.996  35.482  1.00  0.00    -0.268 OA
BRANCH   8  10
ATOM     10  N   UNL A   1      37.258  33.072  33.408  1.00  0.00    -0.332 N 
ATOM     11  C   UNL A   1      37.700  34.004  31.178  1.00  0.00     0.240 C 
ATOM     12  C   UNL A   1      37.199  32.773  31.966  1.00  0.00     0.167 C 
ATOM     13  O   UNL A   1      39.049  34.327  31.589  1.00  0.00    -0.360 OA
ATOM     14  C   UNL A   1      39.101  34.629  32.997  1.00  0.00     0.183 C 
ATOM     15  C   UNL A   1      38.608  33.445  33.842  1.00  0.00     0.148 C 
BRANCH  11  16
ATOM     16  C   UNL A   1      37.618  33.751  29.732  1.00  0.00     0.096 C 
ATOM     17  N   UNL A   1      37.509  33.507  28.601  1.00  0.00    -0.195 NA
ENDBRANCH  11  16
ENDBRANCH   8  10
ENDBRANCH   7   8
BRANCH   7  18
ATOM     18  N   UNL A   1      34.535  33.277  32.444  1.00  0.00    -0.347 N 
ATOM     19  H   UNL A   1      35.315  32.708  32.117  1.00  0.00     0.345 HD
ATOM     20  H   UNL A   1      34.359  34.028  31.779  1.00  0.00     0.345 HD
ATOM     21  H   UNL A   1      33.701  32.695  32.528  1.00  0.00     0.345 HD
ENDBRANCH   7  18
ENDBRANCH   6   7
ENDBRANCH   4   6
ENDBRANCH   3   4
ENDBRANCH   2   3
ENDBRANCH   1   2
BRANCH   1  22
ATOM     22  O   UNL A   1      33.668  34.760  29.786  1.00  0.00    -0.374 OA
BRANCH  22  23
ATOM     23  C   UNL A   1      34.115  34.379  28.487  1.00  0.00     0.202 C 
BRANCH  23  24
ATOM     24  C   UNL A   1      33.778  32.979  27.955  1.00  0.00     0.261 C 
BRANCH  24  25
ATOM     25  O   UNL A   1      34.466  31.923  28.644  1.00  0.00    -0.460 OA
BRANCH  25  26
ATOM     26  C   UNL A   1      34.577  30.772  27.934  1.00  0.00     0.338 C 
ATOM     27  O   UNL A   1      33.803  30.354  27.089  1.00  0.00    -0.246 OA
BRANCH  26  28
ATOM     28  C   UNL A   1      35.900  30.161  28.162  1.00  0.00     0.060 A 
ATOM     29  C   UNL A   1      36.162  29.656  29.443  1.00  0.00     0.016 A 
ATOM     30  C   UNL A   1      36.888  30.148  27.179  1.00  0.00     0.016 A 
ATOM     31  C   UNL A   1      37.429  29.173  29.758  1.00  0.00     0.010 A 
ATOM     32  C   UNL A   1      38.165  29.672  27.501  1.00  0.00     0.010 A 
ATOM     33  C   UNL A   1      38.450  29.209  28.799  1.00  0.00    -0.014 A 
BRANCH  33  34
ATOM     34  C   UNL A   1      39.834  28.839  29.187  1.00  0.00     0.031 A 
ATOM     35  C   UNL A   1      40.689  29.829  29.931  1.00  0.00     0.074 A 
ATOM     36  C   UNL A   1      40.314  27.615  28.895  1.00  0.00     0.049 A 
ATOM     37  N   UNL A   1      41.932  29.714  30.324  1.00  0.00    -0.248 NA
ATOM     38  C   UNL A   1      40.064  31.114  30.278  1.00  0.00     0.031 C 
ATOM     39  C   UNL A   1      39.565  26.553  28.222  1.00  0.00     0.029 A 
ATOM     40  N   UNL A   1      41.547  27.062  29.127  1.00  0.00    -0.354 N 
ATOM     41  C   UNL A   1      42.243  30.915  30.952  1.00  0.00     0.074 A 
ATOM     42  C   UNL A   1      41.067  31.754  30.862  1.00  0.00     0.031 C 
ATOM     43  C   UNL A   1      40.358  25.477  28.093  1.00  0.00     0.029 A 
ATOM     44  C   UNL A   1      41.680  25.787  28.629  1.00  0.00     0.049 A 
ATOM     45  H   UNL A   1      42.268  27.531  29.605  1.00  0.00     0.167 HD
ATOM     46  C   UNL A   1      43.402  31.284  31.550  1.00  0.00     0.031 A 
ATOM     47  C   UNL A   1      42.754  24.973  28.582  1.00  0.00     0.031 A 
ATOM     48  C   UNL A   1      44.573  30.447  31.621  1.00  0.00     0.049 A 
ATOM     49  C   UNL A   1      44.057  25.440  29.174  1.00  0.00     0.074 A 
ATOM     50  C   UNL A   1      45.790  30.723  32.223  1.00  0.00     0.029 A 
ATOM     51  N   UNL A   1      44.684  29.182  31.063  1.00  0.00    -0.354 N 
ATOM     52  N   UNL A   1      44.327  26.566  29.791  1.00  0.00    -0.248 NA
ATOM     53  C   UNL A   1      45.200  24.522  29.071  1.00  0.00     0.031 C 
ATOM     54  C   UNL A   1      46.659  29.658  31.961  1.00  0.00     0.029 A 
ATOM     55  C   UNL A   1      45.960  28.682  31.270  1.00  0.00     0.049 A 
ATOM     56  H   UNL A   1      43.961  28.709  30.589  1.00  0.00     0.167 HD
ATOM     57  C   UNL A   1      45.662  26.479  30.173  1.00  0.00     0.074 A 
ATOM     58  C   UNL A   1      46.136  25.182  29.737  1.00  0.00     0.031 C 
ATOM     59  C   UNL A   1      46.425  27.390  30.825  1.00  0.00     0.031 A 
BRANCH  46  60
ATOM     60  C   UNL A   1      43.480  32.670  32.141  1.00  0.00    -0.014 A 
ATOM     61  C   UNL A   1      43.847  33.782  31.361  1.00  0.00     0.010 A 
ATOM     62  C   UNL A   1      43.124  32.871  33.487  1.00  0.00     0.010 A 
ATOM     63  C   UNL A   1      43.890  35.060  31.926  1.00  0.00     0.020 A 
ATOM     64  C   UNL A   1      43.133  34.151  34.047  1.00  0.00     0.020 A 
ATOM     65  C   UNL A   1      43.531  35.237  33.266  1.00  0.00     0.054 A 
BRANCH  65  66
ATOM     66  S   UNL A   1      43.566  36.911  33.962  1.00  0.00     0.124 S 
ATOM     67  O   UNL A   1      43.709  37.734  32.762  1.00  0.00    -0.237 OA
ATOM     68  O   UNL A   1      42.273  37.003  34.636  1.00  0.00    -0.237 OA
ATOM     69  O   UNL A   1      44.729  36.897  34.846  1.00  0.00    -0.744 OA
ENDBRANCH  65  66
ENDBRANCH  46  60
BRANCH  47  70
ATOM     70  C   UNL A   1      42.648  23.643  27.921  1.00  0.00    -0.014 A 
ATOM     71  C   UNL A   1      43.015  23.475  26.575  1.00  0.00     0.010 A 
ATOM     72  C   UNL A   1      42.175  22.530  28.642  1.00  0.00     0.010 A 
ATOM     73  C   UNL A   1      42.893  22.226  25.957  1.00  0.00     0.020 A 
ATOM     74  C   UNL A   1      42.086  21.272  28.041  1.00  0.00     0.020 A 
ATOM     75  C   UNL A   1      42.435  21.131  26.697  1.00  0.00     0.054 A 
BRANCH  75  76
ATOM     76  S   UNL A   1      42.334  19.512  25.888  1.00  0.00     0.124 S 
ATOM     77  O   UNL A   1      42.673  18.604  26.980  1.00  0.00    -0.237 OA
ATOM     78  O   UNL A   1      40.944  19.474  25.440  1.00  0.00    -0.237 OA
ATOM     79  O   UNL A   1      43.325  19.602  24.818  1.00  0.00    -0.744 OA
ENDBRANCH  75  76
ENDBRANCH  47  70
BRANCH  59  80
ATOM     80  C   UNL A   1      47.850  27.008  31.140  1.00  0.00    -0.014 A 
ATOM     81  C   UNL A   1      48.180  26.300  32.309  1.00  0.00     0.010 A 
ATOM     82  C   UNL A   1      48.871  27.321  30.222  1.00  0.00     0.010 A 
ATOM     83  C   UNL A   1      49.507  25.947  32.574  1.00  0.00     0.020 A 
ATOM     84  C   UNL A   1      50.193  26.938  30.464  1.00  0.00     0.020 A 
ATOM     85  C   UNL A   1      50.504  26.264  31.646  1.00  0.00     0.054 A 
BRANCH  85  86
ATOM     86  S   UNL A   1      52.210  25.754  31.994  1.00  0.00     0.124 S 
ATOM     87  O   UNL A   1      52.532  26.550  33.175  1.00  0.00    -0.237 OA
ATOM     88  O   UNL A   1      52.072  24.318  32.223  1.00  0.00    -0.237 OA
ATOM     89  O   UNL A   1      52.937  26.120  30.780  1.00  0.00    -0.744 OA
ENDBRANCH  85  86
ENDBRANCH  59  80
ENDBRANCH  33  34
ENDBRANCH  26  28
ENDBRANCH  25  26
ENDBRANCH  24  25
ENDBRANCH  23  24
ENDBRANCH  22  23
ENDBRANCH   1  22
TORSDOF 22
ENDMDL
MODEL 2
REMARK VINA RESULT:      -8.8      1.043      2.022
REMARK SMILES N#C[C@H]1CN(C(=O)[C@H]([NH3+])CC(=O)OCCOCCOC(=O)c2ccc(-c3c4nc(c(-c5ccc(S(=O)(=O)[O-])cc5)c5ccc([nH]5)c(-c5ccc(S(=O)(=O)[O-])cc5)c5nc(c(-c6ccc(S(=O)(=O)[O-])cc6)c6ccc3[nH]6)C=C5)C=C4)cc2)CCO1
REMARK SMILES IDX 15 1 14 2 13 3 11 4 12 5 10 6 8 7 6 8 7 9 5 10 3 11 4 12
REMARK SMILES IDX 84 13 83 14 82 15 2 16 1 17 9 18 16 22 17 23 18 24 19 25
REMARK SMILES IDX 20 26 21 27 22 28 23 29 81 30 24 31 80 32 25 33 26 34 27 35
REMARK SMILES IDX 74 36 28 37 79 38 73 39 75 40 29 41 78 42 72 43 71 44 30 46
REMARK SMILES IDX 60 47 41 48 59 49 42 50 45 51 58 52 76 53 43 54 44 55 57 57
REMARK SMILES IDX 77 58 46 59 31 60 32 61 40 62 33 63 39 64 34 65 35 66 36 67
REMARK SMILES IDX 37 68 38 69 61 70 62 71 70 72 63 73 69 74 64 75 65 76 66 77
REMARK SMILES IDX 67 78 68 79 47 80 48 81 56 82 49 83 55 84 50 85 51 86 52 87
REMARK SMILES IDX 53 88 54 89
REMARK H PARENT 9 19 9 20 9 21 75 45 45 56
REMARK Flexibility Score: inf
ROOT
ATOM      1  C   UNL A   1      32.984  35.949  29.855  1.00  0.00     0.202 C 
ENDROOT
BRANCH   1   2
ATOM      2  C   UNL A   1      32.733  36.273  31.331  1.00  0.00     0.261 C 
BRANCH   2   3
ATOM      3  O   UNL A   1      33.174  35.210  32.185  1.00  0.00    -0.463 OA
BRANCH   3   4
ATOM      4  C   UNL A   1      34.139  35.548  33.069  1.00  0.00     0.312 C 
ATOM      5  O   UNL A   1      34.434  36.693  33.392  1.00  0.00    -0.252 OA
BRANCH   4   6
ATOM      6  C   UNL A   1      34.881  34.366  33.630  1.00  0.00     0.198 C 
BRANCH   6   7
ATOM      7  C   UNL A   1      34.777  32.976  32.980  1.00  0.00     0.282 C 
BRANCH   7   8
ATOM      8  C   UNL A   1      36.133  32.252  33.167  1.00  0.00     0.281 C 
ATOM      9  O   UNL A   1      36.305  31.151  32.636  1.00  0.00    -0.268 OA
BRANCH   8  10
ATOM     10  N   UNL A   1      37.112  32.822  33.968  1.00  0.00    -0.332 N 
ATOM     11  C   UNL A   1      38.177  32.025  36.033  1.00  0.00     0.240 C 
ATOM     12  C   UNL A   1      37.106  32.963  35.436  1.00  0.00     0.167 C 
ATOM     13  O   UNL A   1      39.475  32.357  35.484  1.00  0.00    -0.360 OA
ATOM     14  C   UNL A   1      39.480  32.208  34.051  1.00  0.00     0.183 C 
ATOM     15  C   UNL A   1      38.428  33.112  33.390  1.00  0.00     0.148 C 
BRANCH  11  16
ATOM     16  C   UNL A   1      38.171  32.113  37.501  1.00  0.00     0.096 C 
ATOM     17  N   UNL A   1      38.209  32.137  38.662  1.00  0.00    -0.195 NA
ENDBRANCH  11  16
ENDBRANCH   8  10
ENDBRANCH   7   8
BRANCH   7  18
ATOM     18  N   UNL A   1      34.319  32.846  31.593  1.00  0.00    -0.347 N 
ATOM     19  H   UNL A   1      35.105  32.995  30.961  1.00  0.00     0.345 HD
ATOM     20  H   UNL A   1      33.596  33.540  31.407  1.00  0.00     0.345 HD
ATOM     21  H   UNL A   1      33.938  31.911  31.448  1.00  0.00     0.345 HD
ENDBRANCH   7  18
ENDBRANCH   6   7
ENDBRANCH   4   6
ENDBRANCH   3   4
ENDBRANCH   2   3
ENDBRANCH   1   2
BRANCH   1  22
ATOM     22  O   UNL A   1      33.811  34.830  29.541  1.00  0.00    -0.374 OA
BRANCH  22  23
ATOM     23  C   UNL A   1      33.788  34.329  28.206  1.00  0.00     0.202 C 
BRANCH  23  24
ATOM     24  C   UNL A   1      33.570  32.828  27.969  1.00  0.00     0.261 C 
BRANCH  24  25
ATOM     25  O   UNL A   1      34.627  32.005  28.490  1.00  0.00    -0.460 OA
BRANCH  25  26
ATOM     26  C   UNL A   1      34.627  30.732  28.021  1.00  0.00     0.338 C 
ATOM     27  O   UNL A   1      33.754  30.193  27.362  1.00  0.00    -0.246 OA
BRANCH  26  28
ATOM     28  C   UNL A   1      35.951  30.116  28.230  1.00  0.00     0.060 A 
ATOM     29  C   UNL A   1      36.214  29.573  29.495  1.00  0.00     0.016 A 
ATOM     30  C   UNL A   1      36.939  30.133  27.246  1.00  0.00     0.016 A 
ATOM     31  C   UNL A   1      37.482  29.081  29.795  1.00  0.00     0.010 A 
ATOM     32  C   UNL A   1      38.216  29.648  27.553  1.00  0.00     0.010 A 
ATOM     33  C   UNL A   1      38.501  29.146  28.836  1.00  0.00    -0.014 A 
BRANCH  33  34
ATOM     34  C   UNL A   1      39.886  28.765  29.212  1.00  0.00     0.031 A 
ATOM     35  C   UNL A   1      40.760  29.753  29.937  1.00  0.00     0.074 A 
ATOM     36  C   UNL A   1      40.349  27.534  28.927  1.00  0.00     0.049 A 
ATOM     37  N   UNL A   1      42.006  29.629  30.318  1.00  0.00    -0.248 NA
ATOM     38  C   UNL A   1      40.152  31.048  30.278  1.00  0.00     0.031 C 
ATOM     39  C   UNL A   1      39.582  26.473  28.274  1.00  0.00     0.029 A 
ATOM     40  N   UNL A   1      41.580  26.969  29.151  1.00  0.00    -0.354 N 
ATOM     41  C   UNL A   1      42.337  30.833  30.930  1.00  0.00     0.074 A 
ATOM     42  C   UNL A   1      41.169  31.683  30.844  1.00  0.00     0.031 C 
ATOM     43  C   UNL A   1      40.362  25.387  28.146  1.00  0.00     0.029 A 
ATOM     44  C   UNL A   1      41.694  25.688  28.665  1.00  0.00     0.049 A 
ATOM     45  H   UNL A   1      42.311  27.435  29.617  1.00  0.00     0.167 HD
ATOM     46  C   UNL A   1      43.506  31.194  31.511  1.00  0.00     0.031 A 
ATOM     47  C   UNL A   1      42.758  24.862  28.613  1.00  0.00     0.031 A 
ATOM     48  C   UNL A   1      44.669  30.346  31.577  1.00  0.00     0.049 A 
ATOM     49  C   UNL A   1      44.073  25.321  29.186  1.00  0.00     0.074 A 
ATOM     50  C   UNL A   1      45.896  30.615  32.162  1.00  0.00     0.029 A 
ATOM     51  N   UNL A   1      44.760  29.075  31.031  1.00  0.00    -0.354 N 
ATOM     52  N   UNL A   1      44.361  26.450  29.788  1.00  0.00    -0.248 NA
ATOM     53  C   UNL A   1      45.204  24.390  29.079  1.00  0.00     0.031 C 
ATOM     54  C   UNL A   1      46.750  29.539  31.901  1.00  0.00     0.029 A 
ATOM     55  C   UNL A   1      46.033  28.563  31.228  1.00  0.00     0.049 A 
ATOM     56  H   UNL A   1      44.027  28.605  30.570  1.00  0.00     0.167 HD
ATOM     57  C   UNL A   1      45.699  26.352  30.156  1.00  0.00     0.074 A 
ATOM     58  C   UNL A   1      46.155  25.046  29.728  1.00  0.00     0.031 C 
ATOM     59  C   UNL A   1      46.480  27.262  30.791  1.00  0.00     0.031 A 
BRANCH  46  60
ATOM     60  C   UNL A   1      43.606  32.586  32.087  1.00  0.00    -0.014 A 
ATOM     61  C   UNL A   1      43.284  32.851  33.430  1.00  0.00     0.010 A 
ATOM     62  C   UNL A   1      44.088  33.635  31.282  1.00  0.00     0.010 A 
ATOM     63  C   UNL A   1      43.407  34.145  33.946  1.00  0.00     0.020 A 
ATOM     64  C   UNL A   1      44.244  34.923  31.802  1.00  0.00     0.020 A 
ATOM     65  C   UNL A   1      43.889  35.173  33.128  1.00  0.00     0.054 A 
BRANCH  65  66
ATOM     66  S   UNL A   1      44.067  36.834  33.834  1.00  0.00     0.124 S 
ATOM     67  O   UNL A   1      43.405  37.662  32.827  1.00  0.00    -0.237 OA
ATOM     68  O   UNL A   1      43.364  36.715  35.109  1.00  0.00    -0.237 OA
ATOM     69  O   UNL A   1      45.513  37.017  33.935  1.00  0.00    -0.744 OA
ENDBRANCH  65  66
ENDBRANCH  46  60
BRANCH  47  70
ATOM     70  C   UNL A   1      42.631  23.527  27.967  1.00  0.00    -0.014 A 
ATOM     71  C   UNL A   1      41.959  22.475  28.612  1.00  0.00     0.010 A 
ATOM     72  C   UNL A   1      43.188  23.301  26.694  1.00  0.00     0.010 A 
ATOM     73  C   UNL A   1      41.862  21.218  28.006  1.00  0.00     0.020 A 
ATOM     74  C   UNL A   1      43.063  22.058  26.068  1.00  0.00     0.020 A 
ATOM     75  C   UNL A   1      42.410  21.020  26.735  1.00  0.00     0.054 A 
BRANCH  75  76
ATOM     76  S   UNL A   1      42.227  19.396  25.949  1.00  0.00     0.124 S 
ATOM     77  O   UNL A   1      43.036  19.549  24.743  1.00  0.00    -0.237 OA
ATOM     78  O   UNL A   1      42.769  18.496  26.965  1.00  0.00    -0.237 OA
ATOM     79  O   UNL A   1      40.788  19.283  25.728  1.00  0.00    -0.744 OA
ENDBRANCH  75  76
ENDBRANCH  47  70
BRANCH  59  80
ATOM     80  C   UNL A   1      47.904  26.868  31.093  1.00  0.00    -0.014 A 
ATOM     81  C   UNL A   1      48.253  26.245  32.304  1.00  0.00     0.010 A 
ATOM     82  C   UNL A   1      48.903  27.082  30.124  1.00  0.00     0.010 A 
ATOM     83  C   UNL A   1      49.578  25.878  32.557  1.00  0.00     0.020 A 
ATOM     84  C   UNL A   1      50.222  26.683  30.358  1.00  0.00     0.020 A 
ATOM     85  C   UNL A   1      50.554  26.095  31.580  1.00  0.00     0.054 A 
BRANCH  85  86
ATOM     86  S   UNL A   1      52.257  25.569  31.917  1.00  0.00     0.124 S 
ATOM     87  O   UNL A   1      52.938  25.927  30.676  1.00  0.00    -0.237 OA
ATOM     88  O   UNL A   1      52.612  26.373  33.083  1.00  0.00    -0.237 OA
ATOM     89  O   UNL A   1      52.134  24.135  32.168  1.00  0.00    -0.744 OA
ENDBRANCH  85  86
ENDBRANCH  59  80
ENDBRANCH  33  34
ENDBRANCH  26  28
ENDBRANCH  25  26
ENDBRANCH  24  25
ENDBRANCH  23  24
ENDBRANCH  22  23
ENDBRANCH   1  22
TORSDOF 22
ENDMDL
MODEL 3
REMARK VINA RESULT:      -8.6      5.455     12.288
REMARK SMILES N#C[C@H]1CN(C(=O)[C@H]([NH3+])CC(=O)OCCOCCOC(=O)c2ccc(-c3c4nc(c(-c5ccc(S(=O)(=O)[O-])cc5)c5ccc([nH]5)c(-c5ccc(S(=O)(=O)[O-])cc5)c5nc(c(-c6ccc(S(=O)(=O)[O-])cc6)c6ccc3[nH]6)C=C5)C=C4)cc2)CCO1
REMARK SMILES IDX 15 1 14 2 13 3 11 4 12 5 10 6 8 7 6 8 7 9 5 10 3 11 4 12
REMARK SMILES IDX 84 13 83 14 82 15 2 16 1 17 9 18 16 22 17 23 18 24 19 25
REMARK SMILES IDX 20 26 21 27 22 28 23 29 81 30 24 31 80 32 25 33 26 34 27 35
REMARK SMILES IDX 74 36 28 37 79 38 73 39 75 40 29 41 78 42 72 43 71 44 30 46
REMARK SMILES IDX 60 47 41 48 59 49 42 50 45 51 58 52 76 53 43 54 44 55 57 57
REMARK SMILES IDX 77 58 46 59 31 60 32 61 40 62 33 63 39 64 34 65 35 66 36 67
REMARK SMILES IDX 37 68 38 69 61 70 62 71 70 72 63 73 69 74 64 75 65 76 66 77
REMARK SMILES IDX 67 78 68 79 47 80 48 81 56 82 49 83 55 84 50 85 51 86 52 87
REMARK SMILES IDX 53 88 54 89
REMARK H PARENT 9 19 9 20 9 21 75 45 45 56
REMARK Flexibility Score: inf
ROOT
ATOM      1  C   UNL A   1      35.953  22.084  24.528  1.00  0.00     0.202 C 
ENDROOT
BRANCH   1   2
ATOM      2  C   UNL A   1      35.605  21.037  25.590  1.00  0.00     0.261 C 
BRANCH   2   3
ATOM      3  O   UNL A   1      34.632  21.533  26.518  1.00  0.00    -0.463 OA
BRANCH   3   4
ATOM      4  C   UNL A   1      33.350  21.465  26.096  1.00  0.00     0.312 C 
ATOM      5  O   UNL A   1      32.902  20.627  25.323  1.00  0.00    -0.252 OA
BRANCH   4   6
ATOM      6  C   UNL A   1      32.478  22.563  26.643  1.00  0.00     0.198 C 
BRANCH   6   7
ATOM      7  C   UNL A   1      31.129  22.911  25.991  1.00  0.00     0.282 C 
BRANCH   7   8
ATOM      8  C   UNL A   1      31.155  24.409  25.599  1.00  0.00     0.281 C 
ATOM      9  O   UNL A   1      30.903  25.259  26.458  1.00  0.00    -0.268 OA
BRANCH   8  10
ATOM     10  N   UNL A   1      31.407  24.772  24.283  1.00  0.00    -0.332 N 
ATOM     11  C   UNL A   1      33.220  26.101  23.293  1.00  0.00     0.240 C 
ATOM     12  C   UNL A   1      31.751  26.110  23.769  1.00  0.00     0.167 C 
ATOM     13  O   UNL A   1      33.394  25.090  22.272  1.00  0.00    -0.360 OA
ATOM     14  C   UNL A   1      33.066  23.782  22.781  1.00  0.00     0.183 C 
ATOM     15  C   UNL A   1      31.615  23.723  23.280  1.00  0.00     0.148 C 
BRANCH  11  16
ATOM     16  C   UNL A   1      33.607  27.434  22.808  1.00  0.00     0.096 C 
ATOM     17  N   UNL A   1      33.951  28.459  22.383  1.00  0.00    -0.195 NA
ENDBRANCH  11  16
ENDBRANCH   8  10
ENDBRANCH   7   8
BRANCH   7  18
ATOM     18  N   UNL A   1      29.875  22.587  26.678  1.00  0.00    -0.347 N 
ATOM     19  H   UNL A   1      29.802  21.576  26.792  1.00  0.00     0.345 HD
ATOM     20  H   UNL A   1      29.087  22.924  26.125  1.00  0.00     0.345 HD
ATOM     21  H   UNL A   1      29.864  23.035  27.594  1.00  0.00     0.345 HD
ENDBRANCH   7  18
ENDBRANCH   6   7
ENDBRANCH   4   6
ENDBRANCH   3   4
ENDBRANCH   2   3
ENDBRANCH   1   2
BRANCH   1  22
ATOM     22  O   UNL A   1      37.269  22.633  24.527  1.00  0.00    -0.374 OA
BRANCH  22  23
ATOM     23  C   UNL A   1      37.915  22.838  25.781  1.00  0.00     0.202 C 
BRANCH  23  24
ATOM     24  C   UNL A   1      37.985  24.255  26.368  1.00  0.00     0.261 C 
BRANCH  24  25
ATOM     25  O   UNL A   1      39.070  24.440  27.292  1.00  0.00    -0.460 OA
BRANCH  25  26
ATOM     26  C   UNL A   1      39.831  25.537  27.049  1.00  0.00     0.338 C 
ATOM     27  O   UNL A   1      40.403  25.817  26.009  1.00  0.00    -0.246 OA
BRANCH  26  28
ATOM     28  C   UNL A   1      39.713  26.494  28.166  1.00  0.00     0.060 A 
ATOM     29  C   UNL A   1      40.464  27.673  28.082  1.00  0.00     0.016 A 
ATOM     30  C   UNL A   1      38.950  26.217  29.300  1.00  0.00     0.016 A 
ATOM     31  C   UNL A   1      40.489  28.564  29.152  1.00  0.00     0.010 A 
ATOM     32  C   UNL A   1      38.986  27.108  30.379  1.00  0.00     0.010 A 
ATOM     33  C   UNL A   1      39.776  28.271  30.322  1.00  0.00    -0.014 A 
BRANCH  33  34
ATOM     34  C   UNL A   1      39.931  29.144  31.513  1.00  0.00     0.031 A 
ATOM     35  C   UNL A   1      41.077  28.914  32.461  1.00  0.00     0.074 A 
ATOM     36  C   UNL A   1      39.065  30.151  31.730  1.00  0.00     0.049 A 
ATOM     37  N   UNL A   1      41.365  29.538  33.575  1.00  0.00    -0.248 NA
ATOM     38  C   UNL A   1      42.022  27.842  32.110  1.00  0.00     0.031 C 
ATOM     39  C   UNL A   1      37.945  30.504  30.858  1.00  0.00     0.029 A 
ATOM     40  N   UNL A   1      38.992  31.060  32.755  1.00  0.00    -0.354 N 
ATOM     41  C   UNL A   1      42.514  28.928  34.066  1.00  0.00     0.074 A 
ATOM     42  C   UNL A   1      42.853  27.866  33.142  1.00  0.00     0.031 C 
ATOM     43  C   UNL A   1      37.294  31.553  31.387  1.00  0.00     0.029 A 
ATOM     44  C   UNL A   1      37.920  31.915  32.656  1.00  0.00     0.049 A 
ATOM     45  H   UNL A   1      39.645  31.097  33.491  1.00  0.00     0.167 HD
ATOM     46  C   UNL A   1      43.221  29.227  35.182  1.00  0.00     0.031 A 
ATOM     47  C   UNL A   1      37.473  32.861  33.506  1.00  0.00     0.031 A 
ATOM     48  C   UNL A   1      42.866  30.276  36.104  1.00  0.00     0.049 A 
ATOM     49  C   UNL A   1      38.226  33.115  34.785  1.00  0.00     0.074 A 
ATOM     50  C   UNL A   1      43.530  30.670  37.254  1.00  0.00     0.029 A 
ATOM     51  N   UNL A   1      41.747  31.088  35.994  1.00  0.00    -0.354 N 
ATOM     52  N   UNL A   1      39.328  32.550  35.220  1.00  0.00    -0.248 NA
ATOM     53  C   UNL A   1      37.679  34.140  35.685  1.00  0.00     0.031 C 
ATOM     54  C   UNL A   1      42.771  31.665  37.879  1.00  0.00     0.029 A 
ATOM     55  C   UNL A   1      41.679  31.952  37.076  1.00  0.00     0.049 A 
ATOM     56  H   UNL A   1      41.096  31.055  35.255  1.00  0.00     0.167 HD
ATOM     57  C   UNL A   1      39.620  33.172  36.430  1.00  0.00     0.074 A 
ATOM     58  C   UNL A   1      38.591  34.169  36.646  1.00  0.00     0.031 C 
ATOM     59  C   UNL A   1      40.646  32.938  37.285  1.00  0.00     0.031 A 
BRANCH  46  60
ATOM     60  C   UNL A   1      44.430  28.381  35.497  1.00  0.00    -0.014 A 
ATOM     61  C   UNL A   1      45.723  28.767  35.098  1.00  0.00     0.010 A 
ATOM     62  C   UNL A   1      44.275  27.208  36.259  1.00  0.00     0.010 A 
ATOM     63  C   UNL A   1      46.830  27.977  35.423  1.00  0.00     0.020 A 
ATOM     64  C   UNL A   1      45.382  26.433  36.615  1.00  0.00     0.020 A 
ATOM     65  C   UNL A   1      46.652  26.815  36.181  1.00  0.00     0.054 A 
BRANCH  65  66
ATOM     66  S   UNL A   1      48.111  25.828  36.614  1.00  0.00     0.124 S 
ATOM     67  O   UNL A   1      47.505  24.633  37.198  1.00  0.00    -0.237 OA
ATOM     68  O   UNL A   1      48.759  25.634  35.319  1.00  0.00    -0.237 OA
ATOM     69  O   UNL A   1      48.841  26.676  37.553  1.00  0.00    -0.744 OA
ENDBRANCH  65  66
ENDBRANCH  46  60
BRANCH  47  70
ATOM     70  C   UNL A   1      36.232  33.619  33.188  1.00  0.00    -0.014 A 
ATOM     71  C   UNL A   1      36.296  34.888  32.586  1.00  0.00     0.010 A 
ATOM     72  C   UNL A   1      34.971  33.071  33.490  1.00  0.00     0.010 A 
ATOM     73  C   UNL A   1      35.124  35.600  32.309  1.00  0.00     0.020 A 
ATOM     74  C   UNL A   1      33.797  33.763  33.183  1.00  0.00     0.020 A 
ATOM     75  C   UNL A   1      33.882  35.030  32.604  1.00  0.00     0.054 A 
BRANCH  75  76
ATOM     76  S   UNL A   1      32.377  35.953  32.189  1.00  0.00     0.124 S 
ATOM     77  O   UNL A   1      32.502  36.104  30.742  1.00  0.00    -0.237 OA
ATOM     78  O   UNL A   1      31.323  35.049  32.644  1.00  0.00    -0.237 OA
ATOM     79  O   UNL A   1      32.509  37.186  32.961  1.00  0.00    -0.744 OA
ENDBRANCH  75  76
ENDBRANCH  47  70
BRANCH  59  80
ATOM     80  C   UNL A   1      40.732  33.796  38.523  1.00  0.00    -0.014 A 
ATOM     81  C   UNL A   1      41.452  35.004  38.531  1.00  0.00     0.010 A 
ATOM     82  C   UNL A   1      40.036  33.410  39.684  1.00  0.00     0.010 A 
ATOM     83  C   UNL A   1      41.508  35.789  39.687  1.00  0.00     0.020 A 
ATOM     84  C   UNL A   1      40.058  34.209  40.830  1.00  0.00     0.020 A 
ATOM     85  C   UNL A   1      40.806  35.388  40.828  1.00  0.00     0.054 A 
BRANCH  85  86
ATOM     86  S   UNL A   1      40.859  36.448  42.299  1.00  0.00     0.124 S 
ATOM     87  O   UNL A   1      41.653  37.580  41.831  1.00  0.00    -0.237 OA
ATOM     88  O   UNL A   1      39.445  36.728  42.540  1.00  0.00    -0.237 OA
ATOM     89  O   UNL A   1      41.503  35.611  43.308  1.00  0.00    -0.744 OA
ENDBRANCH  85  86
ENDBRANCH  59  80
ENDBRANCH  33  34
ENDBRANCH  26  28
ENDBRANCH  25  26
ENDBRANCH  24  25
ENDBRANCH  23  24
ENDBRANCH  22  23
ENDBRANCH   1  22
TORSDOF 22
ENDMDL
