MODEL 1
REMARK VINA RESULT:      -9.5      0.000      0.000
REMARK SMILES C[C@]([NH3+])(C(=O)N1[C@@H](C(=O)OCCOCCOCCOC(=O)c2ccc(-c3c4nc(c(-c5ccc(S(=O)(=O)[O-])cc5)c5ccc([nH]5)c(-c5ccc(S(=O)(=O)[O-])cc5)c5nc(c(-c6ccc(S(=O)(=O)[O-])cc6)c6ccc3[nH]6)C=C5)C=C4)cc2)C[C@H]2CCCC[C@@H]21)C(F)(F)F
REMARK SMILES IDX 14 1 13 2 12 3 11 4 10 5 8 6 9 7 7 8 6 9 88 10 82 11 83 12
REMARK SMILES IDX 87 13 84 14 86 15 85 16 4 17 5 18 2 19 1 20 89 21 90 22
REMARK SMILES IDX 91 23 92 24 3 25 15 29 16 30 17 31 18 32 19 33 20 34 21 35
REMARK SMILES IDX 22 36 23 37 81 38 24 39 80 40 25 41 26 42 27 43 74 44 28 45
REMARK SMILES IDX 79 46 73 47 75 48 29 49 78 50 72 51 71 52 30 54 60 55 41 56
REMARK SMILES IDX 59 57 42 58 45 59 58 60 76 61 43 62 44 63 57 65 77 66 46 67
REMARK SMILES IDX 31 68 32 69 40 70 33 71 39 72 34 73 35 74 36 75 37 76 38 77
REMARK SMILES IDX 61 78 62 79 70 80 63 81 69 82 64 83 65 84 66 85 67 86 68 87
REMARK SMILES IDX 47 88 48 89 56 90 49 91 55 92 50 93 51 94 52 95 53 96 54 97
REMARK H PARENT 3 26 3 27 3 28 75 53 45 64
REMARK Flexibility Score: inf
ROOT
ATOM      1  C   UNL A   1      29.528  28.814  23.197  1.00  0.00     0.188 C 
ENDROOT
BRANCH   1   2
ATOM      2  O   UNL A   1      30.095  28.266  22.012  1.00  0.00    -0.376 OA
BRANCH   2   3
ATOM      3  C   UNL A   1      31.413  27.733  22.072  1.00  0.00     0.202 C 
BRANCH   3   4
ATOM      4  C   UNL A   1      31.562  26.445  22.873  1.00  0.00     0.261 C 
BRANCH   4   5
ATOM      5  O   UNL A   1      32.651  26.558  23.810  1.00  0.00    -0.462 OA
BRANCH   5   6
ATOM      6  C   UNL A   1      33.699  25.710  23.604  1.00  0.00     0.328 C 
ATOM      7  O   UNL A   1      34.107  25.386  22.497  1.00  0.00    -0.250 OA
BRANCH   6   8
ATOM      8  C   UNL A   1      34.187  25.111  24.950  1.00  0.00     0.196 C 
ATOM      9  N   UNL A   1      34.067  23.647  25.084  1.00  0.00    -0.320 N 
ATOM     10  C   UNL A   1      32.660  23.378  25.272  1.00  0.00     0.089 C 
ATOM     11  C   UNL A   1      33.215  25.630  26.023  1.00  0.00     0.043 C 
ATOM     12  C   UNL A   1      32.343  24.409  26.360  1.00  0.00     0.014 C 
ATOM     13  C   UNL A   1      32.129  22.016  25.678  1.00  0.00     0.025 C 
ATOM     14  C   UNL A   1      30.847  24.623  26.458  1.00  0.00     0.006 C 
ATOM     15  C   UNL A   1      30.601  22.138  25.840  1.00  0.00     0.002 C 
ATOM     16  C   UNL A   1      30.177  23.281  26.781  1.00  0.00     0.000 C 
BRANCH   9  17
ATOM     17  C   UNL A   1      34.962  22.770  24.504  1.00  0.00     0.294 C 
ATOM     18  O   UNL A   1      35.035  22.671  23.281  1.00  0.00    -0.267 OA
BRANCH  17  19
ATOM     19  C   UNL A   1      36.078  22.240  25.462  1.00  0.00     0.267 C 
ATOM     20  C   UNL A   1      36.615  20.864  25.051  1.00  0.00     0.100 C 
BRANCH  19  21
ATOM     21  C   UNL A   1      37.259  23.241  25.417  1.00  0.00     0.453 C 
ATOM     22  F   UNL A   1      38.433  22.640  25.700  1.00  0.00    -0.164 F 
ATOM     23  F   UNL A   1      37.400  23.771  24.174  1.00  0.00    -0.164 F 
ATOM     24  F   UNL A   1      37.090  24.274  26.268  1.00  0.00    -0.164 F 
ENDBRANCH  19  21
BRANCH  19  25
ATOM     25  N   UNL A   1      35.465  22.089  26.834  1.00  0.00    -0.337 N 
ATOM     26  H   UNL A   1      34.530  22.497  26.836  1.00  0.00     0.345 HD
ATOM     27  H   UNL A   1      36.047  22.568  27.521  1.00  0.00     0.345 HD
ATOM     28  H   UNL A   1      35.404  21.098  27.072  1.00  0.00     0.345 HD
ENDBRANCH  19  25
ENDBRANCH  17  19
ENDBRANCH   9  17
ENDBRANCH   6   8
ENDBRANCH   5   6
ENDBRANCH   4   5
ENDBRANCH   3   4
ENDBRANCH   2   3
ENDBRANCH   1   2
BRANCH   1  29
ATOM     29  C   UNL A   1      30.306  29.923  23.934  1.00  0.00     0.188 C 
BRANCH  29  30
ATOM     30  O   UNL A   1      31.090  29.578  25.070  1.00  0.00    -0.376 OA
BRANCH  30  31
ATOM     31  C   UNL A   1      31.575  30.662  25.859  1.00  0.00     0.202 C 
BRANCH  31  32
ATOM     32  C   UNL A   1      32.195  30.266  27.200  1.00  0.00     0.261 C 
BRANCH  32  33
ATOM     33  O   UNL A   1      33.582  30.648  27.256  1.00  0.00    -0.460 OA
BRANCH  33  34
ATOM     34  C   UNL A   1      34.454  29.676  26.906  1.00  0.00     0.338 C 
ATOM     35  O   UNL A   1      34.324  28.871  25.992  1.00  0.00    -0.246 OA
BRANCH  34  36
ATOM     36  C   UNL A   1      35.658  29.749  27.749  1.00  0.00     0.060 A 
ATOM     37  C   UNL A   1      36.886  30.041  27.161  1.00  0.00     0.016 A 
ATOM     38  C   UNL A   1      35.607  29.365  29.088  1.00  0.00     0.016 A 
ATOM     39  C   UNL A   1      38.069  29.916  27.887  1.00  0.00     0.010 A 
ATOM     40  C   UNL A   1      36.798  29.252  29.822  1.00  0.00     0.010 A 
ATOM     41  C   UNL A   1      38.044  29.489  29.215  1.00  0.00    -0.014 A 
BRANCH  41  42
ATOM     42  C   UNL A   1      39.321  29.146  29.894  1.00  0.00     0.031 A 
ATOM     43  C   UNL A   1      39.694  29.869  31.161  1.00  0.00     0.074 A 
ATOM     44  C   UNL A   1      40.103  28.139  29.455  1.00  0.00     0.049 A 
ATOM     45  N   UNL A   1      40.831  29.875  31.807  1.00  0.00    -0.248 NA
ATOM     46  C   UNL A   1      38.642  30.688  31.788  1.00  0.00     0.031 C 
ATOM     47  C   UNL A   1      39.793  27.244  28.338  1.00  0.00     0.029 A 
ATOM     48  N   UNL A   1      41.316  27.688  29.913  1.00  0.00    -0.354 N 
ATOM     49  C   UNL A   1      40.652  30.744  32.878  1.00  0.00     0.074 A 
ATOM     50  C   UNL A   1      39.292  31.231  32.808  1.00  0.00     0.031 C 
ATOM     51  C   UNL A   1      40.783  26.346  28.207  1.00  0.00     0.029 A 
ATOM     52  C   UNL A   1      41.835  26.653  29.171  1.00  0.00     0.049 A 
ATOM     53  H   UNL A   1      41.773  28.069  30.698  1.00  0.00     0.167 HD
ATOM     54  C   UNL A   1      41.549  31.111  33.824  1.00  0.00     0.031 A 
ATOM     55  C   UNL A   1      43.044  26.057  29.223  1.00  0.00     0.031 A 
ATOM     56  C   UNL A   1      42.886  30.588  33.912  1.00  0.00     0.049 A 
ATOM     57  C   UNL A   1      44.061  26.551  30.216  1.00  0.00     0.074 A 
ATOM     58  C   UNL A   1      43.884  30.921  34.811  1.00  0.00     0.029 A 
ATOM     59  N   UNL A   1      43.404  29.606  33.083  1.00  0.00    -0.354 N 
ATOM     60  N   UNL A   1      43.927  27.465  31.147  1.00  0.00    -0.248 NA
ATOM     61  C   UNL A   1      45.402  25.954  30.144  1.00  0.00     0.031 C 
ATOM     62  C   UNL A   1      45.022  30.170  34.498  1.00  0.00     0.029 A 
ATOM     63  C   UNL A   1      44.715  29.334  33.436  1.00  0.00     0.049 A 
ATOM     64  H   UNL A   1      42.913  29.166  32.352  1.00  0.00     0.167 HD
ATOM     65  C   UNL A   1      45.166  27.549  31.775  1.00  0.00     0.074 A 
ATOM     66  C   UNL A   1      46.027  26.576  31.135  1.00  0.00     0.031 C 
ATOM     67  C   UNL A   1      45.558  28.366  32.784  1.00  0.00     0.031 A 
BRANCH  54  68
ATOM     68  C   UNL A   1      41.141  32.185  34.795  1.00  0.00    -0.014 A 
ATOM     69  C   UNL A   1      40.692  31.883  36.092  1.00  0.00     0.010 A 
ATOM     70  C   UNL A   1      41.261  33.533  34.407  1.00  0.00     0.010 A 
ATOM     71  C   UNL A   1      40.351  32.912  36.976  1.00  0.00     0.020 A 
ATOM     72  C   UNL A   1      40.943  34.563  35.294  1.00  0.00     0.020 A 
ATOM     73  C   UNL A   1      40.477  34.245  36.571  1.00  0.00     0.054 A 
BRANCH  73  74
ATOM     74  S   UNL A   1      40.070  35.563  37.749  1.00  0.00     0.124 S 
ATOM     75  O   UNL A   1      38.892  35.018  38.418  1.00  0.00    -0.237 OA
ATOM     76  O   UNL A   1      41.276  35.647  38.571  1.00  0.00    -0.237 OA
ATOM     77  O   UNL A   1      39.820  36.724  36.898  1.00  0.00    -0.744 OA
ENDBRANCH  73  74
ENDBRANCH  54  68
BRANCH  55  78
ATOM     78  C   UNL A   1      43.395  24.994  28.240  1.00  0.00    -0.014 A 
ATOM     79  C   UNL A   1      43.048  23.652  28.470  1.00  0.00     0.010 A 
ATOM     80  C   UNL A   1      44.100  25.324  27.067  1.00  0.00     0.010 A 
ATOM     81  C   UNL A   1      43.408  22.660  27.551  1.00  0.00     0.020 A 
ATOM     82  C   UNL A   1      44.436  24.342  26.132  1.00  0.00     0.020 A 
ATOM     83  C   UNL A   1      44.099  23.012  26.387  1.00  0.00     0.054 A 
BRANCH  83  84
ATOM     84  S   UNL A   1      44.517  21.722  25.181  1.00  0.00     0.124 S 
ATOM     85  O   UNL A   1      43.730  20.591  25.663  1.00  0.00    -0.237 OA
ATOM     86  O   UNL A   1      44.073  22.309  23.919  1.00  0.00    -0.237 OA
ATOM     87  O   UNL A   1      45.965  21.584  25.319  1.00  0.00    -0.744 OA
ENDBRANCH  83  84
ENDBRANCH  55  78
BRANCH  67  88
ATOM     88  C   UNL A   1      46.973  28.227  33.270  1.00  0.00    -0.014 A 
ATOM     89  C   UNL A   1      47.968  29.136  32.869  1.00  0.00     0.010 A 
ATOM     90  C   UNL A   1      47.302  27.204  34.178  1.00  0.00     0.010 A 
ATOM     91  C   UNL A   1      49.276  29.005  33.343  1.00  0.00     0.020 A 
ATOM     92  C   UNL A   1      48.603  27.084  34.672  1.00  0.00     0.020 A 
ATOM     93  C   UNL A   1      49.586  27.977  34.238  1.00  0.00     0.054 A 
BRANCH  93  94
ATOM     94  S   UNL A   1      51.282  27.848  34.869  1.00  0.00     0.124 S 
ATOM     95  O   UNL A   1      51.738  26.601  34.261  1.00  0.00    -0.237 OA
ATOM     96  O   UNL A   1      51.911  29.063  34.358  1.00  0.00    -0.237 OA
ATOM     97  O   UNL A   1      51.110  27.807  36.320  1.00  0.00    -0.744 OA
ENDBRANCH  93  94
ENDBRANCH  67  88
ENDBRANCH  41  42
ENDBRANCH  34  36
ENDBRANCH  33  34
ENDBRANCH  32  33
ENDBRANCH  31  32
ENDBRANCH  30  31
ENDBRANCH  29  30
ENDBRANCH   1  29
TORSDOF 24
ENDMDL
MODEL 2
REMARK VINA RESULT:      -8.6      3.140      9.000
REMARK SMILES C[C@]([NH3+])(C(=O)N1[C@@H](C(=O)OCCOCCOCCOC(=O)c2ccc(-c3c4nc(c(-c5ccc(S(=O)(=O)[O-])cc5)c5ccc([nH]5)c(-c5ccc(S(=O)(=O)[O-])cc5)c5nc(c(-c6ccc(S(=O)(=O)[O-])cc6)c6ccc3[nH]6)C=C5)C=C4)cc2)C[C@H]2CCCC[C@@H]21)C(F)(F)F
REMARK SMILES IDX 14 1 13 2 12 3 11 4 10 5 8 6 9 7 7 8 6 9 88 10 82 11 83 12
REMARK SMILES IDX 87 13 84 14 86 15 85 16 4 17 5 18 2 19 1 20 89 21 90 22
REMARK SMILES IDX 91 23 92 24 3 25 15 29 16 30 17 31 18 32 19 33 20 34 21 35
REMARK SMILES IDX 22 36 23 37 81 38 24 39 80 40 25 41 26 42 27 43 74 44 28 45
REMARK SMILES IDX 79 46 73 47 75 48 29 49 78 50 72 51 71 52 30 54 60 55 41 56
REMARK SMILES IDX 59 57 42 58 45 59 58 60 76 61 43 62 44 63 57 65 77 66 46 67
REMARK SMILES IDX 31 68 32 69 40 70 33 71 39 72 34 73 35 74 36 75 37 76 38 77
REMARK SMILES IDX 61 78 62 79 70 80 63 81 69 82 64 83 65 84 66 85 67 86 68 87
REMARK SMILES IDX 47 88 48 89 56 90 49 91 55 92 50 93 51 94 52 95 53 96 54 97
REMARK H PARENT 3 26 3 27 3 28 75 53 45 64
REMARK Flexibility Score: inf
ROOT
ATOM      1  C   UNL A   1      29.173  31.574  24.093  1.00  0.00     0.188 C 
ENDROOT
BRANCH   1   2
ATOM      2  O   UNL A   1      28.965  31.557  22.684  1.00  0.00    -0.376 OA
BRANCH   2   3
ATOM      3  C   UNL A   1      29.095  30.321  21.992  1.00  0.00     0.202 C 
BRANCH   3   4
ATOM      4  C   UNL A   1      27.935  29.349  22.165  1.00  0.00     0.261 C 
BRANCH   4   5
ATOM      5  O   UNL A   1      28.300  28.284  23.064  1.00  0.00    -0.462 OA
BRANCH   5   6
ATOM      6  C   UNL A   1      29.592  27.855  22.981  1.00  0.00     0.328 C 
ATOM      7  O   UNL A   1      30.237  27.831  21.943  1.00  0.00    -0.250 OA
BRANCH   6   8
ATOM      8  C   UNL A   1      30.060  27.272  24.341  1.00  0.00     0.196 C 
ATOM      9  N   UNL A   1      31.515  27.297  24.585  1.00  0.00    -0.320 N 
ATOM     10  C   UNL A   1      32.077  26.263  23.747  1.00  0.00     0.089 C 
ATOM     11  C   UNL A   1      29.752  25.767  24.286  1.00  0.00     0.043 C 
ATOM     12  C   UNL A   1      31.128  25.109  24.089  1.00  0.00     0.014 C 
ATOM     13  C   UNL A   1      33.518  25.800  23.864  1.00  0.00     0.025 C 
ATOM     14  C   UNL A   1      31.238  24.015  23.047  1.00  0.00     0.006 C 
ATOM     15  C   UNL A   1      33.724  24.650  22.858  1.00  0.00     0.002 C 
ATOM     16  C   UNL A   1      32.690  23.519  23.005  1.00  0.00     0.000 C 
BRANCH   9  17
ATOM     17  C   UNL A   1      32.185  28.439  24.976  1.00  0.00     0.294 C 
ATOM     18  O   UNL A   1      32.259  29.409  24.225  1.00  0.00    -0.267 OA
BRANCH  17  19
ATOM     19  C   UNL A   1      32.483  28.534  26.509  1.00  0.00     0.267 C 
ATOM     20  C   UNL A   1      31.819  27.414  27.317  1.00  0.00     0.100 C 
BRANCH  19  21
ATOM     21  C   UNL A   1      34.015  28.412  26.703  1.00  0.00     0.453 C 
ATOM     22  F   UNL A   1      34.691  29.193  25.834  1.00  0.00    -0.164 F 
ATOM     23  F   UNL A   1      34.383  28.828  27.943  1.00  0.00    -0.164 F 
ATOM     24  F   UNL A   1      34.452  27.143  26.567  1.00  0.00    -0.164 F 
ENDBRANCH  19  21
BRANCH  19  25
ATOM     25  N   UNL A   1      31.912  29.841  27.003  1.00  0.00    -0.337 N 
ATOM     26  H   UNL A   1      31.388  29.679  27.864  1.00  0.00     0.345 HD
ATOM     27  H   UNL A   1      31.291  30.231  26.294  1.00  0.00     0.345 HD
ATOM     28  H   UNL A   1      32.672  30.497  27.186  1.00  0.00     0.345 HD
ENDBRANCH  19  25
ENDBRANCH  17  19
ENDBRANCH   9  17
ENDBRANCH   6   8
ENDBRANCH   5   6
ENDBRANCH   4   5
ENDBRANCH   3   4
ENDBRANCH   2   3
ENDBRANCH   1   2
BRANCH   1  29
ATOM     29  C   UNL A   1      30.137  32.627  24.674  1.00  0.00     0.188 C 
BRANCH  29  30
ATOM     30  O   UNL A   1      30.876  32.313  25.849  1.00  0.00    -0.376 OA
BRANCH  30  31
ATOM     31  C   UNL A   1      31.542  33.399  26.490  1.00  0.00     0.202 C 
BRANCH  31  32
ATOM     32  C   UNL A   1      32.529  33.001  27.588  1.00  0.00     0.261 C 
BRANCH  32  33
ATOM     33  O   UNL A   1      33.405  34.097  27.910  1.00  0.00    -0.460 OA
BRANCH  33  34
ATOM     34  C   UNL A   1      33.616  34.287  29.232  1.00  0.00     0.338 C 
ATOM     35  O   UNL A   1      32.865  34.849  30.019  1.00  0.00    -0.246 OA
BRANCH  34  36
ATOM     36  C   UNL A   1      34.881  33.653  29.639  1.00  0.00     0.060 A 
ATOM     37  C   UNL A   1      34.846  32.519  30.445  1.00  0.00     0.016 A 
ATOM     38  C   UNL A   1      36.100  34.271  29.368  1.00  0.00     0.016 A 
ATOM     39  C   UNL A   1      36.014  32.016  31.016  1.00  0.00     0.010 A 
ATOM     40  C   UNL A   1      37.277  33.757  29.933  1.00  0.00     0.010 A 
ATOM     41  C   UNL A   1      37.238  32.647  30.795  1.00  0.00    -0.014 A 
BRANCH  41  42
ATOM     42  C   UNL A   1      38.424  32.233  31.590  1.00  0.00     0.031 A 
ATOM     43  C   UNL A   1      39.386  31.232  31.004  1.00  0.00     0.074 A 
ATOM     44  C   UNL A   1      38.709  32.805  32.777  1.00  0.00     0.049 A 
ATOM     45  N   UNL A   1      40.365  30.588  31.584  1.00  0.00    -0.248 NA
ATOM     46  C   UNL A   1      39.226  30.923  29.573  1.00  0.00     0.031 C 
ATOM     47  C   UNL A   1      37.962  33.900  33.396  1.00  0.00     0.029 A 
ATOM     48  N   UNL A   1      39.722  32.549  33.668  1.00  0.00    -0.354 N 
ATOM     49  C   UNL A   1      40.897  29.752  30.607  1.00  0.00     0.074 A 
ATOM     50  C   UNL A   1      40.147  29.986  29.393  1.00  0.00     0.031 C 
ATOM     51  C   UNL A   1      38.549  34.231  34.558  1.00  0.00     0.029 A 
ATOM     52  C   UNL A   1      39.659  33.316  34.808  1.00  0.00     0.049 A 
ATOM     53  H   UNL A   1      40.427  31.880  33.508  1.00  0.00     0.167 HD
ATOM     54  C   UNL A   1      41.911  28.862  30.722  1.00  0.00     0.031 A 
ATOM     55  C   UNL A   1      40.375  33.252  35.949  1.00  0.00     0.031 A 
ATOM     56  C   UNL A   1      42.681  28.668  31.921  1.00  0.00     0.049 A 
ATOM     57  C   UNL A   1      41.429  32.188  36.091  1.00  0.00     0.074 A 
ATOM     58  C   UNL A   1      43.706  27.767  32.152  1.00  0.00     0.029 A 
ATOM     59  N   UNL A   1      42.525  29.403  33.086  1.00  0.00    -0.354 N 
ATOM     60  N   UNL A   1      41.844  31.314  35.206  1.00  0.00    -0.248 NA
ATOM     61  C   UNL A   1      42.092  32.081  37.400  1.00  0.00     0.031 C 
ATOM     62  C   UNL A   1      44.140  27.928  33.472  1.00  0.00     0.029 A 
ATOM     63  C   UNL A   1      43.420  28.964  34.046  1.00  0.00     0.049 A 
ATOM     64  H   UNL A   1      41.874  30.132  33.211  1.00  0.00     0.167 HD
ATOM     65  C   UNL A   1      42.818  30.556  35.848  1.00  0.00     0.074 A 
ATOM     66  C   UNL A   1      42.949  31.092  37.187  1.00  0.00     0.031 C 
ATOM     67  C   UNL A   1      43.532  29.505  35.375  1.00  0.00     0.031 A 
BRANCH  54  68
ATOM     68  C   UNL A   1      42.197  27.973  29.543  1.00  0.00    -0.014 A 
ATOM     69  C   UNL A   1      41.376  26.880  29.220  1.00  0.00     0.010 A 
ATOM     70  C   UNL A   1      43.291  28.280  28.712  1.00  0.00     0.010 A 
ATOM     71  C   UNL A   1      41.657  26.096  28.096  1.00  0.00     0.020 A 
ATOM     72  C   UNL A   1      43.563  27.513  27.577  1.00  0.00     0.020 A 
ATOM     73  C   UNL A   1      42.750  26.416  27.283  1.00  0.00     0.054 A 
BRANCH  73  74
ATOM     74  S   UNL A   1      43.071  25.411  25.807  1.00  0.00     0.124 S 
ATOM     75  O   UNL A   1      41.731  25.255  25.249  1.00  0.00    -0.237 OA
ATOM     76  O   UNL A   1      43.980  26.254  25.033  1.00  0.00    -0.237 OA
ATOM     77  O   UNL A   1      43.667  24.189  26.343  1.00  0.00    -0.744 OA
ENDBRANCH  73  74
ENDBRANCH  54  68
BRANCH  55  78
ATOM     78  C   UNL A   1      40.054  34.161  37.085  1.00  0.00    -0.014 A 
ATOM     79  C   UNL A   1      40.627  35.440  37.174  1.00  0.00     0.010 A 
ATOM     80  C   UNL A   1      39.175  33.736  38.100  1.00  0.00     0.010 A 
ATOM     81  C   UNL A   1      40.337  36.272  38.261  1.00  0.00     0.020 A 
ATOM     82  C   UNL A   1      38.859  34.574  39.171  1.00  0.00     0.020 A 
ATOM     83  C   UNL A   1      39.453  35.834  39.252  1.00  0.00     0.054 A 
BRANCH  83  84
ATOM     84  S   UNL A   1      39.049  36.943  40.630  1.00  0.00     0.124 S 
ATOM     85  O   UNL A   1      38.183  37.924  39.985  1.00  0.00    -0.237 OA
ATOM     86  O   UNL A   1      38.391  36.047  41.579  1.00  0.00    -0.237 OA
ATOM     87  O   UNL A   1      40.353  37.441  41.060  1.00  0.00    -0.744 OA
ENDBRANCH  83  84
ENDBRANCH  55  78
BRANCH  67  88
ATOM     88  C   UNL A   1      44.532  28.879  36.306  1.00  0.00    -0.014 A 
ATOM     89  C   UNL A   1      45.818  29.427  36.460  1.00  0.00     0.010 A 
ATOM     90  C   UNL A   1      44.165  27.759  37.073  1.00  0.00     0.010 A 
ATOM     91  C   UNL A   1      46.731  28.845  37.344  1.00  0.00     0.020 A 
ATOM     92  C   UNL A   1      45.067  27.188  37.974  1.00  0.00     0.020 A 
ATOM     93  C   UNL A   1      46.351  27.727  38.092  1.00  0.00     0.054 A 
BRANCH  93  94
ATOM     94  S   UNL A   1      47.540  27.009  39.259  1.00  0.00     0.124 S 
ATOM     95  O   UNL A   1      48.629  27.981  39.218  1.00  0.00    -0.237 OA
ATOM     96  O   UNL A   1      46.783  26.966  40.507  1.00  0.00    -0.237 OA
ATOM     97  O   UNL A   1      47.849  25.703  38.680  1.00  0.00    -0.744 OA
ENDBRANCH  93  94
ENDBRANCH  67  88
ENDBRANCH  41  42
ENDBRANCH  34  36
ENDBRANCH  33  34
ENDBRANCH  32  33
ENDBRANCH  31  32
ENDBRANCH  30  31
ENDBRANCH  29  30
ENDBRANCH   1  29
TORSDOF 24
ENDMDL
MODEL 3
REMARK VINA RESULT:      -7.8     13.314     17.185
REMARK SMILES C[C@]([NH3+])(C(=O)N1[C@@H](C(=O)OCCOCCOCCOC(=O)c2ccc(-c3c4nc(c(-c5ccc(S(=O)(=O)[O-])cc5)c5ccc([nH]5)c(-c5ccc(S(=O)(=O)[O-])cc5)c5nc(c(-c6ccc(S(=O)(=O)[O-])cc6)c6ccc3[nH]6)C=C5)C=C4)cc2)C[C@H]2CCCC[C@@H]21)C(F)(F)F
REMARK SMILES IDX 14 1 13 2 12 3 11 4 10 5 8 6 9 7 7 8 6 9 88 10 82 11 83 12
REMARK SMILES IDX 87 13 84 14 86 15 85 16 4 17 5 18 2 19 1 20 89 21 90 22
REMARK SMILES IDX 91 23 92 24 3 25 15 29 16 30 17 31 18 32 19 33 20 34 21 35
REMARK SMILES IDX 22 36 23 37 81 38 24 39 80 40 25 41 26 42 27 43 74 44 28 45
REMARK SMILES IDX 79 46 73 47 75 48 29 49 78 50 72 51 71 52 30 54 60 55 41 56
REMARK SMILES IDX 59 57 42 58 45 59 58 60 76 61 43 62 44 63 57 65 77 66 46 67
REMARK SMILES IDX 31 68 32 69 40 70 33 71 39 72 34 73 35 74 36 75 37 76 38 77
REMARK SMILES IDX 61 78 62 79 70 80 63 81 69 82 64 83 65 84 66 85 67 86 68 87
REMARK SMILES IDX 47 88 48 89 56 90 49 91 55 92 50 93 51 94 52 95 53 96 54 97
REMARK H PARENT 3 26 3 27 3 28 75 53 45 64
REMARK Flexibility Score: inf
ROOT
ATOM      1  C   UNL A   1      46.316  42.222  23.667  1.00  0.00     0.188 C 
ENDROOT
BRANCH   1   2
ATOM      2  O   UNL A   1      46.022  41.584  22.429  1.00  0.00    -0.376 OA
BRANCH   2   3
ATOM      3  C   UNL A   1      45.660  42.393  21.315  1.00  0.00     0.202 C 
BRANCH   3   4
ATOM      4  C   UNL A   1      44.278  43.028  21.389  1.00  0.00     0.261 C 
BRANCH   4   5
ATOM      5  O   UNL A   1      44.156  44.084  20.416  1.00  0.00    -0.462 OA
BRANCH   5   6
ATOM      6  C   UNL A   1      44.996  45.145  20.585  1.00  0.00     0.328 C 
ATOM      7  O   UNL A   1      45.131  45.746  21.641  1.00  0.00    -0.250 OA
BRANCH   6   8
ATOM      8  C   UNL A   1      45.627  45.561  19.229  1.00  0.00     0.196 C 
ATOM      9  N   UNL A   1      45.174  46.852  18.678  1.00  0.00    -0.320 N 
ATOM     10  C   UNL A   1      43.833  46.629  18.188  1.00  0.00     0.089 C 
ATOM     11  C   UNL A   1      45.109  44.550  18.192  1.00  0.00     0.043 C 
ATOM     12  C   UNL A   1      44.063  45.341  17.388  1.00  0.00     0.014 C 
ATOM     13  C   UNL A   1      43.088  47.640  17.338  1.00  0.00     0.025 C 
ATOM     14  C   UNL A   1      42.740  44.662  17.101  1.00  0.00     0.006 C 
ATOM     15  C   UNL A   1      41.727  47.022  16.959  1.00  0.00     0.002 C 
ATOM     16  C   UNL A   1      41.849  45.630  16.312  1.00  0.00     0.000 C 
BRANCH   9  17
ATOM     17  C   UNL A   1      45.648  48.065  19.138  1.00  0.00     0.294 C 
ATOM     18  O   UNL A   1      45.394  48.443  20.279  1.00  0.00    -0.267 OA
BRANCH  17  19
ATOM     19  C   UNL A   1      46.791  48.693  18.275  1.00  0.00     0.267 C 
ATOM     20  C   UNL A   1      46.914  48.052  16.888  1.00  0.00     0.100 C 
BRANCH  19  21
ATOM     21  C   UNL A   1      46.464  50.194  18.074  1.00  0.00     0.453 C 
ATOM     22  F   UNL A   1      46.875  50.938  19.123  1.00  0.00    -0.164 F 
ATOM     23  F   UNL A   1      47.109  50.692  16.987  1.00  0.00    -0.164 F 
ATOM     24  F   UNL A   1      45.146  50.413  17.885  1.00  0.00    -0.164 F 
ENDBRANCH  19  21
BRANCH  19  25
ATOM     25  N   UNL A   1      48.094  48.449  18.998  1.00  0.00    -0.337 N 
ATOM     26  H   UNL A   1      48.859  48.427  18.323  1.00  0.00     0.345 HD
ATOM     27  H   UNL A   1      48.048  47.556  19.489  1.00  0.00     0.345 HD
ATOM     28  H   UNL A   1      48.256  49.199  19.670  1.00  0.00     0.345 HD
ENDBRANCH  19  25
ENDBRANCH  17  19
ENDBRANCH   9  17
ENDBRANCH   6   8
ENDBRANCH   5   6
ENDBRANCH   4   5
ENDBRANCH   3   4
ENDBRANCH   2   3
ENDBRANCH   1   2
BRANCH   1  29
ATOM     29  C   UNL A   1      45.272  42.133  24.798  1.00  0.00     0.188 C 
BRANCH  29  30
ATOM     30  O   UNL A   1      44.584  40.905  25.008  1.00  0.00    -0.376 OA
BRANCH  30  31
ATOM     31  C   UNL A   1      43.353  40.981  25.724  1.00  0.00     0.202 C 
BRANCH  31  32
ATOM     32  C   UNL A   1      43.234  40.034  26.918  1.00  0.00     0.261 C 
BRANCH  32  33
ATOM     33  O   UNL A   1      42.543  38.827  26.547  1.00  0.00    -0.460 OA
BRANCH  33  34
ATOM     34  C   UNL A   1      42.300  37.974  27.569  1.00  0.00     0.338 C 
ATOM     35  O   UNL A   1      41.516  38.145  28.494  1.00  0.00    -0.246 OA
BRANCH  34  36
ATOM     36  C   UNL A   1      43.076  36.736  27.390  1.00  0.00     0.060 A 
ATOM     37  C   UNL A   1      43.929  36.313  28.406  1.00  0.00     0.016 A 
ATOM     38  C   UNL A   1      43.091  36.084  26.159  1.00  0.00     0.016 A 
ATOM     39  C   UNL A   1      44.826  35.268  28.192  1.00  0.00     0.010 A 
ATOM     40  C   UNL A   1      43.986  35.023  25.948  1.00  0.00     0.010 A 
ATOM     41  C   UNL A   1      44.890  34.633  26.952  1.00  0.00    -0.014 A 
BRANCH  41  42
ATOM     42  C   UNL A   1      46.000  33.684  26.677  1.00  0.00     0.031 A 
ATOM     43  C   UNL A   1      45.723  32.204  26.705  1.00  0.00     0.074 A 
ATOM     44  C   UNL A   1      47.222  34.119  26.308  1.00  0.00     0.049 A 
ATOM     45  N   UNL A   1      46.565  31.203  26.690  1.00  0.00    -0.248 NA
ATOM     46  C   UNL A   1      44.308  31.798  26.749  1.00  0.00     0.031 C 
ATOM     47  C   UNL A   1      47.596  35.516  26.081  1.00  0.00     0.029 A 
ATOM     48  N   UNL A   1      48.374  33.420  26.043  1.00  0.00    -0.354 N 
ATOM     49  C   UNL A   1      45.787  30.054  26.785  1.00  0.00     0.074 A 
ATOM     50  C   UNL A   1      44.405  30.478  26.837  1.00  0.00     0.031 C 
ATOM     51  C   UNL A   1      48.882  35.569  25.698  1.00  0.00     0.029 A 
ATOM     52  C   UNL A   1      49.447  34.224  25.737  1.00  0.00     0.049 A 
ATOM     53  H   UNL A   1      48.427  32.437  26.069  1.00  0.00     0.167 HD
ATOM     54  C   UNL A   1      46.195  28.764  26.838  1.00  0.00     0.031 A 
ATOM     55  C   UNL A   1      50.749  33.919  25.564  1.00  0.00     0.031 A 
ATOM     56  C   UNL A   1      47.568  28.348  26.741  1.00  0.00     0.049 A 
ATOM     57  C   UNL A   1      51.194  32.491  25.729  1.00  0.00     0.074 A 
ATOM     58  C   UNL A   1      48.089  27.068  26.820  1.00  0.00     0.029 A 
ATOM     59  N   UNL A   1      48.637  29.202  26.523  1.00  0.00    -0.354 N 
ATOM     60  N   UNL A   1      50.468  31.421  25.945  1.00  0.00    -0.248 NA
ATOM     61  C   UNL A   1      52.640  32.234  25.656  1.00  0.00     0.031 C 
ATOM     62  C   UNL A   1      49.480  27.154  26.692  1.00  0.00     0.029 A 
ATOM     63  C   UNL A   1      49.818  28.482  26.484  1.00  0.00     0.049 A 
ATOM     64  H   UNL A   1      48.567  30.178  26.411  1.00  0.00     0.167 HD
ATOM     65  C   UNL A   1      51.367  30.363  26.031  1.00  0.00     0.074 A 
ATOM     66  C   UNL A   1      52.688  30.918  25.817  1.00  0.00     0.031 C 
ATOM     67  C   UNL A   1      51.123  29.052  26.275  1.00  0.00     0.031 A 
BRANCH  54  68
ATOM     68  C   UNL A   1      45.150  27.711  27.087  1.00  0.00    -0.014 A 
ATOM     69  C   UNL A   1      44.594  27.502  28.361  1.00  0.00     0.010 A 
ATOM     70  C   UNL A   1      44.680  26.950  26.000  1.00  0.00     0.010 A 
ATOM     71  C   UNL A   1      43.600  26.534  28.546  1.00  0.00     0.020 A 
ATOM     72  C   UNL A   1      43.674  25.998  26.176  1.00  0.00     0.020 A 
ATOM     73  C   UNL A   1      43.148  25.788  27.453  1.00  0.00     0.054 A 
BRANCH  73  74
ATOM     74  S   UNL A   1      41.830  24.567  27.708  1.00  0.00     0.124 S 
ATOM     75  O   UNL A   1      42.587  23.379  28.092  1.00  0.00    -0.237 OA
ATOM     76  O   UNL A   1      41.030  25.173  28.770  1.00  0.00    -0.237 OA
ATOM     77  O   UNL A   1      41.171  24.490  26.406  1.00  0.00    -0.744 OA
ENDBRANCH  73  74
ENDBRANCH  54  68
BRANCH  55  78
ATOM     78  C   UNL A   1      51.743  35.001  25.314  1.00  0.00    -0.014 A 
ATOM     79  C   UNL A   1      52.389  35.651  26.379  1.00  0.00     0.010 A 
ATOM     80  C   UNL A   1      52.037  35.395  23.995  1.00  0.00     0.010 A 
ATOM     81  C   UNL A   1      53.300  36.684  26.130  1.00  0.00     0.020 A 
ATOM     82  C   UNL A   1      52.968  36.405  23.740  1.00  0.00     0.020 A 
ATOM     83  C   UNL A   1      53.585  37.053  24.811  1.00  0.00     0.054 A 
BRANCH  83  84
ATOM     84  S   UNL A   1      54.805  38.360  24.502  1.00  0.00     0.124 S 
ATOM     85  O   UNL A   1      55.058  38.206  23.073  1.00  0.00    -0.237 OA
ATOM     86  O   UNL A   1      54.083  39.570  24.891  1.00  0.00    -0.237 OA
ATOM     87  O   UNL A   1      55.917  38.001  25.379  1.00  0.00    -0.744 OA
ENDBRANCH  83  84
ENDBRANCH  55  78
BRANCH  67  88
ATOM     88  C   UNL A   1      52.307  28.126  26.303  1.00  0.00    -0.014 A 
ATOM     89  C   UNL A   1      52.843  27.600  25.115  1.00  0.00     0.010 A 
ATOM     90  C   UNL A   1      52.921  27.818  27.530  1.00  0.00     0.010 A 
ATOM     91  C   UNL A   1      53.955  26.755  25.155  1.00  0.00     0.020 A 
ATOM     92  C   UNL A   1      54.047  26.991  27.573  1.00  0.00     0.020 A 
ATOM     93  C   UNL A   1      54.547  26.453  26.385  1.00  0.00     0.054 A 
BRANCH  93  94
ATOM     94  S   UNL A   1      56.012  25.384  26.411  1.00  0.00     0.124 S 
ATOM     95  O   UNL A   1      57.016  26.258  27.012  1.00  0.00    -0.237 OA
ATOM     96  O   UNL A   1      55.579  24.261  27.239  1.00  0.00    -0.237 OA
ATOM     97  O   UNL A   1      56.231  25.061  25.002  1.00  0.00    -0.744 OA
ENDBRANCH  93  94
ENDBRANCH  67  88
ENDBRANCH  41  42
ENDBRANCH  34  36
ENDBRANCH  33  34
ENDBRANCH  32  33
ENDBRANCH  31  32
ENDBRANCH  30  31
ENDBRANCH  29  30
ENDBRANCH   1  29
TORSDOF 24
ENDMDL
