MODEL 1
REMARK VINA RESULT:     -13.3      0.000      0.000
REMARK SMILES Cc1ccccc1[C@@H]1[NH2+][C@H](C(=O)OCCOCCOCCOC(=O)c2ccc(-c3c4nc(c(-c5ccc(S(=O)(=O)[O-])cc5)c5ccc([nH]5)c(-c5ccc(S(=O)(=O)[O-])cc5)c5nc(c(-c6ccc(S(=O)(=O)[O-])cc6)c6ccc3[nH]6)C=C5)C=C4)cc2)CC2=c3ccccc3=N[C@@H]21
REMARK SMILES IDX 18 1 17 2 16 3 15 4 14 5 13 6 11 7 12 8 10 9 8 10 9 11 94 12
REMARK SMILES IDX 86 15 93 16 85 17 87 18 92 19 88 20 91 21 89 22 90 23 7 24
REMARK SMILES IDX 1 25 2 26 3 27 4 28 6 29 5 30 19 31 20 32 21 33 22 34 23 35
REMARK SMILES IDX 24 36 25 37 26 38 84 39 27 40 83 41 28 42 29 43 30 44 77 45
REMARK SMILES IDX 31 46 82 47 76 48 78 49 32 50 81 51 75 52 74 53 33 55 63 56
REMARK SMILES IDX 44 57 62 58 45 59 48 60 61 61 79 62 46 63 47 64 60 66 80 67
REMARK SMILES IDX 49 68 34 69 35 70 43 71 36 72 42 73 37 74 38 75 39 76 40 77
REMARK SMILES IDX 41 78 64 79 65 80 73 81 66 82 72 83 67 84 68 85 69 86 70 87
REMARK SMILES IDX 71 88 50 89 51 90 59 91 52 92 58 93 53 94 54 95 55 96 56 97
REMARK SMILES IDX 57 98
REMARK H PARENT 9 13 9 14 78 54 48 65
REMARK Flexibility Score: inf
ROOT
ATOM      1  C   UNL A   1      49.072  21.025  38.492  1.00  0.00     0.188 C 
ENDROOT
BRANCH   1   2
ATOM      2  C   UNL A   1      47.902  20.104  38.289  1.00  0.00     0.188 C 
BRANCH   2   3
ATOM      3  O   UNL A   1      47.883  18.833  38.867  1.00  0.00    -0.376 OA
BRANCH   3   4
ATOM      4  C   UNL A   1      46.579  18.505  39.254  1.00  0.00     0.202 C 
BRANCH   4   5
ATOM      5  C   UNL A   1      46.072  18.719  40.687  1.00  0.00     0.261 C 
BRANCH   5   6
ATOM      6  O   UNL A   1      44.748  18.114  41.182  1.00  0.00    -0.459 OA
BRANCH   6   7
ATOM      7  C   UNL A   1      44.051  16.846  41.501  1.00  0.00     0.365 C 
ATOM      8  O   UNL A   1      43.831  15.786  40.915  1.00  0.00    -0.245 OA
BRANCH   7   9
ATOM      9  C   UNL A   1      43.940  16.833  42.933  1.00  0.00     0.298 C 
ATOM     10  C   UNL A   1      43.821  15.065  44.359  1.00  0.00     0.243 C 
ATOM     11  N   UNL A   1      44.627  15.581  43.267  1.00  0.00    -0.326 N 
ATOM     12  C   UNL A   1      44.369  16.126  45.555  1.00  0.00     0.196 C 
ATOM     13  H   UNL A   1      44.631  14.940  42.475  1.00  0.00     0.347 HD
ATOM     14  H   UNL A   1      45.610  15.710  43.511  1.00  0.00     0.347 HD
ATOM     15  C   UNL A   1      44.603  17.644  44.987  1.00  0.00    -0.024 C 
ATOM     16  N   UNL A   1      45.757  15.778  45.928  1.00  0.00    -0.270 NA
ATOM     17  C   UNL A   1      43.892  18.108  43.763  1.00  0.00     0.111 C 
ATOM     18  C   UNL A   1      45.873  18.046  45.078  1.00  0.00     0.002 A 
ATOM     19  C   UNL A   1      46.484  16.785  45.528  1.00  0.00     0.066 A 
ATOM     20  C   UNL A   1      46.592  19.009  44.263  1.00  0.00     0.010 A 
ATOM     21  C   UNL A   1      47.933  16.682  45.272  1.00  0.00     0.028 A 
ATOM     22  C   UNL A   1      47.861  18.739  43.923  1.00  0.00     0.001 A 
ATOM     23  C   UNL A   1      48.535  17.579  44.471  1.00  0.00     0.002 A 
BRANCH  10  24
ATOM     24  C   UNL A   1      42.951  13.550  43.763  1.00  0.00     0.015 A 
ATOM     25  C   UNL A   1      45.523  11.646  44.641  1.00  0.00     0.045 C 
ATOM     26  C   UNL A   1      43.599  11.871  43.775  1.00  0.00    -0.042 A 
ATOM     27  C   UNL A   1      42.664  10.877  43.427  1.00  0.00     0.004 A 
ATOM     28  C   UNL A   1      41.318  11.302  43.196  1.00  0.00     0.000 A 
ATOM     29  C   UNL A   1      41.594  13.775  43.605  1.00  0.00     0.010 A 
ATOM     30  C   UNL A   1      40.810  12.655  43.315  1.00  0.00     0.001 A 
ENDBRANCH  10  24
ENDBRANCH   7   9
ENDBRANCH   6   7
ENDBRANCH   5   6
ENDBRANCH   4   5
ENDBRANCH   3   4
ENDBRANCH   2   3
ENDBRANCH   1   2
BRANCH   1  31
ATOM     31  O   UNL A   1      50.230  22.051  37.463  1.00  0.00    -0.376 OA
BRANCH  31  32
ATOM     32  C   UNL A   1      49.498  23.705  36.560  1.00  0.00     0.202 C 
BRANCH  32  33
ATOM     33  C   UNL A   1      49.640  23.396  34.542  1.00  0.00     0.261 C 
BRANCH  33  34
ATOM     34  O   UNL A   1      50.515  24.715  33.482  1.00  0.00    -0.460 OA
BRANCH  34  35
ATOM     35  C   UNL A   1      50.322  26.437  33.286  1.00  0.00     0.338 C 
ATOM     36  O   UNL A   1      50.577  26.998  34.362  1.00  0.00    -0.246 OA
BRANCH  35  37
ATOM     37  C   UNL A   1      50.181  27.589  31.821  1.00  0.00     0.060 A 
ATOM     38  C   UNL A   1      49.434  28.774  31.602  1.00  0.00     0.016 A 
ATOM     39  C   UNL A   1      50.553  27.441  30.504  1.00  0.00     0.016 A 
ATOM     40  C   UNL A   1      48.573  29.220  30.285  1.00  0.00     0.010 A 
ATOM     41  C   UNL A   1      49.491  27.636  29.409  1.00  0.00     0.010 A 
ATOM     42  C   UNL A   1      48.365  28.456  29.153  1.00  0.00    -0.014 A 
BRANCH  42  43
ATOM     43  C   UNL A   1      46.895  28.107  28.143  1.00  0.00     0.031 A 
ATOM     44  C   UNL A   1      45.127  27.969  28.605  1.00  0.00     0.074 A 
ATOM     45  C   UNL A   1      47.073  28.242  26.784  1.00  0.00     0.049 A 
ATOM     46  N   UNL A   1      44.383  26.921  28.968  1.00  0.00    -0.248 NA
ATOM     47  C   UNL A   1      44.144  29.157  28.862  1.00  0.00     0.031 C 
ATOM     48  C   UNL A   1      46.111  28.306  25.654  1.00  0.00     0.029 A 
ATOM     49  N   UNL A   1      48.285  28.364  26.086  1.00  0.00    -0.354 N 
ATOM     50  C   UNL A   1      43.052  27.431  29.358  1.00  0.00     0.074 A 
ATOM     51  C   UNL A   1      43.292  28.754  29.798  1.00  0.00     0.031 C 
ATOM     52  C   UNL A   1      46.753  28.070  24.490  1.00  0.00     0.029 A 
ATOM     53  C   UNL A   1      48.119  27.731  24.843  1.00  0.00     0.049 A 
ATOM     54  H   UNL A   1      49.101  28.809  26.409  1.00  0.00     0.167 HD
ATOM     55  C   UNL A   1      41.893  27.424  28.577  1.00  0.00     0.031 A 
ATOM     56  C   UNL A   1      48.698  26.502  24.754  1.00  0.00     0.031 A 
ATOM     57  C   UNL A   1      42.273  27.136  27.215  1.00  0.00     0.049 A 
ATOM     58  C   UNL A   1      47.599  25.456  24.921  1.00  0.00     0.074 A 
ATOM     59  C   UNL A   1      42.330  27.844  26.028  1.00  0.00     0.029 A 
ATOM     60  N   UNL A   1      43.043  26.021  27.050  1.00  0.00    -0.354 N 
ATOM     61  N   UNL A   1      46.455  25.653  25.539  1.00  0.00    -0.248 NA
ATOM     62  C   UNL A   1      47.602  24.201  24.184  1.00  0.00     0.031 C 
ATOM     63  C   UNL A   1      43.124  27.069  25.122  1.00  0.00     0.029 A 
ATOM     64  C   UNL A   1      43.564  25.939  25.795  1.00  0.00     0.049 A 
ATOM     65  H   UNL A   1      43.203  25.354  27.756  1.00  0.00     0.167 HD
ATOM     66  C   UNL A   1      45.556  24.682  25.187  1.00  0.00     0.074 A 
ATOM     67  C   UNL A   1      46.338  23.779  24.366  1.00  0.00     0.031 C 
ATOM     68  C   UNL A   1      44.221  24.688  25.491  1.00  0.00     0.031 A 
BRANCH  55  69
ATOM     69  C   UNL A   1      40.535  28.158  28.894  1.00  0.00    -0.014 A 
ATOM     70  C   UNL A   1      39.690  27.633  29.902  1.00  0.00     0.010 A 
ATOM     71  C   UNL A   1      40.062  29.358  28.299  1.00  0.00     0.010 A 
ATOM     72  C   UNL A   1      38.475  28.241  30.292  1.00  0.00     0.020 A 
ATOM     73  C   UNL A   1      38.826  29.964  28.658  1.00  0.00     0.020 A 
ATOM     74  C   UNL A   1      38.051  29.412  29.674  1.00  0.00     0.054 A 
BRANCH  74  75
ATOM     75  S   UNL A   1      36.534  30.225  30.279  1.00  0.00     0.124 S 
ATOM     76  O   UNL A   1      36.940  31.625  30.387  1.00  0.00    -0.237 OA
ATOM     77  O   UNL A   1      35.575  29.931  29.216  1.00  0.00    -0.237 OA
ATOM     78  O   UNL A   1      36.267  29.562  31.554  1.00  0.00    -0.744 OA
ENDBRANCH  74  75
ENDBRANCH  55  69
BRANCH  56  79
ATOM     79  C   UNL A   1      50.126  26.608  25.258  1.00  0.00    -0.014 A 
ATOM     80  C   UNL A   1      50.480  25.649  26.252  1.00  0.00     0.010 A 
ATOM     81  C   UNL A   1      51.188  27.188  24.544  1.00  0.00     0.010 A 
ATOM     82  C   UNL A   1      51.780  25.141  26.376  1.00  0.00     0.020 A 
ATOM     83  C   UNL A   1      52.535  26.755  24.761  1.00  0.00     0.020 A 
ATOM     84  C   UNL A   1      52.804  25.677  25.612  1.00  0.00     0.054 A 
BRANCH  84  85
ATOM     85  S   UNL A   1      54.394  24.764  25.650  1.00  0.00     0.124 S 
ATOM     86  O   UNL A   1      54.886  25.024  26.996  1.00  0.00    -0.237 OA
ATOM     87  O   UNL A   1      53.936  23.394  25.412  1.00  0.00    -0.237 OA
ATOM     88  O   UNL A   1      55.187  25.379  24.588  1.00  0.00    -0.744 OA
ENDBRANCH  84  85
ENDBRANCH  56  79
BRANCH  68  89
ATOM     89  C   UNL A   1      43.366  23.435  25.655  1.00  0.00    -0.014 A 
ATOM     90  C   UNL A   1      43.895  22.200  26.023  1.00  0.00     0.010 A 
ATOM     91  C   UNL A   1      41.940  23.518  25.615  1.00  0.00     0.010 A 
ATOM     92  C   UNL A   1      43.074  21.091  26.225  1.00  0.00     0.020 A 
ATOM     93  C   UNL A   1      41.105  22.448  25.928  1.00  0.00     0.020 A 
ATOM     94  C   UNL A   1      41.688  21.220  26.174  1.00  0.00     0.054 A 
BRANCH  94  95
ATOM     95  S   UNL A   1      40.675  19.753  26.408  1.00  0.00     0.124 S 
ATOM     96  O   UNL A   1      41.418  18.763  25.631  1.00  0.00    -0.237 OA
ATOM     97  O   UNL A   1      40.713  19.572  27.856  1.00  0.00    -0.237 OA
ATOM     98  O   UNL A   1      39.375  20.130  25.862  1.00  0.00    -0.744 OA
ENDBRANCH  94  95
ENDBRANCH  68  89
ENDBRANCH  42  43
ENDBRANCH  35  37
ENDBRANCH  34  35
ENDBRANCH  33  34
ENDBRANCH  32  33
ENDBRANCH  31  32
ENDBRANCH   1  31
TORSDOF 21
ENDMDL
MODEL 2
REMARK VINA RESULT:     -13.0      8.060     16.346
REMARK SMILES Cc1ccccc1[C@@H]1[NH2+][C@H](C(=O)OCCOCCOCCOC(=O)c2ccc(-c3c4nc(c(-c5ccc(S(=O)(=O)[O-])cc5)c5ccc([nH]5)c(-c5ccc(S(=O)(=O)[O-])cc5)c5nc(c(-c6ccc(S(=O)(=O)[O-])cc6)c6ccc3[nH]6)C=C5)C=C4)cc2)CC2=c3ccccc3=N[C@@H]21
REMARK SMILES IDX 18 1 17 2 16 3 15 4 14 5 13 6 11 7 12 8 10 9 8 10 9 11 94 12
REMARK SMILES IDX 86 15 93 16 85 17 87 18 92 19 88 20 91 21 89 22 90 23 7 24
REMARK SMILES IDX 1 25 2 26 3 27 4 28 6 29 5 30 19 31 20 32 21 33 22 34 23 35
REMARK SMILES IDX 24 36 25 37 26 38 84 39 27 40 83 41 28 42 29 43 30 44 77 45
REMARK SMILES IDX 31 46 82 47 76 48 78 49 32 50 81 51 75 52 74 53 33 55 63 56
REMARK SMILES IDX 44 57 62 58 45 59 48 60 61 61 79 62 46 63 47 64 60 66 80 67
REMARK SMILES IDX 49 68 34 69 35 70 43 71 36 72 42 73 37 74 38 75 39 76 40 77
REMARK SMILES IDX 41 78 64 79 65 80 73 81 66 82 72 83 67 84 68 85 69 86 70 87
REMARK SMILES IDX 71 88 50 89 51 90 59 91 52 92 58 93 53 94 54 95 55 96 56 97
REMARK SMILES IDX 57 98
REMARK H PARENT 9 13 9 14 78 54 48 65
REMARK Flexibility Score: inf
ROOT
ATOM      1  C   UNL A   1      40.198  21.463  26.720  1.00  0.00     0.188 C 
ENDROOT
BRANCH   1   2
ATOM      2  C   UNL A   1      38.973  21.267  25.872  1.00  0.00     0.188 C 
BRANCH   2   3
ATOM      3  O   UNL A   1      38.376  22.346  25.216  1.00  0.00    -0.376 OA
BRANCH   3   4
ATOM      4  C   UNL A   1      38.014  23.327  26.146  1.00  0.00     0.202 C 
BRANCH   4   5
ATOM      5  C   UNL A   1      36.608  23.941  26.182  1.00  0.00     0.261 C 
BRANCH   5   6
ATOM      6  O   UNL A   1      35.666  23.893  24.968  1.00  0.00    -0.459 OA
BRANCH   6   7
ATOM      7  C   UNL A   1      35.597  23.637  23.509  1.00  0.00     0.365 C 
ATOM      8  O   UNL A   1      36.320  23.099  22.671  1.00  0.00    -0.245 OA
BRANCH   7   9
ATOM      9  C   UNL A   1      34.210  23.790  23.171  1.00  0.00     0.298 C 
ATOM     10  C   UNL A   1      32.441  22.455  23.682  1.00  0.00     0.243 C 
ATOM     11  N   UNL A   1      33.559  23.136  24.310  1.00  0.00    -0.326 N 
ATOM     12  C   UNL A   1      31.472  23.817  23.426  1.00  0.00     0.196 C 
ATOM     13  H   UNL A   1      34.187  22.474  24.764  1.00  0.00     0.347 HD
ATOM     14  H   UNL A   1      33.279  23.785  25.047  1.00  0.00     0.347 HD
ATOM     15  C   UNL A   1      32.343  25.132  22.986  1.00  0.00    -0.024 C 
ATOM     16  N   UNL A   1      30.932  24.291  24.719  1.00  0.00    -0.270 NA
ATOM     17  C   UNL A   1      33.687  24.971  22.365  1.00  0.00     0.111 C 
ATOM     18  C   UNL A   1      32.252  26.135  23.861  1.00  0.00     0.002 A 
ATOM     19  C   UNL A   1      31.491  25.453  24.920  1.00  0.00     0.066 A 
ATOM     20  C   UNL A   1      33.205  27.192  24.150  1.00  0.00     0.010 A 
ATOM     21  C   UNL A   1      31.613  26.067  26.255  1.00  0.00     0.028 A 
ATOM     22  C   UNL A   1      33.385  27.561  25.427  1.00  0.00     0.001 A 
ATOM     23  C   UNL A   1      32.547  27.011  26.473  1.00  0.00     0.002 A 
BRANCH  10  24
ATOM     24  C   UNL A   1      32.748  20.638  23.779  1.00  0.00     0.015 A 
ATOM     25  C   UNL A   1      33.552  20.876  26.990  1.00  0.00     0.045 C 
ATOM     26  C   UNL A   1      33.309  19.724  25.224  1.00  0.00    -0.042 A 
ATOM     27  C   UNL A   1      33.294  18.323  25.078  1.00  0.00     0.004 A 
ATOM     28  C   UNL A   1      32.764  17.803  23.856  1.00  0.00     0.000 A 
ATOM     29  C   UNL A   1      32.179  19.970  22.708  1.00  0.00     0.010 A 
ATOM     30  C   UNL A   1      32.208  18.574  22.760  1.00  0.00     0.001 A 
ENDBRANCH  10  24
ENDBRANCH   7   9
ENDBRANCH   6   7
ENDBRANCH   5   6
ENDBRANCH   4   5
ENDBRANCH   3   4
ENDBRANCH   2   3
ENDBRANCH   1   2
BRANCH   1  31
ATOM     31  O   UNL A   1      41.750  20.540  27.157  1.00  0.00    -0.376 OA
BRANCH  31  32
ATOM     32  C   UNL A   1      42.098  18.767  26.250  1.00  0.00     0.202 C 
BRANCH  32  33
ATOM     33  C   UNL A   1      43.763  19.008  25.085  1.00  0.00     0.261 C 
BRANCH  33  34
ATOM     34  O   UNL A   1      44.323  20.778  24.660  1.00  0.00    -0.460 OA
BRANCH  34  35
ATOM     35  C   UNL A   1      43.797  22.368  25.149  1.00  0.00     0.338 C 
ATOM     36  O   UNL A   1      43.044  22.829  24.280  1.00  0.00    -0.246 OA
BRANCH  35  37
ATOM     37  C   UNL A   1      43.816  23.326  26.753  1.00  0.00     0.060 A 
ATOM     38  C   UNL A   1      43.629  24.700  27.051  1.00  0.00     0.016 A 
ATOM     39  C   UNL A   1      44.274  22.996  28.009  1.00  0.00     0.016 A 
ATOM     40  C   UNL A   1      44.481  25.658  28.067  1.00  0.00     0.010 A 
ATOM     41  C   UNL A   1      45.310  23.910  28.683  1.00  0.00     0.010 A 
ATOM     42  C   UNL A   1      45.609  25.292  28.775  1.00  0.00    -0.014 A 
BRANCH  42  43
ATOM     43  C   UNL A   1      47.207  26.105  29.072  1.00  0.00     0.031 A 
ATOM     44  C   UNL A   1      48.823  25.920  28.226  1.00  0.00     0.074 A 
ATOM     45  C   UNL A   1      47.153  27.235  29.857  1.00  0.00     0.049 A 
ATOM     46  N   UNL A   1      49.866  25.122  28.470  1.00  0.00    -0.248 NA
ATOM     47  C   UNL A   1      49.230  26.565  26.862  1.00  0.00     0.031 C 
ATOM     48  C   UNL A   1      48.140  28.311  30.125  1.00  0.00     0.029 A 
ATOM     49  N   UNL A   1      46.080  27.679  30.646  1.00  0.00    -0.354 N 
ATOM     50  C   UNL A   1      50.839  25.313  27.373  1.00  0.00     0.074 A 
ATOM     51  C   UNL A   1      50.055  25.712  26.266  1.00  0.00     0.031 C 
ATOM     52  C   UNL A   1      47.783  28.998  31.232  1.00  0.00     0.029 A 
ATOM     53  C   UNL A   1      46.624  28.315  31.775  1.00  0.00     0.049 A 
ATOM     54  H   UNL A   1      45.123  27.566  30.446  1.00  0.00     0.167 HD
ATOM     55  C   UNL A   1      51.993  26.100  27.409  1.00  0.00     0.031 A 
ATOM     56  C   UNL A   1      46.581  27.572  32.915  1.00  0.00     0.031 A 
ATOM     57  C   UNL A   1      51.918  26.953  28.571  1.00  0.00     0.049 A 
ATOM     58  C   UNL A   1      47.972  26.985  33.140  1.00  0.00     0.074 A 
ATOM     59  C   UNL A   1      51.733  28.303  28.802  1.00  0.00     0.029 A 
ATOM     60  N   UNL A   1      51.666  26.309  29.748  1.00  0.00    -0.354 N 
ATOM     61  N   UNL A   1      48.868  26.782  32.199  1.00  0.00    -0.248 NA
ATOM     62  C   UNL A   1      48.543  26.826  34.469  1.00  0.00     0.031 C 
ATOM     63  C   UNL A   1      51.414  28.445  30.191  1.00  0.00     0.029 A 
ATOM     64  C   UNL A   1      51.370  27.177  30.754  1.00  0.00     0.049 A 
ATOM     65  H   UNL A   1      51.696  25.331  29.857  1.00  0.00     0.167 HD
ATOM     66  C   UNL A   1      50.109  26.619  32.757  1.00  0.00     0.074 A 
ATOM     67  C   UNL A   1      49.840  26.620  34.182  1.00  0.00     0.031 C 
ATOM     68  C   UNL A   1      51.290  26.580  32.068  1.00  0.00     0.031 A 
BRANCH  55  69
ATOM     69  C   UNL A   1      52.913  26.485  26.188  1.00  0.00    -0.014 A 
ATOM     70  C   UNL A   1      52.855  27.803  25.674  1.00  0.00     0.010 A 
ATOM     71  C   UNL A   1      53.866  25.647  25.548  1.00  0.00     0.010 A 
ATOM     72  C   UNL A   1      53.670  28.260  24.614  1.00  0.00     0.020 A 
ATOM     73  C   UNL A   1      54.670  26.083  24.459  1.00  0.00     0.020 A 
ATOM     74  C   UNL A   1      54.583  27.399  24.015  1.00  0.00     0.054 A 
BRANCH  74  75
ATOM     75  S   UNL A   1      55.692  28.055  22.723  1.00  0.00     0.124 S 
ATOM     76  O   UNL A   1      54.774  28.783  21.850  1.00  0.00    -0.237 OA
ATOM     77  O   UNL A   1      56.615  28.885  23.493  1.00  0.00    -0.237 OA
ATOM     78  O   UNL A   1      56.284  26.857  22.130  1.00  0.00    -0.744 OA
ENDBRANCH  74  75
ENDBRANCH  55  69
BRANCH  56  79
ATOM     79  C   UNL A   1      45.175  27.024  33.077  1.00  0.00    -0.014 A 
ATOM     80  C   UNL A   1      45.107  25.619  33.312  1.00  0.00     0.010 A 
ATOM     81  C   UNL A   1      44.061  27.778  33.478  1.00  0.00     0.010 A 
ATOM     82  C   UNL A   1      44.098  25.036  34.090  1.00  0.00     0.020 A 
ATOM     83  C   UNL A   1      42.969  27.158  34.165  1.00  0.00     0.020 A 
ATOM     84  C   UNL A   1      43.041  25.810  34.538  1.00  0.00     0.054 A 
BRANCH  84  85
ATOM     85  S   UNL A   1      41.931  25.020  35.766  1.00  0.00     0.124 S 
ATOM     86  O   UNL A   1      40.710  25.807  35.654  1.00  0.00    -0.237 OA
ATOM     87  O   UNL A   1      41.843  23.661  35.228  1.00  0.00    -0.237 OA
ATOM     88  O   UNL A   1      42.635  25.172  37.037  1.00  0.00    -0.744 OA
ENDBRANCH  84  85
ENDBRANCH  56  79
BRANCH  68  89
ATOM     89  C   UNL A   1      52.539  25.836  32.533  1.00  0.00    -0.014 A 
ATOM     90  C   UNL A   1      53.682  26.486  32.990  1.00  0.00     0.010 A 
ATOM     91  C   UNL A   1      52.520  24.416  32.694  1.00  0.00     0.010 A 
ATOM     92  C   UNL A   1      54.781  25.772  33.467  1.00  0.00     0.020 A 
ATOM     93  C   UNL A   1      53.564  23.701  33.276  1.00  0.00     0.020 A 
ATOM     94  C   UNL A   1      54.716  24.387  33.604  1.00  0.00     0.054 A 
BRANCH  94  95
ATOM     95  S   UNL A   1      56.171  23.510  34.192  1.00  0.00     0.124 S 
ATOM     96  O   UNL A   1      56.850  23.202  32.936  1.00  0.00    -0.237 OA
ATOM     97  O   UNL A   1      56.826  24.510  35.030  1.00  0.00    -0.237 OA
ATOM     98  O   UNL A   1      55.626  22.360  34.908  1.00  0.00    -0.744 OA
ENDBRANCH  94  95
ENDBRANCH  68  89
ENDBRANCH  42  43
ENDBRANCH  35  37
ENDBRANCH  34  35
ENDBRANCH  33  34
ENDBRANCH  32  33
ENDBRANCH  31  32
ENDBRANCH   1  31
TORSDOF 21
ENDMDL
MODEL 3
REMARK VINA RESULT:     -12.9      8.484     15.977
REMARK SMILES Cc1ccccc1[C@@H]1[NH2+][C@H](C(=O)OCCOCCOCCOC(=O)c2ccc(-c3c4nc(c(-c5ccc(S(=O)(=O)[O-])cc5)c5ccc([nH]5)c(-c5ccc(S(=O)(=O)[O-])cc5)c5nc(c(-c6ccc(S(=O)(=O)[O-])cc6)c6ccc3[nH]6)C=C5)C=C4)cc2)CC2=c3ccccc3=N[C@@H]21
REMARK SMILES IDX 18 1 17 2 16 3 15 4 14 5 13 6 11 7 12 8 10 9 8 10 9 11 94 12
REMARK SMILES IDX 86 15 93 16 85 17 87 18 92 19 88 20 91 21 89 22 90 23 7 24
REMARK SMILES IDX 1 25 2 26 3 27 4 28 6 29 5 30 19 31 20 32 21 33 22 34 23 35
REMARK SMILES IDX 24 36 25 37 26 38 84 39 27 40 83 41 28 42 29 43 30 44 77 45
REMARK SMILES IDX 31 46 82 47 76 48 78 49 32 50 81 51 75 52 74 53 33 55 63 56
REMARK SMILES IDX 44 57 62 58 45 59 48 60 61 61 79 62 46 63 47 64 60 66 80 67
REMARK SMILES IDX 49 68 34 69 35 70 43 71 36 72 42 73 37 74 38 75 39 76 40 77
REMARK SMILES IDX 41 78 64 79 65 80 73 81 66 82 72 83 67 84 68 85 69 86 70 87
REMARK SMILES IDX 71 88 50 89 51 90 59 91 52 92 58 93 53 94 54 95 55 96 56 97
REMARK SMILES IDX 57 98
REMARK H PARENT 9 13 9 14 78 54 48 65
REMARK Flexibility Score: inf
ROOT
ATOM      1  C   UNL A   1      41.829  22.068  26.204  1.00  0.00     0.188 C 
ENDROOT
BRANCH   1   2
ATOM      2  C   UNL A   1      40.344  22.101  25.977  1.00  0.00     0.188 C 
BRANCH   2   3
ATOM      3  O   UNL A   1      39.620  20.919  25.804  1.00  0.00    -0.376 OA
BRANCH   3   4
ATOM      4  C   UNL A   1      38.248  21.191  25.845  1.00  0.00     0.202 C 
BRANCH   4   5
ATOM      5  C   UNL A   1      37.614  22.326  25.028  1.00  0.00     0.261 C 
BRANCH   5   6
ATOM      6  O   UNL A   1      36.625  23.324  25.651  1.00  0.00    -0.459 OA
BRANCH   6   7
ATOM      7  C   UNL A   1      35.605  24.356  25.346  1.00  0.00     0.365 C 
ATOM      8  O   UNL A   1      35.431  25.192  24.460  1.00  0.00    -0.245 OA
BRANCH   7   9
ATOM      9  C   UNL A   1      34.458  23.985  26.126  1.00  0.00     0.298 C 
ATOM     10  C   UNL A   1      32.349  24.839  26.093  1.00  0.00     0.243 C 
ATOM     11  N   UNL A   1      33.363  24.303  25.203  1.00  0.00    -0.326 N 
ATOM     12  C   UNL A   1      31.857  23.371  26.772  1.00  0.00     0.196 C 
ATOM     13  H   UNL A   1      33.652  24.994  24.512  1.00  0.00     0.347 HD
ATOM     14  H   UNL A   1      33.045  23.500  24.659  1.00  0.00     0.347 HD
ATOM     15  C   UNL A   1      33.108  22.346  27.026  1.00  0.00    -0.024 C 
ATOM     16  N   UNL A   1      31.092  22.595  25.772  1.00  0.00    -0.270 NA
ATOM     17  C   UNL A   1      34.495  22.871  27.162  1.00  0.00     0.111 C 
ATOM     18  C   UNL A   1      33.008  21.216  26.323  1.00  0.00     0.002 A 
ATOM     19  C   UNL A   1      31.830  21.551  25.508  1.00  0.00     0.066 A 
ATOM     20  C   UNL A   1      34.060  20.338  25.840  1.00  0.00     0.010 A 
ATOM     21  C   UNL A   1      31.699  20.765  24.267  1.00  0.00     0.028 A 
ATOM     22  C   UNL A   1      33.941  19.811  24.613  1.00  0.00     0.001 A 
ATOM     23  C   UNL A   1      32.726  20.004  23.847  1.00  0.00     0.002 A 
BRANCH  10  24
ATOM     24  C   UNL A   1      32.168  26.640  25.736  1.00  0.00     0.015 A 
ATOM     25  C   UNL A   1      29.518  26.064  23.823  1.00  0.00     0.045 C 
ATOM     26  C   UNL A   1      30.933  27.400  24.670  1.00  0.00    -0.042 A 
ATOM     27  C   UNL A   1      30.906  28.808  24.710  1.00  0.00     0.004 A 
ATOM     28  C   UNL A   1      31.784  29.449  25.639  1.00  0.00     0.000 A 
ATOM     29  C   UNL A   1      32.877  27.410  26.644  1.00  0.00     0.010 A 
ATOM     30  C   UNL A   1      32.682  28.792  26.570  1.00  0.00     0.001 A 
ENDBRANCH  10  24
ENDBRANCH   7   9
ENDBRANCH   6   7
ENDBRANCH   5   6
ENDBRANCH   4   5
ENDBRANCH   3   4
ENDBRANCH   2   3
ENDBRANCH   1   2
BRANCH   1  31
ATOM     31  O   UNL A   1      43.389  22.433  25.264  1.00  0.00    -0.376 OA
BRANCH  31  32
ATOM     32  C   UNL A   1      44.770  23.631  26.128  1.00  0.00     0.202 C 
BRANCH  32  33
ATOM     33  C   UNL A   1      44.955  25.285  24.936  1.00  0.00     0.261 C 
BRANCH  33  34
ATOM     34  O   UNL A   1      44.204  26.927  25.541  1.00  0.00    -0.460 OA
BRANCH  34  35
ATOM     35  C   UNL A   1      42.841  27.340  26.548  1.00  0.00     0.338 C 
ATOM     36  O   UNL A   1      41.979  27.899  25.854  1.00  0.00    -0.246 OA
BRANCH  35  37
ATOM     37  C   UNL A   1      42.262  26.837  28.252  1.00  0.00     0.060 A 
ATOM     38  C   UNL A   1      40.972  26.665  28.815  1.00  0.00     0.016 A 
ATOM     39  C   UNL A   1      42.925  26.766  29.457  1.00  0.00     0.016 A 
ATOM     40  C   UNL A   1      40.410  27.152  30.272  1.00  0.00     0.010 A 
ATOM     41  C   UNL A   1      42.364  27.547  30.657  1.00  0.00     0.010 A 
ATOM     42  C   UNL A   1      41.104  27.901  31.201  1.00  0.00    -0.014 A 
BRANCH  42  43
ATOM     43  C   UNL A   1      40.657  29.334  32.226  1.00  0.00     0.031 A 
ATOM     44  C   UNL A   1      39.554  30.757  31.883  1.00  0.00     0.074 A 
ATOM     45  C   UNL A   1      40.954  29.212  33.565  1.00  0.00     0.049 A 
ATOM     46  N   UNL A   1      39.797  31.964  31.365  1.00  0.00    -0.248 NA
ATOM     47  C   UNL A   1      37.993  30.754  31.957  1.00  0.00     0.031 C 
ATOM     48  C   UNL A   1      40.542  30.001  34.753  1.00  0.00     0.029 A 
ATOM     49  N   UNL A   1      41.771  28.249  34.177  1.00  0.00    -0.354 N 
ATOM     50  C   UNL A   1      38.497  32.646  31.194  1.00  0.00     0.074 A 
ATOM     51  C   UNL A   1      37.563  31.598  31.026  1.00  0.00     0.031 C 
ATOM     52  C   UNL A   1      41.368  29.738  35.789  1.00  0.00     0.029 A 
ATOM     53  C   UNL A   1      42.404  28.867  35.269  1.00  0.00     0.049 A 
ATOM     54  H   UNL A   1      41.880  27.312  33.894  1.00  0.00     0.167 HD
ATOM     55  C   UNL A   1      37.940  33.607  32.043  1.00  0.00     0.031 A 
ATOM     56  C   UNL A   1      43.707  29.195  35.053  1.00  0.00     0.031 A 
ATOM     57  C   UNL A   1      38.682  33.594  33.281  1.00  0.00     0.049 A 
ATOM     58  C   UNL A   1      43.766  30.691  34.755  1.00  0.00     0.074 A 
ATOM     59  C   UNL A   1      38.438  33.195  34.582  1.00  0.00     0.029 A 
ATOM     60  N   UNL A   1      40.036  33.710  33.148  1.00  0.00    -0.354 N 
ATOM     61  N   UNL A   1      42.771  31.408  34.282  1.00  0.00    -0.248 NA
ATOM     62  C   UNL A   1      44.865  31.531  35.209  1.00  0.00     0.031 C 
ATOM     63  C   UNL A   1      39.708  33.133  35.242  1.00  0.00     0.029 A 
ATOM     64  C   UNL A   1      40.689  33.451  34.314  1.00  0.00     0.049 A 
ATOM     65  H   UNL A   1      40.487  33.952  32.308  1.00  0.00     0.167 HD
ATOM     66  C   UNL A   1      43.009  32.741  34.490  1.00  0.00     0.074 A 
ATOM     67  C   UNL A   1      44.350  32.761  35.040  1.00  0.00     0.031 C 
ATOM     68  C   UNL A   1      42.103  33.749  34.297  1.00  0.00     0.031 A 
BRANCH  55  69
ATOM     69  C   UNL A   1      36.472  34.176  31.993  1.00  0.00    -0.014 A 
ATOM     70  C   UNL A   1      35.977  34.899  33.105  1.00  0.00     0.010 A 
ATOM     71  C   UNL A   1      35.566  34.088  30.902  1.00  0.00     0.010 A 
ATOM     72  C   UNL A   1      34.693  35.487  33.142  1.00  0.00     0.020 A 
ATOM     73  C   UNL A   1      34.259  34.646  30.935  1.00  0.00     0.020 A 
ATOM     74  C   UNL A   1      33.839  35.367  32.050  1.00  0.00     0.054 A 
BRANCH  74  75
ATOM     75  S   UNL A   1      32.233  36.231  32.091  1.00  0.00     0.124 S 
ATOM     76  O   UNL A   1      31.312  35.177  32.512  1.00  0.00    -0.237 OA
ATOM     77  O   UNL A   1      32.468  37.286  33.073  1.00  0.00    -0.237 OA
ATOM     78  O   UNL A   1      32.050  36.694  30.716  1.00  0.00    -0.744 OA
ENDBRANCH  74  75
ENDBRANCH  55  69
BRANCH  56  79
ATOM     79  C   UNL A   1      44.416  27.984  34.474  1.00  0.00    -0.014 A 
ATOM     80  C   UNL A   1      44.676  26.942  35.412  1.00  0.00     0.010 A 
ATOM     81  C   UNL A   1      44.398  27.614  33.120  1.00  0.00     0.010 A 
ATOM     82  C   UNL A   1      44.698  25.590  35.045  1.00  0.00     0.020 A 
ATOM     83  C   UNL A   1      44.545  26.244  32.735  1.00  0.00     0.020 A 
ATOM     84  C   UNL A   1      44.608  25.238  33.708  1.00  0.00     0.054 A 
BRANCH  84  85
ATOM     85  S   UNL A   1      44.370  23.453  33.362  1.00  0.00     0.124 S 
ATOM     86  O   UNL A   1      44.249  23.417  31.910  1.00  0.00    -0.237 OA
ATOM     87  O   UNL A   1      45.616  22.897  33.893  1.00  0.00    -0.237 OA
ATOM     88  O   UNL A   1      43.145  23.107  34.079  1.00  0.00    -0.744 OA
ENDBRANCH  84  85
ENDBRANCH  56  79
BRANCH  68  89
ATOM     89  C   UNL A   1      42.472  35.186  33.940  1.00  0.00    -0.014 A 
ATOM     90  C   UNL A   1      42.330  36.248  34.829  1.00  0.00     0.010 A 
ATOM     91  C   UNL A   1      43.160  35.478  32.721  1.00  0.00     0.010 A 
ATOM     92  C   UNL A   1      42.737  37.538  34.489  1.00  0.00     0.020 A 
ATOM     93  C   UNL A   1      43.676  36.736  32.419  1.00  0.00     0.020 A 
ATOM     94  C   UNL A   1      43.403  37.774  33.288  1.00  0.00     0.054 A 
BRANCH  94  95
ATOM     95  S   UNL A   1      43.877  39.460  32.882  1.00  0.00     0.124 S 
ATOM     96  O   UNL A   1      45.158  39.574  33.573  1.00  0.00    -0.237 OA
ATOM     97  O   UNL A   1      43.951  39.424  31.424  1.00  0.00    -0.237 OA
ATOM     98  O   UNL A   1      42.795  40.272  33.429  1.00  0.00    -0.744 OA
ENDBRANCH  94  95
ENDBRANCH  68  89
ENDBRANCH  42  43
ENDBRANCH  35  37
ENDBRANCH  34  35
ENDBRANCH  33  34
ENDBRANCH  32  33
ENDBRANCH  31  32
ENDBRANCH   1  31
TORSDOF 21
ENDMDL
