MODEL 1
REMARK VINA RESULT:      -8.6      0.000      0.000
REMARK SMILES O=C(OCCOCCOCCOC(=O)[C@@H](CCOCCO)c1cccc(F)c1)c1ccc(-c2c3nc(c(-c4ccc(S(=O)(=O)[O-])cc4)c4ccc([nH]4)c(-c4ccc(S(=O)(=O)[O-])cc4)c4nc(c(-c5ccc(S(=O)(=O)[O-])cc5)c5ccc2[nH]5)C=C4)C=C3)cc1
REMARK SMILES IDX 9 1 8 2 7 3 6 4 5 5 4 6 3 7 2 8 1 9 29 10 30 11 88 12 31 13
REMARK SMILES IDX 87 14 32 15 33 16 34 17 81 18 35 19 86 20 80 21 82 22 36 23
REMARK SMILES IDX 85 24 79 25 78 26 37 28 67 29 48 30 66 31 49 32 52 33 65 34
REMARK SMILES IDX 83 35 50 36 51 37 64 39 84 40 53 41 38 42 39 43 47 44 40 45
REMARK SMILES IDX 46 46 41 47 42 48 43 49 44 50 45 51 68 52 69 53 77 54 70 55
REMARK SMILES IDX 76 56 71 57 72 58 73 59 74 60 75 61 54 62 55 63 63 64 56 65
REMARK SMILES IDX 62 66 57 67 58 68 59 69 60 70 61 71 10 72 11 73 12 74 13 75
REMARK SMILES IDX 14 76 15 77 16 78 17 79 18 80 19 81 20 82 21 83 22 85 23 86
REMARK SMILES IDX 28 87 24 88 26 89 25 90 27 91
REMARK H PARENT 82 27 52 38 21 84
REMARK Flexibility Score: inf
ROOT
ATOM      1  O   UNL A   1      33.401  29.430  26.755  1.00  0.00    -0.376 OA
ENDROOT
BRANCH   1   2
ATOM      2  C   UNL A   1      33.742  30.734  27.226  1.00  0.00     0.188 C 
BRANCH   2   3
ATOM      3  C   UNL A   1      35.209  30.918  27.609  1.00  0.00     0.188 C 
BRANCH   3   4
ATOM      4  O   UNL A   1      35.539  32.300  27.814  1.00  0.00    -0.376 OA
BRANCH   4   5
ATOM      5  C   UNL A   1      36.672  32.477  28.672  1.00  0.00     0.202 C 
BRANCH   5   6
ATOM      6  C   UNL A   1      36.467  32.052  30.135  1.00  0.00     0.261 C 
BRANCH   6   7
ATOM      7  O   UNL A   1      37.369  31.029  30.585  1.00  0.00    -0.460 OA
BRANCH   7   8
ATOM      8  C   UNL A   1      37.642  29.810  30.062  1.00  0.00     0.338 C 
ATOM      9  O   UNL A   1      36.745  28.967  30.098  1.00  0.00    -0.246 OA
BRANCH   8  10
ATOM     10  C   UNL A   1      38.947  29.404  29.439  1.00  0.00     0.060 A 
ATOM     11  C   UNL A   1      40.079  28.965  30.122  1.00  0.00     0.016 A 
ATOM     12  C   UNL A   1      39.033  29.485  28.030  1.00  0.00     0.016 A 
ATOM     13  C   UNL A   1      41.271  28.704  29.450  1.00  0.00     0.010 A 
ATOM     14  C   UNL A   1      40.221  29.197  27.342  1.00  0.00     0.010 A 
ATOM     15  C   UNL A   1      41.357  28.838  28.062  1.00  0.00    -0.014 A 
BRANCH  15  16
ATOM     16  C   UNL A   1      42.711  28.755  27.479  1.00  0.00     0.031 A 
ATOM     17  C   UNL A   1      43.674  29.851  27.818  1.00  0.00     0.074 A 
ATOM     18  C   UNL A   1      43.119  27.615  26.893  1.00  0.00     0.049 A 
ATOM     19  N   UNL A   1      44.967  29.886  27.665  1.00  0.00    -0.248 NA
ATOM     20  C   UNL A   1      43.099  31.063  28.430  1.00  0.00     0.031 C 
ATOM     21  C   UNL A   1      42.252  26.487  26.569  1.00  0.00     0.029 A 
ATOM     22  N   UNL A   1      44.374  27.176  26.555  1.00  0.00    -0.354 N 
ATOM     23  C   UNL A   1      45.364  31.126  28.150  1.00  0.00     0.074 A 
ATOM     24  C   UNL A   1      44.178  31.808  28.615  1.00  0.00     0.031 C 
ATOM     25  C   UNL A   1      43.006  25.441  26.197  1.00  0.00     0.029 A 
ATOM     26  C   UNL A   1      44.407  25.844  26.198  1.00  0.00     0.049 A 
ATOM     27  H   UNL A   1      45.170  27.753  26.565  1.00  0.00     0.167 HD
ATOM     28  C   UNL A   1      46.610  31.653  28.172  1.00  0.00     0.031 A 
ATOM     29  C   UNL A   1      45.454  25.044  25.920  1.00  0.00     0.031 A 
ATOM     30  C   UNL A   1      47.759  30.977  27.641  1.00  0.00     0.049 A 
ATOM     31  C   UNL A   1      46.829  25.655  25.960  1.00  0.00     0.074 A 
ATOM     32  C   UNL A   1      49.042  31.457  27.460  1.00  0.00     0.029 A 
ATOM     33  N   UNL A   1      47.754  29.659  27.200  1.00  0.00    -0.354 N 
ATOM     34  N   UNL A   1      47.180  26.865  26.335  1.00  0.00    -0.248 NA
ATOM     35  C   UNL A   1      47.942  24.812  25.510  1.00  0.00     0.031 C 
ATOM     36  C   UNL A   1      49.805  30.439  26.873  1.00  0.00     0.029 A 
ATOM     37  C   UNL A   1      49.010  29.310  26.741  1.00  0.00     0.049 A 
ATOM     38  H   UNL A   1      46.972  29.063  27.212  1.00  0.00     0.167 HD
ATOM     39  C   UNL A   1      48.549  26.943  26.118  1.00  0.00     0.074 A 
ATOM     40  C   UNL A   1      48.972  25.635  25.654  1.00  0.00     0.031 C 
ATOM     41  C   UNL A   1      49.380  28.006  26.251  1.00  0.00     0.031 A 
BRANCH  28  42
ATOM     42  C   UNL A   1      46.740  33.056  28.689  1.00  0.00    -0.014 A 
ATOM     43  C   UNL A   1      46.636  34.167  27.832  1.00  0.00     0.010 A 
ATOM     44  C   UNL A   1      47.017  33.264  30.053  1.00  0.00     0.010 A 
ATOM     45  C   UNL A   1      46.840  35.459  28.325  1.00  0.00     0.020 A 
ATOM     46  C   UNL A   1      47.200  34.555  30.553  1.00  0.00     0.020 A 
ATOM     47  C   UNL A   1      47.128  35.644  29.682  1.00  0.00     0.054 A 
BRANCH  47  48
ATOM     48  S   UNL A   1      47.394  37.330  30.297  1.00  0.00     0.124 S 
ATOM     49  O   UNL A   1      46.183  38.010  29.844  1.00  0.00    -0.237 OA
ATOM     50  O   UNL A   1      47.500  37.131  31.740  1.00  0.00    -0.237 OA
ATOM     51  O   UNL A   1      48.629  37.748  29.637  1.00  0.00    -0.744 OA
ENDBRANCH  47  48
ENDBRANCH  28  42
BRANCH  29  52
ATOM     52  C   UNL A   1      45.254  23.617  25.532  1.00  0.00    -0.014 A 
ATOM     53  C   UNL A   1      44.183  22.862  26.045  1.00  0.00     0.010 A 
ATOM     54  C   UNL A   1      46.155  22.994  24.649  1.00  0.00     0.010 A 
ATOM     55  C   UNL A   1      44.025  21.515  25.692  1.00  0.00     0.020 A 
ATOM     56  C   UNL A   1      45.986  21.658  24.273  1.00  0.00     0.020 A 
ATOM     57  C   UNL A   1      44.928  20.921  24.804  1.00  0.00     0.054 A 
BRANCH  57  58
ATOM     58  S   UNL A   1      44.677  19.199  24.286  1.00  0.00     0.124 S 
ATOM     59  O   UNL A   1      44.300  19.356  22.883  1.00  0.00    -0.237 OA
ATOM     60  O   UNL A   1      45.984  18.591  24.522  1.00  0.00    -0.237 OA
ATOM     61  O   UNL A   1      43.617  18.726  25.172  1.00  0.00    -0.744 OA
ENDBRANCH  57  58
ENDBRANCH  29  52
BRANCH  41  62
ATOM     62  C   UNL A   1      50.809  27.796  25.841  1.00  0.00    -0.014 A 
ATOM     63  C   UNL A   1      51.731  27.225  26.736  1.00  0.00     0.010 A 
ATOM     64  C   UNL A   1      51.223  28.140  24.543  1.00  0.00     0.010 A 
ATOM     65  C   UNL A   1      53.059  27.040  26.353  1.00  0.00     0.020 A 
ATOM     66  C   UNL A   1      52.546  27.934  24.149  1.00  0.00     0.020 A 
ATOM     67  C   UNL A   1      53.459  27.403  25.063  1.00  0.00     0.054 A 
BRANCH  67  68
ATOM     68  S   UNL A   1      55.186  27.135  24.579  1.00  0.00     0.124 S 
ATOM     69  O   UNL A   1      55.167  27.518  23.170  1.00  0.00    -0.237 OA
ATOM     70  O   UNL A   1      55.914  28.039  25.467  1.00  0.00    -0.237 OA
ATOM     71  O   UNL A   1      55.399  25.713  24.837  1.00  0.00    -0.744 OA
ENDBRANCH  67  68
ENDBRANCH  41  62
ENDBRANCH  15  16
ENDBRANCH   8  10
ENDBRANCH   7   8
ENDBRANCH   6   7
ENDBRANCH   5   6
ENDBRANCH   4   5
ENDBRANCH   3   4
ENDBRANCH   2   3
ENDBRANCH   1   2
BRANCH   1  72
ATOM     72  C   UNL A   1      32.027  29.176  26.477  1.00  0.00     0.202 C 
BRANCH  72  73
ATOM     73  C   UNL A   1      31.453  27.903  27.101  1.00  0.00     0.261 C 
BRANCH  73  74
ATOM     74  O   UNL A   1      31.711  26.733  26.307  1.00  0.00    -0.463 OA
BRANCH  74  75
ATOM     75  C   UNL A   1      30.634  26.108  25.756  1.00  0.00     0.313 C 
ATOM     76  O   UNL A   1      29.749  25.570  26.417  1.00  0.00    -0.252 OA
BRANCH  75  77
ATOM     77  C   UNL A   1      30.642  26.123  24.222  1.00  0.00     0.131 C 
BRANCH  77  78
ATOM     78  C   UNL A   1      30.453  24.714  23.605  1.00  0.00     0.048 C 
BRANCH  78  79
ATOM     79  C   UNL A   1      31.657  23.766  23.490  1.00  0.00     0.161 C 
BRANCH  79  80
ATOM     80  O   UNL A   1      32.025  23.096  24.682  1.00  0.00    -0.379 OA
BRANCH  80  81
ATOM     81  C   UNL A   1      33.418  23.007  24.967  1.00  0.00     0.188 C 
BRANCH  81  82
ATOM     82  C   UNL A   1      34.088  24.334  25.338  1.00  0.00     0.184 C 
BRANCH  82  83
ATOM     83  O   UNL A   1      35.477  24.395  25.018  1.00  0.00    -0.394 OA
ATOM     84  H   UNL A   1      35.758  25.322  24.970  1.00  0.00     0.210 HD
ENDBRANCH  82  83
ENDBRANCH  81  82
ENDBRANCH  80  81
ENDBRANCH  79  80
ENDBRANCH  78  79
ENDBRANCH  77  78
BRANCH  77  85
ATOM     85  C   UNL A   1      29.833  27.263  23.599  1.00  0.00    -0.031 A 
ATOM     86  C   UNL A   1      30.448  28.301  22.871  1.00  0.00     0.005 A 
ATOM     87  C   UNL A   1      28.432  27.299  23.700  1.00  0.00     0.043 A 
ATOM     88  C   UNL A   1      29.706  29.373  22.359  1.00  0.00     0.003 A 
ATOM     89  C   UNL A   1      27.701  28.366  23.184  1.00  0.00     0.123 A 
ATOM     90  C   UNL A   1      28.327  29.417  22.534  1.00  0.00     0.039 A 
ATOM     91  F   UNL A   1      26.370  28.360  23.317  1.00  0.00    -0.207 F 
ENDBRANCH  77  85
ENDBRANCH  75  77
ENDBRANCH  74  75
ENDBRANCH  73  74
ENDBRANCH  72  73
ENDBRANCH   1  72
TORSDOF 27
ENDMDL
MODEL 2
REMARK VINA RESULT:      -8.5      7.091     12.548
REMARK SMILES O=C(OCCOCCOCCOC(=O)[C@@H](CCOCCO)c1cccc(F)c1)c1ccc(-c2c3nc(c(-c4ccc(S(=O)(=O)[O-])cc4)c4ccc([nH]4)c(-c4ccc(S(=O)(=O)[O-])cc4)c4nc(c(-c5ccc(S(=O)(=O)[O-])cc5)c5ccc2[nH]5)C=C4)C=C3)cc1
REMARK SMILES IDX 9 1 8 2 7 3 6 4 5 5 4 6 3 7 2 8 1 9 29 10 30 11 88 12 31 13
REMARK SMILES IDX 87 14 32 15 33 16 34 17 81 18 35 19 86 20 80 21 82 22 36 23
REMARK SMILES IDX 85 24 79 25 78 26 37 28 67 29 48 30 66 31 49 32 52 33 65 34
REMARK SMILES IDX 83 35 50 36 51 37 64 39 84 40 53 41 38 42 39 43 47 44 40 45
REMARK SMILES IDX 46 46 41 47 42 48 43 49 44 50 45 51 68 52 69 53 77 54 70 55
REMARK SMILES IDX 76 56 71 57 72 58 73 59 74 60 75 61 54 62 55 63 63 64 56 65
REMARK SMILES IDX 62 66 57 67 58 68 59 69 60 70 61 71 10 72 11 73 12 74 13 75
REMARK SMILES IDX 14 76 15 77 16 78 17 79 18 80 19 81 20 82 21 83 22 85 23 86
REMARK SMILES IDX 28 87 24 88 26 89 25 90 27 91
REMARK H PARENT 82 27 52 38 21 84
REMARK Flexibility Score: inf
ROOT
ATOM      1  O   UNL A   1      33.301  29.454  27.641  1.00  0.00    -0.376 OA
ENDROOT
BRANCH   1   2
ATOM      2  C   UNL A   1      33.740  30.734  27.186  1.00  0.00     0.188 C 
BRANCH   2   3
ATOM      3  C   UNL A   1      35.072  31.203  27.767  1.00  0.00     0.188 C 
BRANCH   3   4
ATOM      4  O   UNL A   1      35.216  32.630  27.695  1.00  0.00    -0.376 OA
BRANCH   4   5
ATOM      5  C   UNL A   1      35.151  33.259  28.979  1.00  0.00     0.202 C 
BRANCH   5   6
ATOM      6  C   UNL A   1      34.879  32.319  30.164  1.00  0.00     0.261 C 
BRANCH   6   7
ATOM      7  O   UNL A   1      34.014  32.871  31.169  1.00  0.00    -0.460 OA
BRANCH   7   8
ATOM      8  C   UNL A   1      34.228  33.078  32.491  1.00  0.00     0.338 C 
ATOM      9  O   UNL A   1      33.264  32.945  33.246  1.00  0.00    -0.246 OA
BRANCH   8  10
ATOM     10  C   UNL A   1      35.544  33.453  33.111  1.00  0.00     0.060 A 
ATOM     11  C   UNL A   1      36.050  34.744  33.242  1.00  0.00     0.016 A 
ATOM     12  C   UNL A   1      36.344  32.392  33.595  1.00  0.00     0.016 A 
ATOM     13  C   UNL A   1      37.327  34.970  33.748  1.00  0.00     0.010 A 
ATOM     14  C   UNL A   1      37.621  32.614  34.133  1.00  0.00     0.010 A 
ATOM     15  C   UNL A   1      38.128  33.909  34.176  1.00  0.00    -0.014 A 
BRANCH  15  16
ATOM     16  C   UNL A   1      39.536  34.234  34.484  1.00  0.00     0.031 A 
ATOM     17  C   UNL A   1      40.490  34.311  33.332  1.00  0.00     0.074 A 
ATOM     18  C   UNL A   1      39.866  34.690  35.705  1.00  0.00     0.049 A 
ATOM     19  N   UNL A   1      41.687  34.825  33.289  1.00  0.00    -0.248 NA
ATOM     20  C   UNL A   1      40.022  33.750  32.052  1.00  0.00     0.031 C 
ATOM     21  C   UNL A   1      38.980  34.688  36.864  1.00  0.00     0.029 A 
ATOM     22  N   UNL A   1      40.994  35.329  36.152  1.00  0.00    -0.354 N 
ATOM     23  C   UNL A   1      42.123  34.640  31.983  1.00  0.00     0.074 A 
ATOM     24  C   UNL A   1      41.058  33.980  31.262  1.00  0.00     0.031 C 
ATOM     25  C   UNL A   1      39.540  35.403  37.852  1.00  0.00     0.029 A 
ATOM     26  C   UNL A   1      40.853  35.862  37.416  1.00  0.00     0.049 A 
ATOM     27  H   UNL A   1      41.821  35.400  35.624  1.00  0.00     0.167 HD
ATOM     28  C   UNL A   1      43.322  34.968  31.450  1.00  0.00     0.031 A 
ATOM     29  C   UNL A   1      41.688  36.644  38.129  1.00  0.00     0.031 A 
ATOM     30  C   UNL A   1      44.384  35.561  32.211  1.00  0.00     0.049 A 
ATOM     31  C   UNL A   1      43.011  36.999  37.507  1.00  0.00     0.074 A 
ATOM     32  C   UNL A   1      45.693  35.800  31.835  1.00  0.00     0.029 A 
ATOM     33  N   UNL A   1      44.251  36.012  33.518  1.00  0.00    -0.354 N 
ATOM     34  N   UNL A   1      43.448  36.736  36.296  1.00  0.00    -0.248 NA
ATOM     35  C   UNL A   1      43.967  37.723  38.353  1.00  0.00     0.031 C 
ATOM     36  C   UNL A   1      46.362  36.360  32.931  1.00  0.00     0.029 A 
ATOM     37  C   UNL A   1      45.455  36.521  33.968  1.00  0.00     0.049 A 
ATOM     38  H   UNL A   1      43.422  35.973  34.047  1.00  0.00     0.167 HD
ATOM     39  C   UNL A   1      44.748  37.220  36.252  1.00  0.00     0.074 A 
ATOM     40  C   UNL A   1      44.998  37.859  37.530  1.00  0.00     0.031 C 
ATOM     41  C   UNL A   1      45.670  37.115  35.263  1.00  0.00     0.031 A 
BRANCH  28  42
ATOM     42  C   UNL A   1      43.553  34.581  30.018  1.00  0.00    -0.014 A 
ATOM     43  C   UNL A   1      44.220  33.390  29.677  1.00  0.00     0.010 A 
ATOM     44  C   UNL A   1      43.132  35.450  28.994  1.00  0.00     0.010 A 
ATOM     45  C   UNL A   1      44.491  33.093  28.339  1.00  0.00     0.020 A 
ATOM     46  C   UNL A   1      43.383  35.146  27.655  1.00  0.00     0.020 A 
ATOM     47  C   UNL A   1      44.077  33.977  27.336  1.00  0.00     0.054 A 
BRANCH  47  48
ATOM     48  S   UNL A   1      44.446  33.571  25.607  1.00  0.00     0.124 S 
ATOM     49  O   UNL A   1      45.871  33.882  25.522  1.00  0.00    -0.237 OA
ATOM     50  O   UNL A   1      44.107  32.152  25.531  1.00  0.00    -0.237 OA
ATOM     51  O   UNL A   1      43.567  34.458  24.848  1.00  0.00    -0.744 OA
ENDBRANCH  47  48
ENDBRANCH  28  42
BRANCH  29  52
ATOM     52  C   UNL A   1      41.335  37.095  39.506  1.00  0.00    -0.014 A 
ATOM     53  C   UNL A   1      40.484  38.195  39.721  1.00  0.00     0.010 A 
ATOM     54  C   UNL A   1      41.869  36.429  40.624  1.00  0.00     0.010 A 
ATOM     55  C   UNL A   1      40.185  38.623  41.022  1.00  0.00     0.020 A 
ATOM     56  C   UNL A   1      41.553  36.836  41.924  1.00  0.00     0.020 A 
ATOM     57  C   UNL A   1      40.720  37.938  42.117  1.00  0.00     0.054 A 
BRANCH  57  58
ATOM     58  S   UNL A   1      40.270  38.445  43.802  1.00  0.00     0.124 S 
ATOM     59  O   UNL A   1      39.516  37.286  44.275  1.00  0.00    -0.237 OA
ATOM     60  O   UNL A   1      41.566  38.656  44.440  1.00  0.00    -0.237 OA
ATOM     61  O   UNL A   1      39.488  39.661  43.596  1.00  0.00    -0.744 OA
ENDBRANCH  57  58
ENDBRANCH  29  52
BRANCH  41  62
ATOM     62  C   UNL A   1      47.036  37.662  35.559  1.00  0.00    -0.014 A 
ATOM     63  C   UNL A   1      48.026  36.840  36.126  1.00  0.00     0.010 A 
ATOM     64  C   UNL A   1      47.341  38.996  35.239  1.00  0.00     0.010 A 
ATOM     65  C   UNL A   1      49.291  37.356  36.408  1.00  0.00     0.020 A 
ATOM     66  C   UNL A   1      48.613  39.509  35.498  1.00  0.00     0.020 A 
ATOM     67  C   UNL A   1      49.574  38.690  36.097  1.00  0.00     0.054 A 
BRANCH  67  68
ATOM     68  S   UNL A   1      51.230  39.335  36.454  1.00  0.00     0.124 S 
ATOM     69  O   UNL A   1      51.497  40.151  35.272  1.00  0.00    -0.237 OA
ATOM     70  O   UNL A   1      51.028  40.076  37.697  1.00  0.00    -0.237 OA
ATOM     71  O   UNL A   1      52.049  38.132  36.579  1.00  0.00    -0.744 OA
ENDBRANCH  67  68
ENDBRANCH  41  62
ENDBRANCH  15  16
ENDBRANCH   8  10
ENDBRANCH   7   8
ENDBRANCH   6   7
ENDBRANCH   5   6
ENDBRANCH   4   5
ENDBRANCH   3   4
ENDBRANCH   2   3
ENDBRANCH   1   2
BRANCH   1  72
ATOM     72  C   UNL A   1      33.639  28.326  26.838  1.00  0.00     0.202 C 
BRANCH  72  73
ATOM     73  C   UNL A   1      33.139  28.373  25.393  1.00  0.00     0.261 C 
BRANCH  73  74
ATOM     74  O   UNL A   1      31.704  28.367  25.304  1.00  0.00    -0.463 OA
BRANCH  74  75
ATOM     75  C   UNL A   1      31.089  27.151  25.315  1.00  0.00     0.313 C 
ATOM     76  O   UNL A   1      30.745  26.574  26.342  1.00  0.00    -0.252 OA
BRANCH  75  77
ATOM     77  C   UNL A   1      30.884  26.562  23.913  1.00  0.00     0.131 C 
BRANCH  77  78
ATOM     78  C   UNL A   1      30.700  27.648  22.823  1.00  0.00     0.048 C 
BRANCH  78  79
ATOM     79  C   UNL A   1      29.340  28.347  22.668  1.00  0.00     0.161 C 
BRANCH  79  80
ATOM     80  O   UNL A   1      29.296  29.400  21.722  1.00  0.00    -0.379 OA
BRANCH  80  81
ATOM     81  C   UNL A   1      28.272  30.375  21.891  1.00  0.00     0.188 C 
BRANCH  81  82
ATOM     82  C   UNL A   1      28.754  31.830  21.863  1.00  0.00     0.184 C 
BRANCH  82  83
ATOM     83  O   UNL A   1      27.735  32.775  21.535  1.00  0.00    -0.394 OA
ATOM     84  H   UNL A   1      27.370  33.153  22.350  1.00  0.00     0.210 HD
ENDBRANCH  82  83
ENDBRANCH  81  82
ENDBRANCH  80  81
ENDBRANCH  79  80
ENDBRANCH  78  79
ENDBRANCH  77  78
BRANCH  77  85
ATOM     85  C   UNL A   1      31.819  25.399  23.576  1.00  0.00    -0.031 A 
ATOM     86  C   UNL A   1      33.194  25.591  23.342  1.00  0.00     0.005 A 
ATOM     87  C   UNL A   1      31.342  24.078  23.521  1.00  0.00     0.043 A 
ATOM     88  C   UNL A   1      34.029  24.530  22.972  1.00  0.00     0.003 A 
ATOM     89  C   UNL A   1      32.180  23.026  23.157  1.00  0.00     0.123 A 
ATOM     90  C   UNL A   1      33.515  23.242  22.858  1.00  0.00     0.039 A 
ATOM     91  F   UNL A   1      31.676  21.788  23.107  1.00  0.00    -0.207 F 
ENDBRANCH  77  85
ENDBRANCH  75  77
ENDBRANCH  74  75
ENDBRANCH  73  74
ENDBRANCH  72  73
ENDBRANCH   1  72
TORSDOF 27
ENDMDL
MODEL 3
REMARK VINA RESULT:      -8.4      6.834     12.530
REMARK SMILES O=C(OCCOCCOCCOC(=O)[C@@H](CCOCCO)c1cccc(F)c1)c1ccc(-c2c3nc(c(-c4ccc(S(=O)(=O)[O-])cc4)c4ccc([nH]4)c(-c4ccc(S(=O)(=O)[O-])cc4)c4nc(c(-c5ccc(S(=O)(=O)[O-])cc5)c5ccc2[nH]5)C=C4)C=C3)cc1
REMARK SMILES IDX 9 1 8 2 7 3 6 4 5 5 4 6 3 7 2 8 1 9 29 10 30 11 88 12 31 13
REMARK SMILES IDX 87 14 32 15 33 16 34 17 81 18 35 19 86 20 80 21 82 22 36 23
REMARK SMILES IDX 85 24 79 25 78 26 37 28 67 29 48 30 66 31 49 32 52 33 65 34
REMARK SMILES IDX 83 35 50 36 51 37 64 39 84 40 53 41 38 42 39 43 47 44 40 45
REMARK SMILES IDX 46 46 41 47 42 48 43 49 44 50 45 51 68 52 69 53 77 54 70 55
REMARK SMILES IDX 76 56 71 57 72 58 73 59 74 60 75 61 54 62 55 63 63 64 56 65
REMARK SMILES IDX 62 66 57 67 58 68 59 69 60 70 61 71 10 72 11 73 12 74 13 75
REMARK SMILES IDX 14 76 15 77 16 78 17 79 18 80 19 81 20 82 21 83 22 85 23 86
REMARK SMILES IDX 28 87 24 88 26 89 25 90 27 91
REMARK H PARENT 82 27 52 38 21 84
REMARK Flexibility Score: inf
ROOT
ATOM      1  O   UNL A   1      32.534  29.410  26.478  1.00  0.00    -0.376 OA
ENDROOT
BRANCH   1   2
ATOM      2  C   UNL A   1      32.748  30.784  26.805  1.00  0.00     0.188 C 
BRANCH   2   3
ATOM      3  C   UNL A   1      33.935  31.050  27.728  1.00  0.00     0.188 C 
BRANCH   3   4
ATOM      4  O   UNL A   1      34.558  32.314  27.450  1.00  0.00    -0.376 OA
BRANCH   4   5
ATOM      5  C   UNL A   1      34.616  33.167  28.598  1.00  0.00     0.202 C 
BRANCH   5   6
ATOM      6  C   UNL A   1      35.139  32.510  29.886  1.00  0.00     0.261 C 
BRANCH   6   7
ATOM      7  O   UNL A   1      34.208  32.529  30.979  1.00  0.00    -0.460 OA
BRANCH   7   8
ATOM      8  C   UNL A   1      34.376  32.914  32.266  1.00  0.00     0.338 C 
ATOM      9  O   UNL A   1      33.377  32.927  32.987  1.00  0.00    -0.246 OA
BRANCH   8  10
ATOM     10  C   UNL A   1      35.681  33.324  32.888  1.00  0.00     0.060 A 
ATOM     11  C   UNL A   1      36.191  34.618  32.945  1.00  0.00     0.016 A 
ATOM     12  C   UNL A   1      36.464  32.294  33.458  1.00  0.00     0.016 A 
ATOM     13  C   UNL A   1      37.459  34.872  33.462  1.00  0.00     0.010 A 
ATOM     14  C   UNL A   1      37.731  32.545  34.007  1.00  0.00     0.010 A 
ATOM     15  C   UNL A   1      38.245  33.838  33.976  1.00  0.00    -0.014 A 
BRANCH  15  16
ATOM     16  C   UNL A   1      39.647  34.176  34.291  1.00  0.00     0.031 A 
ATOM     17  C   UNL A   1      40.600  34.296  33.142  1.00  0.00     0.074 A 
ATOM     18  C   UNL A   1      39.972  34.608  35.524  1.00  0.00     0.049 A 
ATOM     19  N   UNL A   1      41.790  34.829  33.111  1.00  0.00    -0.248 NA
ATOM     20  C   UNL A   1      40.140  33.760  31.849  1.00  0.00     0.031 C 
ATOM     21  C   UNL A   1      39.086  34.564  36.682  1.00  0.00     0.029 A 
ATOM     22  N   UNL A   1      41.090  35.253  35.985  1.00  0.00    -0.354 N 
ATOM     23  C   UNL A   1      42.227  34.683  31.801  1.00  0.00     0.074 A 
ATOM     24  C   UNL A   1      41.172  34.025  31.064  1.00  0.00     0.031 C 
ATOM     25  C   UNL A   1      39.636  35.263  37.687  1.00  0.00     0.029 A 
ATOM     26  C   UNL A   1      40.942  35.752  37.263  1.00  0.00     0.049 A 
ATOM     27  H   UNL A   1      41.916  35.349  35.459  1.00  0.00     0.167 HD
ATOM     28  C   UNL A   1      43.421  35.041  31.276  1.00  0.00     0.031 A 
ATOM     29  C   UNL A   1      41.764  36.530  37.993  1.00  0.00     0.031 A 
ATOM     30  C   UNL A   1      44.475  35.632  32.051  1.00  0.00     0.049 A 
ATOM     31  C   UNL A   1      43.082  36.919  37.381  1.00  0.00     0.074 A 
ATOM     32  C   UNL A   1      45.779  35.900  31.681  1.00  0.00     0.029 A 
ATOM     33  N   UNL A   1      44.335  36.049  33.369  1.00  0.00    -0.354 N 
ATOM     34  N   UNL A   1      43.523  36.693  36.164  1.00  0.00    -0.248 NA
ATOM     35  C   UNL A   1      44.028  37.637  38.244  1.00  0.00     0.031 C 
ATOM     36  C   UNL A   1      46.440  36.443  32.790  1.00  0.00     0.029 A 
ATOM     37  C   UNL A   1      45.531  36.565  33.831  1.00  0.00     0.049 A 
ATOM     38  H   UNL A   1      43.507  35.984  33.896  1.00  0.00     0.167 HD
ATOM     39  C   UNL A   1      44.815  37.197  36.131  1.00  0.00     0.074 A 
ATOM     40  C   UNL A   1      45.056  37.809  37.425  1.00  0.00     0.031 C 
ATOM     41  C   UNL A   1      45.738  37.130  35.140  1.00  0.00     0.031 A 
BRANCH  28  42
ATOM     42  C   UNL A   1      43.657  34.693  29.835  1.00  0.00    -0.014 A 
ATOM     43  C   UNL A   1      44.174  33.441  29.457  1.00  0.00     0.010 A 
ATOM     44  C   UNL A   1      43.397  35.656  28.843  1.00  0.00     0.010 A 
ATOM     45  C   UNL A   1      44.458  33.171  28.116  1.00  0.00     0.020 A 
ATOM     46  C   UNL A   1      43.660  35.383  27.499  1.00  0.00     0.020 A 
ATOM     47  C   UNL A   1      44.206  34.147  27.145  1.00  0.00     0.054 A 
BRANCH  47  48
ATOM     48  S   UNL A   1      44.588  33.776  25.411  1.00  0.00     0.124 S 
ATOM     49  O   UNL A   1      43.360  34.191  24.737  1.00  0.00    -0.237 OA
ATOM     50  O   UNL A   1      45.758  34.612  25.155  1.00  0.00    -0.237 OA
ATOM     51  O   UNL A   1      44.843  32.337  25.413  1.00  0.00    -0.744 OA
ENDBRANCH  47  48
ENDBRANCH  28  42
BRANCH  29  52
ATOM     52  C   UNL A   1      41.406  36.941  39.382  1.00  0.00    -0.014 A 
ATOM     53  C   UNL A   1      40.718  38.143  39.635  1.00  0.00     0.010 A 
ATOM     54  C   UNL A   1      41.769  36.132  40.474  1.00  0.00     0.010 A 
ATOM     55  C   UNL A   1      40.414  38.529  40.947  1.00  0.00     0.020 A 
ATOM     56  C   UNL A   1      41.445  36.500  41.783  1.00  0.00     0.020 A 
ATOM     57  C   UNL A   1      40.777  37.702  42.014  1.00  0.00     0.054 A 
BRANCH  57  58
ATOM     58  S   UNL A   1      40.313  38.165  43.708  1.00  0.00     0.124 S 
ATOM     59  O   UNL A   1      41.610  38.193  44.381  1.00  0.00    -0.237 OA
ATOM     60  O   UNL A   1      39.668  39.464  43.529  1.00  0.00    -0.237 OA
ATOM     61  O   UNL A   1      39.414  37.091  44.122  1.00  0.00    -0.744 OA
ENDBRANCH  57  58
ENDBRANCH  29  52
BRANCH  41  62
ATOM     62  C   UNL A   1      47.096  37.691  35.449  1.00  0.00    -0.014 A 
ATOM     63  C   UNL A   1      48.072  36.892  36.071  1.00  0.00     0.010 A 
ATOM     64  C   UNL A   1      47.407  39.012  35.087  1.00  0.00     0.010 A 
ATOM     65  C   UNL A   1      49.329  37.421  36.364  1.00  0.00     0.020 A 
ATOM     66  C   UNL A   1      48.672  39.536  35.358  1.00  0.00     0.020 A 
ATOM     67  C   UNL A   1      49.618  38.742  36.011  1.00  0.00     0.054 A 
BRANCH  67  68
ATOM     68  S   UNL A   1      51.264  39.404  36.384  1.00  0.00     0.124 S 
ATOM     69  O   UNL A   1      51.583  40.130  35.158  1.00  0.00    -0.237 OA
ATOM     70  O   UNL A   1      51.020  40.234  37.561  1.00  0.00    -0.237 OA
ATOM     71  O   UNL A   1      52.068  38.209  36.629  1.00  0.00    -0.744 OA
ENDBRANCH  67  68
ENDBRANCH  41  62
ENDBRANCH  15  16
ENDBRANCH   8  10
ENDBRANCH   7   8
ENDBRANCH   6   7
ENDBRANCH   5   6
ENDBRANCH   4   5
ENDBRANCH   3   4
ENDBRANCH   2   3
ENDBRANCH   1   2
BRANCH   1  72
ATOM     72  C   UNL A   1      33.072  28.944  25.244  1.00  0.00     0.202 C 
BRANCH  72  73
ATOM     73  C   UNL A   1      33.735  27.566  25.293  1.00  0.00     0.261 C 
BRANCH  73  74
ATOM     74  O   UNL A   1      33.839  26.956  23.996  1.00  0.00    -0.463 OA
BRANCH  74  75
ATOM     75  C   UNL A   1      33.811  25.595  23.949  1.00  0.00     0.313 C 
ATOM     76  O   UNL A   1      33.547  24.956  22.934  1.00  0.00    -0.252 OA
BRANCH  75  77
ATOM     77  C   UNL A   1      34.121  24.934  25.298  1.00  0.00     0.131 C 
BRANCH  77  78
ATOM     78  C   UNL A   1      32.853  24.679  26.150  1.00  0.00     0.048 C 
BRANCH  78  79
ATOM     79  C   UNL A   1      31.543  24.265  25.461  1.00  0.00     0.161 C 
BRANCH  79  80
ATOM     80  O   UNL A   1      30.408  25.046  25.782  1.00  0.00    -0.379 OA
BRANCH  80  81
ATOM     81  C   UNL A   1      30.291  26.309  25.134  1.00  0.00     0.188 C 
BRANCH  81  82
ATOM     82  C   UNL A   1      30.059  26.241  23.621  1.00  0.00     0.184 C 
BRANCH  82  83
ATOM     83  O   UNL A   1      31.047  26.923  22.849  1.00  0.00    -0.394 OA
ATOM     84  H   UNL A   1      31.917  26.807  23.262  1.00  0.00     0.210 HD
ENDBRANCH  82  83
ENDBRANCH  81  82
ENDBRANCH  80  81
ENDBRANCH  79  80
ENDBRANCH  78  79
ENDBRANCH  77  78
BRANCH  77  85
ATOM     85  C   UNL A   1      35.142  23.796  25.222  1.00  0.00    -0.031 A 
ATOM     86  C   UNL A   1      34.812  22.533  24.692  1.00  0.00     0.005 A 
ATOM     87  C   UNL A   1      36.468  23.981  25.649  1.00  0.00     0.043 A 
ATOM     88  C   UNL A   1      35.734  21.478  24.686  1.00  0.00     0.003 A 
ATOM     89  C   UNL A   1      37.381  22.929  25.635  1.00  0.00     0.123 A 
ATOM     90  C   UNL A   1      37.020  21.672  25.179  1.00  0.00     0.039 A 
ATOM     91  F   UNL A   1      38.628  23.152  26.063  1.00  0.00    -0.207 F 
ENDBRANCH  77  85
ENDBRANCH  75  77
ENDBRANCH  74  75
ENDBRANCH  73  74
ENDBRANCH  72  73
ENDBRANCH   1  72
TORSDOF 27
ENDMDL
