MODEL 1
REMARK VINA RESULT:     -10.0      0.000      0.000
REMARK SMILES O=C(OCCOCCOCCOC(=O)[C@@H]1C=C[C@H](NC(=O)[C@@H]2CCSC2)C1)c1ccc(-c2c3nc(c(-c4ccc(S(=O)(=O)[O-])cc4)c4ccc([nH]4)c(-c4ccc(S(=O)(=O)[O-])cc4)c4nc(c(-c5ccc(S(=O)(=O)[O-])cc5)c5ccc2[nH]5)C=C4)C=C3)cc1
REMARK SMILES IDX 7 1 6 2 5 3 4 4 3 5 2 6 1 7 28 8 29 9 87 10 30 11 86 12
REMARK SMILES IDX 31 13 32 14 33 15 80 16 34 17 85 18 79 19 81 20 35 21 84 22
REMARK SMILES IDX 78 23 77 24 36 26 66 27 47 28 65 29 48 30 51 31 64 32 82 33
REMARK SMILES IDX 49 34 50 35 63 37 83 38 52 39 37 40 38 41 46 42 39 43 45 44
REMARK SMILES IDX 40 45 41 46 42 47 43 48 44 49 67 50 68 51 76 52 69 53 75 54
REMARK SMILES IDX 70 55 71 56 72 57 73 58 74 59 53 60 54 61 62 62 55 63 61 64
REMARK SMILES IDX 56 65 57 66 58 67 59 68 60 69 8 70 9 71 10 72 11 73 12 74
REMARK SMILES IDX 13 75 14 76 15 77 16 78 27 79 17 80 18 81 19 82 20 83 21 85
REMARK SMILES IDX 22 86 23 87 26 88 24 89 25 90
REMARK H PARENT 81 25 51 36 19 84
REMARK Flexibility Score: inf
ROOT
ATOM      1  C   UNL A   1      39.923  22.128  26.437  1.00  0.00     0.188 C 
ENDROOT
BRANCH   1   2
ATOM      2  O   UNL A   1      41.226  22.048  25.860  1.00  0.00    -0.376 OA
BRANCH   2   3
ATOM      3  C   UNL A   1      42.333  21.974  26.756  1.00  0.00     0.202 C 
BRANCH   3   4
ATOM      4  C   UNL A   1      42.991  23.323  27.067  1.00  0.00     0.261 C 
BRANCH   4   5
ATOM      5  O   UNL A   1      42.930  24.258  25.974  1.00  0.00    -0.460 OA
BRANCH   5   6
ATOM      6  C   UNL A   1      42.286  25.439  25.911  1.00  0.00     0.338 C 
ATOM      7  O   UNL A   1      41.973  25.930  24.831  1.00  0.00    -0.246 OA
BRANCH   6   8
ATOM      8  C   UNL A   1      41.864  26.139  27.132  1.00  0.00     0.060 A 
ATOM      9  C   UNL A   1      42.853  27.184  28.048  1.00  0.00     0.016 A 
ATOM     10  C   UNL A   1      40.296  25.726  27.577  1.00  0.00     0.016 A 
ATOM     11  C   UNL A   1      42.469  27.850  29.551  1.00  0.00     0.010 A 
ATOM     12  C   UNL A   1      39.691  26.393  29.063  1.00  0.00     0.010 A 
ATOM     13  C   UNL A   1      40.863  27.535  30.204  1.00  0.00    -0.014 A 
BRANCH  13  14
ATOM     14  C   UNL A   1      40.882  28.483  31.520  1.00  0.00     0.031 A 
ATOM     15  C   UNL A   1      39.717  29.371  31.822  1.00  0.00     0.074 A 
ATOM     16  C   UNL A   1      41.725  28.413  32.587  1.00  0.00     0.049 A 
ATOM     17  N   UNL A   1      39.697  30.598  32.250  1.00  0.00    -0.248 NA
ATOM     18  C   UNL A   1      38.405  28.827  31.499  1.00  0.00     0.031 C 
ATOM     19  C   UNL A   1      42.744  27.405  32.843  1.00  0.00     0.029 A 
ATOM     20  N   UNL A   1      41.805  29.199  33.721  1.00  0.00    -0.354 N 
ATOM     21  C   UNL A   1      38.452  31.069  31.853  1.00  0.00     0.074 A 
ATOM     22  C   UNL A   1      37.761  29.960  31.244  1.00  0.00     0.031 C 
ATOM     23  C   UNL A   1      43.329  27.608  34.034  1.00  0.00     0.029 A 
ATOM     24  C   UNL A   1      42.775  28.811  34.625  1.00  0.00     0.049 A 
ATOM     25  H   UNL A   1      41.215  29.973  33.874  1.00  0.00     0.167 HD
ATOM     26  C   UNL A   1      37.975  32.326  31.998  1.00  0.00     0.031 A 
ATOM     27  C   UNL A   1      43.173  29.370  35.786  1.00  0.00     0.031 A 
ATOM     28  C   UNL A   1      38.473  33.158  33.060  1.00  0.00     0.049 A 
ATOM     29  C   UNL A   1      42.502  30.658  36.193  1.00  0.00     0.074 A 
ATOM     30  C   UNL A   1      37.994  34.365  33.529  1.00  0.00     0.029 A 
ATOM     31  N   UNL A   1      39.472  32.750  33.940  1.00  0.00    -0.354 N 
ATOM     32  N   UNL A   1      41.552  31.318  35.572  1.00  0.00    -0.248 NA
ATOM     33  C   UNL A   1      42.952  31.280  37.443  1.00  0.00     0.031 C 
ATOM     34  C   UNL A   1      38.668  34.654  34.725  1.00  0.00     0.029 A 
ATOM     35  C   UNL A   1      39.553  33.621  35.002  1.00  0.00     0.049 A 
ATOM     36  H   UNL A   1      40.037  31.953  33.818  1.00  0.00     0.167 HD
ATOM     37  C   UNL A   1      41.273  32.423  36.366  1.00  0.00     0.074 A 
ATOM     38  C   UNL A   1      42.136  32.322  37.528  1.00  0.00     0.031 C 
ATOM     39  C   UNL A   1      40.399  33.440  36.156  1.00  0.00     0.031 A 
BRANCH  26  40
ATOM     40  C   UNL A   1      36.903  32.818  31.058  1.00  0.00    -0.014 A 
ATOM     41  C   UNL A   1      37.173  33.417  29.818  1.00  0.00     0.010 A 
ATOM     42  C   UNL A   1      35.556  32.721  31.468  1.00  0.00     0.010 A 
ATOM     43  C   UNL A   1      36.154  34.017  29.073  1.00  0.00     0.020 A 
ATOM     44  C   UNL A   1      34.520  33.259  30.693  1.00  0.00     0.020 A 
ATOM     45  C   UNL A   1      34.832  33.938  29.517  1.00  0.00     0.054 A 
BRANCH  45  46
ATOM     46  S   UNL A   1      33.533  34.703  28.509  1.00  0.00     0.124 S 
ATOM     47  O   UNL A   1      33.011  33.557  27.767  1.00  0.00    -0.237 OA
ATOM     48  O   UNL A   1      32.631  35.256  29.516  1.00  0.00    -0.237 OA
ATOM     49  O   UNL A   1      34.251  35.692  27.709  1.00  0.00    -0.744 OA
ENDBRANCH  45  46
ENDBRANCH  26  40
BRANCH  27  50
ATOM     50  C   UNL A   1      44.245  28.750  36.633  1.00  0.00    -0.014 A 
ATOM     51  C   UNL A   1      45.572  29.224  36.584  1.00  0.00     0.010 A 
ATOM     52  C   UNL A   1      43.960  27.664  37.484  1.00  0.00     0.010 A 
ATOM     53  C   UNL A   1      46.586  28.614  37.336  1.00  0.00     0.020 A 
ATOM     54  C   UNL A   1      44.963  27.072  38.265  1.00  0.00     0.020 A 
ATOM     55  C   UNL A   1      46.273  27.540  38.175  1.00  0.00     0.054 A 
BRANCH  55  56
ATOM     56  S   UNL A   1      47.597  26.786  39.166  1.00  0.00     0.124 S 
ATOM     57  O   UNL A   1      47.950  25.618  38.366  1.00  0.00    -0.237 OA
ATOM     58  O   UNL A   1      48.598  27.849  39.211  1.00  0.00    -0.237 OA
ATOM     59  O   UNL A   1      46.947  26.498  40.443  1.00  0.00    -0.744 OA
ENDBRANCH  55  56
ENDBRANCH  27  50
BRANCH  39  60
ATOM     60  C   UNL A   1      40.279  34.466  37.240  1.00  0.00    -0.014 A 
ATOM     61  C   UNL A   1      41.054  35.637  37.215  1.00  0.00     0.010 A 
ATOM     62  C   UNL A   1      39.312  34.290  38.246  1.00  0.00     0.010 A 
ATOM     63  C   UNL A   1      40.874  36.612  38.194  1.00  0.00     0.020 A 
ATOM     64  C   UNL A   1      39.108  35.277  39.207  1.00  0.00     0.020 A 
ATOM     65  C   UNL A   1      39.897  36.429  39.179  1.00  0.00     0.054 A 
BRANCH  65  66
ATOM     66  S   UNL A   1      39.635  37.746  40.393  1.00  0.00     0.124 S 
ATOM     67  O   UNL A   1      38.666  38.598  39.711  1.00  0.00    -0.237 OA
ATOM     68  O   UNL A   1      39.125  37.014  41.551  1.00  0.00    -0.237 OA
ATOM     69  O   UNL A   1      40.964  38.327  40.567  1.00  0.00    -0.744 OA
ENDBRANCH  65  66
ENDBRANCH  39  60
ENDBRANCH  13  14
ENDBRANCH   6   8
ENDBRANCH   5   6
ENDBRANCH   4   5
ENDBRANCH   3   4
ENDBRANCH   2   3
ENDBRANCH   1   2
BRANCH   1  70
ATOM     70  C   UNL A   1      38.893  21.252  25.723  1.00  0.00     0.188 C 
BRANCH  70  71
ATOM     71  O   UNL A   1      37.516  21.576  25.809  1.00  0.00    -0.376 OA
BRANCH  71  72
ATOM     72  C   UNL A   1      37.055  22.762  25.189  1.00  0.00     0.202 C 
BRANCH  72  73
ATOM     73  C   UNL A   1      35.540  22.956  25.000  1.00  0.00     0.261 C 
BRANCH  73  74
ATOM     74  O   UNL A   1      34.646  22.144  25.791  1.00  0.00    -0.463 OA
BRANCH  74  75
ATOM     75  C   UNL A   1      33.975  21.195  25.083  1.00  0.00     0.312 C 
ATOM     76  O   UNL A   1      34.409  20.064  24.879  1.00  0.00    -0.252 OA
BRANCH  75  77
ATOM     77  C   UNL A   1      32.600  21.619  24.558  1.00  0.00     0.124 C 
ATOM     78  C   UNL A   1      32.472  22.507  23.367  1.00  0.00    -0.014 C 
ATOM     79  C   UNL A   1      31.688  22.288  25.605  1.00  0.00     0.048 C 
ATOM     80  C   UNL A   1      31.572  23.474  23.577  1.00  0.00    -0.006 C 
ATOM     81  C   UNL A   1      31.107  23.571  24.979  1.00  0.00     0.106 C 
BRANCH  81  82
ATOM     82  N   UNL A   1      31.610  24.793  25.611  1.00  0.00    -0.350 N 
ATOM     83  C   UNL A   1      30.830  25.938  25.699  1.00  0.00     0.224 C 
ATOM     84  H   UNL A   1      32.523  24.803  25.982  1.00  0.00     0.164 HD
ATOM     85  O   UNL A   1      30.079  26.060  26.666  1.00  0.00    -0.275 OA
BRANCH  83  86
ATOM     86  C   UNL A   1      30.991  27.056  24.482  1.00  0.00     0.089 C 
ATOM     87  C   UNL A   1      31.310  29.257  24.409  1.00  0.00     0.025 C 
ATOM     88  C   UNL A   1      29.238  26.698  23.582  1.00  0.00     0.083 C 
ATOM     89  C   UNL A   1      29.705  30.135  23.682  1.00  0.00     0.070 C 
ATOM     90  S   UNL A   1      28.190  28.629  22.842  1.00  0.00    -0.161 SA
ENDBRANCH  83  86
ENDBRANCH  81  82
ENDBRANCH  75  77
ENDBRANCH  74  75
ENDBRANCH  73  74
ENDBRANCH  72  73
ENDBRANCH  71  72
ENDBRANCH  70  71
ENDBRANCH   1  70
TORSDOF 22
ENDMDL
MODEL 2
REMARK VINA RESULT:     -10.0      5.068     10.879
REMARK SMILES O=C(OCCOCCOCCOC(=O)[C@@H]1C=C[C@H](NC(=O)[C@@H]2CCSC2)C1)c1ccc(-c2c3nc(c(-c4ccc(S(=O)(=O)[O-])cc4)c4ccc([nH]4)c(-c4ccc(S(=O)(=O)[O-])cc4)c4nc(c(-c5ccc(S(=O)(=O)[O-])cc5)c5ccc2[nH]5)C=C4)C=C3)cc1
REMARK SMILES IDX 7 1 6 2 5 3 4 4 3 5 2 6 1 7 28 8 29 9 87 10 30 11 86 12
REMARK SMILES IDX 31 13 32 14 33 15 80 16 34 17 85 18 79 19 81 20 35 21 84 22
REMARK SMILES IDX 78 23 77 24 36 26 66 27 47 28 65 29 48 30 51 31 64 32 82 33
REMARK SMILES IDX 49 34 50 35 63 37 83 38 52 39 37 40 38 41 46 42 39 43 45 44
REMARK SMILES IDX 40 45 41 46 42 47 43 48 44 49 67 50 68 51 76 52 69 53 75 54
REMARK SMILES IDX 70 55 71 56 72 57 73 58 74 59 53 60 54 61 62 62 55 63 61 64
REMARK SMILES IDX 56 65 57 66 58 67 59 68 60 69 8 70 9 71 10 72 11 73 12 74
REMARK SMILES IDX 13 75 14 76 15 77 16 78 27 79 17 80 18 81 19 82 20 83 21 85
REMARK SMILES IDX 22 86 23 87 26 88 24 89 25 90
REMARK H PARENT 81 25 51 36 19 84
REMARK Flexibility Score: inf
ROOT
ATOM      1  C   UNL A   1      34.378  32.041  27.996  1.00  0.00     0.188 C 
ENDROOT
BRANCH   1   2
ATOM      2  O   UNL A   1      33.648  33.254  27.811  1.00  0.00    -0.376 OA
BRANCH   2   3
ATOM      3  C   UNL A   1      34.270  34.463  28.244  1.00  0.00     0.202 C 
BRANCH   3   4
ATOM      4  C   UNL A   1      33.640  35.089  29.494  1.00  0.00     0.261 C 
BRANCH   4   5
ATOM      5  O   UNL A   1      33.733  34.254  30.664  1.00  0.00    -0.460 OA
BRANCH   5   6
ATOM      6  C   UNL A   1      34.670  34.262  31.631  1.00  0.00     0.338 C 
ATOM      7  O   UNL A   1      34.529  34.947  32.640  1.00  0.00    -0.246 OA
BRANCH   6   8
ATOM      8  C   UNL A   1      35.850  33.391  31.552  1.00  0.00     0.060 A 
ATOM      9  C   UNL A   1      37.163  33.623  30.488  1.00  0.00     0.016 A 
ATOM     10  C   UNL A   1      35.723  32.073  32.588  1.00  0.00     0.016 A 
ATOM     11  C   UNL A   1      38.437  32.545  30.234  1.00  0.00     0.010 A 
ATOM     12  C   UNL A   1      36.997  30.893  32.530  1.00  0.00     0.010 A 
ATOM     13  C   UNL A   1      38.491  31.088  31.223  1.00  0.00    -0.014 A 
BRANCH  13  14
ATOM     14  C   UNL A   1      39.923  30.473  30.774  1.00  0.00     0.031 A 
ATOM     15  C   UNL A   1      41.192  31.084  31.276  1.00  0.00     0.074 A 
ATOM     16  C   UNL A   1      40.167  29.271  30.184  1.00  0.00     0.049 A 
ATOM     17  N   UNL A   1      42.304  31.324  30.646  1.00  0.00    -0.248 NA
ATOM     18  C   UNL A   1      41.160  31.579  32.645  1.00  0.00     0.031 C 
ATOM     19  C   UNL A   1      39.206  28.212  29.908  1.00  0.00     0.029 A 
ATOM     20  N   UNL A   1      41.353  28.701  29.761  1.00  0.00    -0.354 N 
ATOM     21  C   UNL A   1      42.901  32.329  31.397  1.00  0.00     0.074 A 
ATOM     22  C   UNL A   1      42.054  32.555  32.541  1.00  0.00     0.031 C 
ATOM     23  C   UNL A   1      39.817  27.135  29.389  1.00  0.00     0.029 A 
ATOM     24  C   UNL A   1      41.227  27.433  29.228  1.00  0.00     0.049 A 
ATOM     25  H   UNL A   1      42.220  29.163  29.836  1.00  0.00     0.167 HD
ATOM     26  C   UNL A   1      44.051  32.981  31.111  1.00  0.00     0.031 A 
ATOM     27  C   UNL A   1      42.143  26.617  28.668  1.00  0.00     0.031 A 
ATOM     28  C   UNL A   1      45.056  32.334  30.311  1.00  0.00     0.049 A 
ATOM     29  C   UNL A   1      43.550  27.147  28.545  1.00  0.00     0.074 A 
ATOM     30  C   UNL A   1      46.365  32.705  30.076  1.00  0.00     0.029 A 
ATOM     31  N   UNL A   1      44.891  31.066  29.763  1.00  0.00    -0.354 N 
ATOM     32  N   UNL A   1      44.024  28.309  28.930  1.00  0.00    -0.248 NA
ATOM     33  C   UNL A   1      44.542  26.270  27.912  1.00  0.00     0.031 C 
ATOM     34  C   UNL A   1      47.003  31.631  29.438  1.00  0.00     0.029 A 
ATOM     35  C   UNL A   1      46.092  30.593  29.288  1.00  0.00     0.049 A 
ATOM     36  H   UNL A   1      44.037  30.578  29.723  1.00  0.00     0.167 HD
ATOM     37  C   UNL A   1      45.375  28.296  28.607  1.00  0.00     0.074 A 
ATOM     38  C   UNL A   1      45.646  26.996  28.023  1.00  0.00     0.031 C 
ATOM     39  C   UNL A   1      46.310  29.268  28.762  1.00  0.00     0.031 A 
BRANCH  26  40
ATOM     40  C   UNL A   1      44.268  34.365  31.669  1.00  0.00    -0.014 A 
ATOM     41  C   UNL A   1      44.933  34.618  32.879  1.00  0.00     0.010 A 
ATOM     42  C   UNL A   1      43.727  35.463  30.968  1.00  0.00     0.010 A 
ATOM     43  C   UNL A   1      44.945  35.901  33.437  1.00  0.00     0.020 A 
ATOM     44  C   UNL A   1      43.796  36.763  31.486  1.00  0.00     0.020 A 
ATOM     45  C   UNL A   1      44.372  36.966  32.739  1.00  0.00     0.054 A 
BRANCH  45  46
ATOM     46  S   UNL A   1      44.434  38.619  33.481  1.00  0.00     0.124 S 
ATOM     47  O   UNL A   1      45.487  39.264  32.700  1.00  0.00    -0.237 OA
ATOM     48  O   UNL A   1      43.085  39.126  33.244  1.00  0.00    -0.237 OA
ATOM     49  O   UNL A   1      44.761  38.361  34.881  1.00  0.00    -0.744 OA
ENDBRANCH  45  46
ENDBRANCH  26  40
BRANCH  27  50
ATOM     50  C   UNL A   1      41.782  25.248  28.173  1.00  0.00    -0.014 A 
ATOM     51  C   UNL A   1      42.189  24.094  28.873  1.00  0.00     0.010 A 
ATOM     52  C   UNL A   1      41.046  25.077  26.984  1.00  0.00     0.010 A 
ATOM     53  C   UNL A   1      41.897  22.812  28.385  1.00  0.00     0.020 A 
ATOM     54  C   UNL A   1      40.721  23.798  26.510  1.00  0.00     0.020 A 
ATOM     55  C   UNL A   1      41.161  22.672  27.205  1.00  0.00     0.054 A 
BRANCH  55  56
ATOM     56  S   UNL A   1      40.766  21.001  26.609  1.00  0.00     0.124 S 
ATOM     57  O   UNL A   1      39.464  21.200  25.981  1.00  0.00    -0.237 OA
ATOM     58  O   UNL A   1      41.873  20.725  25.698  1.00  0.00    -0.237 OA
ATOM     59  O   UNL A   1      40.756  20.196  27.829  1.00  0.00    -0.744 OA
ENDBRANCH  55  56
ENDBRANCH  27  50
BRANCH  39  60
ATOM     60  C   UNL A   1      47.714  28.927  28.369  1.00  0.00    -0.014 A 
ATOM     61  C   UNL A   1      48.594  28.323  29.282  1.00  0.00     0.010 A 
ATOM     62  C   UNL A   1      48.123  29.136  27.039  1.00  0.00     0.010 A 
ATOM     63  C   UNL A   1      49.872  27.947  28.874  1.00  0.00     0.020 A 
ATOM     64  C   UNL A   1      49.388  28.732  26.621  1.00  0.00     0.020 A 
ATOM     65  C   UNL A   1      50.258  28.147  27.544  1.00  0.00     0.054 A 
BRANCH  65  66
ATOM     66  S   UNL A   1      51.897  27.581  27.025  1.00  0.00     0.124 S 
ATOM     67  O   UNL A   1      52.238  28.551  25.989  1.00  0.00    -0.237 OA
ATOM     68  O   UNL A   1      52.673  27.678  28.259  1.00  0.00    -0.237 OA
ATOM     69  O   UNL A   1      51.659  26.219  26.551  1.00  0.00    -0.744 OA
ENDBRANCH  65  66
ENDBRANCH  39  60
ENDBRANCH  13  14
ENDBRANCH   6   8
ENDBRANCH   5   6
ENDBRANCH   4   5
ENDBRANCH   3   4
ENDBRANCH   2   3
ENDBRANCH   1   2
BRANCH   1  70
ATOM     70  C   UNL A   1      33.594  30.798  27.577  1.00  0.00     0.188 C 
BRANCH  70  71
ATOM     71  O   UNL A   1      34.212  29.823  26.753  1.00  0.00    -0.376 OA
BRANCH  71  72
ATOM     72  C   UNL A   1      33.408  29.078  25.858  1.00  0.00     0.202 C 
BRANCH  72  73
ATOM     73  C   UNL A   1      32.373  29.825  24.998  1.00  0.00     0.261 C 
BRANCH  73  74
ATOM     74  O   UNL A   1      31.899  29.184  23.794  1.00  0.00    -0.463 OA
BRANCH  74  75
ATOM     75  C   UNL A   1      30.544  29.119  23.689  1.00  0.00     0.312 C 
ATOM     76  O   UNL A   1      29.801  30.082  23.863  1.00  0.00    -0.252 OA
BRANCH  75  77
ATOM     77  C   UNL A   1      29.981  27.747  23.310  1.00  0.00     0.124 C 
ATOM     78  C   UNL A   1      29.599  26.756  24.357  1.00  0.00    -0.014 C 
ATOM     79  C   UNL A   1      30.865  26.929  22.348  1.00  0.00     0.048 C 
ATOM     80  C   UNL A   1      30.050  25.534  24.057  1.00  0.00    -0.006 C 
ATOM     81  C   UNL A   1      30.993  25.502  22.917  1.00  0.00     0.106 C 
BRANCH  81  82
ATOM     82  N   UNL A   1      32.350  25.189  23.370  1.00  0.00    -0.350 N 
ATOM     83  C   UNL A   1      33.328  24.754  22.486  1.00  0.00     0.224 C 
ATOM     84  H   UNL A   1      32.574  25.288  24.325  1.00  0.00     0.164 HD
ATOM     85  O   UNL A   1      34.001  25.599  21.898  1.00  0.00    -0.275 OA
BRANCH  83  86
ATOM     86  C   UNL A   1      33.508  23.112  22.307  1.00  0.00     0.089 C 
ATOM     87  C   UNL A   1      32.141  21.363  22.453  1.00  0.00     0.025 C 
ATOM     88  C   UNL A   1      34.915  22.863  23.709  1.00  0.00     0.083 C 
ATOM     89  C   UNL A   1      32.632  20.267  24.012  1.00  0.00     0.070 C 
ATOM     90  S   UNL A   1      34.614  20.932  24.958  1.00  0.00    -0.161 SA
ENDBRANCH  83  86
ENDBRANCH  81  82
ENDBRANCH  75  77
ENDBRANCH  74  75
ENDBRANCH  73  74
ENDBRANCH  72  73
ENDBRANCH  71  72
ENDBRANCH  70  71
ENDBRANCH   1  70
TORSDOF 22
ENDMDL
MODEL 3
REMARK VINA RESULT:      -9.5      5.575      9.121
REMARK SMILES O=C(OCCOCCOCCOC(=O)[C@@H]1C=C[C@H](NC(=O)[C@@H]2CCSC2)C1)c1ccc(-c2c3nc(c(-c4ccc(S(=O)(=O)[O-])cc4)c4ccc([nH]4)c(-c4ccc(S(=O)(=O)[O-])cc4)c4nc(c(-c5ccc(S(=O)(=O)[O-])cc5)c5ccc2[nH]5)C=C4)C=C3)cc1
REMARK SMILES IDX 7 1 6 2 5 3 4 4 3 5 2 6 1 7 28 8 29 9 87 10 30 11 86 12
REMARK SMILES IDX 31 13 32 14 33 15 80 16 34 17 85 18 79 19 81 20 35 21 84 22
REMARK SMILES IDX 78 23 77 24 36 26 66 27 47 28 65 29 48 30 51 31 64 32 82 33
REMARK SMILES IDX 49 34 50 35 63 37 83 38 52 39 37 40 38 41 46 42 39 43 45 44
REMARK SMILES IDX 40 45 41 46 42 47 43 48 44 49 67 50 68 51 76 52 69 53 75 54
REMARK SMILES IDX 70 55 71 56 72 57 73 58 74 59 53 60 54 61 62 62 55 63 61 64
REMARK SMILES IDX 56 65 57 66 58 67 59 68 60 69 8 70 9 71 10 72 11 73 12 74
REMARK SMILES IDX 13 75 14 76 15 77 16 78 27 79 17 80 18 81 19 82 20 83 21 85
REMARK SMILES IDX 22 86 23 87 26 88 24 89 25 90
REMARK H PARENT 81 25 51 36 19 84
REMARK Flexibility Score: inf
ROOT
ATOM      1  C   UNL A   1      35.095  20.452  25.012  1.00  0.00     0.188 C 
ENDROOT
BRANCH   1   2
ATOM      2  O   UNL A   1      36.360  21.056  25.278  1.00  0.00    -0.376 OA
BRANCH   2   3
ATOM      3  C   UNL A   1      37.501  20.496  24.630  1.00  0.00     0.202 C 
BRANCH   3   4
ATOM      4  C   UNL A   1      38.544  19.900  25.582  1.00  0.00     0.261 C 
BRANCH   4   5
ATOM      5  O   UNL A   1      39.702  20.737  25.763  1.00  0.00    -0.460 OA
BRANCH   5   6
ATOM      6  C   UNL A   1      40.159  21.309  26.893  1.00  0.00     0.338 C 
ATOM      7  O   UNL A   1      40.674  20.633  27.779  1.00  0.00    -0.246 OA
BRANCH   6   8
ATOM      8  C   UNL A   1      40.133  22.767  27.071  1.00  0.00     0.060 A 
ATOM      9  C   UNL A   1      41.394  23.689  27.754  1.00  0.00     0.016 A 
ATOM     10  C   UNL A   1      38.662  23.427  26.589  1.00  0.00     0.016 A 
ATOM     11  C   UNL A   1      41.324  25.329  28.149  1.00  0.00     0.010 A 
ATOM     12  C   UNL A   1      38.439  25.132  26.838  1.00  0.00     0.010 A 
ATOM     13  C   UNL A   1      39.859  26.214  27.729  1.00  0.00    -0.014 A 
BRANCH  13  14
ATOM     14  C   UNL A   1      40.299  27.726  28.117  1.00  0.00     0.031 A 
ATOM     15  C   UNL A   1      41.492  28.350  27.466  1.00  0.00     0.074 A 
ATOM     16  C   UNL A   1      39.573  28.660  28.791  1.00  0.00     0.049 A 
ATOM     17  N   UNL A   1      42.431  29.087  27.983  1.00  0.00    -0.248 NA
ATOM     18  C   UNL A   1      41.700  28.011  26.065  1.00  0.00     0.031 C 
ATOM     19  C   UNL A   1      38.190  28.552  29.234  1.00  0.00     0.029 A 
ATOM     20  N   UNL A   1      39.897  29.949  29.168  1.00  0.00    -0.354 N 
ATOM     21  C   UNL A   1      43.495  28.936  27.103  1.00  0.00     0.074 A 
ATOM     22  C   UNL A   1      43.022  28.120  26.013  1.00  0.00     0.031 C 
ATOM     23  C   UNL A   1      37.777  29.699  29.796  1.00  0.00     0.029 A 
ATOM     24  C   UNL A   1      38.888  30.631  29.820  1.00  0.00     0.049 A 
ATOM     25  H   UNL A   1      40.778  30.351  28.985  1.00  0.00     0.167 HD
ATOM     26  C   UNL A   1      44.739  29.448  27.239  1.00  0.00     0.031 A 
ATOM     27  C   UNL A   1      38.870  31.859  30.377  1.00  0.00     0.031 A 
ATOM     28  C   UNL A   1      44.936  30.644  28.013  1.00  0.00     0.049 A 
ATOM     29  C   UNL A   1      40.155  32.647  30.342  1.00  0.00     0.074 A 
ATOM     30  C   UNL A   1      46.051  31.453  28.110  1.00  0.00     0.029 A 
ATOM     31  N   UNL A   1      43.904  31.295  28.681  1.00  0.00    -0.354 N 
ATOM     32  N   UNL A   1      41.311  32.306  29.820  1.00  0.00    -0.248 NA
ATOM     33  C   UNL A   1      40.144  33.973  30.971  1.00  0.00     0.031 C 
ATOM     34  C   UNL A   1      45.671  32.620  28.790  1.00  0.00     0.029 A 
ATOM     35  C   UNL A   1      44.319  32.538  29.101  1.00  0.00     0.049 A 
ATOM     36  H   UNL A   1      43.007  30.919  28.830  1.00  0.00     0.167 HD
ATOM     37  C   UNL A   1      42.160  33.384  30.036  1.00  0.00     0.074 A 
ATOM     38  C   UNL A   1      41.373  34.399  30.710  1.00  0.00     0.031 C 
ATOM     39  C   UNL A   1      43.474  33.526  29.723  1.00  0.00     0.031 A 
BRANCH  26  40
ATOM     40  C   UNL A   1      45.892  28.767  26.545  1.00  0.00    -0.014 A 
ATOM     41  C   UNL A   1      46.213  28.967  25.194  1.00  0.00     0.010 A 
ATOM     42  C   UNL A   1      46.658  27.834  27.277  1.00  0.00     0.010 A 
ATOM     43  C   UNL A   1      47.175  28.176  24.559  1.00  0.00     0.020 A 
ATOM     44  C   UNL A   1      47.672  27.086  26.665  1.00  0.00     0.020 A 
ATOM     45  C   UNL A   1      47.896  27.235  25.297  1.00  0.00     0.054 A 
BRANCH  45  46
ATOM     46  S   UNL A   1      49.156  26.248  24.445  1.00  0.00     0.124 S 
ATOM     47  O   UNL A   1      48.348  25.460  23.516  1.00  0.00    -0.237 OA
ATOM     48  O   UNL A   1      49.998  27.269  23.826  1.00  0.00    -0.237 OA
ATOM     49  O   UNL A   1      49.791  25.491  25.521  1.00  0.00    -0.744 OA
ENDBRANCH  45  46
ENDBRANCH  26  40
BRANCH  27  50
ATOM     50  C   UNL A   1      37.633  32.417  31.017  1.00  0.00    -0.014 A 
ATOM     51  C   UNL A   1      36.617  33.008  30.238  1.00  0.00     0.010 A 
ATOM     52  C   UNL A   1      37.464  32.386  32.415  1.00  0.00     0.010 A 
ATOM     53  C   UNL A   1      35.484  33.576  30.839  1.00  0.00     0.020 A 
ATOM     54  C   UNL A   1      36.317  32.921  33.018  1.00  0.00     0.020 A 
ATOM     55  C   UNL A   1      35.340  33.527  32.228  1.00  0.00     0.054 A 
BRANCH  55  56
ATOM     56  S   UNL A   1      33.848  34.240  32.982  1.00  0.00     0.124 S 
ATOM     57  O   UNL A   1      34.397  34.959  34.126  1.00  0.00    -0.237 OA
ATOM     58  O   UNL A   1      33.322  35.074  31.904  1.00  0.00    -0.237 OA
ATOM     59  O   UNL A   1      33.036  33.070  33.307  1.00  0.00    -0.744 OA
ENDBRANCH  55  56
ENDBRANCH  27  50
BRANCH  39  60
ATOM     60  C   UNL A   1      44.106  34.847  30.034  1.00  0.00    -0.014 A 
ATOM     61  C   UNL A   1      44.057  35.906  29.112  1.00  0.00     0.010 A 
ATOM     62  C   UNL A   1      44.675  35.052  31.304  1.00  0.00     0.010 A 
ATOM     63  C   UNL A   1      44.587  37.149  29.451  1.00  0.00     0.020 A 
ATOM     64  C   UNL A   1      45.177  36.302  31.656  1.00  0.00     0.020 A 
ATOM     65  C   UNL A   1      45.137  37.341  30.723  1.00  0.00     0.054 A 
BRANCH  65  66
ATOM     66  S   UNL A   1      45.750  38.987  31.162  1.00  0.00     0.124 S 
ATOM     67  O   UNL A   1      45.855  39.629  29.855  1.00  0.00    -0.237 OA
ATOM     68  O   UNL A   1      44.694  39.498  32.032  1.00  0.00    -0.237 OA
ATOM     69  O   UNL A   1      47.023  38.717  31.828  1.00  0.00    -0.744 OA
ENDBRANCH  65  66
ENDBRANCH  39  60
ENDBRANCH  13  14
ENDBRANCH   6   8
ENDBRANCH   5   6
ENDBRANCH   4   5
ENDBRANCH   3   4
ENDBRANCH   2   3
ENDBRANCH   1   2
BRANCH   1  70
ATOM     70  C   UNL A   1      33.969  21.001  25.888  1.00  0.00     0.188 C 
BRANCH  70  71
ATOM     71  O   UNL A   1      32.718  21.325  25.304  1.00  0.00    -0.376 OA
BRANCH  71  72
ATOM     72  C   UNL A   1      32.555  21.161  23.908  1.00  0.00     0.202 C 
BRANCH  72  73
ATOM     73  C   UNL A   1      32.697  22.393  22.998  1.00  0.00     0.261 C 
BRANCH  73  74
ATOM     74  O   UNL A   1      32.560  23.700  23.596  1.00  0.00    -0.463 OA
BRANCH  74  75
ATOM     75  C   UNL A   1      31.288  24.021  23.958  1.00  0.00     0.312 C 
ATOM     76  O   UNL A   1      30.310  23.843  23.237  1.00  0.00    -0.252 OA
BRANCH  75  77
ATOM     77  C   UNL A   1      31.136  24.612  25.362  1.00  0.00     0.124 C 
ATOM     78  C   UNL A   1      30.455  25.922  25.575  1.00  0.00    -0.014 C 
ATOM     79  C   UNL A   1      32.454  24.761  26.147  1.00  0.00     0.048 C 
ATOM     80  C   UNL A   1      31.145  26.696  26.419  1.00  0.00    -0.006 C 
ATOM     81  C   UNL A   1      32.495  26.182  26.743  1.00  0.00     0.106 C 
BRANCH  81  82
ATOM     82  N   UNL A   1      33.532  27.023  26.141  1.00  0.00    -0.350 N 
ATOM     83  C   UNL A   1      33.371  28.397  26.022  1.00  0.00     0.224 C 
ATOM     84  H   UNL A   1      34.361  26.605  25.812  1.00  0.00     0.164 HD
ATOM     85  O   UNL A   1      33.711  29.109  26.966  1.00  0.00    -0.275 OA
BRANCH  83  86
ATOM     86  C   UNL A   1      32.737  28.962  24.595  1.00  0.00     0.089 C 
ATOM     87  C   UNL A   1      30.682  29.385  23.854  1.00  0.00     0.025 C 
ATOM     88  C   UNL A   1      33.498  27.542  23.405  1.00  0.00     0.083 C 
ATOM     89  C   UNL A   1      30.216  28.109  22.429  1.00  0.00     0.070 C 
ATOM     90  S   UNL A   1      32.014  26.847  21.764  1.00  0.00    -0.161 SA
ENDBRANCH  83  86
ENDBRANCH  81  82
ENDBRANCH  75  77
ENDBRANCH  74  75
ENDBRANCH  73  74
ENDBRANCH  72  73
ENDBRANCH  71  72
ENDBRANCH  70  71
ENDBRANCH   1  70
TORSDOF 22
ENDMDL
