MODEL 1
REMARK VINA RESULT:      -8.8      0.000      0.000
REMARK SMILES [NH3+][C@]1(C(=O)OCCOCCOCCOC(=O)c2ccc(-c3c4nc(c(-c5ccc(S(=O)(=O)[O-])cc5)c5ccc([nH]5)c(-c5ccc(S(=O)(=O)[O-])cc5)c5nc(c(-c6ccc(S(=O)(=O)[O-])cc6)c6ccc3[nH]6)C=C5)C=C4)cc2)CCC[C@H]1CC[NH+]1CCCCC1
REMARK SMILES IDX 9 1 8 2 7 3 6 4 5 5 3 6 4 7 2 8 77 9 80 10 78 11 79 12 1 13
REMARK SMILES IDX 81 17 82 18 83 19 84 20 88 21 85 23 87 24 86 25 10 26 11 27
REMARK SMILES IDX 12 28 13 29 14 30 15 31 16 32 17 33 18 34 76 35 19 36 75 37
REMARK SMILES IDX 20 38 21 39 22 40 69 41 23 42 74 43 68 44 70 45 24 46 73 47
REMARK SMILES IDX 67 48 66 49 25 51 55 52 36 53 54 54 37 55 40 56 53 57 71 58
REMARK SMILES IDX 38 59 39 60 52 62 72 63 41 64 26 65 27 66 35 67 28 68 34 69
REMARK SMILES IDX 29 70 30 71 31 72 32 73 33 74 56 75 57 76 65 77 58 78 64 79
REMARK SMILES IDX 59 80 60 81 61 82 62 83 63 84 42 85 43 86 51 87 44 88 50 89
REMARK SMILES IDX 45 90 46 91 47 92 48 93 49 94
REMARK H PARENT 1 14 1 15 1 16 83 22 70 50 40 61
REMARK Flexibility Score: inf
ROOT
ATOM      1  C   UNL A   1      33.447  31.518  27.704  1.00  0.00     0.188 C 
ENDROOT
BRANCH   1   2
ATOM      2  O   UNL A   1      32.403  30.788  27.073  1.00  0.00    -0.376 OA
BRANCH   2   3
ATOM      3  C   UNL A   1      32.689  29.475  26.596  1.00  0.00     0.202 C 
BRANCH   3   4
ATOM      4  C   UNL A   1      31.657  28.412  26.951  1.00  0.00     0.261 C 
BRANCH   4   5
ATOM      5  O   UNL A   1      31.923  27.208  26.201  1.00  0.00    -0.459 OA
BRANCH   5   6
ATOM      6  C   UNL A   1      30.841  26.485  25.862  1.00  0.00     0.368 C 
ATOM      7  O   UNL A   1      30.179  25.840  26.677  1.00  0.00    -0.245 OA
BRANCH   6   8
ATOM      8  C   UNL A   1      30.441  26.529  24.363  1.00  0.00     0.195 C 
ATOM      9  C   UNL A   1      30.510  28.021  23.946  1.00  0.00     0.081 C 
ATOM     10  C   UNL A   1      31.104  25.768  23.163  1.00  0.00     0.068 C 
ATOM     11  C   UNL A   1      30.338  28.023  22.440  1.00  0.00     0.008 C 
ATOM     12  C   UNL A   1      31.163  26.829  22.008  1.00  0.00     0.011 C 
BRANCH   8  13
ATOM     13  N   UNL A   1      28.992  26.122  24.348  1.00  0.00    -0.343 N 
ATOM     14  H   UNL A   1      28.497  26.653  23.631  1.00  0.00     0.345 HD
ATOM     15  H   UNL A   1      28.575  26.312  25.259  1.00  0.00     0.345 HD
ATOM     16  H   UNL A   1      28.921  25.125  24.143  1.00  0.00     0.345 HD
ENDBRANCH   8  13
BRANCH  10  17
ATOM     17  C   UNL A   1      32.466  25.038  23.120  1.00  0.00     0.072 C 
BRANCH  17  18
ATOM     18  C   UNL A   1      33.431  24.903  24.307  1.00  0.00     0.262 C 
BRANCH  18  19
ATOM     19  N   UNL A   1      33.624  23.626  24.997  1.00  0.00    -0.335 N 
ATOM     20  C   UNL A   1      34.841  22.944  24.564  1.00  0.00     0.262 C 
ATOM     21  C   UNL A   1      33.463  23.684  26.447  1.00  0.00     0.262 C 
ATOM     22  H   UNL A   1      32.844  23.040  24.700  1.00  0.00     0.348 HD
ATOM     23  C   UNL A   1      34.949  21.542  25.159  1.00  0.00     0.062 C 
ATOM     24  C   UNL A   1      33.565  22.299  27.088  1.00  0.00     0.062 C 
ATOM     25  C   UNL A   1      34.853  21.595  26.676  1.00  0.00     0.012 C 
ENDBRANCH  18  19
ENDBRANCH  17  18
ENDBRANCH  10  17
ENDBRANCH   6   8
ENDBRANCH   5   6
ENDBRANCH   4   5
ENDBRANCH   3   4
ENDBRANCH   2   3
ENDBRANCH   1   2
BRANCH   1  26
ATOM     26  C   UNL A   1      33.239  33.017  27.966  1.00  0.00     0.188 C 
BRANCH  26  27
ATOM     27  O   UNL A   1      34.136  33.733  28.798  1.00  0.00    -0.376 OA
BRANCH  27  28
ATOM     28  C   UNL A   1      35.388  34.133  28.259  1.00  0.00     0.202 C 
BRANCH  28  29
ATOM     29  C   UNL A   1      36.539  33.142  28.413  1.00  0.00     0.261 C 
BRANCH  29  30
ATOM     30  O   UNL A   1      36.749  32.790  29.787  1.00  0.00    -0.460 OA
BRANCH  30  31
ATOM     31  C   UNL A   1      36.678  31.464  30.064  1.00  0.00     0.338 C 
ATOM     32  O   UNL A   1      35.680  30.819  30.337  1.00  0.00    -0.246 OA
BRANCH  31  33
ATOM     33  C   UNL A   1      37.982  30.846  29.753  1.00  0.00     0.060 A 
ATOM     34  C   UNL A   1      39.022  31.013  30.678  1.00  0.00     0.016 A 
ATOM     35  C   UNL A   1      38.182  30.110  28.583  1.00  0.00     0.016 A 
ATOM     36  C   UNL A   1      40.278  30.474  30.418  1.00  0.00     0.010 A 
ATOM     37  C   UNL A   1      39.447  29.585  28.315  1.00  0.00     0.010 A 
ATOM     38  C   UNL A   1      40.506  29.795  29.215  1.00  0.00    -0.014 A 
BRANCH  38  39
ATOM     39  C   UNL A   1      41.894  29.480  28.815  1.00  0.00     0.031 A 
ATOM     40  C   UNL A   1      42.208  28.074  28.383  1.00  0.00     0.074 A 
ATOM     41  C   UNL A   1      42.845  30.431  28.803  1.00  0.00     0.049 A 
ATOM     42  N   UNL A   1      43.343  27.564  27.985  1.00  0.00    -0.248 NA
ATOM     43  C   UNL A   1      41.090  27.117  28.402  1.00  0.00     0.031 C 
ATOM     44  C   UNL A   1      42.646  31.833  29.166  1.00  0.00     0.029 A 
ATOM     45  N   UNL A   1      44.173  30.352  28.472  1.00  0.00    -0.354 N 
ATOM     46  C   UNL A   1      43.077  26.228  27.710  1.00  0.00     0.074 A 
ATOM     47  C   UNL A   1      41.684  25.999  28.016  1.00  0.00     0.031 C 
ATOM     48  C   UNL A   1      43.817  32.484  29.039  1.00  0.00     0.029 A 
ATOM     49  C   UNL A   1      44.847  31.540  28.614  1.00  0.00     0.049 A 
ATOM     50  H   UNL A   1      44.603  29.522  28.161  1.00  0.00     0.167 HD
ATOM     51  C   UNL A   1      43.918  25.278  27.237  1.00  0.00     0.031 A 
ATOM     52  C   UNL A   1      46.151  31.825  28.432  1.00  0.00     0.031 A 
ATOM     53  C   UNL A   1      45.311  25.504  26.960  1.00  0.00     0.049 A 
ATOM     54  C   UNL A   1      47.082  30.734  27.968  1.00  0.00     0.074 A 
ATOM     55  C   UNL A   1      46.251  24.611  26.478  1.00  0.00     0.029 A 
ATOM     56  N   UNL A   1      45.967  26.713  27.150  1.00  0.00    -0.354 N 
ATOM     57  N   UNL A   1      46.812  29.479  27.690  1.00  0.00    -0.248 NA
ATOM     58  C   UNL A   1      48.490  31.104  27.777  1.00  0.00     0.031 C 
ATOM     59  C   UNL A   1      47.487  25.265  26.427  1.00  0.00     0.029 A 
ATOM     60  C   UNL A   1      47.304  26.583  26.816  1.00  0.00     0.049 A 
ATOM     61  H   UNL A   1      45.544  27.540  27.474  1.00  0.00     0.167 HD
ATOM     62  C   UNL A   1      48.013  28.918  27.265  1.00  0.00     0.074 A 
ATOM     63  C   UNL A   1      49.003  29.976  27.305  1.00  0.00     0.031 C 
ATOM     64  C   UNL A   1      48.277  27.645  26.876  1.00  0.00     0.031 A 
BRANCH  51  65
ATOM     65  C   UNL A   1      43.353  23.897  27.032  1.00  0.00    -0.014 A 
ATOM     66  C   UNL A   1      43.224  22.996  28.104  1.00  0.00     0.010 A 
ATOM     67  C   UNL A   1      42.931  23.502  25.750  1.00  0.00     0.010 A 
ATOM     68  C   UNL A   1      42.717  21.710  27.890  1.00  0.00     0.020 A 
ATOM     69  C   UNL A   1      42.399  22.228  25.537  1.00  0.00     0.020 A 
ATOM     70  C   UNL A   1      42.311  21.334  26.606  1.00  0.00     0.054 A 
BRANCH  70  71
ATOM     71  S   UNL A   1      41.638  19.668  26.362  1.00  0.00     0.124 S 
ATOM     72  O   UNL A   1      42.477  19.160  25.279  1.00  0.00    -0.237 OA
ATOM     73  O   UNL A   1      41.847  19.043  27.664  1.00  0.00    -0.237 OA
ATOM     74  O   UNL A   1      40.241  19.906  26.005  1.00  0.00    -0.744 OA
ENDBRANCH  70  71
ENDBRANCH  51  65
BRANCH  52  75
ATOM     75  C   UNL A   1      46.660  33.200  28.694  1.00  0.00    -0.014 A 
ATOM     76  C   UNL A   1      46.683  34.165  27.672  1.00  0.00     0.010 A 
ATOM     77  C   UNL A   1      47.132  33.548  29.973  1.00  0.00     0.010 A 
ATOM     78  C   UNL A   1      47.186  35.446  27.919  1.00  0.00     0.020 A 
ATOM     79  C   UNL A   1      47.609  34.836  30.231  1.00  0.00     0.020 A 
ATOM     80  C   UNL A   1      47.645  35.774  29.198  1.00  0.00     0.054 A 
BRANCH  80  81
ATOM     81  S   UNL A   1      48.251  37.457  29.507  1.00  0.00     0.124 S 
ATOM     82  O   UNL A   1      47.707  37.737  30.832  1.00  0.00    -0.237 OA
ATOM     83  O   UNL A   1      49.700  37.287  29.440  1.00  0.00    -0.237 OA
ATOM     84  O   UNL A   1      47.671  38.234  28.413  1.00  0.00    -0.744 OA
ENDBRANCH  80  81
ENDBRANCH  52  75
BRANCH  64  85
ATOM     85  C   UNL A   1      49.683  27.341  26.427  1.00  0.00    -0.014 A 
ATOM     86  C   UNL A   1      50.701  27.050  27.354  1.00  0.00     0.010 A 
ATOM     87  C   UNL A   1      49.986  27.337  25.053  1.00  0.00     0.010 A 
ATOM     88  C   UNL A   1      52.008  26.822  26.917  1.00  0.00     0.020 A 
ATOM     89  C   UNL A   1      51.285  27.075  24.611  1.00  0.00     0.020 A 
ATOM     90  C   UNL A   1      52.294  26.845  25.548  1.00  0.00     0.054 A 
BRANCH  90  91
ATOM     91  S   UNL A   1      53.999  26.552  25.003  1.00  0.00     0.124 S 
ATOM     92  O   UNL A   1      53.801  25.700  23.834  1.00  0.00    -0.237 OA
ATOM     93  O   UNL A   1      54.485  27.901  24.724  1.00  0.00    -0.237 OA
ATOM     94  O   UNL A   1      54.621  25.899  26.153  1.00  0.00    -0.744 OA
ENDBRANCH  90  91
ENDBRANCH  64  85
ENDBRANCH  38  39
ENDBRANCH  31  33
ENDBRANCH  30  31
ENDBRANCH  29  30
ENDBRANCH  28  29
ENDBRANCH  27  28
ENDBRANCH  26  27
ENDBRANCH   1  26
TORSDOF 24
ENDMDL
MODEL 2
REMARK VINA RESULT:      -8.8      4.248     11.640
REMARK SMILES [NH3+][C@]1(C(=O)OCCOCCOCCOC(=O)c2ccc(-c3c4nc(c(-c5ccc(S(=O)(=O)[O-])cc5)c5ccc([nH]5)c(-c5ccc(S(=O)(=O)[O-])cc5)c5nc(c(-c6ccc(S(=O)(=O)[O-])cc6)c6ccc3[nH]6)C=C5)C=C4)cc2)CCC[C@H]1CC[NH+]1CCCCC1
REMARK SMILES IDX 9 1 8 2 7 3 6 4 5 5 3 6 4 7 2 8 77 9 80 10 78 11 79 12 1 13
REMARK SMILES IDX 81 17 82 18 83 19 84 20 88 21 85 23 87 24 86 25 10 26 11 27
REMARK SMILES IDX 12 28 13 29 14 30 15 31 16 32 17 33 18 34 76 35 19 36 75 37
REMARK SMILES IDX 20 38 21 39 22 40 69 41 23 42 74 43 68 44 70 45 24 46 73 47
REMARK SMILES IDX 67 48 66 49 25 51 55 52 36 53 54 54 37 55 40 56 53 57 71 58
REMARK SMILES IDX 38 59 39 60 52 62 72 63 41 64 26 65 27 66 35 67 28 68 34 69
REMARK SMILES IDX 29 70 30 71 31 72 32 73 33 74 56 75 57 76 65 77 58 78 64 79
REMARK SMILES IDX 59 80 60 81 61 82 62 83 63 84 42 85 43 86 51 87 44 88 50 89
REMARK SMILES IDX 45 90 46 91 47 92 48 93 49 94
REMARK H PARENT 1 14 1 15 1 16 83 22 70 50 40 61
REMARK Flexibility Score: inf
ROOT
ATOM      1  C   UNL A   1      42.865  19.160  25.961  1.00  0.00     0.188 C 
ENDROOT
BRANCH   1   2
ATOM      2  O   UNL A   1      41.747  19.763  26.600  1.00  0.00    -0.376 OA
BRANCH   2   3
ATOM      3  C   UNL A   1      40.679  20.240  25.784  1.00  0.00     0.202 C 
BRANCH   3   4
ATOM      4  C   UNL A   1      39.666  21.133  26.489  1.00  0.00     0.261 C 
BRANCH   4   5
ATOM      5  O   UNL A   1      38.928  21.897  25.512  1.00  0.00    -0.459 OA
BRANCH   5   6
ATOM      6  C   UNL A   1      37.719  21.409  25.187  1.00  0.00     0.368 C 
ATOM      7  O   UNL A   1      37.498  20.208  25.025  1.00  0.00    -0.245 OA
BRANCH   6   8
ATOM      8  C   UNL A   1      36.580  22.455  25.053  1.00  0.00     0.195 C 
ATOM      9  C   UNL A   1      36.427  22.728  23.535  1.00  0.00     0.081 C 
ATOM     10  C   UNL A   1      35.104  22.348  25.571  1.00  0.00     0.068 C 
ATOM     11  C   UNL A   1      35.174  23.572  23.405  1.00  0.00     0.008 C 
ATOM     12  C   UNL A   1      34.233  22.927  24.401  1.00  0.00     0.011 C 
BRANCH   8  13
ATOM     13  N   UNL A   1      37.139  23.703  25.683  1.00  0.00    -0.343 N 
ATOM     14  H   UNL A   1      36.725  23.832  26.607  1.00  0.00     0.345 HD
ATOM     15  H   UNL A   1      36.917  24.508  25.097  1.00  0.00     0.345 HD
ATOM     16  H   UNL A   1      38.151  23.616  25.772  1.00  0.00     0.345 HD
ENDBRANCH   8  13
BRANCH  10  17
ATOM     17  C   UNL A   1      34.345  21.095  26.066  1.00  0.00     0.072 C 
BRANCH  17  18
ATOM     18  C   UNL A   1      33.590  20.109  25.164  1.00  0.00     0.262 C 
BRANCH  18  19
ATOM     19  N   UNL A   1      33.763  18.662  25.296  1.00  0.00    -0.335 N 
ATOM     20  C   UNL A   1      32.490  17.967  25.471  1.00  0.00     0.262 C 
ATOM     21  C   UNL A   1      34.634  18.056  24.292  1.00  0.00     0.262 C 
ATOM     22  H   UNL A   1      34.284  18.532  26.164  1.00  0.00     0.348 HD
ATOM     23  C   UNL A   1      32.689  16.485  25.776  1.00  0.00     0.062 C 
ATOM     24  C   UNL A   1      34.861  16.567  24.558  1.00  0.00     0.062 C 
ATOM     25  C   UNL A   1      33.537  15.825  24.699  1.00  0.00     0.012 C 
ENDBRANCH  18  19
ENDBRANCH  17  18
ENDBRANCH  10  17
ENDBRANCH   6   8
ENDBRANCH   5   6
ENDBRANCH   4   5
ENDBRANCH   3   4
ENDBRANCH   2   3
ENDBRANCH   1   2
BRANCH   1  26
ATOM     26  C   UNL A   1      43.966  20.071  25.399  1.00  0.00     0.188 C 
BRANCH  26  27
ATOM     27  O   UNL A   1      43.922  21.471  25.615  1.00  0.00    -0.376 OA
BRANCH  27  28
ATOM     28  C   UNL A   1      44.040  22.334  24.492  1.00  0.00     0.202 C 
BRANCH  28  29
ATOM     29  C   UNL A   1      44.161  23.826  24.796  1.00  0.00     0.261 C 
BRANCH  29  30
ATOM     30  O   UNL A   1      45.516  24.280  24.666  1.00  0.00    -0.460 OA
BRANCH  30  31
ATOM     31  C   UNL A   1      46.196  24.415  25.831  1.00  0.00     0.338 C 
ATOM     32  O   UNL A   1      46.874  23.572  26.393  1.00  0.00    -0.246 OA
BRANCH  31  33
ATOM     33  C   UNL A   1      46.189  25.839  26.220  1.00  0.00     0.060 A 
ATOM     34  C   UNL A   1      46.551  26.159  27.536  1.00  0.00     0.016 A 
ATOM     35  C   UNL A   1      45.843  26.844  25.312  1.00  0.00     0.016 A 
ATOM     36  C   UNL A   1      46.533  27.484  27.960  1.00  0.00     0.010 A 
ATOM     37  C   UNL A   1      45.808  28.170  25.744  1.00  0.00     0.010 A 
ATOM     38  C   UNL A   1      46.120  28.489  27.078  1.00  0.00    -0.014 A 
BRANCH  38  39
ATOM     39  C   UNL A   1      45.827  29.839  27.606  1.00  0.00     0.031 A 
ATOM     40  C   UNL A   1      46.857  30.917  27.414  1.00  0.00     0.074 A 
ATOM     41  C   UNL A   1      44.656  30.107  28.211  1.00  0.00     0.049 A 
ATOM     42  N   UNL A   1      46.823  32.170  27.782  1.00  0.00    -0.248 NA
ATOM     43  C   UNL A   1      48.091  30.527  26.712  1.00  0.00     0.031 C 
ATOM     44  C   UNL A   1      43.570  29.150  28.419  1.00  0.00     0.029 A 
ATOM     45  N   UNL A   1      44.191  31.273  28.764  1.00  0.00    -0.354 N 
ATOM     46  C   UNL A   1      48.029  32.717  27.360  1.00  0.00     0.074 A 
ATOM     47  C   UNL A   1      48.785  31.655  26.737  1.00  0.00     0.031 C 
ATOM     48  C   UNL A   1      42.562  29.770  29.058  1.00  0.00     0.029 A 
ATOM     49  C   UNL A   1      42.944  31.154  29.328  1.00  0.00     0.049 A 
ATOM     50  H   UNL A   1      44.703  32.114  28.757  1.00  0.00     0.167 HD
ATOM     51  C   UNL A   1      48.465  33.994  27.475  1.00  0.00     0.031 A 
ATOM     52  C   UNL A   1      42.204  32.061  29.995  1.00  0.00     0.031 A 
ATOM     53  C   UNL A   1      47.720  35.042  28.120  1.00  0.00     0.049 A 
ATOM     54  C   UNL A   1      42.739  33.460  30.167  1.00  0.00     0.074 A 
ATOM     55  C   UNL A   1      48.070  36.369  28.290  1.00  0.00     0.029 A 
ATOM     56  N   UNL A   1      46.475  34.876  28.711  1.00  0.00    -0.354 N 
ATOM     57  N   UNL A   1      43.873  33.970  29.743  1.00  0.00    -0.248 NA
ATOM     58  C   UNL A   1      41.887  34.409  30.894  1.00  0.00     0.031 C 
ATOM     59  C   UNL A   1      47.060  36.994  29.030  1.00  0.00     0.029 A 
ATOM     60  C   UNL A   1      46.052  36.072  29.266  1.00  0.00     0.049 A 
ATOM     61  H   UNL A   1      45.968  34.033  28.732  1.00  0.00     0.167 HD
ATOM     62  C   UNL A   1      43.854  35.307  30.129  1.00  0.00     0.074 A 
ATOM     63  C   UNL A   1      42.590  35.528  30.801  1.00  0.00     0.031 C 
ATOM     64  C   UNL A   1      44.796  36.268  29.944  1.00  0.00     0.031 A 
BRANCH  51  65
ATOM     65  C   UNL A   1      49.829  34.309  26.922  1.00  0.00    -0.014 A 
ATOM     66  C   UNL A   1      50.950  34.415  27.765  1.00  0.00     0.010 A 
ATOM     67  C   UNL A   1      49.995  34.486  25.537  1.00  0.00     0.010 A 
ATOM     68  C   UNL A   1      52.206  34.730  27.237  1.00  0.00     0.020 A 
ATOM     69  C   UNL A   1      51.253  34.773  25.001  1.00  0.00     0.020 A 
ATOM     70  C   UNL A   1      52.348  34.909  25.857  1.00  0.00     0.054 A 
BRANCH  70  71
ATOM     71  S   UNL A   1      53.992  35.296  25.196  1.00  0.00     0.124 S 
ATOM     72  O   UNL A   1      54.562  36.114  26.265  1.00  0.00    -0.237 OA
ATOM     73  O   UNL A   1      54.590  33.975  25.030  1.00  0.00    -0.237 OA
ATOM     74  O   UNL A   1      53.707  36.009  23.953  1.00  0.00    -0.744 OA
ENDBRANCH  70  71
ENDBRANCH  51  65
BRANCH  52  75
ATOM     75  C   UNL A   1      40.880  31.678  30.557  1.00  0.00    -0.014 A 
ATOM     76  C   UNL A   1      39.702  31.857  29.811  1.00  0.00     0.010 A 
ATOM     77  C   UNL A   1      40.791  31.134  31.853  1.00  0.00     0.010 A 
ATOM     78  C   UNL A   1      38.459  31.519  30.356  1.00  0.00     0.020 A 
ATOM     79  C   UNL A   1      39.554  30.769  32.390  1.00  0.00     0.020 A 
ATOM     80  C   UNL A   1      38.393  30.975  31.642  1.00  0.00     0.054 A 
BRANCH  80  81
ATOM     81  S   UNL A   1      36.774  30.501  32.310  1.00  0.00     0.124 S 
ATOM     82  O   UNL A   1      37.030  29.148  32.794  1.00  0.00    -0.237 OA
ATOM     83  O   UNL A   1      36.552  31.511  33.342  1.00  0.00    -0.237 OA
ATOM     84  O   UNL A   1      35.887  30.596  31.153  1.00  0.00    -0.744 OA
ENDBRANCH  80  81
ENDBRANCH  52  75
BRANCH  64  85
ATOM     85  C   UNL A   1      44.472  37.652  30.446  1.00  0.00    -0.014 A 
ATOM     86  C   UNL A   1      44.831  38.064  31.742  1.00  0.00     0.010 A 
ATOM     87  C   UNL A   1      43.806  38.557  29.599  1.00  0.00     0.010 A 
ATOM     88  C   UNL A   1      44.475  39.334  32.202  1.00  0.00     0.020 A 
ATOM     89  C   UNL A   1      43.479  39.840  30.044  1.00  0.00     0.020 A 
ATOM     90  C   UNL A   1      43.793  40.211  31.353  1.00  0.00     0.054 A 
BRANCH  90  91
ATOM     91  S   UNL A   1      43.335  41.853  31.973  1.00  0.00     0.124 S 
ATOM     92  O   UNL A   1      44.379  42.104  32.962  1.00  0.00    -0.237 OA
ATOM     93  O   UNL A   1      43.395  42.680  30.771  1.00  0.00    -0.237 OA
ATOM     94  O   UNL A   1      41.994  41.654  32.519  1.00  0.00    -0.744 OA
ENDBRANCH  90  91
ENDBRANCH  64  85
ENDBRANCH  38  39
ENDBRANCH  31  33
ENDBRANCH  30  31
ENDBRANCH  29  30
ENDBRANCH  28  29
ENDBRANCH  27  28
ENDBRANCH  26  27
ENDBRANCH   1  26
TORSDOF 24
ENDMDL
MODEL 3
REMARK VINA RESULT:      -8.5      5.457     12.859
REMARK SMILES [NH3+][C@]1(C(=O)OCCOCCOCCOC(=O)c2ccc(-c3c4nc(c(-c5ccc(S(=O)(=O)[O-])cc5)c5ccc([nH]5)c(-c5ccc(S(=O)(=O)[O-])cc5)c5nc(c(-c6ccc(S(=O)(=O)[O-])cc6)c6ccc3[nH]6)C=C5)C=C4)cc2)CCC[C@H]1CC[NH+]1CCCCC1
REMARK SMILES IDX 9 1 8 2 7 3 6 4 5 5 3 6 4 7 2 8 77 9 80 10 78 11 79 12 1 13
REMARK SMILES IDX 81 17 82 18 83 19 84 20 88 21 85 23 87 24 86 25 10 26 11 27
REMARK SMILES IDX 12 28 13 29 14 30 15 31 16 32 17 33 18 34 76 35 19 36 75 37
REMARK SMILES IDX 20 38 21 39 22 40 69 41 23 42 74 43 68 44 70 45 24 46 73 47
REMARK SMILES IDX 67 48 66 49 25 51 55 52 36 53 54 54 37 55 40 56 53 57 71 58
REMARK SMILES IDX 38 59 39 60 52 62 72 63 41 64 26 65 27 66 35 67 28 68 34 69
REMARK SMILES IDX 29 70 30 71 31 72 32 73 33 74 56 75 57 76 65 77 58 78 64 79
REMARK SMILES IDX 59 80 60 81 61 82 62 83 63 84 42 85 43 86 51 87 44 88 50 89
REMARK SMILES IDX 45 90 46 91 47 92 48 93 49 94
REMARK H PARENT 1 14 1 15 1 16 83 22 70 50 40 61
REMARK Flexibility Score: inf
ROOT
ATOM      1  C   UNL A   1      45.180  19.574  24.128  1.00  0.00     0.188 C 
ENDROOT
BRANCH   1   2
ATOM      2  O   UNL A   1      44.668  18.469  24.862  1.00  0.00    -0.376 OA
BRANCH   2   3
ATOM      3  C   UNL A   1      43.296  18.494  25.252  1.00  0.00     0.202 C 
BRANCH   3   4
ATOM      4  C   UNL A   1      42.995  19.262  26.532  1.00  0.00     0.261 C 
BRANCH   4   5
ATOM      5  O   UNL A   1      42.248  20.456  26.218  1.00  0.00    -0.459 OA
BRANCH   5   6
ATOM      6  C   UNL A   1      41.642  21.051  27.260  1.00  0.00     0.368 C 
ATOM      7  O   UNL A   1      40.626  20.605  27.794  1.00  0.00    -0.245 OA
BRANCH   6   8
ATOM      8  C   UNL A   1      42.320  22.344  27.789  1.00  0.00     0.195 C 
ATOM      9  C   UNL A   1      43.442  22.684  26.774  1.00  0.00     0.081 C 
ATOM     10  C   UNL A   1      41.652  23.730  28.093  1.00  0.00     0.068 C 
ATOM     11  C   UNL A   1      43.942  24.057  27.177  1.00  0.00     0.008 C 
ATOM     12  C   UNL A   1      42.664  24.788  27.528  1.00  0.00     0.011 C 
BRANCH   8  13
ATOM     13  N   UNL A   1      42.982  21.925  29.074  1.00  0.00    -0.343 N 
ATOM     14  H   UNL A   1      43.277  20.951  29.002  1.00  0.00     0.345 HD
ATOM     15  H   UNL A   1      42.322  22.024  29.845  1.00  0.00     0.345 HD
ATOM     16  H   UNL A   1      43.796  22.515  29.245  1.00  0.00     0.345 HD
ENDBRANCH   8  13
BRANCH  10  17
ATOM     17  C   UNL A   1      40.252  24.237  27.677  1.00  0.00     0.072 C 
BRANCH  17  18
ATOM     18  C   UNL A   1      39.416  25.259  28.461  1.00  0.00     0.262 C 
BRANCH  18  19
ATOM     19  N   UNL A   1      39.862  26.642  28.635  1.00  0.00    -0.335 N 
ATOM     20  C   UNL A   1      40.070  27.320  27.357  1.00  0.00     0.262 C 
ATOM     21  C   UNL A   1      39.085  27.419  29.596  1.00  0.00     0.262 C 
ATOM     22  H   UNL A   1      40.779  26.575  29.077  1.00  0.00     0.348 HD
ATOM     23  C   UNL A   1      40.694  28.700  27.541  1.00  0.00     0.062 C 
ATOM     24  C   UNL A   1      39.676  28.814  29.812  1.00  0.00     0.062 C 
ATOM     25  C   UNL A   1      39.856  29.546  28.487  1.00  0.00     0.012 C 
ENDBRANCH  18  19
ENDBRANCH  17  18
ENDBRANCH  10  17
ENDBRANCH   6   8
ENDBRANCH   5   6
ENDBRANCH   4   5
ENDBRANCH   3   4
ENDBRANCH   2   3
ENDBRANCH   1   2
BRANCH   1  26
ATOM     26  C   UNL A   1      46.450  20.268  24.639  1.00  0.00     0.188 C 
BRANCH  26  27
ATOM     27  O   UNL A   1      46.394  21.596  25.135  1.00  0.00    -0.376 OA
BRANCH  27  28
ATOM     28  C   UNL A   1      46.669  22.665  24.241  1.00  0.00     0.202 C 
BRANCH  28  29
ATOM     29  C   UNL A   1      46.059  24.019  24.598  1.00  0.00     0.261 C 
BRANCH  29  30
ATOM     30  O   UNL A   1      47.068  24.967  24.973  1.00  0.00    -0.460 OA
BRANCH  30  31
ATOM     31  C   UNL A   1      47.268  25.101  26.308  1.00  0.00     0.338 C 
ATOM     32  O   UNL A   1      47.680  24.254  27.083  1.00  0.00    -0.246 OA
BRANCH  31  33
ATOM     33  C   UNL A   1      47.132  26.527  26.665  1.00  0.00     0.060 A 
ATOM     34  C   UNL A   1      47.741  26.965  27.849  1.00  0.00     0.016 A 
ATOM     35  C   UNL A   1      46.432  27.422  25.852  1.00  0.00     0.016 A 
ATOM     36  C   UNL A   1      47.619  28.293  28.245  1.00  0.00     0.010 A 
ATOM     37  C   UNL A   1      46.295  28.749  26.259  1.00  0.00     0.010 A 
ATOM     38  C   UNL A   1      46.859  29.179  27.472  1.00  0.00    -0.014 A 
BRANCH  38  39
ATOM     39  C   UNL A   1      46.494  30.498  28.035  1.00  0.00     0.031 A 
ATOM     40  C   UNL A   1      47.375  31.674  27.719  1.00  0.00     0.074 A 
ATOM     41  C   UNL A   1      45.384  30.650  28.779  1.00  0.00     0.049 A 
ATOM     42  N   UNL A   1      47.256  32.922  28.091  1.00  0.00    -0.248 NA
ATOM     43  C   UNL A   1      48.548  31.407  26.870  1.00  0.00     0.031 C 
ATOM     44  C   UNL A   1      44.437  29.589  29.117  1.00  0.00     0.029 A 
ATOM     45  N   UNL A   1      44.871  31.768  29.387  1.00  0.00    -0.354 N 
ATOM     46  C   UNL A   1      48.338  33.586  27.525  1.00  0.00     0.074 A 
ATOM     47  C   UNL A   1      49.118  32.600  26.812  1.00  0.00     0.031 C 
ATOM     48  C   UNL A   1      43.456  30.108  29.877  1.00  0.00     0.029 A 
ATOM     49  C   UNL A   1      43.722  31.527  30.099  1.00  0.00     0.049 A 
ATOM     50  H   UNL A   1      45.288  32.657  29.318  1.00  0.00     0.167 HD
ATOM     51  C   UNL A   1      48.649  34.902  27.587  1.00  0.00     0.031 A 
ATOM     52  C   UNL A   1      42.979  32.360  30.854  1.00  0.00     0.031 A 
ATOM     53  C   UNL A   1      47.884  35.874  28.320  1.00  0.00     0.049 A 
ATOM     54  C   UNL A   1      43.382  33.808  30.960  1.00  0.00     0.074 A 
ATOM     55  C   UNL A   1      48.111  37.232  28.448  1.00  0.00     0.029 A 
ATOM     56  N   UNL A   1      46.744  35.587  29.059  1.00  0.00    -0.354 N 
ATOM     57  N   UNL A   1      44.396  34.429  30.401  1.00  0.00    -0.248 NA
ATOM     58  C   UNL A   1      42.531  34.672  31.788  1.00  0.00     0.031 C 
ATOM     59  C   UNL A   1      47.140  37.758  29.307  1.00  0.00     0.029 A 
ATOM     60  C   UNL A   1      46.270  36.739  29.664  1.00  0.00     0.049 A 
ATOM     61  H   UNL A   1      46.334  34.697  29.141  1.00  0.00     0.167 HD
ATOM     62  C   UNL A   1      44.286  35.761  30.789  1.00  0.00     0.074 A 
ATOM     63  C   UNL A   1      43.097  35.857  31.612  1.00  0.00     0.031 C 
ATOM     64  C   UNL A   1      45.092  36.812  30.491  1.00  0.00     0.031 A 
BRANCH  51  65
ATOM     65  C   UNL A   1      49.896  35.350  26.872  1.00  0.00    -0.014 A 
ATOM     66  C   UNL A   1      49.863  35.730  25.518  1.00  0.00     0.010 A 
ATOM     67  C   UNL A   1      51.115  35.407  27.569  1.00  0.00     0.010 A 
ATOM     68  C   UNL A   1      51.034  36.122  24.864  1.00  0.00     0.020 A 
ATOM     69  C   UNL A   1      52.284  35.825  26.927  1.00  0.00     0.020 A 
ATOM     70  C   UNL A   1      52.239  36.165  25.573  1.00  0.00     0.054 A 
BRANCH  70  71
ATOM     71  S   UNL A   1      53.740  36.697  24.706  1.00  0.00     0.124 S 
ATOM     72  O   UNL A   1      54.681  36.867  25.810  1.00  0.00    -0.237 OA
ATOM     73  O   UNL A   1      54.011  35.573  23.815  1.00  0.00    -0.237 OA
ATOM     74  O   UNL A   1      53.335  37.933  24.039  1.00  0.00    -0.744 OA
ENDBRANCH  70  71
ENDBRANCH  51  65
BRANCH  52  75
ATOM     75  C   UNL A   1      41.780  31.848  31.573  1.00  0.00    -0.014 A 
ATOM     76  C   UNL A   1      41.916  31.061  32.729  1.00  0.00     0.010 A 
ATOM     77  C   UNL A   1      40.489  32.143  31.096  1.00  0.00     0.010 A 
ATOM     78  C   UNL A   1      40.786  30.562  33.385  1.00  0.00     0.020 A 
ATOM     79  C   UNL A   1      39.356  31.669  31.764  1.00  0.00     0.020 A 
ATOM     80  C   UNL A   1      39.513  30.870  32.898  1.00  0.00     0.054 A 
BRANCH  80  81
ATOM     81  S   UNL A   1      38.060  30.250  33.792  1.00  0.00     0.124 S 
ATOM     82  O   UNL A   1      38.534  30.237  35.171  1.00  0.00    -0.237 OA
ATOM     83  O   UNL A   1      37.047  31.255  33.480  1.00  0.00    -0.237 OA
ATOM     84  O   UNL A   1      37.828  28.937  33.195  1.00  0.00    -0.744 OA
ENDBRANCH  80  81
ENDBRANCH  52  75
BRANCH  64  85
ATOM     85  C   UNL A   1      44.690  38.160  31.031  1.00  0.00    -0.014 A 
ATOM     86  C   UNL A   1      43.938  39.064  30.258  1.00  0.00     0.010 A 
ATOM     87  C   UNL A   1      45.062  38.521  32.339  1.00  0.00     0.010 A 
ATOM     88  C   UNL A   1      43.620  40.328  30.763  1.00  0.00     0.020 A 
ATOM     89  C   UNL A   1      44.716  39.771  32.859  1.00  0.00     0.020 A 
ATOM     90  C   UNL A   1      44.020  40.677  32.057  1.00  0.00     0.054 A 
BRANCH  90  91
ATOM     91  S   UNL A   1      43.602  42.325  32.688  1.00  0.00     0.124 S 
ATOM     92  O   UNL A   1      42.169  42.198  32.940  1.00  0.00    -0.237 OA
ATOM     93  O   UNL A   1      44.442  42.437  33.877  1.00  0.00    -0.237 OA
ATOM     94  O   UNL A   1      43.965  43.218  31.590  1.00  0.00    -0.744 OA
ENDBRANCH  90  91
ENDBRANCH  64  85
ENDBRANCH  38  39
ENDBRANCH  31  33
ENDBRANCH  30  31
ENDBRANCH  29  30
ENDBRANCH  28  29
ENDBRANCH  27  28
ENDBRANCH  26  27
ENDBRANCH   1  26
TORSDOF 24
ENDMDL
