MODEL 1
REMARK VINA RESULT:      -8.5      0.000      0.000
REMARK SMILES COc1ccc(/C=C2\SC(=O)N(CC(=O)N[C@H](C)C(=O)OCCOCCOCCOC(=O)c3ccc(-c4c5nc(c(-c6ccc(S(=O)(=O)[O-])cc6)c6ccc([nH]6)c(-c6ccc(S(=O)(=O)[O-])cc6)c6nc(c(-c7ccc(S(=O)(=O)[O-])cc7)c7ccc4[nH]7)C=C6)C=C5)cc3)C2=O)cc1OC
REMARK SMILES IDX 25 1 24 2 23 3 22 4 21 5 19 6 20 7 17 8 18 9 16 10 14 11
REMARK SMILES IDX 15 12 13 14 12 15 7 16 8 17 9 18 93 19 10 20 94 21 11 22
REMARK SMILES IDX 6 23 3 24 4 25 96 26 5 27 95 28 2 29 1 30 97 31 98 32 26 33
REMARK SMILES IDX 27 34 28 35 29 36 30 37 31 38 32 39 33 40 34 41 92 42 35 43
REMARK SMILES IDX 91 44 36 45 37 46 38 47 85 48 39 49 90 50 84 51 86 52 40 53
REMARK SMILES IDX 89 54 83 55 82 56 41 58 71 59 52 60 70 61 53 62 56 63 69 64
REMARK SMILES IDX 87 65 54 66 55 67 68 69 88 70 57 71 42 72 43 73 51 74 44 75
REMARK SMILES IDX 50 76 45 77 46 78 47 79 48 80 49 81 72 82 73 83 81 84 74 85
REMARK SMILES IDX 80 86 75 87 76 88 77 89 78 90 79 91 58 92 59 93 67 94 60 95
REMARK SMILES IDX 66 96 61 97 62 98 63 99 64 100 65 101
REMARK H PARENT 16 13 86 57 56 68
REMARK Flexibility Score: inf
ROOT
ATOM      1  C   UNL A   1      40.083  22.185  26.134  1.00  0.00     0.188 C 
ENDROOT
BRANCH   1   2
ATOM      2  O   UNL A   1      38.724  21.801  25.985  1.00  0.00    -0.376 OA
BRANCH   2   3
ATOM      3  C   UNL A   1      38.500  20.512  25.417  1.00  0.00     0.202 C 
BRANCH   3   4
ATOM      4  C   UNL A   1      37.047  20.171  25.041  1.00  0.00     0.261 C 
BRANCH   4   5
ATOM      5  O   UNL A   1      36.163  21.314  25.024  1.00  0.00    -0.462 OA
BRANCH   5   6
ATOM      6  C   UNL A   1      34.835  21.057  25.187  1.00  0.00     0.328 C 
ATOM      7  O   UNL A   1      34.137  20.460  24.372  1.00  0.00    -0.250 OA
BRANCH   6   8
ATOM      8  C   UNL A   1      34.249  21.614  26.508  1.00  0.00     0.189 C 
ATOM      9  C   UNL A   1      34.864  22.904  26.994  1.00  0.00     0.043 C 
BRANCH   8  10
ATOM     10  N   UNL A   1      32.785  21.570  26.392  1.00  0.00    -0.341 N 
ATOM     11  C   UNL A   1      31.809  22.213  25.712  1.00  0.00     0.240 C 
ATOM     12  O   UNL A   1      30.677  21.718  25.809  1.00  0.00    -0.273 OA
ATOM     13  H   UNL A   1      32.406  20.874  26.977  1.00  0.00     0.164 HD
BRANCH  11  14
ATOM     14  C   UNL A   1      32.023  23.368  24.732  1.00  0.00     0.229 C 
BRANCH  14  15
ATOM     15  N   UNL A   1      32.174  24.705  25.274  1.00  0.00    -0.259 N 
ATOM     16  C   UNL A   1      34.179  27.677  25.803  1.00  0.00     0.029 C 
ATOM     17  C   UNL A   1      33.216  26.739  25.840  1.00  0.00     0.083 C 
ATOM     18  S   UNL A   1      31.733  26.775  26.716  1.00  0.00    -0.022 SA
ATOM     19  C   UNL A   1      33.310  25.454  25.082  1.00  0.00     0.268 C 
ATOM     20  C   UNL A   1      31.318  25.143  26.254  1.00  0.00     0.294 C 
ATOM     21  O   UNL A   1      34.280  25.126  24.415  1.00  0.00    -0.268 OA
ATOM     22  O   UNL A   1      30.397  24.526  26.754  1.00  0.00    -0.261 OA
BRANCH  16  23
ATOM     23  C   UNL A   1      34.192  28.956  26.541  1.00  0.00    -0.020 A 
ATOM     24  C   UNL A   1      34.172  31.350  28.033  1.00  0.00     0.160 A 
ATOM     25  C   UNL A   1      33.193  31.105  27.060  1.00  0.00     0.051 A 
ATOM     26  C   UNL A   1      35.185  30.413  28.250  1.00  0.00     0.161 A 
ATOM     27  C   UNL A   1      33.205  29.918  26.314  1.00  0.00     0.012 A 
ATOM     28  C   UNL A   1      35.197  29.248  27.471  1.00  0.00     0.058 A 
BRANCH  24  29
ATOM     29  O   UNL A   1      34.009  32.448  28.830  1.00  0.00    -0.493 OA
ATOM     30  C   UNL A   1      33.900  33.656  28.080  1.00  0.00     0.278 C 
ENDBRANCH  24  29
BRANCH  26  31
ATOM     31  O   UNL A   1      36.199  30.420  29.166  1.00  0.00    -0.493 OA
ATOM     32  C   UNL A   1      37.200  29.420  29.103  1.00  0.00     0.278 C 
ENDBRANCH  26  31
ENDBRANCH  16  23
ENDBRANCH  14  15
ENDBRANCH  11  14
ENDBRANCH   8  10
ENDBRANCH   6   8
ENDBRANCH   5   6
ENDBRANCH   4   5
ENDBRANCH   3   4
ENDBRANCH   2   3
ENDBRANCH   1   2
BRANCH   1  33
ATOM     33  C   UNL A   1      41.088  21.040  26.276  1.00  0.00     0.188 C 
BRANCH  33  34
ATOM     34  O   UNL A   1      42.048  21.137  27.319  1.00  0.00    -0.376 OA
BRANCH  34  35
ATOM     35  C   UNL A   1      42.385  22.467  27.740  1.00  0.00     0.202 C 
BRANCH  35  36
ATOM     36  C   UNL A   1      43.662  23.137  27.172  1.00  0.00     0.261 C 
BRANCH  36  37
ATOM     37  O   UNL A   1      44.863  22.331  27.108  1.00  0.00    -0.460 OA
BRANCH  37  38
ATOM     38  C   UNL A   1      45.694  22.491  26.049  1.00  0.00     0.338 C 
ATOM     39  O   UNL A   1      45.751  21.763  25.074  1.00  0.00    -0.246 OA
BRANCH  38  40
ATOM     40  C   UNL A   1      46.319  23.851  26.128  1.00  0.00     0.060 A 
ATOM     41  C   UNL A   1      46.128  24.737  25.054  1.00  0.00     0.016 A 
ATOM     42  C   UNL A   1      47.020  24.291  27.255  1.00  0.00     0.016 A 
ATOM     43  C   UNL A   1      46.668  26.032  25.083  1.00  0.00     0.010 A 
ATOM     44  C   UNL A   1      47.578  25.579  27.276  1.00  0.00     0.010 A 
ATOM     45  C   UNL A   1      47.438  26.449  26.177  1.00  0.00    -0.014 A 
BRANCH  45  46
ATOM     46  C   UNL A   1      48.282  27.678  26.092  1.00  0.00     0.031 A 
ATOM     47  C   UNL A   1      47.670  28.984  26.544  1.00  0.00     0.074 A 
ATOM     48  C   UNL A   1      49.552  27.671  25.640  1.00  0.00     0.049 A 
ATOM     49  N   UNL A   1      48.139  30.202  26.449  1.00  0.00    -0.248 NA
ATOM     50  C   UNL A   1      46.347  28.897  27.185  1.00  0.00     0.031 C 
ATOM     51  C   UNL A   1      50.306  26.488  25.232  1.00  0.00     0.029 A 
ATOM     52  N   UNL A   1      50.430  28.714  25.433  1.00  0.00    -0.354 N 
ATOM     53  C   UNL A   1      47.169  31.025  27.012  1.00  0.00     0.074 A 
ATOM     54  C   UNL A   1      46.071  30.172  27.411  1.00  0.00     0.031 C 
ATOM     55  C   UNL A   1      51.524  26.873  24.802  1.00  0.00     0.029 A 
ATOM     56  C   UNL A   1      51.624  28.332  24.861  1.00  0.00     0.049 A 
ATOM     57  H   UNL A   1      50.223  29.646  25.673  1.00  0.00     0.167 HD
ATOM     58  C   UNL A   1      47.185  32.367  27.192  1.00  0.00     0.031 A 
ATOM     59  C   UNL A   1      52.658  29.071  24.404  1.00  0.00     0.031 A 
ATOM     60  C   UNL A   1      48.264  33.227  26.786  1.00  0.00     0.049 A 
ATOM     61  C   UNL A   1      52.609  30.580  24.512  1.00  0.00     0.074 A 
ATOM     62  C   UNL A   1      48.357  34.603  26.909  1.00  0.00     0.029 A 
ATOM     63  N   UNL A   1      49.436  32.800  26.185  1.00  0.00    -0.354 N 
ATOM     64  N   UNL A   1      51.680  31.343  25.039  1.00  0.00    -0.248 NA
ATOM     65  C   UNL A   1      53.754  31.330  23.966  1.00  0.00     0.031 C 
ATOM     66  C   UNL A   1      49.563  35.014  26.333  1.00  0.00     0.029 A 
ATOM     67  C   UNL A   1      50.252  33.886  25.918  1.00  0.00     0.049 A 
ATOM     68  H   UNL A   1      49.657  31.863  25.978  1.00  0.00     0.167 HD
ATOM     69  C   UNL A   1      52.149  32.650  24.926  1.00  0.00     0.074 A 
ATOM     70  C   UNL A   1      53.447  32.579  24.292  1.00  0.00     0.031 C 
ATOM     71  C   UNL A   1      51.558  33.808  25.315  1.00  0.00     0.031 A 
BRANCH  58  72
ATOM     72  C   UNL A   1      45.987  32.999  27.849  1.00  0.00    -0.014 A 
ATOM     73  C   UNL A   1      45.937  33.179  29.243  1.00  0.00     0.010 A 
ATOM     74  C   UNL A   1      44.925  33.476  27.059  1.00  0.00     0.010 A 
ATOM     75  C   UNL A   1      44.836  33.801  29.837  1.00  0.00     0.020 A 
ATOM     76  C   UNL A   1      43.835  34.126  27.646  1.00  0.00     0.020 A 
ATOM     77  C   UNL A   1      43.794  34.275  29.034  1.00  0.00     0.054 A 
BRANCH  77  78
ATOM     78  S   UNL A   1      42.402  35.120  29.831  1.00  0.00     0.124 S 
ATOM     79  O   UNL A   1      42.861  35.216  31.216  1.00  0.00    -0.237 OA
ATOM     80  O   UNL A   1      42.338  36.385  29.103  1.00  0.00    -0.237 OA
ATOM     81  O   UNL A   1      41.274  34.219  29.611  1.00  0.00    -0.744 OA
ENDBRANCH  77  78
ENDBRANCH  58  72
BRANCH  59  82
ATOM     82  C   UNL A   1      53.829  28.417  23.743  1.00  0.00    -0.014 A 
ATOM     83  C   UNL A   1      54.959  28.027  24.485  1.00  0.00     0.010 A 
ATOM     84  C   UNL A   1      53.846  28.247  22.345  1.00  0.00     0.010 A 
ATOM     85  C   UNL A   1      56.094  27.521  23.842  1.00  0.00     0.020 A 
ATOM     86  C   UNL A   1      54.965  27.706  21.702  1.00  0.00     0.020 A 
ATOM     87  C   UNL A   1      56.091  27.366  22.453  1.00  0.00     0.054 A 
BRANCH  87  88
ATOM     88  S   UNL A   1      57.571  26.702  21.639  1.00  0.00     0.124 S 
ATOM     89  O   UNL A   1      58.100  25.802  22.659  1.00  0.00    -0.237 OA
ATOM     90  O   UNL A   1      57.012  26.056  20.453  1.00  0.00    -0.237 OA
ATOM     91  O   UNL A   1      58.378  27.890  21.373  1.00  0.00    -0.744 OA
ENDBRANCH  87  88
ENDBRANCH  59  82
BRANCH  71  92
ATOM     92  C   UNL A   1      52.326  35.096  25.144  1.00  0.00    -0.014 A 
ATOM     93  C   UNL A   1      53.155  35.604  26.159  1.00  0.00     0.010 A 
ATOM     94  C   UNL A   1      52.278  35.763  23.904  1.00  0.00     0.010 A 
ATOM     95  C   UNL A   1      53.904  36.767  25.946  1.00  0.00     0.020 A 
ATOM     96  C   UNL A   1      53.049  36.907  23.678  1.00  0.00     0.020 A 
ATOM     97  C   UNL A   1      53.850  37.409  24.704  1.00  0.00     0.054 A 
BRANCH  97  98
ATOM     98  S   UNL A   1      54.879  38.878  24.433  1.00  0.00     0.124 S 
ATOM     99  O   UNL A   1      55.913  38.719  25.454  1.00  0.00    -0.237 OA
ATOM    100  O   UNL A   1      55.328  38.702  23.053  1.00  0.00    -0.237 OA
ATOM    101  O   UNL A   1      53.959  39.993  24.646  1.00  0.00    -0.744 OA
ENDBRANCH  97  98
ENDBRANCH  71  92
ENDBRANCH  45  46
ENDBRANCH  38  40
ENDBRANCH  37  38
ENDBRANCH  36  37
ENDBRANCH  35  36
ENDBRANCH  34  35
ENDBRANCH  33  34
ENDBRANCH   1  33
TORSDOF 26
ENDMDL
MODEL 2
REMARK VINA RESULT:      -8.5      3.969      6.501
REMARK SMILES COc1ccc(/C=C2\SC(=O)N(CC(=O)N[C@H](C)C(=O)OCCOCCOCCOC(=O)c3ccc(-c4c5nc(c(-c6ccc(S(=O)(=O)[O-])cc6)c6ccc([nH]6)c(-c6ccc(S(=O)(=O)[O-])cc6)c6nc(c(-c7ccc(S(=O)(=O)[O-])cc7)c7ccc4[nH]7)C=C6)C=C5)cc3)C2=O)cc1OC
REMARK SMILES IDX 25 1 24 2 23 3 22 4 21 5 19 6 20 7 17 8 18 9 16 10 14 11
REMARK SMILES IDX 15 12 13 14 12 15 7 16 8 17 9 18 93 19 10 20 94 21 11 22
REMARK SMILES IDX 6 23 3 24 4 25 96 26 5 27 95 28 2 29 1 30 97 31 98 32 26 33
REMARK SMILES IDX 27 34 28 35 29 36 30 37 31 38 32 39 33 40 34 41 92 42 35 43
REMARK SMILES IDX 91 44 36 45 37 46 38 47 85 48 39 49 90 50 84 51 86 52 40 53
REMARK SMILES IDX 89 54 83 55 82 56 41 58 71 59 52 60 70 61 53 62 56 63 69 64
REMARK SMILES IDX 87 65 54 66 55 67 68 69 88 70 57 71 42 72 43 73 51 74 44 75
REMARK SMILES IDX 50 76 45 77 46 78 47 79 48 80 49 81 72 82 73 83 81 84 74 85
REMARK SMILES IDX 80 86 75 87 76 88 77 89 78 90 79 91 58 92 59 93 67 94 60 95
REMARK SMILES IDX 66 96 61 97 62 98 63 99 64 100 65 101
REMARK H PARENT 16 13 86 57 56 68
REMARK Flexibility Score: inf
ROOT
ATOM      1  C   UNL A   1      41.822  22.553  26.524  1.00  0.00     0.188 C 
ENDROOT
BRANCH   1   2
ATOM      2  O   UNL A   1      40.750  21.858  27.145  1.00  0.00    -0.376 OA
BRANCH   2   3
ATOM      3  C   UNL A   1      40.320  20.666  26.490  1.00  0.00     0.202 C 
BRANCH   3   4
ATOM      4  C   UNL A   1      39.010  20.759  25.686  1.00  0.00     0.261 C 
BRANCH   4   5
ATOM      5  O   UNL A   1      38.532  22.110  25.502  1.00  0.00    -0.462 OA
BRANCH   5   6
ATOM      6  C   UNL A   1      37.267  22.244  25.016  1.00  0.00     0.328 C 
ATOM      7  O   UNL A   1      36.920  21.926  23.881  1.00  0.00    -0.250 OA
BRANCH   6   8
ATOM      8  C   UNL A   1      36.273  22.872  26.024  1.00  0.00     0.189 C 
ATOM      9  C   UNL A   1      35.790  24.259  25.677  1.00  0.00     0.043 C 
BRANCH   8  10
ATOM     10  N   UNL A   1      35.252  21.860  26.323  1.00  0.00    -0.341 N 
ATOM     11  C   UNL A   1      34.182  21.299  25.715  1.00  0.00     0.240 C 
ATOM     12  O   UNL A   1      33.683  20.329  26.303  1.00  0.00    -0.273 OA
ATOM     13  H   UNL A   1      35.383  21.482  27.223  1.00  0.00     0.164 HD
BRANCH  11  14
ATOM     14  C   UNL A   1      33.664  21.659  24.321  1.00  0.00     0.229 C 
BRANCH  14  15
ATOM     15  N   UNL A   1      33.185  23.009  24.098  1.00  0.00    -0.259 N 
ATOM     16  C   UNL A   1      30.808  25.657  24.786  1.00  0.00     0.029 C 
ATOM     17  C   UNL A   1      31.792  24.900  24.271  1.00  0.00     0.083 C 
ATOM     18  S   UNL A   1      32.857  25.285  22.971  1.00  0.00    -0.022 SA
ATOM     19  C   UNL A   1      32.115  23.534  24.783  1.00  0.00     0.268 C 
ATOM     20  C   UNL A   1      33.585  23.699  22.981  1.00  0.00     0.294 C 
ATOM     21  O   UNL A   1      31.486  22.972  25.668  1.00  0.00    -0.268 OA
ATOM     22  O   UNL A   1      34.332  23.306  22.105  1.00  0.00    -0.261 OA
BRANCH  16  23
ATOM     23  C   UNL A   1      30.394  26.998  24.327  1.00  0.00    -0.020 A 
ATOM     24  C   UNL A   1      29.625  29.530  23.349  1.00  0.00     0.160 A 
ATOM     25  C   UNL A   1      30.888  29.340  23.929  1.00  0.00     0.051 A 
ATOM     26  C   UNL A   1      28.726  28.464  23.277  1.00  0.00     0.161 A 
ATOM     27  C   UNL A   1      31.269  28.082  24.420  1.00  0.00     0.012 A 
ATOM     28  C   UNL A   1      29.115  27.224  23.804  1.00  0.00     0.058 A 
BRANCH  24  29
ATOM     29  O   UNL A   1      29.381  30.734  22.750  1.00  0.00    -0.493 OA
ATOM     30  C   UNL A   1      29.124  30.606  21.353  1.00  0.00     0.278 C 
ENDBRANCH  24  29
BRANCH  26  31
ATOM     31  O   UNL A   1      27.480  28.409  22.720  1.00  0.00    -0.493 OA
ATOM     32  C   UNL A   1      26.353  28.212  23.555  1.00  0.00     0.278 C 
ENDBRANCH  26  31
ENDBRANCH  16  23
ENDBRANCH  14  15
ENDBRANCH  11  14
ENDBRANCH   8  10
ENDBRANCH   6   8
ENDBRANCH   5   6
ENDBRANCH   4   5
ENDBRANCH   3   4
ENDBRANCH   2   3
ENDBRANCH   1   2
BRANCH   1  33
ATOM     33  C   UNL A   1      42.886  21.679  25.856  1.00  0.00     0.188 C 
BRANCH  33  34
ATOM     34  O   UNL A   1      43.587  22.233  24.751  1.00  0.00    -0.376 OA
BRANCH  34  35
ATOM     35  C   UNL A   1      43.718  23.662  24.742  1.00  0.00     0.202 C 
BRANCH  35  36
ATOM     36  C   UNL A   1      45.028  24.302  25.266  1.00  0.00     0.261 C 
BRANCH  36  37
ATOM     37  O   UNL A   1      44.938  25.128  26.452  1.00  0.00    -0.460 OA
BRANCH  37  38
ATOM     38  C   UNL A   1      46.085  25.542  27.041  1.00  0.00     0.338 C 
ATOM     39  O   UNL A   1      47.118  24.900  27.117  1.00  0.00    -0.246 OA
BRANCH  38  40
ATOM     40  C   UNL A   1      45.979  27.010  27.323  1.00  0.00     0.060 A 
ATOM     41  C   UNL A   1      45.323  27.825  26.384  1.00  0.00     0.016 A 
ATOM     42  C   UNL A   1      46.444  27.582  28.511  1.00  0.00     0.016 A 
ATOM     43  C   UNL A   1      45.172  29.202  26.607  1.00  0.00     0.010 A 
ATOM     44  C   UNL A   1      46.310  28.964  28.725  1.00  0.00     0.010 A 
ATOM     45  C   UNL A   1      45.705  29.793  27.760  1.00  0.00    -0.014 A 
BRANCH  45  46
ATOM     46  C   UNL A   1      45.844  31.275  27.865  1.00  0.00     0.031 A 
ATOM     47  C   UNL A   1      44.679  32.053  28.431  1.00  0.00     0.074 A 
ATOM     48  C   UNL A   1      46.953  31.941  27.484  1.00  0.00     0.049 A 
ATOM     49  N   UNL A   1      44.495  33.346  28.504  1.00  0.00    -0.248 NA
ATOM     50  C   UNL A   1      43.571  31.256  28.986  1.00  0.00     0.031 C 
ATOM     51  C   UNL A   1      48.183  31.333  26.982  1.00  0.00     0.029 A 
ATOM     52  N   UNL A   1      47.211  33.295  27.448  1.00  0.00    -0.354 N 
ATOM     53  C   UNL A   1      43.253  33.518  29.106  1.00  0.00     0.074 A 
ATOM     54  C   UNL A   1      42.712  32.197  29.344  1.00  0.00     0.031 C 
ATOM     55  C   UNL A   1      49.056  32.310  26.667  1.00  0.00     0.029 A 
ATOM     56  C   UNL A   1      48.434  33.614  26.901  1.00  0.00     0.049 A 
ATOM     57  H   UNL A   1      46.579  33.971  27.783  1.00  0.00     0.167 HD
ATOM     58  C   UNL A   1      42.616  34.665  29.442  1.00  0.00     0.031 A 
ATOM     59  C   UNL A   1      48.975  34.813  26.589  1.00  0.00     0.031 A 
ATOM     60  C   UNL A   1      43.137  35.983  29.198  1.00  0.00     0.049 A 
ATOM     61  C   UNL A   1      48.199  36.082  26.869  1.00  0.00     0.074 A 
ATOM     62  C   UNL A   1      42.550  37.204  29.485  1.00  0.00     0.029 A 
ATOM     63  N   UNL A   1      44.363  36.257  28.615  1.00  0.00    -0.354 N 
ATOM     64  N   UNL A   1      47.021  36.227  27.430  1.00  0.00    -0.248 NA
ATOM     65  C   UNL A   1      48.829  37.355  26.477  1.00  0.00     0.031 C 
ATOM     66  C   UNL A   1      43.398  38.217  29.027  1.00  0.00     0.029 A 
ATOM     67  C   UNL A   1      44.545  37.626  28.521  1.00  0.00     0.049 A 
ATOM     68  H   UNL A   1      45.010  35.579  28.313  1.00  0.00     0.167 HD
ATOM     69  C   UNL A   1      46.794  37.600  27.496  1.00  0.00     0.074 A 
ATOM     70  C   UNL A   1      47.957  38.246  26.929  1.00  0.00     0.031 C 
ATOM     71  C   UNL A   1      45.718  38.266  27.984  1.00  0.00     0.031 A 
BRANCH  58  72
ATOM     72  C   UNL A   1      41.268  34.549  30.102  1.00  0.00    -0.014 A 
ATOM     73  C   UNL A   1      40.085  34.608  29.343  1.00  0.00     0.010 A 
ATOM     74  C   UNL A   1      41.182  34.316  31.487  1.00  0.00     0.010 A 
ATOM     75  C   UNL A   1      38.840  34.462  29.961  1.00  0.00     0.020 A 
ATOM     76  C   UNL A   1      39.941  34.138  32.105  1.00  0.00     0.020 A 
ATOM     77  C   UNL A   1      38.776  34.223  31.338  1.00  0.00     0.054 A 
BRANCH  77  78
ATOM     78  S   UNL A   1      37.149  33.990  32.101  1.00  0.00     0.124 S 
ATOM     79  O   UNL A   1      37.024  35.194  32.920  1.00  0.00    -0.237 OA
ATOM     80  O   UNL A   1      36.260  33.924  30.943  1.00  0.00    -0.237 OA
ATOM     81  O   UNL A   1      37.289  32.742  32.848  1.00  0.00    -0.744 OA
ENDBRANCH  77  78
ENDBRANCH  58  72
BRANCH  59  82
ATOM     82  C   UNL A   1      50.309  34.897  25.921  1.00  0.00    -0.014 A 
ATOM     83  C   UNL A   1      51.456  34.336  26.513  1.00  0.00     0.010 A 
ATOM     84  C   UNL A   1      50.451  35.607  24.713  1.00  0.00     0.010 A 
ATOM     85  C   UNL A   1      52.718  34.519  25.936  1.00  0.00     0.020 A 
ATOM     86  C   UNL A   1      51.706  35.760  24.114  1.00  0.00     0.020 A 
ATOM     87  C   UNL A   1      52.835  35.232  24.741  1.00  0.00     0.054 A 
BRANCH  87  88
ATOM     88  S   UNL A   1      54.480  35.452  24.006  1.00  0.00     0.124 S 
ATOM     89  O   UNL A   1      54.610  34.250  23.189  1.00  0.00    -0.237 OA
ATOM     90  O   UNL A   1      54.329  36.705  23.269  1.00  0.00    -0.237 OA
ATOM     91  O   UNL A   1      55.367  35.520  25.164  1.00  0.00    -0.744 OA
ENDBRANCH  87  88
ENDBRANCH  59  82
BRANCH  71  92
ATOM     92  C   UNL A   1      45.762  39.775  28.007  1.00  0.00    -0.014 A 
ATOM     93  C   UNL A   1      46.414  40.482  29.031  1.00  0.00     0.010 A 
ATOM     94  C   UNL A   1      45.208  40.493  26.928  1.00  0.00     0.010 A 
ATOM     95  C   UNL A   1      46.491  41.879  28.990  1.00  0.00     0.020 A 
ATOM     96  C   UNL A   1      45.311  41.885  26.868  1.00  0.00     0.020 A 
ATOM     97  C   UNL A   1      45.944  42.572  27.905  1.00  0.00     0.054 A 
BRANCH  97  98
ATOM     98  S   UNL A   1      46.114  44.377  27.842  1.00  0.00     0.124 S 
ATOM     99  O   UNL A   1      45.147  44.810  28.849  1.00  0.00    -0.237 OA
ATOM    100  O   UNL A   1      47.518  44.577  28.194  1.00  0.00    -0.237 OA
ATOM    101  O   UNL A   1      45.768  44.712  26.463  1.00  0.00    -0.744 OA
ENDBRANCH  97  98
ENDBRANCH  71  92
ENDBRANCH  45  46
ENDBRANCH  38  40
ENDBRANCH  37  38
ENDBRANCH  36  37
ENDBRANCH  35  36
ENDBRANCH  34  35
ENDBRANCH  33  34
ENDBRANCH   1  33
TORSDOF 26
ENDMDL
MODEL 3
REMARK VINA RESULT:      -7.6      3.682      5.882
REMARK SMILES COc1ccc(/C=C2\SC(=O)N(CC(=O)N[C@H](C)C(=O)OCCOCCOCCOC(=O)c3ccc(-c4c5nc(c(-c6ccc(S(=O)(=O)[O-])cc6)c6ccc([nH]6)c(-c6ccc(S(=O)(=O)[O-])cc6)c6nc(c(-c7ccc(S(=O)(=O)[O-])cc7)c7ccc4[nH]7)C=C6)C=C5)cc3)C2=O)cc1OC
REMARK SMILES IDX 25 1 24 2 23 3 22 4 21 5 19 6 20 7 17 8 18 9 16 10 14 11
REMARK SMILES IDX 15 12 13 14 12 15 7 16 8 17 9 18 93 19 10 20 94 21 11 22
REMARK SMILES IDX 6 23 3 24 4 25 96 26 5 27 95 28 2 29 1 30 97 31 98 32 26 33
REMARK SMILES IDX 27 34 28 35 29 36 30 37 31 38 32 39 33 40 34 41 92 42 35 43
REMARK SMILES IDX 91 44 36 45 37 46 38 47 85 48 39 49 90 50 84 51 86 52 40 53
REMARK SMILES IDX 89 54 83 55 82 56 41 58 71 59 52 60 70 61 53 62 56 63 69 64
REMARK SMILES IDX 87 65 54 66 55 67 68 69 88 70 57 71 42 72 43 73 51 74 44 75
REMARK SMILES IDX 50 76 45 77 46 78 47 79 48 80 49 81 72 82 73 83 81 84 74 85
REMARK SMILES IDX 80 86 75 87 76 88 77 89 78 90 79 91 58 92 59 93 67 94 60 95
REMARK SMILES IDX 66 96 61 97 62 98 63 99 64 100 65 101
REMARK H PARENT 16 13 86 57 56 68
REMARK Flexibility Score: inf
ROOT
ATOM      1  C   UNL A   1      41.139  22.181  26.212  1.00  0.00     0.188 C 
ENDROOT
BRANCH   1   2
ATOM      2  O   UNL A   1      40.037  21.371  25.827  1.00  0.00    -0.376 OA
BRANCH   2   3
ATOM      3  C   UNL A   1      40.261  19.962  25.853  1.00  0.00     0.202 C 
BRANCH   3   4
ATOM      4  C   UNL A   1      39.009  19.068  25.834  1.00  0.00     0.261 C 
BRANCH   4   5
ATOM      5  O   UNL A   1      38.197  19.222  24.649  1.00  0.00    -0.462 OA
BRANCH   5   6
ATOM      6  C   UNL A   1      36.933  19.693  24.837  1.00  0.00     0.328 C 
ATOM      7  O   UNL A   1      35.914  19.017  24.721  1.00  0.00    -0.250 OA
BRANCH   6   8
ATOM      8  C   UNL A   1      36.874  21.199  25.195  1.00  0.00     0.189 C 
ATOM      9  C   UNL A   1      36.661  22.132  24.028  1.00  0.00     0.043 C 
BRANCH   8  10
ATOM     10  N   UNL A   1      35.970  21.343  26.344  1.00  0.00    -0.341 N 
ATOM     11  C   UNL A   1      34.707  21.760  26.585  1.00  0.00     0.240 C 
ATOM     12  O   UNL A   1      34.287  21.551  27.732  1.00  0.00    -0.273 OA
ATOM     13  H   UNL A   1      36.410  21.055  27.177  1.00  0.00     0.164 HD
BRANCH  11  14
ATOM     14  C   UNL A   1      33.735  22.301  25.534  1.00  0.00     0.229 C 
BRANCH  14  15
ATOM     15  N   UNL A   1      33.250  23.659  25.688  1.00  0.00    -0.259 N 
ATOM     16  C   UNL A   1      33.790  27.236  25.463  1.00  0.00     0.029 C 
ATOM     17  C   UNL A   1      33.289  26.013  25.713  1.00  0.00     0.083 C 
ATOM     18  S   UNL A   1      31.793  25.615  26.470  1.00  0.00    -0.022 SA
ATOM     19  C   UNL A   1      34.008  24.755  25.350  1.00  0.00     0.268 C 
ATOM     20  C   UNL A   1      32.143  23.905  26.462  1.00  0.00     0.294 C 
ATOM     21  O   UNL A   1      35.123  24.727  24.850  1.00  0.00    -0.268 OA
ATOM     22  O   UNL A   1      31.476  23.088  27.068  1.00  0.00    -0.261 OA
BRANCH  16  23
ATOM     23  C   UNL A   1      33.172  28.530  25.814  1.00  0.00    -0.020 A 
ATOM     24  C   UNL A   1      31.957  30.960  26.573  1.00  0.00     0.160 A 
ATOM     25  C   UNL A   1      31.338  30.110  25.645  1.00  0.00     0.051 A 
ATOM     26  C   UNL A   1      33.200  30.617  27.109  1.00  0.00     0.161 A 
ATOM     27  C   UNL A   1      31.944  28.904  25.263  1.00  0.00     0.012 A 
ATOM     28  C   UNL A   1      33.804  29.423  26.689  1.00  0.00     0.058 A 
BRANCH  24  29
ATOM     29  O   UNL A   1      31.240  32.035  27.019  1.00  0.00    -0.493 OA
ATOM     30  C   UNL A   1      31.676  33.261  26.436  1.00  0.00     0.278 C 
ENDBRANCH  24  29
BRANCH  26  31
ATOM     31  O   UNL A   1      33.953  31.260  28.050  1.00  0.00    -0.493 OA
ATOM     32  C   UNL A   1      35.366  31.226  27.953  1.00  0.00     0.278 C 
ENDBRANCH  26  31
ENDBRANCH  16  23
ENDBRANCH  14  15
ENDBRANCH  11  14
ENDBRANCH   8  10
ENDBRANCH   6   8
ENDBRANCH   5   6
ENDBRANCH   4   5
ENDBRANCH   3   4
ENDBRANCH   2   3
ENDBRANCH   1   2
BRANCH   1  33
ATOM     33  C   UNL A   1      42.316  21.444  26.855  1.00  0.00     0.188 C 
BRANCH  33  34
ATOM     34  O   UNL A   1      42.604  21.735  28.216  1.00  0.00    -0.376 OA
BRANCH  34  35
ATOM     35  C   UNL A   1      42.285  23.063  28.656  1.00  0.00     0.202 C 
BRANCH  35  36
ATOM     36  C   UNL A   1      42.744  24.270  27.799  1.00  0.00     0.261 C 
BRANCH  36  37
ATOM     37  O   UNL A   1      43.809  25.095  28.329  1.00  0.00    -0.460 OA
BRANCH  37  38
ATOM     38  C   UNL A   1      44.918  25.284  27.574  1.00  0.00     0.338 C 
ATOM     39  O   UNL A   1      45.398  24.475  26.800  1.00  0.00    -0.246 OA
BRANCH  38  40
ATOM     40  C   UNL A   1      45.291  26.735  27.620  1.00  0.00     0.060 A 
ATOM     41  C   UNL A   1      45.637  27.296  28.861  1.00  0.00     0.016 A 
ATOM     42  C   UNL A   1      45.373  27.526  26.469  1.00  0.00     0.016 A 
ATOM     43  C   UNL A   1      46.018  28.644  28.961  1.00  0.00     0.010 A 
ATOM     44  C   UNL A   1      45.735  28.879  26.572  1.00  0.00     0.010 A 
ATOM     45  C   UNL A   1      46.027  29.460  27.822  1.00  0.00    -0.014 A 
BRANCH  45  46
ATOM     46  C   UNL A   1      46.109  30.945  27.947  1.00  0.00     0.031 A 
ATOM     47  C   UNL A   1      44.896  31.675  28.474  1.00  0.00     0.074 A 
ATOM     48  C   UNL A   1      47.208  31.653  27.618  1.00  0.00     0.049 A 
ATOM     49  N   UNL A   1      44.664  32.960  28.552  1.00  0.00    -0.248 NA
ATOM     50  C   UNL A   1      43.796  30.834  28.975  1.00  0.00     0.031 C 
ATOM     51  C   UNL A   1      48.479  31.095  27.161  1.00  0.00     0.029 A 
ATOM     52  N   UNL A   1      47.420  33.016  27.606  1.00  0.00    -0.354 N 
ATOM     53  C   UNL A   1      43.392  33.082  29.104  1.00  0.00     0.074 A 
ATOM     54  C   UNL A   1      42.890  31.741  29.307  1.00  0.00     0.031 C 
ATOM     55  C   UNL A   1      49.328  32.105  26.890  1.00  0.00     0.029 A 
ATOM     56  C   UNL A   1      48.652  33.384  27.112  1.00  0.00     0.049 A 
ATOM     57  H   UNL A   1      46.751  33.666  27.922  1.00  0.00     0.167 HD
ATOM     58  C   UNL A   1      42.703  34.202  29.426  1.00  0.00     0.031 A 
ATOM     59  C   UNL A   1      49.162  34.604  26.834  1.00  0.00     0.031 A 
ATOM     60  C   UNL A   1      43.186  35.541  29.216  1.00  0.00     0.049 A 
ATOM     61  C   UNL A   1      48.331  35.842  27.095  1.00  0.00     0.074 A 
ATOM     62  C   UNL A   1      42.546  36.737  29.491  1.00  0.00     0.029 A 
ATOM     63  N   UNL A   1      44.425  35.863  28.686  1.00  0.00    -0.354 N 
ATOM     64  N   UNL A   1      47.127  35.939  27.609  1.00  0.00    -0.248 NA
ATOM     65  C   UNL A   1      48.931  37.140  26.741  1.00  0.00     0.031 C 
ATOM     66  C   UNL A   1      43.375  37.783  29.078  1.00  0.00     0.029 A 
ATOM     67  C   UNL A   1      44.561  37.239  28.613  1.00  0.00     0.049 A 
ATOM     68  H   UNL A   1      45.106  35.211  28.404  1.00  0.00     0.167 HD
ATOM     69  C   UNL A   1      46.850  37.303  27.680  1.00  0.00     0.074 A 
ATOM     70  C   UNL A   1      48.011  37.996  27.166  1.00  0.00     0.031 C 
ATOM     71  C   UNL A   1      45.732  37.926  28.130  1.00  0.00     0.031 A 
BRANCH  58  72
ATOM     72  C   UNL A   1      41.334  34.032  30.030  1.00  0.00    -0.014 A 
ATOM     73  C   UNL A   1      40.179  34.409  29.319  1.00  0.00     0.010 A 
ATOM     74  C   UNL A   1      41.195  33.432  31.294  1.00  0.00     0.010 A 
ATOM     75  C   UNL A   1      38.913  34.211  29.874  1.00  0.00     0.020 A 
ATOM     76  C   UNL A   1      39.928  33.204  31.840  1.00  0.00     0.020 A 
ATOM     77  C   UNL A   1      38.795  33.606  31.130  1.00  0.00     0.054 A 
BRANCH  77  78
ATOM     78  S   UNL A   1      37.135  33.320  31.800  1.00  0.00     0.124 S 
ATOM     79  O   UNL A   1      36.351  34.346  31.113  1.00  0.00    -0.237 OA
ATOM     80  O   UNL A   1      36.859  31.944  31.393  1.00  0.00    -0.237 OA
ATOM     81  O   UNL A   1      37.299  33.522  33.237  1.00  0.00    -0.744 OA
ENDBRANCH  77  78
ENDBRANCH  58  72
BRANCH  59  82
ATOM     82  C   UNL A   1      50.518  34.742  26.221  1.00  0.00    -0.014 A 
ATOM     83  C   UNL A   1      51.657  34.962  27.017  1.00  0.00     0.010 A 
ATOM     84  C   UNL A   1      50.665  34.725  24.821  1.00  0.00     0.010 A 
ATOM     85  C   UNL A   1      52.903  35.204  26.427  1.00  0.00     0.020 A 
ATOM     86  C   UNL A   1      51.916  34.929  24.228  1.00  0.00     0.020 A 
ATOM     87  C   UNL A   1      53.024  35.188  25.036  1.00  0.00     0.054 A 
BRANCH  87  88
ATOM     88  S   UNL A   1      54.650  35.496  24.291  1.00  0.00     0.124 S 
ATOM     89  O   UNL A   1      55.445  34.398  24.831  1.00  0.00    -0.237 OA
ATOM     90  O   UNL A   1      54.359  35.424  22.861  1.00  0.00    -0.237 OA
ATOM     91  O   UNL A   1      55.005  36.826  24.782  1.00  0.00    -0.744 OA
ENDBRANCH  87  88
ENDBRANCH  59  82
BRANCH  71  92
ATOM     92  C   UNL A   1      45.722  39.435  28.169  1.00  0.00    -0.014 A 
ATOM     93  C   UNL A   1      46.232  40.151  29.265  1.00  0.00     0.010 A 
ATOM     94  C   UNL A   1      45.265  40.146  27.042  1.00  0.00     0.010 A 
ATOM     95  C   UNL A   1      46.266  41.550  29.243  1.00  0.00     0.020 A 
ATOM     96  C   UNL A   1      45.327  41.542  27.004  1.00  0.00     0.020 A 
ATOM     97  C   UNL A   1      45.818  42.237  28.110  1.00  0.00     0.054 A 
BRANCH  97  98
ATOM     98  S   UNL A   1      45.932  44.047  28.081  1.00  0.00     0.124 S 
ATOM     99  O   UNL A   1      44.824  44.437  28.950  1.00  0.00    -0.237 OA
ATOM    100  O   UNL A   1      47.268  44.291  28.621  1.00  0.00    -0.237 OA
ATOM    101  O   UNL A   1      45.765  44.385  26.669  1.00  0.00    -0.744 OA
ENDBRANCH  97  98
ENDBRANCH  71  92
ENDBRANCH  45  46
ENDBRANCH  38  40
ENDBRANCH  37  38
ENDBRANCH  36  37
ENDBRANCH  35  36
ENDBRANCH  34  35
ENDBRANCH  33  34
ENDBRANCH   1  33
TORSDOF 26
ENDMDL
