MODEL 1
REMARK VINA RESULT:     -11.5      0.000      0.000
REMARK SMILES Cc1ccc(C(=O)OCCOCCOCCOC(=O)c2ccc(-c3c4nc(c(-c5ccc(S(=O)(=O)[O-])cc5)c5ccc([nH]5)c(-c5ccc(S(=O)(=O)[O-])cc5)c5nc(c(-c6ccc(S(=O)(=O)[O-])cc6)c6ccc3[nH]6)C=C5)C=C4)cc2)cc1NC(=O)Cc1ccc2ccccc2c1
REMARK SMILES IDX 12 1 11 2 10 3 9 4 8 5 6 6 7 7 5 8 1 9 2 10 3 11 81 12 4 13
REMARK SMILES IDX 80 14 82 15 83 16 84 18 85 19 86 20 87 21 95 22 88 23 94 24
REMARK SMILES IDX 89 25 93 26 90 27 92 28 91 29 13 30 14 31 15 32 16 33 17 34
REMARK SMILES IDX 18 35 19 36 20 37 21 38 79 39 22 40 78 41 23 42 24 43 25 44
REMARK SMILES IDX 72 45 26 46 77 47 71 48 73 49 27 50 76 51 70 52 69 53 28 55
REMARK SMILES IDX 58 56 39 57 57 58 40 59 43 60 56 61 74 62 41 63 42 64 55 66
REMARK SMILES IDX 75 67 44 68 29 69 30 70 38 71 31 72 37 73 32 74 33 75 34 76
REMARK SMILES IDX 35 77 36 78 59 79 60 80 68 81 61 82 67 83 62 84 63 85 64 86
REMARK SMILES IDX 65 87 66 88 45 89 46 90 54 91 47 92 53 93 48 94 49 95 50 96
REMARK SMILES IDX 51 97 52 98
REMARK H PARENT 82 17 73 54 43 65
REMARK Flexibility Score: inf
ROOT
ATOM      1  C   UNL A   1      40.354  20.164  26.224  1.00  0.00     0.188 C 
ENDROOT
BRANCH   1   2
ATOM      2  O   UNL A   1      39.358  21.199  26.196  1.00  0.00    -0.376 OA
BRANCH   2   3
ATOM      3  C   UNL A   1      38.168  21.114  25.370  1.00  0.00     0.202 C 
BRANCH   3   4
ATOM      4  C   UNL A   1      36.830  22.054  25.543  1.00  0.00     0.261 C 
BRANCH   4   5
ATOM      5  O   UNL A   1      35.398  21.495  25.958  1.00  0.00    -0.460 OA
BRANCH   5   6
ATOM      6  C   UNL A   1      34.519  21.614  24.923  1.00  0.00     0.338 C 
ATOM      7  O   UNL A   1      34.315  20.466  24.563  1.00  0.00    -0.246 OA
BRANCH   6   8
ATOM      8  C   UNL A   1      33.694  22.941  24.100  1.00  0.00     0.062 A 
ATOM      9  C   UNL A   1      31.702  26.340  21.966  1.00  0.00     0.046 C 
ATOM     10  C   UNL A   1      32.288  25.140  22.647  1.00  0.00    -0.027 A 
ATOM     11  C   UNL A   1      33.634  24.989  22.512  1.00  0.00     0.006 A 
ATOM     12  C   UNL A   1      31.654  24.134  23.391  1.00  0.00     0.044 A 
ATOM     13  C   UNL A   1      34.261  23.978  23.257  1.00  0.00     0.016 A 
ATOM     14  C   UNL A   1      32.367  22.942  23.798  1.00  0.00     0.042 A 
BRANCH  12  15
ATOM     15  N   UNL A   1      30.397  24.445  23.982  1.00  0.00    -0.326 N 
ATOM     16  C   UNL A   1      30.181  25.162  25.167  1.00  0.00     0.228 C 
ATOM     17  H   UNL A   1      29.597  24.123  23.509  1.00  0.00     0.169 HD
ATOM     18  O   UNL A   1      29.055  25.548  25.463  1.00  0.00    -0.274 OA
BRANCH  16  19
ATOM     19  C   UNL A   1      31.412  25.396  25.970  1.00  0.00     0.135 C 
BRANCH  19  20
ATOM     20  C   UNL A   1      32.199  26.590  26.312  1.00  0.00    -0.038 A 
ATOM     21  C   UNL A   1      33.594  26.459  26.099  1.00  0.00     0.005 A 
ATOM     22  C   UNL A   1      31.655  27.793  26.686  1.00  0.00     0.013 A 
ATOM     23  C   UNL A   1      34.458  27.502  26.347  1.00  0.00     0.009 A 
ATOM     24  C   UNL A   1      32.515  28.865  26.898  1.00  0.00    -0.018 A 
ATOM     25  C   UNL A   1      33.925  28.709  26.774  1.00  0.00    -0.018 A 
ATOM     26  C   UNL A   1      31.986  30.114  27.193  1.00  0.00     0.009 A 
ATOM     27  C   UNL A   1      34.769  29.783  27.039  1.00  0.00     0.009 A 
ATOM     28  C   UNL A   1      32.839  31.196  27.386  1.00  0.00     0.001 A 
ATOM     29  C   UNL A   1      34.222  31.026  27.337  1.00  0.00     0.001 A 
ENDBRANCH  19  20
ENDBRANCH  16  19
ENDBRANCH  12  15
ENDBRANCH   6   8
ENDBRANCH   5   6
ENDBRANCH   4   5
ENDBRANCH   3   4
ENDBRANCH   2   3
ENDBRANCH   1   2
BRANCH   1  30
ATOM     30  C   UNL A   1      41.826  20.403  26.526  1.00  0.00     0.188 C 
BRANCH  30  31
ATOM     31  O   UNL A   1      42.394  21.276  25.562  1.00  0.00    -0.376 OA
BRANCH  31  32
ATOM     32  C   UNL A   1      43.232  22.280  26.103  1.00  0.00     0.202 C 
BRANCH  32  33
ATOM     33  C   UNL A   1      42.815  23.732  25.773  1.00  0.00     0.261 C 
BRANCH  33  34
ATOM     34  O   UNL A   1      41.586  24.164  26.427  1.00  0.00    -0.460 OA
BRANCH  34  35
ATOM     35  C   UNL A   1      41.158  25.479  26.317  1.00  0.00     0.338 C 
ATOM     36  O   UNL A   1      40.890  25.975  25.219  1.00  0.00    -0.246 OA
BRANCH  35  37
ATOM     37  C   UNL A   1      40.802  26.073  27.649  1.00  0.00     0.060 A 
ATOM     38  C   UNL A   1      39.601  26.541  28.206  1.00  0.00     0.016 A 
ATOM     39  C   UNL A   1      41.852  26.226  28.464  1.00  0.00     0.016 A 
ATOM     40  C   UNL A   1      39.529  27.481  29.362  1.00  0.00     0.010 A 
ATOM     41  C   UNL A   1      41.766  27.239  29.413  1.00  0.00     0.010 A 
ATOM     42  C   UNL A   1      40.657  28.021  29.969  1.00  0.00    -0.014 A 
BRANCH  42  43
ATOM     43  C   UNL A   1      40.740  29.387  31.157  1.00  0.00     0.031 A 
ATOM     44  C   UNL A   1      39.993  31.023  31.170  1.00  0.00     0.074 A 
ATOM     45  C   UNL A   1      40.833  28.979  32.446  1.00  0.00     0.049 A 
ATOM     46  N   UNL A   1      39.111  31.400  32.067  1.00  0.00    -0.248 NA
ATOM     47  C   UNL A   1      39.996  32.169  30.158  1.00  0.00     0.031 C 
ATOM     48  C   UNL A   1      40.352  29.603  33.686  1.00  0.00     0.029 A 
ATOM     49  N   UNL A   1      41.646  27.965  32.915  1.00  0.00    -0.354 N 
ATOM     50  C   UNL A   1      38.363  32.502  31.656  1.00  0.00     0.074 A 
ATOM     51  C   UNL A   1      38.861  32.863  30.369  1.00  0.00     0.031 C 
ATOM     52  C   UNL A   1      41.147  29.241  34.702  1.00  0.00     0.029 A 
ATOM     53  C   UNL A   1      42.208  28.463  34.106  1.00  0.00     0.049 A 
ATOM     54  H   UNL A   1      41.800  27.084  32.504  1.00  0.00     0.167 HD
ATOM     55  C   UNL A   1      37.721  33.327  32.533  1.00  0.00     0.031 A 
ATOM     56  C   UNL A   1      43.519  28.821  34.032  1.00  0.00     0.031 A 
ATOM     57  C   UNL A   1      38.523  33.367  33.735  1.00  0.00     0.049 A 
ATOM     58  C   UNL A   1      43.629  30.336  34.136  1.00  0.00     0.074 A 
ATOM     59  C   UNL A   1      38.481  32.758  34.968  1.00  0.00     0.029 A 
ATOM     60  N   UNL A   1      39.823  33.828  33.559  1.00  0.00    -0.354 N 
ATOM     61  N   UNL A   1      42.678  31.183  33.810  1.00  0.00    -0.248 NA
ATOM     62  C   UNL A   1      44.740  30.998  34.812  1.00  0.00     0.031 C 
ATOM     63  C   UNL A   1      39.841  32.650  35.410  1.00  0.00     0.029 A 
ATOM     64  C   UNL A   1      40.676  33.249  34.473  1.00  0.00     0.049 A 
ATOM     65  H   UNL A   1      40.097  34.480  32.874  1.00  0.00     0.167 HD
ATOM     66  C   UNL A   1      42.966  32.420  34.324  1.00  0.00     0.074 A 
ATOM     67  C   UNL A   1      44.297  32.265  34.891  1.00  0.00     0.031 C 
ATOM     68  C   UNL A   1      42.114  33.489  34.366  1.00  0.00     0.031 A 
BRANCH  55  69
ATOM     69  C   UNL A   1      36.450  34.126  32.276  1.00  0.00    -0.014 A 
ATOM     70  C   UNL A   1      35.924  34.956  33.292  1.00  0.00     0.010 A 
ATOM     71  C   UNL A   1      35.629  33.960  31.134  1.00  0.00     0.010 A 
ATOM     72  C   UNL A   1      34.651  35.561  33.196  1.00  0.00     0.020 A 
ATOM     73  C   UNL A   1      34.356  34.576  31.019  1.00  0.00     0.020 A 
ATOM     74  C   UNL A   1      33.866  35.360  32.063  1.00  0.00     0.054 A 
BRANCH  74  75
ATOM     75  S   UNL A   1      32.195  36.094  32.009  1.00  0.00     0.124 S 
ATOM     76  O   UNL A   1      32.354  37.303  32.816  1.00  0.00    -0.237 OA
ATOM     77  O   UNL A   1      31.989  36.323  30.581  1.00  0.00    -0.237 OA
ATOM     78  O   UNL A   1      31.334  35.071  32.597  1.00  0.00    -0.744 OA
ENDBRANCH  74  75
ENDBRANCH  55  69
BRANCH  56  79
ATOM     79  C   UNL A   1      44.250  27.762  33.229  1.00  0.00    -0.014 A 
ATOM     80  C   UNL A   1      44.735  28.229  31.967  1.00  0.00     0.010 A 
ATOM     81  C   UNL A   1      44.916  26.661  33.796  1.00  0.00     0.010 A 
ATOM     82  C   UNL A   1      45.944  27.780  31.422  1.00  0.00     0.020 A 
ATOM     83  C   UNL A   1      46.081  26.130  33.179  1.00  0.00     0.020 A 
ATOM     84  C   UNL A   1      46.633  26.754  32.051  1.00  0.00     0.054 A 
BRANCH  84  85
ATOM     85  S   UNL A   1      48.309  26.375  31.434  1.00  0.00     0.124 S 
ATOM     86  O   UNL A   1      48.911  27.698  31.307  1.00  0.00    -0.237 OA
ATOM     87  O   UNL A   1      48.858  25.549  32.510  1.00  0.00    -0.237 OA
ATOM     88  O   UNL A   1      48.056  25.690  30.170  1.00  0.00    -0.744 OA
ENDBRANCH  84  85
ENDBRANCH  56  79
BRANCH  68  89
ATOM     89  C   UNL A   1      42.627  34.913  34.323  1.00  0.00    -0.014 A 
ATOM     90  C   UNL A   1      43.443  35.383  33.278  1.00  0.00     0.010 A 
ATOM     91  C   UNL A   1      42.150  35.877  35.242  1.00  0.00     0.010 A 
ATOM     92  C   UNL A   1      43.853  36.716  33.214  1.00  0.00     0.020 A 
ATOM     93  C   UNL A   1      42.492  37.229  35.144  1.00  0.00     0.020 A 
ATOM     94  C   UNL A   1      43.383  37.629  34.155  1.00  0.00     0.054 A 
BRANCH  94  95
ATOM     95  S   UNL A   1      43.944  39.343  34.067  1.00  0.00     0.124 S 
ATOM     96  O   UNL A   1      44.095  39.674  35.482  1.00  0.00    -0.237 OA
ATOM     97  O   UNL A   1      45.190  39.241  33.311  1.00  0.00    -0.237 OA
ATOM     98  O   UNL A   1      42.855  40.026  33.374  1.00  0.00    -0.744 OA
ENDBRANCH  94  95
ENDBRANCH  68  89
ENDBRANCH  42  43
ENDBRANCH  35  37
ENDBRANCH  34  35
ENDBRANCH  33  34
ENDBRANCH  32  33
ENDBRANCH  31  32
ENDBRANCH  30  31
ENDBRANCH   1  30
TORSDOF 23
ENDMDL
MODEL 2
REMARK VINA RESULT:     -11.4      2.368      3.148
REMARK SMILES Cc1ccc(C(=O)OCCOCCOCCOC(=O)c2ccc(-c3c4nc(c(-c5ccc(S(=O)(=O)[O-])cc5)c5ccc([nH]5)c(-c5ccc(S(=O)(=O)[O-])cc5)c5nc(c(-c6ccc(S(=O)(=O)[O-])cc6)c6ccc3[nH]6)C=C5)C=C4)cc2)cc1NC(=O)Cc1ccc2ccccc2c1
REMARK SMILES IDX 12 1 11 2 10 3 9 4 8 5 6 6 7 7 5 8 1 9 2 10 3 11 81 12 4 13
REMARK SMILES IDX 80 14 82 15 83 16 84 18 85 19 86 20 87 21 95 22 88 23 94 24
REMARK SMILES IDX 89 25 93 26 90 27 92 28 91 29 13 30 14 31 15 32 16 33 17 34
REMARK SMILES IDX 18 35 19 36 20 37 21 38 79 39 22 40 78 41 23 42 24 43 25 44
REMARK SMILES IDX 72 45 26 46 77 47 71 48 73 49 27 50 76 51 70 52 69 53 28 55
REMARK SMILES IDX 58 56 39 57 57 58 40 59 43 60 56 61 74 62 41 63 42 64 55 66
REMARK SMILES IDX 75 67 44 68 29 69 30 70 38 71 31 72 37 73 32 74 33 75 34 76
REMARK SMILES IDX 35 77 36 78 59 79 60 80 68 81 61 82 67 83 62 84 63 85 64 86
REMARK SMILES IDX 65 87 66 88 45 89 46 90 54 91 47 92 53 93 48 94 49 95 50 96
REMARK SMILES IDX 51 97 52 98
REMARK H PARENT 82 17 73 54 43 65
REMARK Flexibility Score: inf
ROOT
ATOM      1  C   UNL A   1      38.843  22.755  26.225  1.00  0.00     0.188 C 
ENDROOT
BRANCH   1   2
ATOM      2  O   UNL A   1      37.607  23.458  26.025  1.00  0.00    -0.376 OA
BRANCH   2   3
ATOM      3  C   UNL A   1      36.360  22.777  25.733  1.00  0.00     0.202 C 
BRANCH   3   4
ATOM      4  C   UNL A   1      36.234  21.306  25.010  1.00  0.00     0.261 C 
BRANCH   4   5
ATOM      5  O   UNL A   1      35.140  20.215  25.398  1.00  0.00    -0.460 OA
BRANCH   5   6
ATOM      6  C   UNL A   1      33.982  20.434  24.712  1.00  0.00     0.338 C 
ATOM      7  O   UNL A   1      33.711  19.351  24.218  1.00  0.00    -0.246 OA
BRANCH   6   8
ATOM      8  C   UNL A   1      32.906  21.806  24.438  1.00  0.00     0.062 A 
ATOM      9  C   UNL A   1      30.120  25.264  23.841  1.00  0.00     0.046 C 
ATOM     10  C   UNL A   1      31.132  24.172  24.011  1.00  0.00    -0.027 A 
ATOM     11  C   UNL A   1      30.985  23.404  25.126  1.00  0.00     0.006 A 
ATOM     12  C   UNL A   1      32.225  23.830  23.201  1.00  0.00     0.044 A 
ATOM     13  C   UNL A   1      31.801  22.271  25.258  1.00  0.00     0.016 A 
ATOM     14  C   UNL A   1      33.212  22.867  23.642  1.00  0.00     0.042 A 
BRANCH  12  15
ATOM     15  N   UNL A   1      32.179  24.222  21.834  1.00  0.00    -0.326 N 
ATOM     16  C   UNL A   1      32.928  25.239  21.225  1.00  0.00     0.228 C 
ATOM     17  H   UNL A   1      31.556  23.726  21.255  1.00  0.00     0.169 HD
ATOM     18  O   UNL A   1      32.958  25.342  20.004  1.00  0.00    -0.274 OA
BRANCH  16  19
ATOM     19  C   UNL A   1      33.651  26.118  22.185  1.00  0.00     0.135 C 
BRANCH  19  20
ATOM     20  C   UNL A   1      33.229  27.130  23.164  1.00  0.00    -0.038 A 
ATOM     21  C   UNL A   1      32.249  28.038  22.689  1.00  0.00     0.005 A 
ATOM     22  C   UNL A   1      33.629  27.151  24.475  1.00  0.00     0.013 A 
ATOM     23  C   UNL A   1      31.734  29.025  23.500  1.00  0.00     0.009 A 
ATOM     24  C   UNL A   1      33.084  28.117  25.314  1.00  0.00    -0.018 A 
ATOM     25  C   UNL A   1      32.168  29.087  24.815  1.00  0.00    -0.018 A 
ATOM     26  C   UNL A   1      33.405  28.107  26.664  1.00  0.00     0.009 A 
ATOM     27  C   UNL A   1      31.674  30.075  25.661  1.00  0.00     0.009 A 
ATOM     28  C   UNL A   1      32.847  29.057  27.513  1.00  0.00     0.001 A 
ATOM     29  C   UNL A   1      32.009  30.052  27.010  1.00  0.00     0.001 A 
ENDBRANCH  19  20
ENDBRANCH  16  19
ENDBRANCH  12  15
ENDBRANCH   6   8
ENDBRANCH   5   6
ENDBRANCH   4   5
ENDBRANCH   3   4
ENDBRANCH   2   3
ENDBRANCH   1   2
BRANCH   1  30
ATOM     30  C   UNL A   1      40.068  23.354  26.901  1.00  0.00     0.188 C 
BRANCH  30  31
ATOM     31  O   UNL A   1      39.732  24.571  27.548  1.00  0.00    -0.376 OA
BRANCH  31  32
ATOM     32  C   UNL A   1      40.209  25.732  26.897  1.00  0.00     0.202 C 
BRANCH  32  33
ATOM     33  C   UNL A   1      41.332  25.492  25.862  1.00  0.00     0.261 C 
BRANCH  33  34
ATOM     34  O   UNL A   1      42.527  26.299  26.077  1.00  0.00    -0.460 OA
BRANCH  34  35
ATOM     35  C   UNL A   1      42.605  27.585  25.563  1.00  0.00     0.338 C 
ATOM     36  O   UNL A   1      42.555  27.793  24.347  1.00  0.00    -0.246 OA
BRANCH  35  37
ATOM     37  C   UNL A   1      42.462  28.632  26.630  1.00  0.00     0.060 A 
ATOM     38  C   UNL A   1      43.386  29.383  27.373  1.00  0.00     0.016 A 
ATOM     39  C   UNL A   1      41.192  28.873  26.975  1.00  0.00     0.016 A 
ATOM     40  C   UNL A   1      43.069  30.046  28.672  1.00  0.00     0.010 A 
ATOM     41  C   UNL A   1      40.971  29.339  28.266  1.00  0.00     0.010 A 
ATOM     42  C   UNL A   1      41.830  29.939  29.293  1.00  0.00    -0.014 A 
BRANCH  42  43
ATOM     43  C   UNL A   1      41.384  30.413  30.983  1.00  0.00     0.031 A 
ATOM     44  C   UNL A   1      40.429  31.789  31.640  1.00  0.00     0.074 A 
ATOM     45  C   UNL A   1      41.182  29.357  31.807  1.00  0.00     0.049 A 
ATOM     46  N   UNL A   1      39.290  31.631  32.275  1.00  0.00    -0.248 NA
ATOM     47  C   UNL A   1      40.538  33.303  31.458  1.00  0.00     0.031 C 
ATOM     48  C   UNL A   1      40.295  29.202  32.969  1.00  0.00     0.029 A 
ATOM     49  N   UNL A   1      41.978  28.230  31.885  1.00  0.00    -0.354 N 
ATOM     50  C   UNL A   1      38.528  32.798  32.311  1.00  0.00     0.074 A 
ATOM     51  C   UNL A   1      39.299  33.797  31.646  1.00  0.00     0.031 C 
ATOM     52  C   UNL A   1      40.828  28.314  33.819  1.00  0.00     0.029 A 
ATOM     53  C   UNL A   1      42.114  27.967  33.261  1.00  0.00     0.049 A 
ATOM     54  H   UNL A   1      42.366  27.720  31.138  1.00  0.00     0.167 HD
ATOM     55  C   UNL A   1      37.557  33.017  33.244  1.00  0.00     0.031 A 
ATOM     56  C   UNL A   1      43.328  28.267  33.798  1.00  0.00     0.031 A 
ATOM     57  C   UNL A   1      37.987  32.360  34.458  1.00  0.00     0.049 A 
ATOM     58  C   UNL A   1      43.181  29.466  34.725  1.00  0.00     0.074 A 
ATOM     59  C   UNL A   1      37.701  31.171  35.089  1.00  0.00     0.029 A 
ATOM     60  N   UNL A   1      39.203  32.803  34.967  1.00  0.00    -0.354 N 
ATOM     61  N   UNL A   1      42.240  30.379  34.629  1.00  0.00    -0.248 NA
ATOM     62  C   UNL A   1      43.955  29.609  35.954  1.00  0.00     0.031 C 
ATOM     63  C   UNL A   1      38.890  30.796  35.797  1.00  0.00     0.029 A 
ATOM     64  C   UNL A   1      39.851  31.789  35.639  1.00  0.00     0.049 A 
ATOM     65  H   UNL A   1      39.553  33.717  34.862  1.00  0.00     0.167 HD
ATOM     66  C   UNL A   1      42.191  31.114  35.783  1.00  0.00     0.074 A 
ATOM     67  C   UNL A   1      43.325  30.632  36.557  1.00  0.00     0.031 C 
ATOM     68  C   UNL A   1      41.211  32.006  36.127  1.00  0.00     0.031 A 
BRANCH  55  69
ATOM     69  C   UNL A   1      36.301  33.861  33.077  1.00  0.00    -0.014 A 
ATOM     70  C   UNL A   1      35.804  34.134  31.781  1.00  0.00     0.010 A 
ATOM     71  C   UNL A   1      35.677  34.568  34.134  1.00  0.00     0.010 A 
ATOM     72  C   UNL A   1      34.772  35.069  31.545  1.00  0.00     0.020 A 
ATOM     73  C   UNL A   1      34.628  35.497  33.910  1.00  0.00     0.020 A 
ATOM     74  C   UNL A   1      34.193  35.756  32.611  1.00  0.00     0.054 A 
BRANCH  74  75
ATOM     75  S   UNL A   1      32.917  37.013  32.258  1.00  0.00     0.124 S 
ATOM     76  O   UNL A   1      31.979  36.831  33.364  1.00  0.00    -0.237 OA
ATOM     77  O   UNL A   1      33.677  38.260  32.286  1.00  0.00    -0.237 OA
ATOM     78  O   UNL A   1      32.399  36.640  30.943  1.00  0.00    -0.744 OA
ENDBRANCH  74  75
ENDBRANCH  55  69
BRANCH  56  79
ATOM     79  C   UNL A   1      44.397  27.810  32.825  1.00  0.00    -0.014 A 
ATOM     80  C   UNL A   1      44.506  26.389  32.713  1.00  0.00     0.010 A 
ATOM     81  C   UNL A   1      44.839  28.568  31.726  1.00  0.00     0.010 A 
ATOM     82  C   UNL A   1      44.813  25.758  31.502  1.00  0.00     0.020 A 
ATOM     83  C   UNL A   1      45.262  27.922  30.532  1.00  0.00     0.020 A 
ATOM     84  C   UNL A   1      45.156  26.530  30.402  1.00  0.00     0.054 A 
BRANCH  84  85
ATOM     85  S   UNL A   1      45.313  25.673  28.798  1.00  0.00     0.124 S 
ATOM     86  O   UNL A   1      46.569  24.945  28.944  1.00  0.00    -0.237 OA
ATOM     87  O   UNL A   1      44.114  24.834  28.774  1.00  0.00    -0.237 OA
ATOM     88  O   UNL A   1      45.345  26.768  27.833  1.00  0.00    -0.744 OA
ENDBRANCH  84  85
ENDBRANCH  56  79
BRANCH  68  89
ATOM     89  C   UNL A   1      41.501  33.198  37.013  1.00  0.00    -0.014 A 
ATOM     90  C   UNL A   1      41.384  33.136  38.413  1.00  0.00     0.010 A 
ATOM     91  C   UNL A   1      42.081  34.371  36.473  1.00  0.00     0.010 A 
ATOM     92  C   UNL A   1      41.721  34.221  39.224  1.00  0.00     0.020 A 
ATOM     93  C   UNL A   1      42.493  35.434  37.281  1.00  0.00     0.020 A 
ATOM     94  C   UNL A   1      42.263  35.369  38.651  1.00  0.00     0.054 A 
BRANCH  94  95
ATOM     95  S   UNL A   1      42.670  36.770  39.715  1.00  0.00     0.124 S 
ATOM     96  O   UNL A   1      41.778  36.545  40.849  1.00  0.00    -0.237 OA
ATOM     97  O   UNL A   1      44.092  36.571  39.986  1.00  0.00    -0.237 OA
ATOM     98  O   UNL A   1      42.357  37.933  38.888  1.00  0.00    -0.744 OA
ENDBRANCH  94  95
ENDBRANCH  68  89
ENDBRANCH  42  43
ENDBRANCH  35  37
ENDBRANCH  34  35
ENDBRANCH  33  34
ENDBRANCH  32  33
ENDBRANCH  31  32
ENDBRANCH  30  31
ENDBRANCH   1  30
TORSDOF 23
ENDMDL
MODEL 3
REMARK VINA RESULT:     -10.7      1.592      2.487
REMARK SMILES Cc1ccc(C(=O)OCCOCCOCCOC(=O)c2ccc(-c3c4nc(c(-c5ccc(S(=O)(=O)[O-])cc5)c5ccc([nH]5)c(-c5ccc(S(=O)(=O)[O-])cc5)c5nc(c(-c6ccc(S(=O)(=O)[O-])cc6)c6ccc3[nH]6)C=C5)C=C4)cc2)cc1NC(=O)Cc1ccc2ccccc2c1
REMARK SMILES IDX 12 1 11 2 10 3 9 4 8 5 6 6 7 7 5 8 1 9 2 10 3 11 81 12 4 13
REMARK SMILES IDX 80 14 82 15 83 16 84 18 85 19 86 20 87 21 95 22 88 23 94 24
REMARK SMILES IDX 89 25 93 26 90 27 92 28 91 29 13 30 14 31 15 32 16 33 17 34
REMARK SMILES IDX 18 35 19 36 20 37 21 38 79 39 22 40 78 41 23 42 24 43 25 44
REMARK SMILES IDX 72 45 26 46 77 47 71 48 73 49 27 50 76 51 70 52 69 53 28 55
REMARK SMILES IDX 58 56 39 57 57 58 40 59 43 60 56 61 74 62 41 63 42 64 55 66
REMARK SMILES IDX 75 67 44 68 29 69 30 70 38 71 31 72 37 73 32 74 33 75 34 76
REMARK SMILES IDX 35 77 36 78 59 79 60 80 68 81 61 82 67 83 62 84 63 85 64 86
REMARK SMILES IDX 65 87 66 88 45 89 46 90 54 91 47 92 53 93 48 94 49 95 50 96
REMARK SMILES IDX 51 97 52 98
REMARK H PARENT 82 17 73 54 43 65
REMARK Flexibility Score: inf
ROOT
ATOM      1  C   UNL A   1      37.666  20.671  24.627  1.00  0.00     0.188 C 
ENDROOT
BRANCH   1   2
ATOM      2  O   UNL A   1      36.588  21.595  24.407  1.00  0.00    -0.376 OA
BRANCH   2   3
ATOM      3  C   UNL A   1      35.196  21.227  24.584  1.00  0.00     0.202 C 
BRANCH   3   4
ATOM      4  C   UNL A   1      34.653  19.706  24.891  1.00  0.00     0.261 C 
BRANCH   4   5
ATOM      5  O   UNL A   1      33.112  19.302  24.922  1.00  0.00    -0.460 OA
BRANCH   5   6
ATOM      6  C   UNL A   1      32.357  20.244  24.289  1.00  0.00     0.338 C 
ATOM      7  O   UNL A   1      32.159  19.780  23.178  1.00  0.00    -0.246 OA
BRANCH   6   8
ATOM      8  C   UNL A   1      31.669  21.815  24.707  1.00  0.00     0.062 A 
ATOM      9  C   UNL A   1      29.902  25.763  25.875  1.00  0.00     0.046 C 
ATOM     10  C   UNL A   1      30.574  24.496  25.439  1.00  0.00    -0.027 A 
ATOM     11  C   UNL A   1      30.596  23.496  26.363  1.00  0.00     0.006 A 
ATOM     12  C   UNL A   1      31.202  24.189  24.223  1.00  0.00     0.044 A 
ATOM     13  C   UNL A   1      31.067  22.238  25.960  1.00  0.00     0.016 A 
ATOM     14  C   UNL A   1      31.976  22.975  24.066  1.00  0.00     0.042 A 
BRANCH  12  15
ATOM     15  N   UNL A   1      30.819  24.940  23.076  1.00  0.00    -0.326 N 
ATOM     16  C   UNL A   1      31.515  26.014  22.504  1.00  0.00     0.228 C 
ATOM     17  H   UNL A   1      29.977  24.676  22.639  1.00  0.00     0.169 HD
ATOM     18  O   UNL A   1      31.198  26.441  21.400  1.00  0.00    -0.274 OA
BRANCH  16  19
ATOM     19  C   UNL A   1      32.628  26.534  23.344  1.00  0.00     0.135 C 
BRANCH  19  20
ATOM     20  C   UNL A   1      32.769  27.668  24.270  1.00  0.00    -0.038 A 
ATOM     21  C   UNL A   1      31.626  28.501  24.360  1.00  0.00     0.005 A 
ATOM     22  C   UNL A   1      33.850  27.865  25.091  1.00  0.00     0.013 A 
ATOM     23  C   UNL A   1      31.596  29.588  25.206  1.00  0.00     0.009 A 
ATOM     24  C   UNL A   1      33.813  28.934  25.980  1.00  0.00    -0.018 A 
ATOM     25  C   UNL A   1      32.703  29.827  26.006  1.00  0.00    -0.018 A 
ATOM     26  C   UNL A   1      34.853  29.106  26.882  1.00  0.00     0.009 A 
ATOM     27  C   UNL A   1      32.711  30.918  26.869  1.00  0.00     0.009 A 
ATOM     28  C   UNL A   1      34.814  30.161  27.787  1.00  0.00     0.001 A 
ATOM     29  C   UNL A   1      33.764  31.078  27.763  1.00  0.00     0.001 A 
ENDBRANCH  19  20
ENDBRANCH  16  19
ENDBRANCH  12  15
ENDBRANCH   6   8
ENDBRANCH   5   6
ENDBRANCH   4   5
ENDBRANCH   3   4
ENDBRANCH   2   3
ENDBRANCH   1   2
BRANCH   1  30
ATOM     30  C   UNL A   1      38.873  20.960  25.508  1.00  0.00     0.188 C 
BRANCH  30  31
ATOM     31  O   UNL A   1      38.558  21.953  26.471  1.00  0.00    -0.376 OA
BRANCH  31  32
ATOM     32  C   UNL A   1      39.340  23.128  26.378  1.00  0.00     0.202 C 
BRANCH  32  33
ATOM     33  C   UNL A   1      40.851  22.935  26.647  1.00  0.00     0.261 C 
BRANCH  33  34
ATOM     34  O   UNL A   1      41.550  24.154  27.035  1.00  0.00    -0.460 OA
BRANCH  34  35
ATOM     35  C   UNL A   1      41.510  25.274  26.218  1.00  0.00     0.338 C 
ATOM     36  O   UNL A   1      41.673  25.184  24.998  1.00  0.00    -0.246 OA
BRANCH  35  37
ATOM     37  C   UNL A   1      40.977  26.481  26.936  1.00  0.00     0.060 A 
ATOM     38  C   UNL A   1      40.945  27.850  26.628  1.00  0.00     0.016 A 
ATOM     39  C   UNL A   1      40.457  26.202  28.137  1.00  0.00     0.016 A 
ATOM     40  C   UNL A   1      40.768  28.929  27.643  1.00  0.00     0.010 A 
ATOM     41  C   UNL A   1      40.479  27.222  29.081  1.00  0.00     0.010 A 
ATOM     42  C   UNL A   1      40.663  28.675  29.006  1.00  0.00    -0.014 A 
BRANCH  42  43
ATOM     43  C   UNL A   1      40.752  29.861  30.372  1.00  0.00     0.031 A 
ATOM     44  C   UNL A   1      39.894  31.412  30.684  1.00  0.00     0.074 A 
ATOM     45  C   UNL A   1      40.986  29.285  31.576  1.00  0.00     0.049 A 
ATOM     46  N   UNL A   1      39.069  31.583  31.691  1.00  0.00    -0.248 NA
ATOM     47  C   UNL A   1      39.726  32.685  29.854  1.00  0.00     0.031 C 
ATOM     48  C   UNL A   1      40.573  29.686  32.928  1.00  0.00     0.029 A 
ATOM     49  N   UNL A   1      41.908  28.287  31.827  1.00  0.00    -0.354 N 
ATOM     50  C   UNL A   1      38.211  32.666  31.505  1.00  0.00     0.074 A 
ATOM     51  C   UNL A   1      38.568  33.246  30.251  1.00  0.00     0.031 C 
ATOM     52  C   UNL A   1      41.477  29.252  33.816  1.00  0.00     0.029 A 
ATOM     53  C   UNL A   1      42.535  28.657  33.032  1.00  0.00     0.049 A 
ATOM     54  H   UNL A   1      42.088  27.488  31.280  1.00  0.00     0.167 HD
ATOM     55  C   UNL A   1      37.591  33.303  32.540  1.00  0.00     0.031 A 
ATOM     56  C   UNL A   1      43.806  29.130  32.912  1.00  0.00     0.031 A 
ATOM     57  C   UNL A   1      38.490  33.240  33.671  1.00  0.00     0.049 A 
ATOM     58  C   UNL A   1      43.816  30.619  33.229  1.00  0.00     0.074 A 
ATOM     59  C   UNL A   1      38.600  32.461  34.800  1.00  0.00     0.029 A 
ATOM     60  N   UNL A   1      39.734  33.828  33.466  1.00  0.00    -0.354 N 
ATOM     61  N   UNL A   1      42.781  31.421  33.105  1.00  0.00    -0.248 NA
ATOM     62  C   UNL A   1      44.932  31.269  33.909  1.00  0.00     0.031 C 
ATOM     63  C   UNL A   1      39.997  32.406  35.116  1.00  0.00     0.029 A 
ATOM     64  C   UNL A   1      40.703  33.199  34.217  1.00  0.00     0.049 A 
ATOM     65  H   UNL A   1      39.899  34.591  32.866  1.00  0.00     0.167 HD
ATOM     66  C   UNL A   1      43.024  32.593  33.772  1.00  0.00     0.074 A 
ATOM     67  C   UNL A   1      44.407  32.471  34.207  1.00  0.00     0.031 C 
ATOM     68  C   UNL A   1      42.104  33.571  34.037  1.00  0.00     0.031 A 
BRANCH  55  69
ATOM     69  C   UNL A   1      36.249  34.021  32.501  1.00  0.00    -0.014 A 
ATOM     70  C   UNL A   1      35.334  33.746  31.457  1.00  0.00     0.010 A 
ATOM     71  C   UNL A   1      35.907  35.105  33.346  1.00  0.00     0.010 A 
ATOM     72  C   UNL A   1      34.169  34.516  31.247  1.00  0.00     0.020 A 
ATOM     73  C   UNL A   1      34.730  35.874  33.154  1.00  0.00     0.020 A 
ATOM     74  C   UNL A   1      33.875  35.585  32.091  1.00  0.00     0.054 A 
BRANCH  74  75
ATOM     75  S   UNL A   1      32.402  36.604  31.739  1.00  0.00     0.124 S 
ATOM     76  O   UNL A   1      32.164  36.339  30.321  1.00  0.00    -0.237 OA
ATOM     77  O   UNL A   1      31.403  36.052  32.650  1.00  0.00    -0.237 OA
ATOM     78  O   UNL A   1      32.826  37.968  32.047  1.00  0.00    -0.744 OA
ENDBRANCH  74  75
ENDBRANCH  55  69
BRANCH  56  79
ATOM     79  C   UNL A   1      44.537  28.260  31.908  1.00  0.00    -0.014 A 
ATOM     80  C   UNL A   1      44.800  26.935  32.377  1.00  0.00     0.010 A 
ATOM     81  C   UNL A   1      44.470  28.437  30.514  1.00  0.00     0.010 A 
ATOM     82  C   UNL A   1      44.766  25.823  31.527  1.00  0.00     0.020 A 
ATOM     83  C   UNL A   1      44.551  27.317  29.643  1.00  0.00     0.020 A 
ATOM     84  C   UNL A   1      44.605  26.015  30.163  1.00  0.00     0.054 A 
BRANCH  84  85
ATOM     85  S   UNL A   1      44.330  24.530  29.139  1.00  0.00     0.124 S 
ATOM     86  O   UNL A   1      44.443  25.051  27.781  1.00  0.00    -0.237 OA
ATOM     87  O   UNL A   1      45.427  23.656  29.556  1.00  0.00    -0.237 OA
ATOM     88  O   UNL A   1      42.989  24.099  29.523  1.00  0.00    -0.744 OA
ENDBRANCH  84  85
ENDBRANCH  56  79
BRANCH  68  89
ATOM     89  C   UNL A   1      42.509  35.024  34.165  1.00  0.00    -0.014 A 
ATOM     90  C   UNL A   1      42.742  35.629  35.414  1.00  0.00     0.010 A 
ATOM     91  C   UNL A   1      42.849  35.780  33.018  1.00  0.00     0.010 A 
ATOM     92  C   UNL A   1      43.182  36.949  35.516  1.00  0.00     0.020 A 
ATOM     93  C   UNL A   1      43.362  37.076  33.109  1.00  0.00     0.020 A 
ATOM     94  C   UNL A   1      43.478  37.669  34.361  1.00  0.00     0.054 A 
BRANCH  94  95
ATOM     95  S   UNL A   1      44.024  39.384  34.514  1.00  0.00     0.124 S 
ATOM     96  O   UNL A   1      45.302  39.348  33.810  1.00  0.00    -0.237 OA
ATOM     97  O   UNL A   1      42.959  40.126  33.843  1.00  0.00    -0.237 OA
ATOM     98  O   UNL A   1      44.105  39.591  35.957  1.00  0.00    -0.744 OA
ENDBRANCH  94  95
ENDBRANCH  68  89
ENDBRANCH  42  43
ENDBRANCH  35  37
ENDBRANCH  34  35
ENDBRANCH  33  34
ENDBRANCH  32  33
ENDBRANCH  31  32
ENDBRANCH  30  31
ENDBRANCH   1  30
TORSDOF 23
ENDMDL
