MODEL 1
REMARK VINA RESULT:     -11.3      0.000      0.000
REMARK SMILES CN1C(=O)C[C@@H](C(=O)OCCOCCOCCOC(=O)c2ccc(-c3c4nc(c(-c5ccc(S(=O)(=O)[O-])cc5)c5ccc([nH]5)c(-c5ccc(S(=O)(=O)[O-])cc5)c5nc(c(-c6ccc(S(=O)(=O)[O-])cc6)c6ccc3[nH]6)C=C5)C=C4)cc2)C12CCN(C(=O)c1cccc3ccccc13)CC2
REMARK SMILES IDX 14 1 13 2 12 3 11 4 10 5 9 6 7 7 8 8 6 9 1 10 2 11 3 12
REMARK SMILES IDX 81 13 4 14 5 15 82 16 98 17 83 18 97 19 84 20 85 21 86 22
REMARK SMILES IDX 87 23 88 24 96 25 89 26 91 27 95 28 90 29 92 30 94 31 93 32
REMARK SMILES IDX 15 33 16 34 17 35 18 36 19 37 20 38 21 39 22 40 80 41 23 42
REMARK SMILES IDX 79 43 24 44 25 45 26 46 73 47 27 48 78 49 72 50 74 51 28 52
REMARK SMILES IDX 77 53 71 54 70 55 29 57 59 58 40 59 58 60 41 61 44 62 57 63
REMARK SMILES IDX 75 64 42 65 43 66 56 68 76 69 45 70 30 71 31 72 39 73 32 74
REMARK SMILES IDX 38 75 33 76 34 77 35 78 36 79 37 80 60 81 61 82 69 83 62 84
REMARK SMILES IDX 68 85 63 86 64 87 65 88 66 89 67 90 46 91 47 92 55 93 48 94
REMARK SMILES IDX 54 95 49 96 50 97 51 98 52 99 53 100
REMARK H PARENT 74 56 44 67
REMARK Flexibility Score: inf
ROOT
ATOM      1  C   UNL A   1      35.120  32.949  29.361  1.00  0.00     0.188 C 
ENDROOT
BRANCH   1   2
ATOM      2  C   UNL A   1      35.471  31.975  28.244  1.00  0.00     0.188 C 
BRANCH   2   3
ATOM      3  O   UNL A   1      34.535  30.958  27.920  1.00  0.00    -0.376 OA
BRANCH   3   4
ATOM      4  C   UNL A   1      35.004  29.700  27.460  1.00  0.00     0.202 C 
BRANCH   4   5
ATOM      5  C   UNL A   1      33.954  28.688  26.961  1.00  0.00     0.261 C 
BRANCH   5   6
ATOM      6  O   UNL A   1      33.797  28.501  25.522  1.00  0.00    -0.463 OA
BRANCH   6   7
ATOM      7  C   UNL A   1      32.718  29.116  24.980  1.00  0.00     0.311 C 
ATOM      8  O   UNL A   1      32.143  30.053  25.533  1.00  0.00    -0.252 OA
BRANCH   7   9
ATOM      9  C   UNL A   1      32.126  28.552  23.685  1.00  0.00     0.134 C 
ATOM     10  C   UNL A   1      28.664  27.063  23.510  1.00  0.00     0.147 C 
ATOM     11  N   UNL A   1      29.881  27.857  23.523  1.00  0.00    -0.339 N 
ATOM     12  C   UNL A   1      29.847  29.238  23.365  1.00  0.00     0.223 C 
ATOM     13  C   UNL A   1      31.236  27.289  23.426  1.00  0.00     0.060 C 
ATOM     14  O   UNL A   1      28.867  29.941  23.341  1.00  0.00    -0.275 OA
ATOM     15  C   UNL A   1      31.262  29.711  23.147  1.00  0.00     0.118 C 
ATOM     16  C   UNL A   1      31.392  26.063  24.346  1.00  0.00     0.051 C 
ATOM     17  C   UNL A   1      31.456  26.802  21.942  1.00  0.00     0.051 C 
ATOM     18  C   UNL A   1      32.674  25.289  24.073  1.00  0.00     0.122 C 
ATOM     19  C   UNL A   1      32.638  25.851  21.712  1.00  0.00     0.122 C 
ATOM     20  N   UNL A   1      32.724  24.792  22.715  1.00  0.00    -0.338 N 
ATOM     21  C   UNL A   1      33.120  23.509  22.286  1.00  0.00     0.254 C 
ATOM     22  O   UNL A   1      33.209  23.250  21.083  1.00  0.00    -0.269 OA
BRANCH  21  23
ATOM     23  C   UNL A   1      33.565  22.412  23.207  1.00  0.00     0.047 A 
ATOM     24  C   UNL A   1      32.559  21.462  23.492  1.00  0.00     0.014 A 
ATOM     25  C   UNL A   1      34.822  22.321  23.868  1.00  0.00    -0.006 A 
ATOM     26  C   UNL A   1      32.777  20.417  24.386  1.00  0.00     0.001 A 
ATOM     27  C   UNL A   1      35.031  21.232  24.768  1.00  0.00    -0.018 A 
ATOM     28  C   UNL A   1      35.898  23.219  23.693  1.00  0.00     0.009 A 
ATOM     29  C   UNL A   1      34.005  20.310  25.024  1.00  0.00     0.009 A 
ATOM     30  C   UNL A   1      36.280  21.044  25.380  1.00  0.00     0.009 A 
ATOM     31  C   UNL A   1      37.151  22.989  24.271  1.00  0.00     0.001 A 
ATOM     32  C   UNL A   1      37.344  21.898  25.110  1.00  0.00     0.001 A 
ENDBRANCH  21  23
ENDBRANCH   7   9
ENDBRANCH   6   7
ENDBRANCH   5   6
ENDBRANCH   4   5
ENDBRANCH   3   4
ENDBRANCH   2   3
ENDBRANCH   1   2
BRANCH   1  33
ATOM     33  O   UNL A   1      36.231  33.458  30.073  1.00  0.00    -0.376 OA
BRANCH  33  34
ATOM     34  C   UNL A   1      36.039  33.522  31.477  1.00  0.00     0.202 C 
BRANCH  34  35
ATOM     35  C   UNL A   1      35.778  32.118  32.042  1.00  0.00     0.261 C 
BRANCH  35  36
ATOM     36  O   UNL A   1      36.971  31.365  32.385  1.00  0.00    -0.460 OA
BRANCH  36  37
ATOM     37  C   UNL A   1      37.162  30.273  31.610  1.00  0.00     0.338 C 
ATOM     38  O   UNL A   1      36.294  29.466  31.341  1.00  0.00    -0.246 OA
BRANCH  37  39
ATOM     39  C   UNL A   1      38.491  30.237  30.969  1.00  0.00     0.060 A 
ATOM     40  C   UNL A   1      38.588  30.455  29.593  1.00  0.00     0.016 A 
ATOM     41  C   UNL A   1      39.599  29.769  31.664  1.00  0.00     0.016 A 
ATOM     42  C   UNL A   1      39.754  30.167  28.890  1.00  0.00     0.010 A 
ATOM     43  C   UNL A   1      40.794  29.527  30.970  1.00  0.00     0.010 A 
ATOM     44  C   UNL A   1      40.876  29.706  29.575  1.00  0.00    -0.014 A 
BRANCH  44  45
ATOM     45  C   UNL A   1      42.123  29.392  28.831  1.00  0.00     0.031 A 
ATOM     46  C   UNL A   1      42.346  28.014  28.275  1.00  0.00     0.074 A 
ATOM     47  C   UNL A   1      43.063  30.342  28.663  1.00  0.00     0.049 A 
ATOM     48  N   UNL A   1      43.438  27.487  27.784  1.00  0.00    -0.248 NA
ATOM     49  C   UNL A   1      41.187  27.110  28.274  1.00  0.00     0.031 C 
ATOM     50  C   UNL A   1      42.940  31.741  29.077  1.00  0.00     0.029 A 
ATOM     51  N   UNL A   1      44.321  30.267  28.116  1.00  0.00    -0.354 N 
ATOM     52  C   UNL A   1      43.112  26.173  27.460  1.00  0.00     0.074 A 
ATOM     53  C   UNL A   1      41.718  25.990  27.805  1.00  0.00     0.031 C 
ATOM     54  C   UNL A   1      44.080  32.386  28.790  1.00  0.00     0.029 A 
ATOM     55  C   UNL A   1      45.041  31.430  28.253  1.00  0.00     0.049 A 
ATOM     56  H   UNL A   1      44.672  29.461  27.672  1.00  0.00     0.167 HD
ATOM     57  C   UNL A   1      43.910  25.208  26.943  1.00  0.00     0.031 A 
ATOM     58  C   UNL A   1      46.346  31.687  28.042  1.00  0.00     0.031 A 
ATOM     59  C   UNL A   1      45.299  25.406  26.612  1.00  0.00     0.049 A 
ATOM     60  C   UNL A   1      47.238  30.584  27.550  1.00  0.00     0.074 A 
ATOM     61  C   UNL A   1      46.196  24.495  26.079  1.00  0.00     0.029 A 
ATOM     62  N   UNL A   1      45.995  26.592  26.792  1.00  0.00    -0.354 N 
ATOM     63  N   UNL A   1      46.930  29.337  27.279  1.00  0.00    -0.248 NA
ATOM     64  C   UNL A   1      48.651  30.920  27.339  1.00  0.00     0.031 C 
ATOM     65  C   UNL A   1      47.449  25.113  26.001  1.00  0.00     0.029 A 
ATOM     66  C   UNL A   1      47.319  26.428  26.417  1.00  0.00     0.049 A 
ATOM     67  H   UNL A   1      45.606  27.428  27.136  1.00  0.00     0.167 HD
ATOM     68  C   UNL A   1      48.111  28.740  26.853  1.00  0.00     0.074 A 
ATOM     69  C   UNL A   1      49.132  29.771  26.883  1.00  0.00     0.031 C 
ATOM     70  C   UNL A   1      48.329  27.457  26.472  1.00  0.00     0.031 A 
BRANCH  57  71
ATOM     71  C   UNL A   1      43.321  23.828  26.790  1.00  0.00    -0.014 A 
ATOM     72  C   UNL A   1      42.878  23.337  25.549  1.00  0.00     0.010 A 
ATOM     73  C   UNL A   1      43.213  23.002  27.925  1.00  0.00     0.010 A 
ATOM     74  C   UNL A   1      42.286  22.072  25.458  1.00  0.00     0.020 A 
ATOM     75  C   UNL A   1      42.652  21.726  27.834  1.00  0.00     0.020 A 
ATOM     76  C   UNL A   1      42.169  21.278  26.604  1.00  0.00     0.054 A 
BRANCH  76  77
ATOM     77  S   UNL A   1      41.382  19.649  26.466  1.00  0.00     0.124 S 
ATOM     78  O   UNL A   1      40.000  20.010  26.157  1.00  0.00    -0.237 OA
ATOM     79  O   UNL A   1      42.126  19.024  25.375  1.00  0.00    -0.237 OA
ATOM     80  O   UNL A   1      41.589  19.050  27.781  1.00  0.00    -0.744 OA
ENDBRANCH  76  77
ENDBRANCH  57  71
BRANCH  58  81
ATOM     81  C   UNL A   1      46.884  33.033  28.378  1.00  0.00    -0.014 A 
ATOM     82  C   UNL A   1      47.674  33.231  29.523  1.00  0.00     0.010 A 
ATOM     83  C   UNL A   1      46.661  34.117  27.506  1.00  0.00     0.010 A 
ATOM     84  C   UNL A   1      48.237  34.483  29.783  1.00  0.00     0.020 A 
ATOM     85  C   UNL A   1      47.247  35.361  27.747  1.00  0.00     0.020 A 
ATOM     86  C   UNL A   1      48.030  35.537  28.887  1.00  0.00     0.054 A 
BRANCH  86  87
ATOM     87  S   UNL A   1      48.854  37.124  29.195  1.00  0.00     0.124 S 
ATOM     88  O   UNL A   1      50.102  36.967  28.456  1.00  0.00    -0.237 OA
ATOM     89  O   UNL A   1      47.905  38.085  28.639  1.00  0.00    -0.237 OA
ATOM     90  O   UNL A   1      48.988  37.163  30.649  1.00  0.00    -0.744 OA
ENDBRANCH  86  87
ENDBRANCH  58  81
BRANCH  70  91
ATOM     91  C   UNL A   1      49.726  27.101  26.033  1.00  0.00    -0.014 A 
ATOM     92  C   UNL A   1      50.659  26.561  26.936  1.00  0.00     0.010 A 
ATOM     93  C   UNL A   1      50.096  27.280  24.688  1.00  0.00     0.010 A 
ATOM     94  C   UNL A   1      51.952  26.244  26.509  1.00  0.00     0.020 A 
ATOM     95  C   UNL A   1      51.378  26.936  24.250  1.00  0.00     0.020 A 
ATOM     96  C   UNL A   1      52.304  26.436  25.168  1.00  0.00     0.054 A 
BRANCH  96  97
ATOM     97  S   UNL A   1      53.979  25.993  24.633  1.00  0.00     0.124 S 
ATOM     98  O   UNL A   1      54.033  24.569  24.949  1.00  0.00    -0.237 OA
ATOM     99  O   UNL A   1      53.959  26.322  23.210  1.00  0.00    -0.237 OA
ATOM    100  O   UNL A   1      54.841  26.845  25.450  1.00  0.00    -0.744 OA
ENDBRANCH  96  97
ENDBRANCH  70  91
ENDBRANCH  44  45
ENDBRANCH  37  39
ENDBRANCH  36  37
ENDBRANCH  35  36
ENDBRANCH  34  35
ENDBRANCH  33  34
ENDBRANCH   1  33
TORSDOF 21
ENDMDL
MODEL 2
REMARK VINA RESULT:     -10.8      6.539     12.334
REMARK SMILES CN1C(=O)C[C@@H](C(=O)OCCOCCOCCOC(=O)c2ccc(-c3c4nc(c(-c5ccc(S(=O)(=O)[O-])cc5)c5ccc([nH]5)c(-c5ccc(S(=O)(=O)[O-])cc5)c5nc(c(-c6ccc(S(=O)(=O)[O-])cc6)c6ccc3[nH]6)C=C5)C=C4)cc2)C12CCN(C(=O)c1cccc3ccccc13)CC2
REMARK SMILES IDX 14 1 13 2 12 3 11 4 10 5 9 6 7 7 8 8 6 9 1 10 2 11 3 12
REMARK SMILES IDX 81 13 4 14 5 15 82 16 98 17 83 18 97 19 84 20 85 21 86 22
REMARK SMILES IDX 87 23 88 24 96 25 89 26 91 27 95 28 90 29 92 30 94 31 93 32
REMARK SMILES IDX 15 33 16 34 17 35 18 36 19 37 20 38 21 39 22 40 80 41 23 42
REMARK SMILES IDX 79 43 24 44 25 45 26 46 73 47 27 48 78 49 72 50 74 51 28 52
REMARK SMILES IDX 77 53 71 54 70 55 29 57 59 58 40 59 58 60 41 61 44 62 57 63
REMARK SMILES IDX 75 64 42 65 43 66 56 68 76 69 45 70 30 71 31 72 39 73 32 74
REMARK SMILES IDX 38 75 33 76 34 77 35 78 36 79 37 80 60 81 61 82 69 83 62 84
REMARK SMILES IDX 68 85 63 86 64 87 65 88 66 89 67 90 46 91 47 92 55 93 48 94
REMARK SMILES IDX 54 95 49 96 50 97 51 98 52 99 53 100
REMARK H PARENT 74 56 44 67
REMARK Flexibility Score: inf
ROOT
ATOM      1  C   UNL A   1      36.248  23.550  24.763  1.00  0.00     0.188 C 
ENDROOT
BRANCH   1   2
ATOM      2  C   UNL A   1      35.795  22.741  23.555  1.00  0.00     0.188 C 
BRANCH   2   3
ATOM      3  O   UNL A   1      34.401  22.585  23.336  1.00  0.00    -0.376 OA
BRANCH   3   4
ATOM      4  C   UNL A   1      33.501  22.756  24.419  1.00  0.00     0.202 C 
BRANCH   4   5
ATOM      5  C   UNL A   1      32.892  24.156  24.624  1.00  0.00     0.261 C 
BRANCH   5   6
ATOM      6  O   UNL A   1      33.068  24.809  25.919  1.00  0.00    -0.463 OA
BRANCH   6   7
ATOM      7  C   UNL A   1      31.927  25.270  26.485  1.00  0.00     0.311 C 
ATOM      8  O   UNL A   1      31.204  24.565  27.189  1.00  0.00    -0.252 OA
BRANCH   7   9
ATOM      9  C   UNL A   1      31.464  26.691  26.147  1.00  0.00     0.134 C 
ATOM     10  C   UNL A   1      32.238  28.350  22.847  1.00  0.00     0.147 C 
ATOM     11  N   UNL A   1      31.730  27.624  24.000  1.00  0.00    -0.339 N 
ATOM     12  C   UNL A   1      30.584  26.841  23.917  1.00  0.00     0.223 C 
ATOM     13  C   UNL A   1      32.184  27.852  25.382  1.00  0.00     0.060 C 
ATOM     14  O   UNL A   1      29.974  26.554  22.916  1.00  0.00    -0.275 OA
ATOM     15  C   UNL A   1      30.181  26.465  25.319  1.00  0.00     0.118 C 
ATOM     16  C   UNL A   1      33.721  27.953  25.452  1.00  0.00     0.051 C 
ATOM     17  C   UNL A   1      31.594  29.232  25.869  1.00  0.00     0.051 C 
ATOM     18  C   UNL A   1      34.210  28.458  26.802  1.00  0.00     0.122 C 
ATOM     19  C   UNL A   1      32.238  29.836  27.123  1.00  0.00     0.122 C 
ATOM     20  N   UNL A   1      33.698  29.778  27.102  1.00  0.00    -0.338 N 
ATOM     21  C   UNL A   1      34.409  30.873  27.633  1.00  0.00     0.254 C 
ATOM     22  O   UNL A   1      33.822  31.916  27.932  1.00  0.00    -0.269 OA
BRANCH  21  23
ATOM     23  C   UNL A   1      35.868  30.841  27.980  1.00  0.00     0.047 A 
ATOM     24  C   UNL A   1      36.492  29.602  27.713  1.00  0.00     0.014 A 
ATOM     25  C   UNL A   1      36.606  31.873  28.625  1.00  0.00    -0.006 A 
ATOM     26  C   UNL A   1      37.826  29.374  28.042  1.00  0.00     0.001 A 
ATOM     27  C   UNL A   1      37.977  31.624  28.938  1.00  0.00    -0.018 A 
ATOM     28  C   UNL A   1      36.094  33.143  28.971  1.00  0.00     0.009 A 
ATOM     29  C   UNL A   1      38.560  30.379  28.657  1.00  0.00     0.009 A 
ATOM     30  C   UNL A   1      38.775  32.636  29.495  1.00  0.00     0.009 A 
ATOM     31  C   UNL A   1      36.915  34.156  29.479  1.00  0.00     0.001 A 
ATOM     32  C   UNL A   1      38.257  33.903  29.736  1.00  0.00     0.001 A 
ENDBRANCH  21  23
ENDBRANCH   7   9
ENDBRANCH   6   7
ENDBRANCH   5   6
ENDBRANCH   4   5
ENDBRANCH   3   4
ENDBRANCH   2   3
ENDBRANCH   1   2
BRANCH   1  33
ATOM     33  O   UNL A   1      37.632  23.466  25.045  1.00  0.00    -0.376 OA
BRANCH  33  34
ATOM     34  C   UNL A   1      37.967  23.755  26.393  1.00  0.00     0.202 C 
BRANCH  34  35
ATOM     35  C   UNL A   1      39.417  24.253  26.485  1.00  0.00     0.261 C 
BRANCH  35  36
ATOM     36  O   UNL A   1      39.796  24.797  27.776  1.00  0.00    -0.460 OA
BRANCH  36  37
ATOM     37  C   UNL A   1      39.926  26.143  27.779  1.00  0.00     0.338 C 
ATOM     38  O   UNL A   1      39.767  26.846  26.800  1.00  0.00    -0.246 OA
BRANCH  37  39
ATOM     39  C   UNL A   1      40.110  26.710  29.128  1.00  0.00     0.060 A 
ATOM     40  C   UNL A   1      39.048  26.668  30.035  1.00  0.00     0.016 A 
ATOM     41  C   UNL A   1      41.229  27.477  29.426  1.00  0.00     0.016 A 
ATOM     42  C   UNL A   1      39.061  27.415  31.208  1.00  0.00     0.010 A 
ATOM     43  C   UNL A   1      41.271  28.193  30.632  1.00  0.00     0.010 A 
ATOM     44  C   UNL A   1      40.180  28.183  31.525  1.00  0.00    -0.014 A 
BRANCH  44  45
ATOM     45  C   UNL A   1      40.200  28.989  32.772  1.00  0.00     0.031 A 
ATOM     46  C   UNL A   1      39.180  30.071  32.992  1.00  0.00     0.074 A 
ATOM     47  C   UNL A   1      41.141  28.755  33.708  1.00  0.00     0.049 A 
ATOM     48  N   UNL A   1      39.152  31.008  33.903  1.00  0.00    -0.248 NA
ATOM     49  C   UNL A   1      38.044  30.101  32.060  1.00  0.00     0.031 C 
ATOM     50  C   UNL A   1      42.136  27.683  33.662  1.00  0.00     0.029 A 
ATOM     51  N   UNL A   1      41.426  29.425  34.873  1.00  0.00    -0.354 N 
ATOM     52  C   UNL A   1      38.023  31.773  33.626  1.00  0.00     0.074 A 
ATOM     53  C   UNL A   1      37.391  31.181  32.465  1.00  0.00     0.031 C 
ATOM     54  C   UNL A   1      42.935  27.779  34.736  1.00  0.00     0.029 A 
ATOM     55  C   UNL A   1      42.563  28.966  35.496  1.00  0.00     0.049 A 
ATOM     56  H   UNL A   1      40.873  30.159  35.226  1.00  0.00     0.167 HD
ATOM     57  C   UNL A   1      37.571  32.876  34.270  1.00  0.00     0.031 A 
ATOM     58  C   UNL A   1      43.273  29.478  36.519  1.00  0.00     0.031 A 
ATOM     59  C   UNL A   1      38.217  33.456  35.420  1.00  0.00     0.049 A 
ATOM     60  C   UNL A   1      42.807  30.749  37.168  1.00  0.00     0.074 A 
ATOM     61  C   UNL A   1      37.839  34.571  36.150  1.00  0.00     0.029 A 
ATOM     62  N   UNL A   1      39.381  32.975  36.002  1.00  0.00    -0.354 N 
ATOM     63  N   UNL A   1      41.759  31.483  36.879  1.00  0.00    -0.248 NA
ATOM     64  C   UNL A   1      43.620  31.262  38.278  1.00  0.00     0.031 C 
ATOM     65  C   UNL A   1      38.812  34.801  37.129  1.00  0.00     0.029 A 
ATOM     66  C   UNL A   1      39.758  33.790  37.057  1.00  0.00     0.049 A 
ATOM     67  H   UNL A   1      39.868  32.172  35.708  1.00  0.00     0.167 HD
ATOM     68  C   UNL A   1      41.778  32.542  37.780  1.00  0.00     0.074 A 
ATOM     69  C   UNL A   1      42.932  32.338  38.636  1.00  0.00     0.031 C 
ATOM     70  C   UNL A   1      40.920  33.587  37.887  1.00  0.00     0.031 A 
BRANCH  57  71
ATOM     71  C   UNL A   1      36.370  33.577  33.686  1.00  0.00    -0.014 A 
ATOM     72  C   UNL A   1      36.476  34.808  33.015  1.00  0.00     0.010 A 
ATOM     73  C   UNL A   1      35.101  32.979  33.813  1.00  0.00     0.010 A 
ATOM     74  C   UNL A   1      35.330  35.454  32.535  1.00  0.00     0.020 A 
ATOM     75  C   UNL A   1      33.959  33.604  33.308  1.00  0.00     0.020 A 
ATOM     76  C   UNL A   1      34.077  34.852  32.693  1.00  0.00     0.054 A 
BRANCH  76  77
ATOM     77  S   UNL A   1      32.605  35.716  32.080  1.00  0.00     0.124 S 
ATOM     78  O   UNL A   1      31.533  35.020  32.788  1.00  0.00    -0.237 OA
ATOM     79  O   UNL A   1      32.843  37.094  32.499  1.00  0.00    -0.237 OA
ATOM     80  O   UNL A   1      32.646  35.490  30.637  1.00  0.00    -0.744 OA
ENDBRANCH  76  77
ENDBRANCH  57  71
BRANCH  58  81
ATOM     81  C   UNL A   1      44.541  28.814  36.926  1.00  0.00    -0.014 A 
ATOM     82  C   UNL A   1      44.547  27.798  37.895  1.00  0.00     0.010 A 
ATOM     83  C   UNL A   1      45.749  29.157  36.288  1.00  0.00     0.010 A 
ATOM     84  C   UNL A   1      45.734  27.130  38.210  1.00  0.00     0.020 A 
ATOM     85  C   UNL A   1      46.931  28.472  36.577  1.00  0.00     0.020 A 
ATOM     86  C   UNL A   1      46.916  27.464  37.540  1.00  0.00     0.054 A 
BRANCH  86  87
ATOM     87  S   UNL A   1      48.422  26.515  37.895  1.00  0.00     0.124 S 
ATOM     88  O   UNL A   1      49.403  27.572  38.114  1.00  0.00    -0.237 OA
ATOM     89  O   UNL A   1      48.039  25.749  39.079  1.00  0.00    -0.237 OA
ATOM     90  O   UNL A   1      48.618  25.719  36.685  1.00  0.00    -0.744 OA
ENDBRANCH  86  87
ENDBRANCH  58  81
BRANCH  70  91
ATOM     91  C   UNL A   1      41.185  34.580  38.989  1.00  0.00    -0.014 A 
ATOM     92  C   UNL A   1      42.033  35.683  38.788  1.00  0.00     0.010 A 
ATOM     93  C   UNL A   1      40.547  34.422  40.232  1.00  0.00     0.010 A 
ATOM     94  C   UNL A   1      42.271  36.590  39.826  1.00  0.00     0.020 A 
ATOM     95  C   UNL A   1      40.758  35.342  41.263  1.00  0.00     0.020 A 
ATOM     96  C   UNL A   1      41.632  36.411  41.058  1.00  0.00     0.054 A 
BRANCH  96  97
ATOM     97  S   UNL A   1      41.936  37.614  42.381  1.00  0.00     0.124 S 
ATOM     98  O   UNL A   1      40.842  37.332  43.305  1.00  0.00    -0.237 OA
ATOM     99  O   UNL A   1      43.269  37.245  42.851  1.00  0.00    -0.237 OA
ATOM    100  O   UNL A   1      41.858  38.905  41.699  1.00  0.00    -0.744 OA
ENDBRANCH  96  97
ENDBRANCH  70  91
ENDBRANCH  44  45
ENDBRANCH  37  39
ENDBRANCH  36  37
ENDBRANCH  35  36
ENDBRANCH  34  35
ENDBRANCH  33  34
ENDBRANCH   1  33
TORSDOF 21
ENDMDL
MODEL 3
REMARK VINA RESULT:     -10.5      2.930      9.035
REMARK SMILES CN1C(=O)C[C@@H](C(=O)OCCOCCOCCOC(=O)c2ccc(-c3c4nc(c(-c5ccc(S(=O)(=O)[O-])cc5)c5ccc([nH]5)c(-c5ccc(S(=O)(=O)[O-])cc5)c5nc(c(-c6ccc(S(=O)(=O)[O-])cc6)c6ccc3[nH]6)C=C5)C=C4)cc2)C12CCN(C(=O)c1cccc3ccccc13)CC2
REMARK SMILES IDX 14 1 13 2 12 3 11 4 10 5 9 6 7 7 8 8 6 9 1 10 2 11 3 12
REMARK SMILES IDX 81 13 4 14 5 15 82 16 98 17 83 18 97 19 84 20 85 21 86 22
REMARK SMILES IDX 87 23 88 24 96 25 89 26 91 27 95 28 90 29 92 30 94 31 93 32
REMARK SMILES IDX 15 33 16 34 17 35 18 36 19 37 20 38 21 39 22 40 80 41 23 42
REMARK SMILES IDX 79 43 24 44 25 45 26 46 73 47 27 48 78 49 72 50 74 51 28 52
REMARK SMILES IDX 77 53 71 54 70 55 29 57 59 58 40 59 58 60 41 61 44 62 57 63
REMARK SMILES IDX 75 64 42 65 43 66 56 68 76 69 45 70 30 71 31 72 39 73 32 74
REMARK SMILES IDX 38 75 33 76 34 77 35 78 36 79 37 80 60 81 61 82 69 83 62 84
REMARK SMILES IDX 68 85 63 86 64 87 65 88 66 89 67 90 46 91 47 92 55 93 48 94
REMARK SMILES IDX 54 95 49 96 50 97 51 98 52 99 53 100
REMARK H PARENT 74 56 44 67
REMARK Flexibility Score: inf
ROOT
ATOM      1  C   UNL A   1      35.184  20.969  24.909  1.00  0.00     0.188 C 
ENDROOT
BRANCH   1   2
ATOM      2  C   UNL A   1      34.347  21.040  26.179  1.00  0.00     0.188 C 
BRANCH   2   3
ATOM      3  O   UNL A   1      33.907  22.314  26.624  1.00  0.00    -0.376 OA
BRANCH   3   4
ATOM      4  C   UNL A   1      33.133  23.127  25.756  1.00  0.00     0.202 C 
BRANCH   4   5
ATOM      5  C   UNL A   1      32.119  24.092  26.401  1.00  0.00     0.261 C 
BRANCH   5   6
ATOM      6  O   UNL A   1      32.374  25.528  26.317  1.00  0.00    -0.463 OA
BRANCH   6   7
ATOM      7  C   UNL A   1      31.264  26.305  26.310  1.00  0.00     0.311 C 
ATOM      8  O   UNL A   1      30.181  25.917  26.745  1.00  0.00    -0.252 OA
BRANCH   7   9
ATOM      9  C   UNL A   1      31.336  27.677  25.633  1.00  0.00     0.134 C 
ATOM     10  C   UNL A   1      33.918  28.520  23.013  1.00  0.00     0.147 C 
ATOM     11  N   UNL A   1      32.781  28.116  23.825  1.00  0.00    -0.339 N 
ATOM     12  C   UNL A   1      31.673  27.493  23.262  1.00  0.00     0.223 C 
ATOM     13  C   UNL A   1      32.565  28.554  25.214  1.00  0.00     0.060 C 
ATOM     14  O   UNL A   1      31.564  27.096  22.128  1.00  0.00    -0.275 OA
ATOM     15  C   UNL A   1      30.584  27.465  24.303  1.00  0.00     0.118 C 
ATOM     16  C   UNL A   1      33.866  28.459  26.036  1.00  0.00     0.051 C 
ATOM     17  C   UNL A   1      32.129  30.070  25.187  1.00  0.00     0.051 C 
ATOM     18  C   UNL A   1      33.754  29.154  27.386  1.00  0.00     0.122 C 
ATOM     19  C   UNL A   1      32.216  30.821  26.521  1.00  0.00     0.122 C 
ATOM     20  N   UNL A   1      33.461  30.564  27.243  1.00  0.00    -0.338 N 
ATOM     21  C   UNL A   1      34.054  31.637  27.937  1.00  0.00     0.254 C 
ATOM     22  O   UNL A   1      33.637  32.789  27.787  1.00  0.00    -0.269 OA
BRANCH  21  23
ATOM     23  C   UNL A   1      35.128  31.480  28.972  1.00  0.00     0.047 A 
ATOM     24  C   UNL A   1      34.815  32.075  30.215  1.00  0.00     0.014 A 
ATOM     25  C   UNL A   1      36.415  30.905  28.775  1.00  0.00    -0.006 A 
ATOM     26  C   UNL A   1      35.728  32.087  31.266  1.00  0.00     0.001 A 
ATOM     27  C   UNL A   1      37.331  30.913  29.871  1.00  0.00    -0.018 A 
ATOM     28  C   UNL A   1      36.861  30.304  27.576  1.00  0.00     0.009 A 
ATOM     29  C   UNL A   1      36.981  31.515  31.089  1.00  0.00     0.009 A 
ATOM     30  C   UNL A   1      38.579  30.283  29.760  1.00  0.00     0.009 A 
ATOM     31  C   UNL A   1      38.088  29.638  27.498  1.00  0.00     0.001 A 
ATOM     32  C   UNL A   1      38.945  29.622  28.592  1.00  0.00     0.001 A 
ENDBRANCH  21  23
ENDBRANCH   7   9
ENDBRANCH   6   7
ENDBRANCH   5   6
ENDBRANCH   4   5
ENDBRANCH   3   4
ENDBRANCH   2   3
ENDBRANCH   1   2
BRANCH   1  33
ATOM     33  O   UNL A   1      35.963  19.794  24.779  1.00  0.00    -0.376 OA
BRANCH  33  34
ATOM     34  C   UNL A   1      37.331  19.967  25.110  1.00  0.00     0.202 C 
BRANCH  34  35
ATOM     35  C   UNL A   1      37.772  21.408  24.812  1.00  0.00     0.261 C 
BRANCH  35  36
ATOM     36  O   UNL A   1      38.528  22.049  25.873  1.00  0.00    -0.460 OA
BRANCH  36  37
ATOM     37  C   UNL A   1      38.026  23.249  26.244  1.00  0.00     0.338 C 
ATOM     38  O   UNL A   1      36.859  23.568  26.124  1.00  0.00    -0.246 OA
BRANCH  37  39
ATOM     39  C   UNL A   1      38.996  24.086  26.976  1.00  0.00     0.060 A 
ATOM     40  C   UNL A   1      38.856  25.475  26.943  1.00  0.00     0.016 A 
ATOM     41  C   UNL A   1      40.158  23.531  27.497  1.00  0.00     0.016 A 
ATOM     42  C   UNL A   1      39.873  26.321  27.373  1.00  0.00     0.010 A 
ATOM     43  C   UNL A   1      41.167  24.377  27.980  1.00  0.00     0.010 A 
ATOM     44  C   UNL A   1      41.041  25.779  27.906  1.00  0.00    -0.014 A 
BRANCH  44  45
ATOM     45  C   UNL A   1      42.135  26.675  28.363  1.00  0.00     0.031 A 
ATOM     46  C   UNL A   1      41.958  27.521  29.592  1.00  0.00     0.074 A 
ATOM     47  C   UNL A   1      43.288  26.736  27.668  1.00  0.00     0.049 A 
ATOM     48  N   UNL A   1      42.698  28.505  30.032  1.00  0.00    -0.248 NA
ATOM     49  C   UNL A   1      40.791  27.220  30.434  1.00  0.00     0.031 C 
ATOM     50  C   UNL A   1      43.625  25.908  26.508  1.00  0.00     0.029 A 
ATOM     51  N   UNL A   1      44.383  27.550  27.826  1.00  0.00    -0.354 N 
ATOM     52  C   UNL A   1      42.062  28.976  31.176  1.00  0.00     0.074 A 
ATOM     53  C   UNL A   1      40.879  28.162  31.363  1.00  0.00     0.031 C 
ATOM     54  C   UNL A   1      44.832  26.270  26.047  1.00  0.00     0.029 A 
ATOM     55  C   UNL A   1      45.312  27.408  26.822  1.00  0.00     0.049 A 
ATOM     56  H   UNL A   1      44.491  28.173  28.581  1.00  0.00     0.167 HD
ATOM     57  C   UNL A   1      42.422  30.004  31.981  1.00  0.00     0.031 A 
ATOM     58  C   UNL A   1      46.391  28.150  26.511  1.00  0.00     0.031 A 
ATOM     59  C   UNL A   1      43.599  30.810  31.776  1.00  0.00     0.049 A 
ATOM     60  C   UNL A   1      46.731  29.339  27.363  1.00  0.00     0.074 A 
ATOM     61  C   UNL A   1      44.059  31.873  32.536  1.00  0.00     0.029 A 
ATOM     62  N   UNL A   1      44.499  30.648  30.732  1.00  0.00    -0.354 N 
ATOM     63  N   UNL A   1      46.105  29.797  28.421  1.00  0.00    -0.248 NA
ATOM     64  C   UNL A   1      47.917  30.113  26.976  1.00  0.00     0.031 C 
ATOM     65  C   UNL A   1      45.197  32.395  31.910  1.00  0.00     0.029 A 
ATOM     66  C   UNL A   1      45.489  31.615  30.803  1.00  0.00     0.049 A 
ATOM     67  H   UNL A   1      44.441  29.949  30.041  1.00  0.00     0.167 HD
ATOM     68  C   UNL A   1      46.830  30.908  28.837  1.00  0.00     0.074 A 
ATOM     69  C   UNL A   1      47.952  31.038  27.926  1.00  0.00     0.031 C 
ATOM     70  C   UNL A   1      46.588  31.744  29.877  1.00  0.00     0.031 A 
BRANCH  57  71
ATOM     71  C   UNL A   1      41.482  30.371  33.103  1.00  0.00    -0.014 A 
ATOM     72  C   UNL A   1      41.579  29.789  34.379  1.00  0.00     0.010 A 
ATOM     73  C   UNL A   1      40.478  31.329  32.866  1.00  0.00     0.010 A 
ATOM     74  C   UNL A   1      40.653  30.115  35.378  1.00  0.00     0.020 A 
ATOM     75  C   UNL A   1      39.571  31.681  33.869  1.00  0.00     0.020 A 
ATOM     76  C   UNL A   1      39.649  31.053  35.112  1.00  0.00     0.054 A 
BRANCH  76  77
ATOM     77  S   UNL A   1      38.450  31.446  36.416  1.00  0.00     0.124 S 
ATOM     78  O   UNL A   1      38.089  30.115  36.902  1.00  0.00    -0.237 OA
ATOM     79  O   UNL A   1      39.235  32.260  37.340  1.00  0.00    -0.237 OA
ATOM     80  O   UNL A   1      37.389  32.158  35.709  1.00  0.00    -0.744 OA
ENDBRANCH  76  77
ENDBRANCH  57  71
BRANCH  58  81
ATOM     81  C   UNL A   1      47.171  27.819  25.288  1.00  0.00    -0.014 A 
ATOM     82  C   UNL A   1      46.736  28.235  24.018  1.00  0.00     0.010 A 
ATOM     83  C   UNL A   1      48.400  27.139  25.400  1.00  0.00     0.010 A 
ATOM     84  C   UNL A   1      47.518  27.985  22.887  1.00  0.00     0.020 A 
ATOM     85  C   UNL A   1      49.199  26.915  24.277  1.00  0.00     0.020 A 
ATOM     86  C   UNL A   1      48.751  27.337  23.026  1.00  0.00     0.054 A 
BRANCH  86  87
ATOM     87  S   UNL A   1      49.793  27.115  21.557  1.00  0.00     0.124 S 
ATOM     88  O   UNL A   1      49.114  26.024  20.865  1.00  0.00    -0.237 OA
ATOM     89  O   UNL A   1      49.711  28.423  20.912  1.00  0.00    -0.237 OA
ATOM     90  O   UNL A   1      51.103  26.784  22.114  1.00  0.00    -0.744 OA
ENDBRANCH  86  87
ENDBRANCH  58  81
BRANCH  70  91
ATOM     91  C   UNL A   1      47.572  32.864  30.100  1.00  0.00    -0.014 A 
ATOM     92  C   UNL A   1      47.374  34.134  29.530  1.00  0.00     0.010 A 
ATOM     93  C   UNL A   1      48.694  32.646  30.920  1.00  0.00     0.010 A 
ATOM     94  C   UNL A   1      48.303  35.156  29.745  1.00  0.00     0.020 A 
ATOM     95  C   UNL A   1      49.610  33.674  31.161  1.00  0.00     0.020 A 
ATOM     96  C   UNL A   1      49.417  34.918  30.557  1.00  0.00     0.054 A 
BRANCH  96  97
ATOM     97  S   UNL A   1      50.595  36.268  30.841  1.00  0.00     0.124 S 
ATOM     98  O   UNL A   1      50.574  36.389  32.295  1.00  0.00    -0.237 OA
ATOM     99  O   UNL A   1      51.831  35.740  30.270  1.00  0.00    -0.237 OA
ATOM    100  O   UNL A   1      50.012  37.394  30.114  1.00  0.00    -0.744 OA
ENDBRANCH  96  97
ENDBRANCH  70  91
ENDBRANCH  44  45
ENDBRANCH  37  39
ENDBRANCH  36  37
ENDBRANCH  35  36
ENDBRANCH  34  35
ENDBRANCH  33  34
ENDBRANCH   1  33
TORSDOF 21
ENDMDL
