MODEL 1
REMARK VINA RESULT:     -10.1      0.000      0.000
REMARK SMILES CS(=O)(=O)Nc1ccc(-c2cc(Cl)cc3c2O[C@H](C(F)(F)F)C(C(=O)OCCOCCOCCOC(=O)c2ccc(-c4c5nc(c(-c6ccc(S(=O)(=O)[O-])cc6)c6ccc([nH]6)c(-c6ccc(S(=O)(=O)[O-])cc6)c6nc(c(-c7ccc(S(=O)(=O)[O-])cc7)c7ccc4[nH]7)C=C6)C=C5)cc2)=C3)cc1
REMARK SMILES IDX 30 1 29 2 28 3 27 4 26 5 24 6 25 7 23 8 10 9 11 10 16 11
REMARK SMILES IDX 12 12 15 13 17 14 13 15 14 16 98 17 18 18 9 19 6 20 7 21
REMARK SMILES IDX 100 22 8 23 99 24 5 25 2 27 1 28 3 29 4 30 19 31 20 32 21 33
REMARK SMILES IDX 22 34 31 35 32 36 33 37 34 38 35 39 36 40 37 41 38 42 39 43
REMARK SMILES IDX 97 44 40 45 96 46 41 47 42 48 43 49 90 50 44 51 95 52 89 53
REMARK SMILES IDX 91 54 45 55 94 56 88 57 87 58 46 60 76 61 57 62 75 63 58 64
REMARK SMILES IDX 61 65 74 66 92 67 59 68 60 69 73 71 93 72 62 73 47 74 48 75
REMARK SMILES IDX 56 76 49 77 55 78 50 79 51 80 52 81 53 82 54 83 77 84 78 85
REMARK SMILES IDX 86 86 79 87 85 88 80 89 81 90 82 91 83 92 84 93 63 94 64 95
REMARK SMILES IDX 72 96 65 97 71 98 66 99 67 100 68 101 69 102 70 103
REMARK H PARENT 5 26 91 59 61 70
REMARK Flexibility Score: inf
ROOT
ATOM      1  C   UNL A   1      31.654  28.546  26.745  1.00  0.00     0.188 C 
ENDROOT
BRANCH   1   2
ATOM      2  O   UNL A   1      30.993  27.846  25.705  1.00  0.00    -0.376 OA
BRANCH   2   3
ATOM      3  C   UNL A   1      30.501  26.550  26.034  1.00  0.00     0.202 C 
BRANCH   3   4
ATOM      4  C   UNL A   1      29.629  25.888  24.958  1.00  0.00     0.261 C 
BRANCH   4   5
ATOM      5  O   UNL A   1      30.408  25.004  24.109  1.00  0.00    -0.460 OA
BRANCH   5   6
ATOM      6  C   UNL A   1      31.034  23.995  24.754  1.00  0.00     0.338 C 
ATOM      7  O   UNL A   1      30.508  22.926  25.033  1.00  0.00    -0.246 OA
BRANCH   6   8
ATOM      8  C   UNL A   1      32.477  24.275  24.995  1.00  0.00     0.087 C 
ATOM      9  C   UNL A   1      35.523  21.478  24.805  1.00  0.00     0.026 A 
ATOM     10  C   UNL A   1      34.851  20.245  24.989  1.00  0.00     0.033 A 
ATOM     11  C   UNL A   1      34.730  22.613  25.017  1.00  0.00     0.135 A 
ATOM     12  C   UNL A   1      33.568  20.144  25.528  1.00  0.00     0.042 A 
ATOM     13  C   UNL A   1      33.555  22.497  25.792  1.00  0.00     0.019 A 
ATOM     14  O   UNL A   1      34.884  23.831  24.353  1.00  0.00    -0.475 OA
ATOM     15  Cl  UNL A   1      32.756  18.637  25.640  1.00  0.00    -0.084 Cl
ATOM     16  C   UNL A   1      32.951  21.271  26.020  1.00  0.00     0.032 A 
ATOM     17  C   UNL A   1      32.855  23.742  26.168  1.00  0.00     0.027 C 
ATOM     18  C   UNL A   1      33.538  24.355  23.899  1.00  0.00     0.316 C 
BRANCH   9  19
ATOM     19  C   UNL A   1      37.017  21.337  24.775  1.00  0.00    -0.014 A 
ATOM     20  C   UNL A   1      39.505  20.661  26.052  1.00  0.00     0.048 A 
ATOM     21  C   UNL A   1      38.823  19.731  25.268  1.00  0.00     0.027 A 
ATOM     22  C   UNL A   1      39.017  21.967  26.085  1.00  0.00     0.027 A 
ATOM     23  C   UNL A   1      37.621  20.077  24.617  1.00  0.00     0.011 A 
ATOM     24  C   UNL A   1      37.797  22.301  25.448  1.00  0.00     0.011 A 
BRANCH  20  25
ATOM     25  N   UNL A   1      40.515  20.179  26.947  1.00  0.00    -0.284 N 
ATOM     26  H   UNL A   1      40.274  20.029  27.889  1.00  0.00     0.180 HD
BRANCH  25  27
ATOM     27  S   UNL A   1      42.089  19.859  26.464  1.00  0.00     0.229 S 
ATOM     28  C   UNL A   1      42.846  21.472  26.514  1.00  0.00     0.183 C 
ATOM     29  O   UNL A   1      42.112  19.379  25.107  1.00  0.00    -0.207 OA
ATOM     30  O   UNL A   1      42.684  19.092  27.545  1.00  0.00    -0.207 OA
ENDBRANCH  25  27
ENDBRANCH  20  25
ENDBRANCH   9  19
BRANCH  18  31
ATOM     31  C   UNL A   1      33.616  25.807  23.412  1.00  0.00     0.430 C 
ATOM     32  F   UNL A   1      32.400  26.394  23.351  1.00  0.00    -0.167 F 
ATOM     33  F   UNL A   1      34.407  26.567  24.201  1.00  0.00    -0.167 F 
ATOM     34  F   UNL A   1      34.146  25.866  22.162  1.00  0.00    -0.167 F 
ENDBRANCH  18  31
ENDBRANCH   6   8
ENDBRANCH   5   6
ENDBRANCH   4   5
ENDBRANCH   3   4
ENDBRANCH   2   3
ENDBRANCH   1   2
BRANCH   1  35
ATOM     35  C   UNL A   1      32.817  29.450  26.277  1.00  0.00     0.188 C 
BRANCH  35  36
ATOM     36  O   UNL A   1      32.550  30.741  25.746  1.00  0.00    -0.376 OA
BRANCH  36  37
ATOM     37  C   UNL A   1      31.578  31.566  26.377  1.00  0.00     0.202 C 
BRANCH  37  38
ATOM     38  C   UNL A   1      32.044  32.839  27.095  1.00  0.00     0.261 C 
BRANCH  38  39
ATOM     39  O   UNL A   1      33.304  32.714  27.779  1.00  0.00    -0.460 OA
BRANCH  39  40
ATOM     40  C   UNL A   1      33.694  33.809  28.477  1.00  0.00     0.338 C 
ATOM     41  O   UNL A   1      33.193  34.920  28.442  1.00  0.00    -0.246 OA
BRANCH  40  42
ATOM     42  C   UNL A   1      34.729  33.446  29.466  1.00  0.00     0.060 A 
ATOM     43  C   UNL A   1      35.965  34.088  29.373  1.00  0.00     0.016 A 
ATOM     44  C   UNL A   1      34.536  32.432  30.407  1.00  0.00     0.016 A 
ATOM     45  C   UNL A   1      37.010  33.704  30.213  1.00  0.00     0.010 A 
ATOM     46  C   UNL A   1      35.596  32.046  31.246  1.00  0.00     0.010 A 
ATOM     47  C   UNL A   1      36.846  32.675  31.153  1.00  0.00    -0.014 A 
BRANCH  47  48
ATOM     48  C   UNL A   1      38.030  32.192  31.921  1.00  0.00     0.031 A 
ATOM     49  C   UNL A   1      39.077  31.381  31.214  1.00  0.00     0.074 A 
ATOM     50  C   UNL A   1      38.205  32.495  33.222  1.00  0.00     0.049 A 
ATOM     51  N   UNL A   1      40.221  30.939  31.668  1.00  0.00    -0.248 NA
ATOM     52  C   UNL A   1      38.780  30.996  29.827  1.00  0.00     0.031 C 
ATOM     53  C   UNL A   1      37.261  33.250  34.033  1.00  0.00     0.029 A 
ATOM     54  N   UNL A   1      39.261  32.265  34.075  1.00  0.00    -0.354 N 
ATOM     55  C   UNL A   1      40.738  30.141  30.653  1.00  0.00     0.074 A 
ATOM     56  C   UNL A   1      39.818  30.226  29.538  1.00  0.00     0.031 C 
ATOM     57  C   UNL A   1      37.836  33.550  35.212  1.00  0.00     0.029 A 
ATOM     58  C   UNL A   1      39.160  32.949  35.268  1.00  0.00     0.049 A 
ATOM     59  H   UNL A   1      40.014  31.670  33.854  1.00  0.00     0.167 HD
ATOM     60  C   UNL A   1      41.840  29.354  30.674  1.00  0.00     0.031 A 
ATOM     61  C   UNL A   1      40.040  33.094  36.280  1.00  0.00     0.031 A 
ATOM     62  C   UNL A   1      42.735  29.240  31.795  1.00  0.00     0.049 A 
ATOM     63  C   UNL A   1      41.321  32.302  36.243  1.00  0.00     0.074 A 
ATOM     64  C   UNL A   1      43.861  28.444  31.916  1.00  0.00     0.029 A 
ATOM     65  N   UNL A   1      42.603  29.927  32.991  1.00  0.00    -0.354 N 
ATOM     66  N   UNL A   1      41.820  31.592  35.261  1.00  0.00    -0.248 NA
ATOM     67  C   UNL A   1      42.135  32.298  37.468  1.00  0.00     0.031 C 
ATOM     68  C   UNL A   1      44.378  28.610  33.205  1.00  0.00     0.029 A 
ATOM     69  C   UNL A   1      43.614  29.561  33.863  1.00  0.00     0.049 A 
ATOM     70  H   UNL A   1      41.894  30.580  33.191  1.00  0.00     0.167 HD
ATOM     71  C   UNL A   1      42.979  31.009  35.769  1.00  0.00     0.074 A 
ATOM     72  C   UNL A   1      43.154  31.527  37.111  1.00  0.00     0.031 C 
ATOM     73  C   UNL A   1      43.796  30.093  35.192  1.00  0.00     0.031 A 
BRANCH  60  74
ATOM     74  C   UNL A   1      42.061  28.456  29.486  1.00  0.00    -0.014 A 
ATOM     75  C   UNL A   1      42.854  28.846  28.394  1.00  0.00     0.010 A 
ATOM     76  C   UNL A   1      41.445  27.191  29.471  1.00  0.00     0.010 A 
ATOM     77  C   UNL A   1      42.985  28.004  27.285  1.00  0.00     0.020 A 
ATOM     78  C   UNL A   1      41.597  26.336  28.379  1.00  0.00     0.020 A 
ATOM     79  C   UNL A   1      42.349  26.758  27.282  1.00  0.00     0.054 A 
BRANCH  79  80
ATOM     80  S   UNL A   1      42.527  25.689  25.827  1.00  0.00     0.124 S 
ATOM     81  O   UNL A   1      42.394  26.649  24.733  1.00  0.00    -0.237 OA
ATOM     82  O   UNL A   1      43.862  25.124  26.007  1.00  0.00    -0.237 OA
ATOM     83  O   UNL A   1      41.426  24.738  25.958  1.00  0.00    -0.744 OA
ENDBRANCH  79  80
ENDBRANCH  60  74
BRANCH  61  84
ATOM     84  C   UNL A   1      39.784  34.044  37.403  1.00  0.00    -0.014 A 
ATOM     85  C   UNL A   1      39.865  35.426  37.156  1.00  0.00     0.010 A 
ATOM     86  C   UNL A   1      39.492  33.611  38.706  1.00  0.00     0.010 A 
ATOM     87  C   UNL A   1      39.715  36.357  38.188  1.00  0.00     0.020 A 
ATOM     88  C   UNL A   1      39.300  34.539  39.739  1.00  0.00     0.020 A 
ATOM     89  C   UNL A   1      39.439  35.906  39.478  1.00  0.00     0.054 A 
BRANCH  89  90
ATOM     90  S   UNL A   1      39.206  37.122  40.807  1.00  0.00     0.124 S 
ATOM     91  O   UNL A   1      40.584  37.481  41.127  1.00  0.00    -0.237 OA
ATOM     92  O   UNL A   1      38.417  38.165  40.155  1.00  0.00    -0.237 OA
ATOM     93  O   UNL A   1      38.495  36.363  41.833  1.00  0.00    -0.744 OA
ENDBRANCH  89  90
ENDBRANCH  61  84
BRANCH  73  94
ATOM     94  C   UNL A   1      44.967  29.580  35.992  1.00  0.00    -0.014 A 
ATOM     95  C   UNL A   1      44.856  28.422  36.783  1.00  0.00     0.010 A 
ATOM     96  C   UNL A   1      46.223  30.202  35.868  1.00  0.00     0.010 A 
ATOM     97  C   UNL A   1      45.975  27.904  37.445  1.00  0.00     0.020 A 
ATOM     98  C   UNL A   1      47.349  29.671  36.504  1.00  0.00     0.020 A 
ATOM     99  C   UNL A   1      47.216  28.529  37.297  1.00  0.00     0.054 A 
BRANCH  99 100
ATOM    100  S   UNL A   1      48.666  27.796  38.108  1.00  0.00     0.124 S 
ATOM    101  O   UNL A   1      49.221  28.939  38.829  1.00  0.00    -0.237 OA
ATOM    102  O   UNL A   1      48.074  26.755  38.945  1.00  0.00    -0.237 OA
ATOM    103  O   UNL A   1      49.476  27.306  36.996  1.00  0.00    -0.744 OA
ENDBRANCH  99 100
ENDBRANCH  73  94
ENDBRANCH  47  48
ENDBRANCH  40  42
ENDBRANCH  39  40
ENDBRANCH  38  39
ENDBRANCH  37  38
ENDBRANCH  36  37
ENDBRANCH  35  36
ENDBRANCH   1  35
TORSDOF 24
ENDMDL
MODEL 2
REMARK VINA RESULT:      -9.9      2.401      8.179
REMARK SMILES CS(=O)(=O)Nc1ccc(-c2cc(Cl)cc3c2O[C@H](C(F)(F)F)C(C(=O)OCCOCCOCCOC(=O)c2ccc(-c4c5nc(c(-c6ccc(S(=O)(=O)[O-])cc6)c6ccc([nH]6)c(-c6ccc(S(=O)(=O)[O-])cc6)c6nc(c(-c7ccc(S(=O)(=O)[O-])cc7)c7ccc4[nH]7)C=C6)C=C5)cc2)=C3)cc1
REMARK SMILES IDX 30 1 29 2 28 3 27 4 26 5 24 6 25 7 23 8 10 9 11 10 16 11
REMARK SMILES IDX 12 12 15 13 17 14 13 15 14 16 98 17 18 18 9 19 6 20 7 21
REMARK SMILES IDX 100 22 8 23 99 24 5 25 2 27 1 28 3 29 4 30 19 31 20 32 21 33
REMARK SMILES IDX 22 34 31 35 32 36 33 37 34 38 35 39 36 40 37 41 38 42 39 43
REMARK SMILES IDX 97 44 40 45 96 46 41 47 42 48 43 49 90 50 44 51 95 52 89 53
REMARK SMILES IDX 91 54 45 55 94 56 88 57 87 58 46 60 76 61 57 62 75 63 58 64
REMARK SMILES IDX 61 65 74 66 92 67 59 68 60 69 73 71 93 72 62 73 47 74 48 75
REMARK SMILES IDX 56 76 49 77 55 78 50 79 51 80 52 81 53 82 54 83 77 84 78 85
REMARK SMILES IDX 86 86 79 87 85 88 80 89 81 90 82 91 83 92 84 93 63 94 64 95
REMARK SMILES IDX 72 96 65 97 71 98 66 99 67 100 68 101 69 102 70 103
REMARK H PARENT 5 26 91 59 61 70
REMARK Flexibility Score: inf
ROOT
ATOM      1  C   UNL A   1      32.797  28.966  25.894  1.00  0.00     0.188 C 
ENDROOT
BRANCH   1   2
ATOM      2  O   UNL A   1      32.126  29.175  24.664  1.00  0.00    -0.376 OA
BRANCH   2   3
ATOM      3  C   UNL A   1      30.718  28.953  24.671  1.00  0.00     0.202 C 
BRANCH   3   4
ATOM      4  C   UNL A   1      30.152  28.301  23.402  1.00  0.00     0.261 C 
BRANCH   4   5
ATOM      5  O   UNL A   1      30.975  27.188  22.961  1.00  0.00    -0.460 OA
BRANCH   5   6
ATOM      6  C   UNL A   1      32.063  27.532  22.238  1.00  0.00     0.338 C 
ATOM      7  O   UNL A   1      32.383  28.685  21.982  1.00  0.00    -0.246 OA
BRANCH   6   8
ATOM      8  C   UNL A   1      32.905  26.358  21.873  1.00  0.00     0.087 C 
ATOM      9  C   UNL A   1      32.823  22.674  23.759  1.00  0.00     0.026 A 
ATOM     10  C   UNL A   1      32.273  22.966  25.031  1.00  0.00     0.033 A 
ATOM     11  C   UNL A   1      33.134  23.799  22.985  1.00  0.00     0.135 A 
ATOM     12  C   UNL A   1      32.221  24.254  25.567  1.00  0.00     0.042 A 
ATOM     13  C   UNL A   1      33.317  25.045  23.623  1.00  0.00     0.019 A 
ATOM     14  O   UNL A   1      33.080  23.850  21.592  1.00  0.00    -0.475 OA
ATOM     15  Cl  UNL A   1      31.455  24.572  27.068  1.00  0.00    -0.084 Cl
ATOM     16  C   UNL A   1      32.832  25.289  24.899  1.00  0.00     0.032 A 
ATOM     17  C   UNL A   1      33.844  26.161  22.812  1.00  0.00     0.027 C 
ATOM     18  C   UNL A   1      32.392  25.121  21.139  1.00  0.00     0.316 C 
BRANCH   9  19
ATOM     19  C   UNL A   1      33.296  21.255  23.633  1.00  0.00    -0.014 A 
ATOM     20  C   UNL A   1      33.649  18.616  24.723  1.00  0.00     0.048 A 
ATOM     21  C   UNL A   1      32.542  18.926  23.933  1.00  0.00     0.027 A 
ATOM     22  C   UNL A   1      34.646  19.581  24.853  1.00  0.00     0.027 A 
ATOM     23  C   UNL A   1      32.390  20.212  23.374  1.00  0.00     0.011 A 
ATOM     24  C   UNL A   1      34.476  20.878  24.308  1.00  0.00     0.011 A 
BRANCH  20  25
ATOM     25  N   UNL A   1      33.593  17.433  25.530  1.00  0.00    -0.284 N 
ATOM     26  H   UNL A   1      33.356  17.524  26.481  1.00  0.00     0.180 HD
BRANCH  25  27
ATOM     27  S   UNL A   1      33.915  15.900  24.930  1.00  0.00     0.229 S 
ATOM     28  C   UNL A   1      32.578  14.932  25.603  1.00  0.00     0.183 C 
ATOM     29  O   UNL A   1      35.158  15.403  25.459  1.00  0.00    -0.207 OA
ATOM     30  O   UNL A   1      33.683  15.982  23.498  1.00  0.00    -0.207 OA
ENDBRANCH  25  27
ENDBRANCH  20  25
ENDBRANCH   9  19
BRANCH  18  31
ATOM     31  C   UNL A   1      32.548  25.359  19.632  1.00  0.00     0.430 C 
ATOM     32  F   UNL A   1      31.364  25.597  19.025  1.00  0.00    -0.167 F 
ATOM     33  F   UNL A   1      33.371  26.395  19.362  1.00  0.00    -0.167 F 
ATOM     34  F   UNL A   1      33.088  24.268  19.027  1.00  0.00    -0.167 F 
ENDBRANCH  18  31
ENDBRANCH   6   8
ENDBRANCH   5   6
ENDBRANCH   4   5
ENDBRANCH   3   4
ENDBRANCH   2   3
ENDBRANCH   1   2
BRANCH   1  35
ATOM     35  C   UNL A   1      32.774  30.176  26.856  1.00  0.00     0.188 C 
BRANCH  35  36
ATOM     36  O   UNL A   1      31.695  31.100  26.817  1.00  0.00    -0.376 OA
BRANCH  36  37
ATOM     37  C   UNL A   1      31.919  32.451  27.203  1.00  0.00     0.202 C 
BRANCH  37  38
ATOM     38  C   UNL A   1      33.332  32.872  27.628  1.00  0.00     0.261 C 
BRANCH  38  39
ATOM     39  O   UNL A   1      33.560  34.293  27.622  1.00  0.00    -0.460 OA
BRANCH  39  40
ATOM     40  C   UNL A   1      33.505  34.892  28.838  1.00  0.00     0.338 C 
ATOM     41  O   UNL A   1      32.616  35.610  29.263  1.00  0.00    -0.246 OA
BRANCH  40  42
ATOM     42  C   UNL A   1      34.607  34.413  29.697  1.00  0.00     0.060 A 
ATOM     43  C   UNL A   1      35.912  34.605  29.240  1.00  0.00     0.016 A 
ATOM     44  C   UNL A   1      34.376  33.707  30.879  1.00  0.00     0.016 A 
ATOM     45  C   UNL A   1      36.982  34.076  29.960  1.00  0.00     0.010 A 
ATOM     46  C   UNL A   1      35.460  33.171  31.596  1.00  0.00     0.010 A 
ATOM     47  C   UNL A   1      36.775  33.346  31.139  1.00  0.00    -0.014 A 
BRANCH  47  48
ATOM     48  C   UNL A   1      37.931  32.668  31.793  1.00  0.00     0.031 A 
ATOM     49  C   UNL A   1      38.302  33.051  33.197  1.00  0.00     0.074 A 
ATOM     50  C   UNL A   1      38.628  31.695  31.175  1.00  0.00     0.049 A 
ATOM     51  N   UNL A   1      39.211  32.530  33.980  1.00  0.00    -0.248 NA
ATOM     52  C   UNL A   1      37.574  34.187  33.779  1.00  0.00     0.031 C 
ATOM     53  C   UNL A   1      38.392  31.243  29.812  1.00  0.00     0.029 A 
ATOM     54  N   UNL A   1      39.630  30.866  31.628  1.00  0.00    -0.354 N 
ATOM     55  C   UNL A   1      39.231  33.336  35.112  1.00  0.00     0.074 A 
ATOM     56  C   UNL A   1      38.192  34.330  34.942  1.00  0.00     0.031 C 
ATOM     57  C   UNL A   1      39.114  30.131  29.586  1.00  0.00     0.029 A 
ATOM     58  C   UNL A   1      39.917  29.831  30.763  1.00  0.00     0.049 A 
ATOM     59  H   UNL A   1      40.096  31.000  32.484  1.00  0.00     0.167 HD
ATOM     60  C   UNL A   1      40.083  33.297  36.164  1.00  0.00     0.031 A 
ATOM     61  C   UNL A   1      40.716  28.755  30.908  1.00  0.00     0.031 A 
ATOM     62  C   UNL A   1      41.140  32.332  36.317  1.00  0.00     0.049 A 
ATOM     63  C   UNL A   1      41.579  28.656  32.139  1.00  0.00     0.074 A 
ATOM     64  C   UNL A   1      42.071  32.234  37.337  1.00  0.00     0.029 A 
ATOM     65  N   UNL A   1      41.418  31.310  35.425  1.00  0.00    -0.354 N 
ATOM     66  N   UNL A   1      41.555  29.395  33.222  1.00  0.00    -0.248 NA
ATOM     67  C   UNL A   1      42.607  27.604  32.147  1.00  0.00     0.031 C 
ATOM     68  C   UNL A   1      42.945  31.186  37.032  1.00  0.00     0.029 A 
ATOM     69  C   UNL A   1      42.516  30.586  35.858  1.00  0.00     0.049 A 
ATOM     70  H   UNL A   1      40.909  31.124  34.603  1.00  0.00     0.167 HD
ATOM     71  C   UNL A   1      42.602  28.933  34.016  1.00  0.00     0.074 A 
ATOM     72  C   UNL A   1      43.176  27.793  33.331  1.00  0.00     0.031 C 
ATOM     73  C   UNL A   1      43.073  29.440  35.183  1.00  0.00     0.031 A 
BRANCH  60  74
ATOM     74  C   UNL A   1      39.981  34.413  37.168  1.00  0.00    -0.014 A 
ATOM     75  C   UNL A   1      40.666  35.629  37.004  1.00  0.00     0.010 A 
ATOM     76  C   UNL A   1      39.179  34.226  38.309  1.00  0.00     0.010 A 
ATOM     77  C   UNL A   1      40.590  36.617  37.990  1.00  0.00     0.020 A 
ATOM     78  C   UNL A   1      39.077  35.222  39.282  1.00  0.00     0.020 A 
ATOM     79  C   UNL A   1      39.802  36.404  39.126  1.00  0.00     0.054 A 
BRANCH  79  80
ATOM     80  S   UNL A   1      39.727  37.698  40.395  1.00  0.00     0.124 S 
ATOM     81  O   UNL A   1      38.329  38.114  40.315  1.00  0.00    -0.237 OA
ATOM     82  O   UNL A   1      40.100  36.978  41.609  1.00  0.00    -0.237 OA
ATOM     83  O   UNL A   1      40.698  38.689  39.937  1.00  0.00    -0.744 OA
ENDBRANCH  79  80
ENDBRANCH  60  74
BRANCH  61  84
ATOM     84  C   UNL A   1      40.729  27.654  29.900  1.00  0.00    -0.014 A 
ATOM     85  C   UNL A   1      39.554  26.910  29.689  1.00  0.00     0.010 A 
ATOM     86  C   UNL A   1      41.879  27.312  29.171  1.00  0.00     0.010 A 
ATOM     87  C   UNL A   1      39.533  25.819  28.817  1.00  0.00     0.020 A 
ATOM     88  C   UNL A   1      41.856  26.243  28.264  1.00  0.00     0.020 A 
ATOM     89  C   UNL A   1      40.690  25.486  28.113  1.00  0.00     0.054 A 
BRANCH  89  90
ATOM     90  S   UNL A   1      40.646  24.090  26.952  1.00  0.00     0.124 S 
ATOM     91  O   UNL A   1      40.932  22.962  27.832  1.00  0.00    -0.237 OA
ATOM     92  O   UNL A   1      39.284  24.151  26.426  1.00  0.00    -0.237 OA
ATOM     93  O   UNL A   1      41.693  24.423  25.990  1.00  0.00    -0.744 OA
ENDBRANCH  89  90
ENDBRANCH  61  84
BRANCH  73  94
ATOM     94  C   UNL A   1      44.269  28.772  35.816  1.00  0.00    -0.014 A 
ATOM     95  C   UNL A   1      44.114  27.699  36.712  1.00  0.00     0.010 A 
ATOM     96  C   UNL A   1      45.567  29.153  35.427  1.00  0.00     0.010 A 
ATOM     97  C   UNL A   1      45.233  27.029  37.218  1.00  0.00     0.020 A 
ATOM     98  C   UNL A   1      46.686  28.467  35.908  1.00  0.00     0.020 A 
ATOM     99  C   UNL A   1      46.513  27.414  36.809  1.00  0.00     0.054 A 
BRANCH  99 100
ATOM    100  S   UNL A   1      47.944  26.482  37.423  1.00  0.00     0.124 S 
ATOM    101  O   UNL A   1      47.340  25.639  38.451  1.00  0.00    -0.237 OA
ATOM    102  O   UNL A   1      48.406  25.779  36.229  1.00  0.00    -0.237 OA
ATOM    103  O   UNL A   1      48.848  27.518  37.917  1.00  0.00    -0.744 OA
ENDBRANCH  99 100
ENDBRANCH  73  94
ENDBRANCH  47  48
ENDBRANCH  40  42
ENDBRANCH  39  40
ENDBRANCH  38  39
ENDBRANCH  37  38
ENDBRANCH  36  37
ENDBRANCH  35  36
ENDBRANCH   1  35
TORSDOF 24
ENDMDL
MODEL 3
REMARK VINA RESULT:      -9.8      4.104      9.005
REMARK SMILES CS(=O)(=O)Nc1ccc(-c2cc(Cl)cc3c2O[C@H](C(F)(F)F)C(C(=O)OCCOCCOCCOC(=O)c2ccc(-c4c5nc(c(-c6ccc(S(=O)(=O)[O-])cc6)c6ccc([nH]6)c(-c6ccc(S(=O)(=O)[O-])cc6)c6nc(c(-c7ccc(S(=O)(=O)[O-])cc7)c7ccc4[nH]7)C=C6)C=C5)cc2)=C3)cc1
REMARK SMILES IDX 30 1 29 2 28 3 27 4 26 5 24 6 25 7 23 8 10 9 11 10 16 11
REMARK SMILES IDX 12 12 15 13 17 14 13 15 14 16 98 17 18 18 9 19 6 20 7 21
REMARK SMILES IDX 100 22 8 23 99 24 5 25 2 27 1 28 3 29 4 30 19 31 20 32 21 33
REMARK SMILES IDX 22 34 31 35 32 36 33 37 34 38 35 39 36 40 37 41 38 42 39 43
REMARK SMILES IDX 97 44 40 45 96 46 41 47 42 48 43 49 90 50 44 51 95 52 89 53
REMARK SMILES IDX 91 54 45 55 94 56 88 57 87 58 46 60 76 61 57 62 75 63 58 64
REMARK SMILES IDX 61 65 74 66 92 67 59 68 60 69 73 71 93 72 62 73 47 74 48 75
REMARK SMILES IDX 56 76 49 77 55 78 50 79 51 80 52 81 53 82 54 83 77 84 78 85
REMARK SMILES IDX 86 86 79 87 85 88 80 89 81 90 82 91 83 92 84 93 63 94 64 95
REMARK SMILES IDX 72 96 65 97 71 98 66 99 67 100 68 101 69 102 70 103
REMARK H PARENT 5 26 91 59 61 70
REMARK Flexibility Score: inf
ROOT
ATOM      1  C   UNL A   1      34.758  31.309  27.665  1.00  0.00     0.188 C 
ENDROOT
BRANCH   1   2
ATOM      2  O   UNL A   1      33.538  31.077  26.982  1.00  0.00    -0.376 OA
BRANCH   2   3
ATOM      3  C   UNL A   1      33.071  29.731  26.971  1.00  0.00     0.202 C 
BRANCH   3   4
ATOM      4  C   UNL A   1      31.770  29.495  26.189  1.00  0.00     0.261 C 
BRANCH   4   5
ATOM      5  O   UNL A   1      31.366  28.101  26.232  1.00  0.00    -0.460 OA
BRANCH   5   6
ATOM      6  C   UNL A   1      31.240  27.504  25.027  1.00  0.00     0.338 C 
ATOM      7  O   UNL A   1      30.367  27.774  24.213  1.00  0.00    -0.246 OA
BRANCH   6   8
ATOM      8  C   UNL A   1      32.348  26.551  24.739  1.00  0.00     0.087 C 
ATOM      9  C   UNL A   1      32.062  22.425  24.903  1.00  0.00     0.026 A 
ATOM     10  C   UNL A   1      30.946  22.205  25.747  1.00  0.00     0.033 A 
ATOM     11  C   UNL A   1      32.490  23.756  24.836  1.00  0.00     0.135 A 
ATOM     12  C   UNL A   1      30.427  23.178  26.601  1.00  0.00     0.042 A 
ATOM     13  C   UNL A   1      32.134  24.647  25.873  1.00  0.00     0.019 A 
ATOM     14  O   UNL A   1      33.075  24.352  23.718  1.00  0.00    -0.475 OA
ATOM     15  Cl  UNL A   1      29.013  22.896  27.531  1.00  0.00    -0.084 Cl
ATOM     16  C   UNL A   1      31.082  24.380  26.735  1.00  0.00     0.032 A 
ATOM     17  C   UNL A   1      32.768  25.981  25.879  1.00  0.00     0.027 C 
ATOM     18  C   UNL A   1      32.459  25.714  23.466  1.00  0.00     0.316 C 
BRANCH   9  19
ATOM     19  C   UNL A   1      32.782  21.160  24.536  1.00  0.00    -0.014 A 
ATOM     20  C   UNL A   1      33.517  18.434  25.088  1.00  0.00     0.048 A 
ATOM     21  C   UNL A   1      32.428  18.734  24.270  1.00  0.00     0.027 A 
ATOM     22  C   UNL A   1      34.320  19.490  25.516  1.00  0.00     0.027 A 
ATOM     23  C   UNL A   1      32.092  20.071  23.976  1.00  0.00     0.011 A 
ATOM     24  C   UNL A   1      33.962  20.832  25.237  1.00  0.00     0.011 A 
BRANCH  20  25
ATOM     25  N   UNL A   1      33.615  17.108  25.624  1.00  0.00    -0.284 N 
ATOM     26  H   UNL A   1      33.221  16.929  26.507  1.00  0.00     0.180 HD
BRANCH  25  27
ATOM     27  S   UNL A   1      34.371  15.848  24.816  1.00  0.00     0.229 S 
ATOM     28  C   UNL A   1      36.010  15.865  25.516  1.00  0.00     0.183 C 
ATOM     29  O   UNL A   1      34.466  16.137  23.409  1.00  0.00    -0.207 OA
ATOM     30  O   UNL A   1      33.732  14.634  25.295  1.00  0.00    -0.207 OA
ENDBRANCH  25  27
ENDBRANCH  20  25
ENDBRANCH   9  19
BRANCH  18  31
ATOM     31  C   UNL A   1      33.246  26.521  22.427  1.00  0.00     0.430 C 
ATOM     32  F   UNL A   1      32.470  26.926  21.396  1.00  0.00    -0.167 F 
ATOM     33  F   UNL A   1      33.827  27.615  22.965  1.00  0.00    -0.167 F 
ATOM     34  F   UNL A   1      34.248  25.773  21.895  1.00  0.00    -0.167 F 
ENDBRANCH  18  31
ENDBRANCH   6   8
ENDBRANCH   5   6
ENDBRANCH   4   5
ENDBRANCH   3   4
ENDBRANCH   2   3
ENDBRANCH   1   2
BRANCH   1  35
ATOM     35  C   UNL A   1      34.605  31.986  29.046  1.00  0.00     0.188 C 
BRANCH  35  36
ATOM     36  O   UNL A   1      35.751  32.241  29.848  1.00  0.00    -0.376 OA
BRANCH  36  37
ATOM     37  C   UNL A   1      35.581  32.569  31.222  1.00  0.00     0.202 C 
BRANCH  37  38
ATOM     38  C   UNL A   1      34.540  33.629  31.605  1.00  0.00     0.261 C 
BRANCH  38  39
ATOM     39  O   UNL A   1      34.393  33.840  33.021  1.00  0.00    -0.460 OA
BRANCH  39  40
ATOM     40  C   UNL A   1      35.091  34.889  33.524  1.00  0.00     0.338 C 
ATOM     41  O   UNL A   1      34.694  36.032  33.673  1.00  0.00    -0.246 OA
BRANCH  40  42
ATOM     42  C   UNL A   1      36.387  34.432  34.064  1.00  0.00     0.060 A 
ATOM     43  C   UNL A   1      36.366  33.665  35.231  1.00  0.00     0.016 A 
ATOM     44  C   UNL A   1      37.606  34.819  33.502  1.00  0.00     0.016 A 
ATOM     45  C   UNL A   1      37.566  33.300  35.841  1.00  0.00     0.010 A 
ATOM     46  C   UNL A   1      38.811  34.452  34.127  1.00  0.00     0.010 A 
ATOM     47  C   UNL A   1      38.802  33.693  35.307  1.00  0.00    -0.014 A 
BRANCH  47  48
ATOM     48  C   UNL A   1      40.051  33.414  36.072  1.00  0.00     0.031 A 
ATOM     49  C   UNL A   1      40.460  34.355  37.169  1.00  0.00     0.074 A 
ATOM     50  C   UNL A   1      40.803  32.323  35.833  1.00  0.00     0.049 A 
ATOM     51  N   UNL A   1      41.455  34.254  38.012  1.00  0.00    -0.248 NA
ATOM     52  C   UNL A   1      39.659  35.579  37.313  1.00  0.00     0.031 C 
ATOM     53  C   UNL A   1      40.538  31.345  34.788  1.00  0.00     0.029 A 
ATOM     54  N   UNL A   1      41.903  31.815  36.488  1.00  0.00    -0.354 N 
ATOM     55  C   UNL A   1      41.459  35.448  38.724  1.00  0.00     0.074 A 
ATOM     56  C   UNL A   1      40.322  36.219  38.264  1.00  0.00     0.031 C 
ATOM     57  C   UNL A   1      41.349  30.286  34.961  1.00  0.00     0.029 A 
ATOM     58  C   UNL A   1      42.240  30.540  36.084  1.00  0.00     0.049 A 
ATOM     59  H   UNL A   1      42.399  32.313  37.176  1.00  0.00     0.167 HD
ATOM     60  C   UNL A   1      42.367  35.892  39.626  1.00  0.00     0.031 A 
ATOM     61  C   UNL A   1      43.144  29.668  36.575  1.00  0.00     0.031 A 
ATOM     62  C   UNL A   1      43.517  35.143  40.056  1.00  0.00     0.049 A 
ATOM     63  C   UNL A   1      44.078  30.131  37.663  1.00  0.00     0.074 A 
ATOM     64  C   UNL A   1      44.507  35.526  40.944  1.00  0.00     0.029 A 
ATOM     65  N   UNL A   1      43.843  33.868  39.623  1.00  0.00    -0.354 N 
ATOM     66  N   UNL A   1      44.042  31.241  38.360  1.00  0.00    -0.248 NA
ATOM     67  C   UNL A   1      45.200  29.242  37.998  1.00  0.00     0.031 C 
ATOM     68  C   UNL A   1      45.459  34.503  41.007  1.00  0.00     0.029 A 
ATOM     69  C   UNL A   1      45.027  33.455  40.210  1.00  0.00     0.049 A 
ATOM     70  H   UNL A   1      43.310  33.333  38.990  1.00  0.00     0.167 HD
ATOM     71  C   UNL A   1      45.170  31.208  39.177  1.00  0.00     0.074 A 
ATOM     72  C   UNL A   1      45.811  29.929  38.954  1.00  0.00     0.031 C 
ATOM     73  C   UNL A   1      45.652  32.172  40.000  1.00  0.00     0.031 A 
BRANCH  60  74
ATOM     74  C   UNL A   1      42.213  37.310  40.108  1.00  0.00    -0.014 A 
ATOM     75  C   UNL A   1      41.458  37.633  41.247  1.00  0.00     0.010 A 
ATOM     76  C   UNL A   1      42.843  38.341  39.386  1.00  0.00     0.010 A 
ATOM     77  C   UNL A   1      41.293  38.968  41.626  1.00  0.00     0.020 A 
ATOM     78  C   UNL A   1      42.706  39.674  39.779  1.00  0.00     0.020 A 
ATOM     79  C   UNL A   1      41.912  39.981  40.884  1.00  0.00     0.054 A 
BRANCH  79  80
ATOM     80  S   UNL A   1      41.675  41.706  41.391  1.00  0.00     0.124 S 
ATOM     81  O   UNL A   1      42.850  42.352  40.810  1.00  0.00    -0.237 OA
ATOM     82  O   UNL A   1      40.398  42.050  40.772  1.00  0.00    -0.237 OA
ATOM     83  O   UNL A   1      41.660  41.640  42.851  1.00  0.00    -0.744 OA
ENDBRANCH  79  80
ENDBRANCH  60  74
BRANCH  61  84
ATOM     84  C   UNL A   1      43.207  28.257  36.091  1.00  0.00    -0.014 A 
ATOM     85  C   UNL A   1      42.406  27.286  36.718  1.00  0.00     0.010 A 
ATOM     86  C   UNL A   1      44.057  27.855  35.048  1.00  0.00     0.010 A 
ATOM     87  C   UNL A   1      42.486  25.938  36.358  1.00  0.00     0.020 A 
ATOM     88  C   UNL A   1      44.114  26.511  34.654  1.00  0.00     0.020 A 
ATOM     89  C   UNL A   1      43.347  25.556  35.329  1.00  0.00     0.054 A 
BRANCH  89  90
ATOM     90  S   UNL A   1      43.417  23.809  34.841  1.00  0.00     0.124 S 
ATOM     91  O   UNL A   1      42.022  23.404  34.977  1.00  0.00    -0.237 OA
ATOM     92  O   UNL A   1      43.924  23.877  33.472  1.00  0.00    -0.237 OA
ATOM     93  O   UNL A   1      44.342  23.228  35.811  1.00  0.00    -0.744 OA
ENDBRANCH  89  90
ENDBRANCH  61  84
BRANCH  73  94
ATOM     94  C   UNL A   1      46.939  31.897  40.739  1.00  0.00    -0.014 A 
ATOM     95  C   UNL A   1      48.184  32.249  40.188  1.00  0.00     0.010 A 
ATOM     96  C   UNL A   1      46.895  31.377  42.046  1.00  0.00     0.010 A 
ATOM     97  C   UNL A   1      49.362  32.074  40.923  1.00  0.00     0.020 A 
ATOM     98  C   UNL A   1      48.067  31.228  42.795  1.00  0.00     0.020 A 
ATOM     99  C   UNL A   1      49.295  31.569  42.225  1.00  0.00     0.054 A 
BRANCH  99 100
ATOM    100  S   UNL A   1      50.829  31.420  43.184  1.00  0.00     0.124 S 
ATOM    101  O   UNL A   1      50.470  32.080  44.437  1.00  0.00    -0.237 OA
ATOM    102  O   UNL A   1      51.014  29.973  43.270  1.00  0.00    -0.237 OA
ATOM    103  O   UNL A   1      51.818  32.121  42.370  1.00  0.00    -0.744 OA
ENDBRANCH  99 100
ENDBRANCH  73  94
ENDBRANCH  47  48
ENDBRANCH  40  42
ENDBRANCH  39  40
ENDBRANCH  38  39
ENDBRANCH  37  38
ENDBRANCH  36  37
ENDBRANCH  35  36
ENDBRANCH   1  35
TORSDOF 24
ENDMDL
