MODEL 1
REMARK VINA RESULT:      -9.0      0.000      0.000
REMARK SMILES Nc1c(N2CCC(C(=O)OCCOCCOCCOC(=O)c3ccc(-c4c5nc(c(-c6ccc(S(=O)(=O)[O-])cc6)c6ccc([nH]6)c(-c6ccc(S(=O)(=O)[O-])cc6)c6nc(c(-c7ccc(S(=O)(=O)[O-])cc7)c7ccc4[nH]7)C=C6)C=C5)cc3)CC2)ncnc1N1CCN(c2ccccc2)CC1
REMARK SMILES IDX 14 1 13 2 12 3 11 4 10 5 8 6 9 7 7 8 4 9 5 10 83 11 6 12
REMARK SMILES IDX 82 13 3 14 2 15 87 16 84 17 86 18 85 19 1 20 88 23 89 24
REMARK SMILES IDX 99 25 90 26 98 27 91 28 92 29 93 30 97 31 94 32 96 33 95 34
REMARK SMILES IDX 15 35 16 36 17 37 18 38 19 39 20 40 21 41 22 42 23 43 81 44
REMARK SMILES IDX 24 45 80 46 25 47 26 48 27 49 74 50 28 51 79 52 73 53 75 54
REMARK SMILES IDX 29 55 78 56 72 57 71 58 30 60 60 61 41 62 59 63 42 64 45 65
REMARK SMILES IDX 58 66 76 67 43 68 44 69 57 71 77 72 46 73 31 74 32 75 40 76
REMARK SMILES IDX 33 77 39 78 34 79 35 80 36 81 37 82 38 83 61 84 62 85 70 86
REMARK SMILES IDX 63 87 69 88 64 89 65 90 66 91 67 92 68 93 47 94 48 95 56 96
REMARK SMILES IDX 49 97 55 98 50 99 51 100 52 101 53 102 54 103
REMARK H PARENT 1 21 1 22 75 59 45 70
REMARK Flexibility Score: inf
ROOT
ATOM      1  C   UNL A   1      36.641  29.400  28.363  1.00  0.00     0.188 C 
ENDROOT
BRANCH   1   2
ATOM      2  O   UNL A   1      36.184  30.332  29.334  1.00  0.00    -0.376 OA
BRANCH   2   3
ATOM      3  C   UNL A   1      35.788  31.617  28.862  1.00  0.00     0.202 C 
BRANCH   3   4
ATOM      4  C   UNL A   1      34.747  31.657  27.733  1.00  0.00     0.261 C 
BRANCH   4   5
ATOM      5  O   UNL A   1      33.616  30.782  27.920  1.00  0.00    -0.463 OA
BRANCH   5   6
ATOM      6  C   UNL A   1      32.511  31.108  27.199  1.00  0.00     0.309 C 
ATOM      7  O   UNL A   1      32.160  32.258  26.949  1.00  0.00    -0.252 OA
BRANCH   6   8
ATOM      8  C   UNL A   1      31.733  29.920  26.669  1.00  0.00     0.103 C 
ATOM      9  N   UNL A   1      31.378  27.278  25.618  1.00  0.00    -0.355 N 
ATOM     10  C   UNL A   1      30.973  28.406  24.792  1.00  0.00     0.119 C 
ATOM     11  C   UNL A   1      31.436  27.463  27.063  1.00  0.00     0.119 C 
ATOM     12  C   UNL A   1      31.743  29.679  25.155  1.00  0.00     0.037 C 
ATOM     13  C   UNL A   1      32.262  28.688  27.403  1.00  0.00     0.037 C 
BRANCH   9  14
ATOM     14  C   UNL A   1      32.180  26.286  25.054  1.00  0.00     0.157 A 
ATOM     15  C   UNL A   1      31.984  24.947  25.437  1.00  0.00     0.118 A 
ATOM     16  C   UNL A   1      32.857  23.998  24.890  1.00  0.00     0.157 A 
ATOM     17  N   UNL A   1      33.136  26.640  24.180  1.00  0.00    -0.217 NA
ATOM     18  N   UNL A   1      33.871  24.355  24.083  1.00  0.00    -0.217 NA
ATOM     19  C   UNL A   1      33.933  25.651  23.748  1.00  0.00     0.226 A 
BRANCH  15  20
ATOM     20  N   UNL A   1      30.942  24.588  26.319  1.00  0.00    -0.393 N 
ATOM     21  H   UNL A   1      30.452  25.286  26.811  1.00  0.00     0.156 HD
ATOM     22  H   UNL A   1      30.706  23.640  26.440  1.00  0.00     0.156 HD
ENDBRANCH  15  20
BRANCH  16  23
ATOM     23  N   UNL A   1      32.700  22.658  25.156  1.00  0.00    -0.351 N 
ATOM     24  C   UNL A   1      31.864  21.821  24.304  1.00  0.00     0.139 C 
ATOM     25  C   UNL A   1      33.415  22.001  26.251  1.00  0.00     0.139 C 
ATOM     26  C   UNL A   1      32.717  20.655  23.739  1.00  0.00     0.138 C 
ATOM     27  C   UNL A   1      34.223  20.790  25.740  1.00  0.00     0.138 C 
ATOM     28  N   UNL A   1      33.408  19.960  24.837  1.00  0.00    -0.368 N 
BRANCH  28  29
ATOM     29  C   UNL A   1      33.469  18.589  24.915  1.00  0.00     0.037 A 
ATOM     30  C   UNL A   1      32.584  17.847  25.703  1.00  0.00     0.026 A 
ATOM     31  C   UNL A   1      34.453  17.892  24.202  1.00  0.00     0.026 A 
ATOM     32  C   UNL A   1      32.675  16.453  25.769  1.00  0.00     0.002 A 
ATOM     33  C   UNL A   1      34.562  16.503  24.277  1.00  0.00     0.002 A 
ATOM     34  C   UNL A   1      33.668  15.781  25.059  1.00  0.00     0.000 A 
ENDBRANCH  28  29
ENDBRANCH  16  23
ENDBRANCH   9  14
ENDBRANCH   6   8
ENDBRANCH   5   6
ENDBRANCH   4   5
ENDBRANCH   3   4
ENDBRANCH   2   3
ENDBRANCH   1   2
BRANCH   1  35
ATOM     35  C   UNL A   1      38.083  29.565  27.888  1.00  0.00     0.188 C 
BRANCH  35  36
ATOM     36  O   UNL A   1      39.088  28.954  28.682  1.00  0.00    -0.376 OA
BRANCH  36  37
ATOM     37  C   UNL A   1      38.622  28.077  29.714  1.00  0.00     0.202 C 
BRANCH  37  38
ATOM     38  C   UNL A   1      38.956  28.473  31.172  1.00  0.00     0.261 C 
BRANCH  38  39
ATOM     39  O   UNL A   1      39.242  29.871  31.416  1.00  0.00    -0.460 OA
BRANCH  39  40
ATOM     40  C   UNL A   1      40.199  30.170  32.327  1.00  0.00     0.338 C 
ATOM     41  O   UNL A   1      40.031  30.283  33.530  1.00  0.00    -0.246 OA
BRANCH  40  42
ATOM     42  C   UNL A   1      41.540  30.049  31.681  1.00  0.00     0.060 A 
ATOM     43  C   UNL A   1      41.741  30.707  30.457  1.00  0.00     0.016 A 
ATOM     44  C   UNL A   1      42.608  29.370  32.277  1.00  0.00     0.016 A 
ATOM     45  C   UNL A   1      42.979  30.648  29.808  1.00  0.00     0.010 A 
ATOM     46  C   UNL A   1      43.843  29.290  31.614  1.00  0.00     0.010 A 
ATOM     47  C   UNL A   1      44.026  29.897  30.357  1.00  0.00    -0.014 A 
BRANCH  47  48
ATOM     48  C   UNL A   1      45.202  29.540  29.515  1.00  0.00     0.031 A 
ATOM     49  C   UNL A   1      46.344  30.525  29.453  1.00  0.00     0.074 A 
ATOM     50  C   UNL A   1      45.300  28.374  28.848  1.00  0.00     0.049 A 
ATOM     51  N   UNL A   1      47.452  30.473  28.757  1.00  0.00    -0.248 NA
ATOM     52  C   UNL A   1      46.217  31.727  30.294  1.00  0.00     0.031 C 
ATOM     53  C   UNL A   1      44.317  27.294  28.871  1.00  0.00     0.029 A 
ATOM     54  N   UNL A   1      46.291  27.907  28.015  1.00  0.00    -0.354 N 
ATOM     55  C   UNL A   1      48.150  31.633  29.074  1.00  0.00     0.074 A 
ATOM     56  C   UNL A   1      47.329  32.383  30.000  1.00  0.00     0.031 C 
ATOM     57  C   UNL A   1      44.753  26.290  28.085  1.00  0.00     0.029 A 
ATOM     58  C   UNL A   1      46.026  26.671  27.471  1.00  0.00     0.049 A 
ATOM     59  H   UNL A   1      47.115  28.411  27.824  1.00  0.00     0.167 HD
ATOM     60  C   UNL A   1      49.366  32.043  28.643  1.00  0.00     0.031 A 
ATOM     61  C   UNL A   1      46.717  25.939  26.570  1.00  0.00     0.031 A 
ATOM     62  C   UNL A   1      50.182  31.318  27.707  1.00  0.00     0.049 A 
ATOM     63  C   UNL A   1      48.017  26.467  26.012  1.00  0.00     0.074 A 
ATOM     64  C   UNL A   1      51.423  31.665  27.204  1.00  0.00     0.029 A 
ATOM     65  N   UNL A   1      49.840  30.107  27.127  1.00  0.00    -0.354 N 
ATOM     66  N   UNL A   1      48.658  27.572  26.315  1.00  0.00    -0.248 NA
ATOM     67  C   UNL A   1      48.688  25.648  24.991  1.00  0.00     0.031 C 
ATOM     68  C   UNL A   1      51.805  30.693  26.274  1.00  0.00     0.029 A 
ATOM     69  C   UNL A   1      50.833  29.707  26.250  1.00  0.00     0.049 A 
ATOM     70  H   UNL A   1      49.013  29.606  27.312  1.00  0.00     0.167 HD
ATOM     71  C   UNL A   1      49.816  27.565  25.540  1.00  0.00     0.074 A 
ATOM     72  C   UNL A   1      49.796  26.342  24.767  1.00  0.00     0.031 C 
ATOM     73  C   UNL A   1      50.806  28.490  25.477  1.00  0.00     0.031 A 
BRANCH  60  74
ATOM     74  C   UNL A   1      49.877  33.362  29.158  1.00  0.00    -0.014 A 
ATOM     75  C   UNL A   1      49.585  34.564  28.489  1.00  0.00     0.010 A 
ATOM     76  C   UNL A   1      50.620  33.403  30.350  1.00  0.00     0.010 A 
ATOM     77  C   UNL A   1      50.053  35.782  28.989  1.00  0.00     0.020 A 
ATOM     78  C   UNL A   1      51.066  34.622  30.870  1.00  0.00     0.020 A 
ATOM     79  C   UNL A   1      50.789  35.802  30.178  1.00  0.00     0.054 A 
BRANCH  79  80
ATOM     80  S   UNL A   1      51.355  37.402  30.819  1.00  0.00     0.124 S 
ATOM     81  O   UNL A   1      51.873  38.043  29.614  1.00  0.00    -0.237 OA
ATOM     82  O   UNL A   1      50.127  37.979  31.360  1.00  0.00    -0.237 OA
ATOM     83  O   UNL A   1      52.363  37.042  31.813  1.00  0.00    -0.744 OA
ENDBRANCH  79  80
ENDBRANCH  60  74
BRANCH  61  84
ATOM     84  C   UNL A   1      46.185  24.623  26.110  1.00  0.00    -0.014 A 
ATOM     85  C   UNL A   1      46.083  23.540  27.003  1.00  0.00     0.010 A 
ATOM     86  C   UNL A   1      45.786  24.441  24.773  1.00  0.00     0.010 A 
ATOM     87  C   UNL A   1      45.594  22.304  26.567  1.00  0.00     0.020 A 
ATOM     88  C   UNL A   1      45.272  23.215  24.340  1.00  0.00     0.020 A 
ATOM     89  C   UNL A   1      45.183  22.151  25.240  1.00  0.00     0.054 A 
BRANCH  89  90
ATOM     90  S   UNL A   1      44.488  20.558  24.718  1.00  0.00     0.124 S 
ATOM     91  O   UNL A   1      45.418  19.607  25.319  1.00  0.00    -0.237 OA
ATOM     92  O   UNL A   1      43.151  20.594  25.306  1.00  0.00    -0.237 OA
ATOM     93  O   UNL A   1      44.522  20.629  23.259  1.00  0.00    -0.744 OA
ENDBRANCH  89  90
ENDBRANCH  61  84
BRANCH  73  94
ATOM     94  C   UNL A   1      51.974  28.217  24.562  1.00  0.00    -0.014 A 
ATOM     95  C   UNL A   1      52.063  28.816  23.293  1.00  0.00     0.010 A 
ATOM     96  C   UNL A   1      53.036  27.406  25.009  1.00  0.00     0.010 A 
ATOM     97  C   UNL A   1      53.176  28.584  22.477  1.00  0.00     0.020 A 
ATOM     98  C   UNL A   1      54.162  27.197  24.209  1.00  0.00     0.020 A 
ATOM     99  C   UNL A   1      54.219  27.777  22.941  1.00  0.00     0.054 A 
BRANCH  99 100
ATOM    100  S   UNL A   1      55.667  27.527  21.877  1.00  0.00     0.124 S 
ATOM    101  O   UNL A   1      56.669  27.058  22.831  1.00  0.00    -0.237 OA
ATOM    102  O   UNL A   1      55.194  26.528  20.922  1.00  0.00    -0.237 OA
ATOM    103  O   UNL A   1      55.918  28.852  21.312  1.00  0.00    -0.744 OA
ENDBRANCH  99 100
ENDBRANCH  73  94
ENDBRANCH  47  48
ENDBRANCH  40  42
ENDBRANCH  39  40
ENDBRANCH  38  39
ENDBRANCH  37  38
ENDBRANCH  36  37
ENDBRANCH  35  36
ENDBRANCH   1  35
TORSDOF 24
ENDMDL
MODEL 2
REMARK VINA RESULT:      -8.8      7.694     13.283
REMARK SMILES Nc1c(N2CCC(C(=O)OCCOCCOCCOC(=O)c3ccc(-c4c5nc(c(-c6ccc(S(=O)(=O)[O-])cc6)c6ccc([nH]6)c(-c6ccc(S(=O)(=O)[O-])cc6)c6nc(c(-c7ccc(S(=O)(=O)[O-])cc7)c7ccc4[nH]7)C=C6)C=C5)cc3)CC2)ncnc1N1CCN(c2ccccc2)CC1
REMARK SMILES IDX 14 1 13 2 12 3 11 4 10 5 8 6 9 7 7 8 4 9 5 10 83 11 6 12
REMARK SMILES IDX 82 13 3 14 2 15 87 16 84 17 86 18 85 19 1 20 88 23 89 24
REMARK SMILES IDX 99 25 90 26 98 27 91 28 92 29 93 30 97 31 94 32 96 33 95 34
REMARK SMILES IDX 15 35 16 36 17 37 18 38 19 39 20 40 21 41 22 42 23 43 81 44
REMARK SMILES IDX 24 45 80 46 25 47 26 48 27 49 74 50 28 51 79 52 73 53 75 54
REMARK SMILES IDX 29 55 78 56 72 57 71 58 30 60 60 61 41 62 59 63 42 64 45 65
REMARK SMILES IDX 58 66 76 67 43 68 44 69 57 71 77 72 46 73 31 74 32 75 40 76
REMARK SMILES IDX 33 77 39 78 34 79 35 80 36 81 37 82 38 83 61 84 62 85 70 86
REMARK SMILES IDX 63 87 69 88 64 89 65 90 66 91 67 92 68 93 47 94 48 95 56 96
REMARK SMILES IDX 49 97 55 98 50 99 51 100 52 101 53 102 54 103
REMARK H PARENT 1 21 1 22 75 59 45 70
REMARK Flexibility Score: inf
ROOT
ATOM      1  C   UNL A   1      36.461  29.348  28.047  1.00  0.00     0.188 C 
ENDROOT
BRANCH   1   2
ATOM      2  O   UNL A   1      35.808  30.195  28.983  1.00  0.00    -0.376 OA
BRANCH   2   3
ATOM      3  C   UNL A   1      35.262  31.412  28.483  1.00  0.00     0.202 C 
BRANCH   3   4
ATOM      4  C   UNL A   1      34.285  31.308  27.302  1.00  0.00     0.261 C 
BRANCH   4   5
ATOM      5  O   UNL A   1      33.100  30.528  27.562  1.00  0.00    -0.463 OA
BRANCH   5   6
ATOM      6  C   UNL A   1      32.031  30.828  26.779  1.00  0.00     0.309 C 
ATOM      7  O   UNL A   1      31.615  31.966  26.576  1.00  0.00    -0.252 OA
BRANCH   6   8
ATOM      8  C   UNL A   1      31.385  29.629  26.112  1.00  0.00     0.103 C 
ATOM      9  N   UNL A   1      31.283  26.998  24.981  1.00  0.00    -0.355 N 
ATOM     10  C   UNL A   1      30.985  28.130  24.115  1.00  0.00     0.119 C 
ATOM     11  C   UNL A   1      31.099  27.159  26.419  1.00  0.00     0.119 C 
ATOM     12  C   UNL A   1      31.648  29.416  24.617  1.00  0.00     0.037 C 
ATOM     13  C   UNL A   1      31.823  28.398  26.906  1.00  0.00     0.037 C 
BRANCH   9  14
ATOM     14  C   UNL A   1      32.195  26.039  24.542  1.00  0.00     0.157 A 
ATOM     15  C   UNL A   1      32.126  24.737  25.070  1.00  0.00     0.118 A 
ATOM     16  C   UNL A   1      33.104  23.829  24.645  1.00  0.00     0.157 A 
ATOM     17  N   UNL A   1      33.130  26.391  23.646  1.00  0.00    -0.217 NA
ATOM     18  N   UNL A   1      34.096  24.197  23.815  1.00  0.00    -0.217 NA
ATOM     19  C   UNL A   1      34.034  25.449  23.338  1.00  0.00     0.226 A 
BRANCH  15  20
ATOM     20  N   UNL A   1      31.105  24.372  25.973  1.00  0.00    -0.393 N 
ATOM     21  H   UNL A   1      30.354  24.986  26.142  1.00  0.00     0.156 HD
ATOM     22  H   UNL A   1      31.144  23.502  26.433  1.00  0.00     0.156 HD
ENDBRANCH  15  20
BRANCH  16  23
ATOM     23  N   UNL A   1      33.077  22.517  25.057  1.00  0.00    -0.351 N 
ATOM     24  C   UNL A   1      31.937  21.662  24.752  1.00  0.00     0.139 C 
ATOM     25  C   UNL A   1      34.211  21.904  25.750  1.00  0.00     0.139 C 
ATOM     26  C   UNL A   1      32.425  20.426  23.951  1.00  0.00     0.138 C 
ATOM     27  C   UNL A   1      34.684  20.629  25.022  1.00  0.00     0.138 C 
ATOM     28  N   UNL A   1      33.539  19.776  24.661  1.00  0.00    -0.368 N 
BRANCH  28  29
ATOM     29  C   UNL A   1      33.620  18.413  24.809  1.00  0.00     0.037 A 
ATOM     30  C   UNL A   1      34.765  17.691  24.461  1.00  0.00     0.026 A 
ATOM     31  C   UNL A   1      32.524  17.698  25.312  1.00  0.00     0.026 A 
ATOM     32  C   UNL A   1      34.817  16.302  24.617  1.00  0.00     0.002 A 
ATOM     33  C   UNL A   1      32.560  16.310  25.454  1.00  0.00     0.002 A 
ATOM     34  C   UNL A   1      33.711  15.611  25.109  1.00  0.00     0.000 A 
ENDBRANCH  28  29
ENDBRANCH  16  23
ENDBRANCH   9  14
ENDBRANCH   6   8
ENDBRANCH   5   6
ENDBRANCH   4   5
ENDBRANCH   3   4
ENDBRANCH   2   3
ENDBRANCH   1   2
BRANCH   1  35
ATOM     35  C   UNL A   1      37.874  29.754  27.633  1.00  0.00     0.188 C 
BRANCH  35  36
ATOM     36  O   UNL A   1      38.922  29.406  28.524  1.00  0.00    -0.376 OA
BRANCH  36  37
ATOM     37  C   UNL A   1      38.877  28.076  29.054  1.00  0.00     0.202 C 
BRANCH  37  38
ATOM     38  C   UNL A   1      38.506  27.931  30.549  1.00  0.00     0.261 C 
BRANCH  38  39
ATOM     39  O   UNL A   1      37.796  29.039  31.152  1.00  0.00    -0.460 OA
BRANCH  39  40
ATOM     40  C   UNL A   1      37.756  29.100  32.505  1.00  0.00     0.338 C 
ATOM     41  O   UNL A   1      37.402  28.202  33.252  1.00  0.00    -0.246 OA
BRANCH  40  42
ATOM     42  C   UNL A   1      38.485  30.322  32.959  1.00  0.00     0.060 A 
ATOM     43  C   UNL A   1      39.869  30.220  33.169  1.00  0.00     0.016 A 
ATOM     44  C   UNL A   1      37.858  31.562  33.114  1.00  0.00     0.016 A 
ATOM     45  C   UNL A   1      40.615  31.331  33.577  1.00  0.00     0.010 A 
ATOM     46  C   UNL A   1      38.602  32.671  33.548  1.00  0.00     0.010 A 
ATOM     47  C   UNL A   1      39.978  32.555  33.819  1.00  0.00    -0.014 A 
BRANCH  47  48
ATOM     48  C   UNL A   1      40.686  33.620  34.583  1.00  0.00     0.031 A 
ATOM     49  C   UNL A   1      40.423  33.712  36.066  1.00  0.00     0.074 A 
ATOM     50  C   UNL A   1      41.567  34.466  34.016  1.00  0.00     0.049 A 
ATOM     51  N   UNL A   1      40.874  34.576  36.940  1.00  0.00    -0.248 NA
ATOM     52  C   UNL A   1      39.535  32.686  36.637  1.00  0.00     0.031 C 
ATOM     53  C   UNL A   1      41.982  34.452  32.615  1.00  0.00     0.029 A 
ATOM     54  N   UNL A   1      42.276  35.511  34.564  1.00  0.00    -0.354 N 
ATOM     55  C   UNL A   1      40.321  34.200  38.160  1.00  0.00     0.074 A 
ATOM     56  C   UNL A   1      39.481  33.049  37.909  1.00  0.00     0.031 C 
ATOM     57  C   UNL A   1      42.871  35.445  32.414  1.00  0.00     0.029 A 
ATOM     58  C   UNL A   1      43.060  36.189  33.660  1.00  0.00     0.049 A 
ATOM     59  H   UNL A   1      42.227  35.751  35.518  1.00  0.00     0.167 HD
ATOM     60  C   UNL A   1      40.497  34.753  39.383  1.00  0.00     0.031 A 
ATOM     61  C   UNL A   1      43.825  37.292  33.811  1.00  0.00     0.031 A 
ATOM     62  C   UNL A   1      41.311  35.909  39.642  1.00  0.00     0.049 A 
ATOM     63  C   UNL A   1      43.916  37.963  35.161  1.00  0.00     0.074 A 
ATOM     64  C   UNL A   1      41.536  36.546  40.850  1.00  0.00     0.029 A 
ATOM     65  N   UNL A   1      42.027  36.607  38.683  1.00  0.00    -0.354 N 
ATOM     66  N   UNL A   1      43.380  37.601  36.303  1.00  0.00    -0.248 NA
ATOM     67  C   UNL A   1      44.718  39.194  35.242  1.00  0.00     0.031 C 
ATOM     68  C   UNL A   1      42.341  37.664  40.611  1.00  0.00     0.029 A 
ATOM     69  C   UNL A   1      42.673  37.683  39.267  1.00  0.00     0.049 A 
ATOM     70  H   UNL A   1      42.071  36.371  37.728  1.00  0.00     0.167 HD
ATOM     71  C   UNL A   1      43.800  38.544  37.238  1.00  0.00     0.074 A 
ATOM     72  C   UNL A   1      44.647  39.483  36.535  1.00  0.00     0.031 C 
ATOM     73  C   UNL A   1      43.510  38.621  38.561  1.00  0.00     0.031 A 
BRANCH  60  74
ATOM     74  C   UNL A   1      39.761  34.129  40.538  1.00  0.00    -0.014 A 
ATOM     75  C   UNL A   1      38.467  34.555  40.890  1.00  0.00     0.010 A 
ATOM     76  C   UNL A   1      40.353  33.073  41.253  1.00  0.00     0.010 A 
ATOM     77  C   UNL A   1      37.792  33.954  41.956  1.00  0.00     0.020 A 
ATOM     78  C   UNL A   1      39.670  32.449  42.300  1.00  0.00     0.020 A 
ATOM     79  C   UNL A   1      38.397  32.904  42.652  1.00  0.00     0.054 A 
BRANCH  79  80
ATOM     80  S   UNL A   1      37.481  32.122  44.009  1.00  0.00     0.124 S 
ATOM     81  O   UNL A   1      37.070  30.858  43.405  1.00  0.00    -0.237 OA
ATOM     82  O   UNL A   1      38.494  32.019  45.056  1.00  0.00    -0.237 OA
ATOM     83  O   UNL A   1      36.397  33.061  44.283  1.00  0.00    -0.744 OA
ENDBRANCH  79  80
ENDBRANCH  60  74
BRANCH  61  84
ATOM     84  C   UNL A   1      44.560  37.859  32.643  1.00  0.00    -0.014 A 
ATOM     85  C   UNL A   1      43.952  38.815  31.809  1.00  0.00     0.010 A 
ATOM     86  C   UNL A   1      45.872  37.438  32.352  1.00  0.00     0.010 A 
ATOM     87  C   UNL A   1      44.640  39.338  30.708  1.00  0.00     0.020 A 
ATOM     88  C   UNL A   1      46.572  37.978  31.268  1.00  0.00     0.020 A 
ATOM     89  C   UNL A   1      45.949  38.922  30.450  1.00  0.00     0.054 A 
BRANCH  89  90
ATOM     90  S   UNL A   1      46.843  39.667  29.057  1.00  0.00     0.124 S 
ATOM     91  O   UNL A   1      47.836  38.642  28.748  1.00  0.00    -0.237 OA
ATOM     92  O   UNL A   1      45.785  39.843  28.065  1.00  0.00    -0.237 OA
ATOM     93  O   UNL A   1      47.378  40.907  29.615  1.00  0.00    -0.744 OA
ENDBRANCH  89  90
ENDBRANCH  61  84
BRANCH  73  94
ATOM     94  C   UNL A   1      44.128  39.743  39.358  1.00  0.00    -0.014 A 
ATOM     95  C   UNL A   1      43.394  40.899  39.683  1.00  0.00     0.010 A 
ATOM     96  C   UNL A   1      45.440  39.608  39.851  1.00  0.00     0.010 A 
ATOM     97  C   UNL A   1      43.972  41.908  40.459  1.00  0.00     0.020 A 
ATOM     98  C   UNL A   1      46.010  40.602  40.652  1.00  0.00     0.020 A 
ATOM     99  C   UNL A   1      45.276  41.754  40.940  1.00  0.00     0.054 A 
BRANCH  99 100
ATOM    100  S   UNL A   1      45.984  43.062  41.979  1.00  0.00     0.124 S 
ATOM    101  O   UNL A   1      46.734  43.850  41.005  1.00  0.00    -0.237 OA
ATOM    102  O   UNL A   1      44.796  43.711  42.530  1.00  0.00    -0.237 OA
ATOM    103  O   UNL A   1      46.797  42.334  42.951  1.00  0.00    -0.744 OA
ENDBRANCH  99 100
ENDBRANCH  73  94
ENDBRANCH  47  48
ENDBRANCH  40  42
ENDBRANCH  39  40
ENDBRANCH  38  39
ENDBRANCH  37  38
ENDBRANCH  36  37
ENDBRANCH  35  36
ENDBRANCH   1  35
TORSDOF 24
ENDMDL
MODEL 3
REMARK VINA RESULT:      -8.6      8.230     14.480
REMARK SMILES Nc1c(N2CCC(C(=O)OCCOCCOCCOC(=O)c3ccc(-c4c5nc(c(-c6ccc(S(=O)(=O)[O-])cc6)c6ccc([nH]6)c(-c6ccc(S(=O)(=O)[O-])cc6)c6nc(c(-c7ccc(S(=O)(=O)[O-])cc7)c7ccc4[nH]7)C=C6)C=C5)cc3)CC2)ncnc1N1CCN(c2ccccc2)CC1
REMARK SMILES IDX 14 1 13 2 12 3 11 4 10 5 8 6 9 7 7 8 4 9 5 10 83 11 6 12
REMARK SMILES IDX 82 13 3 14 2 15 87 16 84 17 86 18 85 19 1 20 88 23 89 24
REMARK SMILES IDX 99 25 90 26 98 27 91 28 92 29 93 30 97 31 94 32 96 33 95 34
REMARK SMILES IDX 15 35 16 36 17 37 18 38 19 39 20 40 21 41 22 42 23 43 81 44
REMARK SMILES IDX 24 45 80 46 25 47 26 48 27 49 74 50 28 51 79 52 73 53 75 54
REMARK SMILES IDX 29 55 78 56 72 57 71 58 30 60 60 61 41 62 59 63 42 64 45 65
REMARK SMILES IDX 58 66 76 67 43 68 44 69 57 71 77 72 46 73 31 74 32 75 40 76
REMARK SMILES IDX 33 77 39 78 34 79 35 80 36 81 37 82 38 83 61 84 62 85 70 86
REMARK SMILES IDX 63 87 69 88 64 89 65 90 66 91 67 92 68 93 47 94 48 95 56 96
REMARK SMILES IDX 49 97 55 98 50 99 51 100 52 101 53 102 54 103
REMARK H PARENT 1 21 1 22 75 59 45 70
REMARK Flexibility Score: inf
ROOT
ATOM      1  C   UNL A   1      36.588  29.506  28.780  1.00  0.00     0.188 C 
ENDROOT
BRANCH   1   2
ATOM      2  O   UNL A   1      36.169  30.720  29.390  1.00  0.00    -0.376 OA
BRANCH   2   3
ATOM      3  C   UNL A   1      35.758  31.772  28.520  1.00  0.00     0.202 C 
BRANCH   3   4
ATOM      4  C   UNL A   1      34.755  31.414  27.413  1.00  0.00     0.261 C 
BRANCH   4   5
ATOM      5  O   UNL A   1      33.583  30.704  27.864  1.00  0.00    -0.463 OA
BRANCH   5   6
ATOM      6  C   UNL A   1      32.444  30.979  27.176  1.00  0.00     0.309 C 
ATOM      7  O   UNL A   1      32.019  32.111  26.959  1.00  0.00    -0.252 OA
BRANCH   6   8
ATOM      8  C   UNL A   1      31.724  29.757  26.638  1.00  0.00     0.103 C 
ATOM      9  N   UNL A   1      31.497  27.103  25.582  1.00  0.00    -0.355 N 
ATOM     10  C   UNL A   1      31.049  28.213  24.753  1.00  0.00     0.119 C 
ATOM     11  C   UNL A   1      31.534  27.289  27.028  1.00  0.00     0.119 C 
ATOM     12  C   UNL A   1      31.759  29.519  25.124  1.00  0.00     0.037 C 
ATOM     13  C   UNL A   1      32.302  28.549  27.376  1.00  0.00     0.037 C 
BRANCH   9  14
ATOM     14  C   UNL A   1      32.347  26.149  25.024  1.00  0.00     0.157 A 
ATOM     15  C   UNL A   1      32.317  24.833  25.518  1.00  0.00     0.118 A 
ATOM     16  C   UNL A   1      33.235  23.929  24.969  1.00  0.00     0.157 A 
ATOM     17  N   UNL A   1      33.191  26.519  24.048  1.00  0.00    -0.217 NA
ATOM     18  N   UNL A   1      34.142  24.313  24.053  1.00  0.00    -0.217 NA
ATOM     19  C   UNL A   1      34.047  25.578  23.621  1.00  0.00     0.226 A 
BRANCH  15  20
ATOM     20  N   UNL A   1      31.389  24.450  26.510  1.00  0.00    -0.393 N 
ATOM     21  H   UNL A   1      30.792  23.683  26.355  1.00  0.00     0.156 HD
ATOM     22  H   UNL A   1      31.341  24.949  27.357  1.00  0.00     0.156 HD
ENDBRANCH  15  20
BRANCH  16  23
ATOM     23  N   UNL A   1      33.234  22.606  25.344  1.00  0.00    -0.351 N 
ATOM     24  C   UNL A   1      32.023  21.802  25.241  1.00  0.00     0.139 C 
ATOM     25  C   UNL A   1      34.455  21.930  25.789  1.00  0.00     0.139 C 
ATOM     26  C   UNL A   1      32.299  20.577  24.329  1.00  0.00     0.138 C 
ATOM     27  C   UNL A   1      34.727  20.665  24.949  1.00  0.00     0.138 C 
ATOM     28  N   UNL A   1      33.500  19.865  24.793  1.00  0.00    -0.368 N 
BRANCH  28  29
ATOM     29  C   UNL A   1      33.552  18.495  24.887  1.00  0.00     0.037 A 
ATOM     30  C   UNL A   1      34.537  17.741  24.242  1.00  0.00     0.026 A 
ATOM     31  C   UNL A   1      32.589  17.809  25.638  1.00  0.00     0.026 A 
ATOM     32  C   UNL A   1      34.561  16.346  24.350  1.00  0.00     0.002 A 
ATOM     33  C   UNL A   1      32.595  16.417  25.736  1.00  0.00     0.002 A 
ATOM     34  C   UNL A   1      33.586  15.684  25.093  1.00  0.00     0.000 A 
ENDBRANCH  28  29
ENDBRANCH  16  23
ENDBRANCH   9  14
ENDBRANCH   6   8
ENDBRANCH   5   6
ENDBRANCH   4   5
ENDBRANCH   3   4
ENDBRANCH   2   3
ENDBRANCH   1   2
BRANCH   1  35
ATOM     35  C   UNL A   1      37.938  29.535  28.068  1.00  0.00     0.188 C 
BRANCH  35  36
ATOM     36  O   UNL A   1      39.087  29.315  28.872  1.00  0.00    -0.376 OA
BRANCH  36  37
ATOM     37  C   UNL A   1      39.122  28.074  29.585  1.00  0.00     0.202 C 
BRANCH  37  38
ATOM     38  C   UNL A   1      38.630  28.096  31.051  1.00  0.00     0.261 C 
BRANCH  38  39
ATOM     39  O   UNL A   1      38.259  29.386  31.593  1.00  0.00    -0.460 OA
BRANCH  39  40
ATOM     40  C   UNL A   1      37.829  29.432  32.877  1.00  0.00     0.338 C 
ATOM     41  O   UNL A   1      37.219  28.549  33.459  1.00  0.00    -0.246 OA
BRANCH  40  42
ATOM     42  C   UNL A   1      38.468  30.594  33.563  1.00  0.00     0.060 A 
ATOM     43  C   UNL A   1      39.810  30.468  33.956  1.00  0.00     0.016 A 
ATOM     44  C   UNL A   1      37.806  31.810  33.763  1.00  0.00     0.016 A 
ATOM     45  C   UNL A   1      40.473  31.527  34.587  1.00  0.00     0.010 A 
ATOM     46  C   UNL A   1      38.464  32.863  34.419  1.00  0.00     0.010 A 
ATOM     47  C   UNL A   1      39.789  32.716  34.869  1.00  0.00    -0.014 A 
BRANCH  47  48
ATOM     48  C   UNL A   1      40.365  33.688  35.840  1.00  0.00     0.031 A 
ATOM     49  C   UNL A   1      39.839  33.663  37.254  1.00  0.00     0.074 A 
ATOM     50  C   UNL A   1      41.349  34.550  35.518  1.00  0.00     0.049 A 
ATOM     51  N   UNL A   1      40.139  34.435  38.269  1.00  0.00    -0.248 NA
ATOM     52  C   UNL A   1      38.845  32.622  37.562  1.00  0.00     0.031 C 
ATOM     53  C   UNL A   1      42.011  34.642  34.219  1.00  0.00     0.029 A 
ATOM     54  N   UNL A   1      41.965  35.520  36.276  1.00  0.00    -0.354 N 
ATOM     55  C   UNL A   1      39.368  33.975  39.331  1.00  0.00     0.074 A 
ATOM     56  C   UNL A   1      38.568  32.878  38.832  1.00  0.00     0.031 C 
ATOM     57  C   UNL A   1      42.938  35.618  34.269  1.00  0.00     0.029 A 
ATOM     58  C   UNL A   1      42.911  36.247  35.591  1.00  0.00     0.049 A 
ATOM     59  H   UNL A   1      41.748  35.680  37.223  1.00  0.00     0.167 HD
ATOM     60  C   UNL A   1      39.328  34.416  40.611  1.00  0.00     0.031 A 
ATOM     61  C   UNL A   1      43.654  37.307  35.974  1.00  0.00     0.031 A 
ATOM     62  C   UNL A   1      40.102  35.518  41.114  1.00  0.00     0.049 A 
ATOM     63  C   UNL A   1      43.511  37.858  37.373  1.00  0.00     0.074 A 
ATOM     64  C   UNL A   1      40.115  36.042  42.394  1.00  0.00     0.029 A 
ATOM     65  N   UNL A   1      40.992  36.271  40.364  1.00  0.00    -0.354 N 
ATOM     66  N   UNL A   1      42.770  37.418  38.363  1.00  0.00    -0.248 NA
ATOM     67  C   UNL A   1      44.306  39.050  37.706  1.00  0.00     0.031 C 
ATOM     68  C   UNL A   1      40.969  37.150  42.404  1.00  0.00     0.029 A 
ATOM     69  C   UNL A   1      41.539  37.272  41.148  1.00  0.00     0.049 A 
ATOM     70  H   UNL A   1      41.204  36.116  39.416  1.00  0.00     0.167 HD
ATOM     71  C   UNL A   1      43.030  38.264  39.439  1.00  0.00     0.074 A 
ATOM     72  C   UNL A   1      44.006  39.231  38.987  1.00  0.00     0.031 C 
ATOM     73  C   UNL A   1      42.507  38.239  40.691  1.00  0.00     0.031 A 
BRANCH  60  74
ATOM     74  C   UNL A   1      38.384  33.721  41.555  1.00  0.00    -0.014 A 
ATOM     75  C   UNL A   1      37.072  34.189  41.744  1.00  0.00     0.010 A 
ATOM     76  C   UNL A   1      38.802  32.559  42.227  1.00  0.00     0.010 A 
ATOM     77  C   UNL A   1      36.203  33.523  42.612  1.00  0.00     0.020 A 
ATOM     78  C   UNL A   1      37.927  31.872  43.073  1.00  0.00     0.020 A 
ATOM     79  C   UNL A   1      36.637  32.367  43.270  1.00  0.00     0.054 A 
BRANCH  79  80
ATOM     80  S   UNL A   1      35.475  31.506  44.365  1.00  0.00     0.124 S 
ATOM     81  O   UNL A   1      35.407  32.415  45.506  1.00  0.00    -0.237 OA
ATOM     82  O   UNL A   1      34.267  31.430  43.549  1.00  0.00    -0.237 OA
ATOM     83  O   UNL A   1      36.129  30.227  44.629  1.00  0.00    -0.744 OA
ENDBRANCH  79  80
ENDBRANCH  60  74
BRANCH  61  84
ATOM     84  C   UNL A   1      44.599  37.946  35.012  1.00  0.00    -0.014 A 
ATOM     85  C   UNL A   1      45.943  37.535  34.947  1.00  0.00     0.010 A 
ATOM     86  C   UNL A   1      44.162  38.978  34.159  1.00  0.00     0.010 A 
ATOM     87  C   UNL A   1      46.830  38.143  34.051  1.00  0.00     0.020 A 
ATOM     88  C   UNL A   1      45.038  39.569  33.244  1.00  0.00     0.020 A 
ATOM     89  C   UNL A   1      46.369  39.150  33.199  1.00  0.00     0.054 A 
BRANCH  89  90
ATOM     90  S   UNL A   1      47.522  39.873  31.998  1.00  0.00     0.124 S 
ATOM     91  O   UNL A   1      46.946  41.196  31.780  1.00  0.00    -0.237 OA
ATOM     92  O   UNL A   1      48.788  39.846  32.727  1.00  0.00    -0.237 OA
ATOM     93  O   UNL A   1      47.447  38.962  30.858  1.00  0.00    -0.744 OA
ENDBRANCH  89  90
ENDBRANCH  61  84
BRANCH  73  94
ATOM     94  C   UNL A   1      42.989  39.268  41.682  1.00  0.00    -0.014 A 
ATOM     95  C   UNL A   1      42.301  40.481  41.868  1.00  0.00     0.010 A 
ATOM     96  C   UNL A   1      44.106  38.986  42.492  1.00  0.00     0.010 A 
ATOM     97  C   UNL A   1      42.740  41.403  42.823  1.00  0.00     0.020 A 
ATOM     98  C   UNL A   1      44.529  39.892  43.469  1.00  0.00     0.020 A 
ATOM     99  C   UNL A   1      43.851  41.103  43.619  1.00  0.00     0.054 A 
BRANCH  99 100
ATOM    100  S   UNL A   1      44.372  42.302  44.877  1.00  0.00     0.124 S 
ATOM    101  O   UNL A   1      45.828  42.212  44.798  1.00  0.00    -0.237 OA
ATOM    102  O   UNL A   1      43.792  43.551  44.388  1.00  0.00    -0.237 OA
ATOM    103  O   UNL A   1      43.783  41.789  46.113  1.00  0.00    -0.744 OA
ENDBRANCH  99 100
ENDBRANCH  73  94
ENDBRANCH  47  48
ENDBRANCH  40  42
ENDBRANCH  39  40
ENDBRANCH  38  39
ENDBRANCH  37  38
ENDBRANCH  36  37
ENDBRANCH  35  36
ENDBRANCH   1  35
TORSDOF 24
ENDMDL
