MODEL 1
REMARK VINA RESULT:      -7.0      0.000      0.000
REMARK SMILES O=C(CCC(=O)OCCOCCOCCOC(=O)c1ccc(-c2c3nc(c(-c4ccc(S(=O)(=O)[O-])cc4)c4ccc([nH]4)c(-c4ccc(S(=O)(=O)[O-])cc4)c4nc(c(-c5ccc(S(=O)(=O)[O-])cc5)c5ccc2[nH]5)C=C4)C=C3)cc1)Nc1cc(Cl)cc(Cl)c1
REMARK SMILES IDX 11 1 10 2 9 3 8 4 7 5 5 6 6 7 4 8 3 9 2 10 1 11 79 12 80 14
REMARK SMILES IDX 81 15 87 16 82 17 85 18 83 19 84 20 86 21 12 22 13 23 14 24
REMARK SMILES IDX 15 25 16 26 17 27 18 28 19 29 20 30 78 31 21 32 77 33 22 34
REMARK SMILES IDX 23 35 24 36 71 37 25 38 76 39 70 40 72 41 26 42 75 43 69 44
REMARK SMILES IDX 68 45 27 47 57 48 38 49 56 50 39 51 42 52 55 53 73 54 40 55
REMARK SMILES IDX 41 56 54 58 74 59 43 60 28 61 29 62 37 63 30 64 36 65 31 66
REMARK SMILES IDX 32 67 33 68 34 69 35 70 58 71 59 72 67 73 60 74 66 75 61 76
REMARK SMILES IDX 62 77 63 78 64 79 65 80 44 81 45 82 53 83 46 84 52 85 47 86
REMARK SMILES IDX 48 87 49 88 50 89 51 90
REMARK H PARENT 79 13 72 46 42 57
REMARK Flexibility Score: inf
ROOT
ATOM      1  C   UNL A   1      33.758  36.118  32.421  1.00  0.00     0.188 C 
ENDROOT
BRANCH   1   2
ATOM      2  O   UNL A   1      34.181  34.858  32.929  1.00  0.00    -0.376 OA
BRANCH   2   3
ATOM      3  C   UNL A   1      35.118  34.888  34.005  1.00  0.00     0.202 C 
BRANCH   3   4
ATOM      4  C   UNL A   1      36.447  34.167  33.733  1.00  0.00     0.261 C 
BRANCH   4   5
ATOM      5  O   UNL A   1      37.603  34.875  34.253  1.00  0.00    -0.463 OA
BRANCH   5   6
ATOM      6  C   UNL A   1      38.200  34.324  35.345  1.00  0.00     0.306 C 
ATOM      7  O   UNL A   1      37.655  33.512  36.083  1.00  0.00    -0.252 OA
BRANCH   6   8
ATOM      8  C   UNL A   1      39.653  34.726  35.549  1.00  0.00     0.132 C 
BRANCH   8   9
ATOM      9  C   UNL A   1      40.724  33.713  35.936  1.00  0.00     0.112 C 
BRANCH   9  10
ATOM     10  C   UNL A   1      41.155  32.744  34.851  1.00  0.00     0.224 C 
ATOM     11  O   UNL A   1      42.075  33.005  34.083  1.00  0.00    -0.275 OA
ATOM     12  N   UNL A   1      40.417  31.585  34.851  1.00  0.00    -0.326 N 
ATOM     13  H   UNL A   1      39.653  31.554  35.472  1.00  0.00     0.169 HD
BRANCH  12  14
ATOM     14  C   UNL A   1      40.625  30.442  34.067  1.00  0.00     0.044 A 
ATOM     15  C   UNL A   1      39.483  29.806  33.572  1.00  0.00     0.046 A 
ATOM     16  C   UNL A   1      41.885  29.901  33.819  1.00  0.00     0.046 A 
ATOM     17  C   UNL A   1      39.605  28.650  32.809  1.00  0.00     0.044 A 
ATOM     18  C   UNL A   1      41.988  28.713  33.093  1.00  0.00     0.044 A 
ATOM     19  Cl  UNL A   1      38.194  27.917  32.152  1.00  0.00    -0.084 Cl
ATOM     20  C   UNL A   1      40.854  28.088  32.576  1.00  0.00     0.041 A 
ATOM     21  Cl  UNL A   1      43.531  27.986  32.855  1.00  0.00    -0.084 Cl
ENDBRANCH  12  14
ENDBRANCH   9  10
ENDBRANCH   8   9
ENDBRANCH   6   8
ENDBRANCH   5   6
ENDBRANCH   4   5
ENDBRANCH   3   4
ENDBRANCH   2   3
ENDBRANCH   1   2
BRANCH   1  22
ATOM     22  C   UNL A   1      32.546  36.057  31.495  1.00  0.00     0.188 C 
BRANCH  22  23
ATOM     23  O   UNL A   1      32.580  36.903  30.351  1.00  0.00    -0.376 OA
BRANCH  23  24
ATOM     24  C   UNL A   1      33.015  36.284  29.131  1.00  0.00     0.202 C 
BRANCH  24  25
ATOM     25  C   UNL A   1      33.033  34.735  29.058  1.00  0.00     0.261 C 
BRANCH  25  26
ATOM     26  O   UNL A   1      34.191  34.059  29.599  1.00  0.00    -0.460 OA
BRANCH  26  27
ATOM     27  C   UNL A   1      34.466  32.803  29.163  1.00  0.00     0.338 C 
ATOM     28  O   UNL A   1      33.762  32.128  28.443  1.00  0.00    -0.246 OA
BRANCH  27  29
ATOM     29  C   UNL A   1      35.905  32.509  29.449  1.00  0.00     0.060 A 
ATOM     30  C   UNL A   1      36.878  33.177  28.688  1.00  0.00     0.016 A 
ATOM     31  C   UNL A   1      36.309  31.668  30.491  1.00  0.00     0.016 A 
ATOM     32  C   UNL A   1      38.242  32.978  28.934  1.00  0.00     0.010 A 
ATOM     33  C   UNL A   1      37.675  31.451  30.724  1.00  0.00     0.010 A 
ATOM     34  C   UNL A   1      38.651  32.075  29.923  1.00  0.00    -0.014 A 
BRANCH  34  35
ATOM     35  C   UNL A   1      40.058  31.591  29.960  1.00  0.00     0.031 A 
ATOM     36  C   UNL A   1      41.116  32.557  30.435  1.00  0.00     0.074 A 
ATOM     37  C   UNL A   1      40.413  30.341  29.601  1.00  0.00     0.049 A 
ATOM     38  N   UNL A   1      42.415  32.419  30.470  1.00  0.00    -0.248 NA
ATOM     39  C   UNL A   1      40.636  33.859  30.933  1.00  0.00     0.031 C 
ATOM     40  C   UNL A   1      39.497  29.281  29.185  1.00  0.00     0.029 A 
ATOM     41  N   UNL A   1      41.657  29.758  29.521  1.00  0.00    -0.354 N 
ATOM     42  C   UNL A   1      42.908  33.620  30.971  1.00  0.00     0.074 A 
ATOM     43  C   UNL A   1      41.771  34.481  31.206  1.00  0.00     0.031 C 
ATOM     44  C   UNL A   1      40.213  28.182  28.878  1.00  0.00     0.029 A 
ATOM     45  C   UNL A   1      41.639  28.471  29.033  1.00  0.00     0.049 A 
ATOM     46  H   UNL A   1      42.486  30.219  29.788  1.00  0.00     0.167 HD
ATOM     47  C   UNL A   1      44.190  33.977  31.216  1.00  0.00     0.031 A 
ATOM     48  C   UNL A   1      42.653  27.635  28.719  1.00  0.00     0.031 A 
ATOM     49  C   UNL A   1      45.324  33.127  30.980  1.00  0.00     0.049 A 
ATOM     50  C   UNL A   1      44.082  28.087  28.921  1.00  0.00     0.074 A 
ATOM     51  C   UNL A   1      46.661  33.399  31.210  1.00  0.00     0.029 A 
ATOM     52  N   UNL A   1      45.260  31.845  30.460  1.00  0.00    -0.354 N 
ATOM     53  N   UNL A   1      44.529  29.221  29.407  1.00  0.00    -0.248 NA
ATOM     54  C   UNL A   1      45.143  27.143  28.536  1.00  0.00     0.031 C 
ATOM     55  C   UNL A   1      47.411  32.307  30.766  1.00  0.00     0.029 A 
ATOM     56  C   UNL A   1      46.535  31.323  30.337  1.00  0.00     0.049 A 
ATOM     57  H   UNL A   1      44.430  31.374  30.214  1.00  0.00     0.167 HD
ATOM     58  C   UNL A   1      45.918  29.105  29.427  1.00  0.00     0.074 A 
ATOM     59  C   UNL A   1      46.238  27.793  28.910  1.00  0.00     0.031 C 
ATOM     60  C   UNL A   1      46.845  30.005  29.844  1.00  0.00     0.031 A 
BRANCH  47  61
ATOM     61  C   UNL A   1      44.444  35.369  31.731  1.00  0.00    -0.014 A 
ATOM     62  C   UNL A   1      44.625  36.453  30.855  1.00  0.00     0.010 A 
ATOM     63  C   UNL A   1      44.439  35.602  33.119  1.00  0.00     0.010 A 
ATOM     64  C   UNL A   1      44.820  37.742  31.357  1.00  0.00     0.020 A 
ATOM     65  C   UNL A   1      44.603  36.894  33.625  1.00  0.00     0.020 A 
ATOM     66  C   UNL A   1      44.804  37.954  32.740  1.00  0.00     0.054 A 
BRANCH  66  67
ATOM     67  S   UNL A   1      45.012  39.646  33.361  1.00  0.00     0.124 S 
ATOM     68  O   UNL A   1      44.398  39.558  34.683  1.00  0.00    -0.237 OA
ATOM     69  O   UNL A   1      46.462  39.812  33.352  1.00  0.00    -0.237 OA
ATOM     70  O   UNL A   1      44.287  40.463  32.392  1.00  0.00    -0.744 OA
ENDBRANCH  66  67
ENDBRANCH  47  61
BRANCH  48  71
ATOM     71  C   UNL A   1      42.373  26.287  28.139  1.00  0.00    -0.014 A 
ATOM     72  C   UNL A   1      42.299  25.147  28.960  1.00  0.00     0.010 A 
ATOM     73  C   UNL A   1      42.227  26.131  26.748  1.00  0.00     0.010 A 
ATOM     74  C   UNL A   1      42.117  23.877  28.400  1.00  0.00     0.020 A 
ATOM     75  C   UNL A   1      42.011  24.868  26.188  1.00  0.00     0.020 A 
ATOM     76  C   UNL A   1      41.974  23.746  27.016  1.00  0.00     0.054 A 
BRANCH  76  77
ATOM     77  S   UNL A   1      41.712  22.093  26.314  1.00  0.00     0.124 S 
ATOM     78  O   UNL A   1      42.103  21.227  27.421  1.00  0.00    -0.237 OA
ATOM     79  O   UNL A   1      40.287  22.110  25.995  1.00  0.00    -0.237 OA
ATOM     80  O   UNL A   1      42.602  22.069  25.156  1.00  0.00    -0.744 OA
ENDBRANCH  76  77
ENDBRANCH  48  71
BRANCH  60  81
ATOM     81  C   UNL A   1      48.294  29.591  29.836  1.00  0.00    -0.014 A 
ATOM     82  C   UNL A   1      48.884  28.934  30.931  1.00  0.00     0.010 A 
ATOM     83  C   UNL A   1      49.055  29.785  28.666  1.00  0.00     0.010 A 
ATOM     84  C   UNL A   1      50.213  28.502  30.862  1.00  0.00     0.020 A 
ATOM     85  C   UNL A   1      50.372  29.328  28.584  1.00  0.00     0.020 A 
ATOM     86  C   UNL A   1      50.947  28.697  29.687  1.00  0.00     0.054 A 
BRANCH  86  87
ATOM     87  S   UNL A   1      52.648  28.071  29.603  1.00  0.00     0.124 S 
ATOM     88  O   UNL A   1      53.200  28.516  30.880  1.00  0.00    -0.237 OA
ATOM     89  O   UNL A   1      52.451  26.630  29.472  1.00  0.00    -0.237 OA
ATOM     90  O   UNL A   1      53.203  28.729  28.423  1.00  0.00    -0.744 OA
ENDBRANCH  86  87
ENDBRANCH  60  81
ENDBRANCH  34  35
ENDBRANCH  27  29
ENDBRANCH  26  27
ENDBRANCH  25  26
ENDBRANCH  24  25
ENDBRANCH  23  24
ENDBRANCH  22  23
ENDBRANCH   1  22
TORSDOF 23
ENDMDL
MODEL 2
REMARK VINA RESULT:      -6.8      9.066     14.012
REMARK SMILES O=C(CCC(=O)OCCOCCOCCOC(=O)c1ccc(-c2c3nc(c(-c4ccc(S(=O)(=O)[O-])cc4)c4ccc([nH]4)c(-c4ccc(S(=O)(=O)[O-])cc4)c4nc(c(-c5ccc(S(=O)(=O)[O-])cc5)c5ccc2[nH]5)C=C4)C=C3)cc1)Nc1cc(Cl)cc(Cl)c1
REMARK SMILES IDX 11 1 10 2 9 3 8 4 7 5 5 6 6 7 4 8 3 9 2 10 1 11 79 12 80 14
REMARK SMILES IDX 81 15 87 16 82 17 85 18 83 19 84 20 86 21 12 22 13 23 14 24
REMARK SMILES IDX 15 25 16 26 17 27 18 28 19 29 20 30 78 31 21 32 77 33 22 34
REMARK SMILES IDX 23 35 24 36 71 37 25 38 76 39 70 40 72 41 26 42 75 43 69 44
REMARK SMILES IDX 68 45 27 47 57 48 38 49 56 50 39 51 42 52 55 53 73 54 40 55
REMARK SMILES IDX 41 56 54 58 74 59 43 60 28 61 29 62 37 63 30 64 36 65 31 66
REMARK SMILES IDX 32 67 33 68 34 69 35 70 58 71 59 72 67 73 60 74 66 75 61 76
REMARK SMILES IDX 62 77 63 78 64 79 65 80 44 81 45 82 53 83 46 84 52 85 47 86
REMARK SMILES IDX 48 87 49 88 50 89 51 90
REMARK H PARENT 79 13 72 46 42 57
REMARK Flexibility Score: inf
ROOT
ATOM      1  C   UNL A   1      49.209  19.836  38.187  1.00  0.00     0.188 C 
ENDROOT
BRANCH   1   2
ATOM      2  O   UNL A   1      48.326  18.872  38.754  1.00  0.00    -0.376 OA
BRANCH   2   3
ATOM      3  C   UNL A   1      47.011  19.324  39.071  1.00  0.00     0.202 C 
BRANCH   3   4
ATOM      4  C   UNL A   1      46.258  18.467  40.100  1.00  0.00     0.261 C 
BRANCH   4   5
ATOM      5  O   UNL A   1      45.040  17.875  39.576  1.00  0.00    -0.463 OA
BRANCH   5   6
ATOM      6  C   UNL A   1      44.568  16.788  40.246  1.00  0.00     0.306 C 
ATOM      7  O   UNL A   1      45.282  15.892  40.681  1.00  0.00    -0.252 OA
BRANCH   6   8
ATOM      8  C   UNL A   1      43.069  16.798  40.501  1.00  0.00     0.132 C 
BRANCH   8   9
ATOM      9  C   UNL A   1      42.292  15.521  40.801  1.00  0.00     0.112 C 
BRANCH   9  10
ATOM     10  C   UNL A   1      42.119  15.169  42.266  1.00  0.00     0.224 C 
ATOM     11  O   UNL A   1      41.080  15.416  42.869  1.00  0.00    -0.275 OA
ATOM     12  N   UNL A   1      43.228  14.557  42.800  1.00  0.00    -0.326 N 
ATOM     13  H   UNL A   1      44.019  14.504  42.217  1.00  0.00     0.169 HD
BRANCH  12  14
ATOM     14  C   UNL A   1      43.362  14.002  44.079  1.00  0.00     0.044 A 
ATOM     15  C   UNL A   1      43.698  12.647  44.142  1.00  0.00     0.046 A 
ATOM     16  C   UNL A   1      43.124  14.713  45.254  1.00  0.00     0.046 A 
ATOM     17  C   UNL A   1      43.822  12.015  45.375  1.00  0.00     0.044 A 
ATOM     18  C   UNL A   1      43.205  14.054  46.482  1.00  0.00     0.044 A 
ATOM     19  Cl  UNL A   1      44.301  10.364  45.435  1.00  0.00    -0.084 Cl
ATOM     20  C   UNL A   1      43.563  12.708  46.550  1.00  0.00     0.041 A 
ATOM     21  Cl  UNL A   1      42.826  14.899  47.934  1.00  0.00    -0.084 Cl
ENDBRANCH  12  14
ENDBRANCH   9  10
ENDBRANCH   8   9
ENDBRANCH   6   8
ENDBRANCH   5   6
ENDBRANCH   4   5
ENDBRANCH   3   4
ENDBRANCH   2   3
ENDBRANCH   1   2
BRANCH   1  22
ATOM     22  C   UNL A   1      49.257  21.169  38.930  1.00  0.00     0.188 C 
BRANCH  22  23
ATOM     23  O   UNL A   1      48.652  22.279  38.276  1.00  0.00    -0.376 OA
BRANCH  23  24
ATOM     24  C   UNL A   1      47.809  23.102  39.097  1.00  0.00     0.202 C 
BRANCH  24  25
ATOM     25  C   UNL A   1      48.076  24.629  39.125  1.00  0.00     0.261 C 
BRANCH  25  26
ATOM     26  O   UNL A   1      47.289  25.456  38.238  1.00  0.00    -0.460 OA
BRANCH  26  27
ATOM     27  C   UNL A   1      47.828  26.621  37.796  1.00  0.00     0.338 C 
ATOM     28  O   UNL A   1      49.011  26.865  37.692  1.00  0.00    -0.246 OA
BRANCH  27  29
ATOM     29  C   UNL A   1      46.743  27.434  37.162  1.00  0.00     0.060 A 
ATOM     30  C   UNL A   1      45.414  27.025  37.359  1.00  0.00     0.016 A 
ATOM     31  C   UNL A   1      47.000  28.617  36.462  1.00  0.00     0.016 A 
ATOM     32  C   UNL A   1      44.351  27.765  36.828  1.00  0.00     0.010 A 
ATOM     33  C   UNL A   1      45.936  29.348  35.912  1.00  0.00     0.010 A 
ATOM     34  C   UNL A   1      44.608  28.907  36.059  1.00  0.00    -0.014 A 
BRANCH  34  35
ATOM     35  C   UNL A   1      43.535  29.493  35.207  1.00  0.00     0.031 A 
ATOM     36  C   UNL A   1      42.668  30.566  35.817  1.00  0.00     0.074 A 
ATOM     37  C   UNL A   1      43.325  29.113  33.931  1.00  0.00     0.049 A 
ATOM     38  N   UNL A   1      41.615  31.165  35.328  1.00  0.00    -0.248 NA
ATOM     39  C   UNL A   1      43.043  31.019  37.169  1.00  0.00     0.031 C 
ATOM     40  C   UNL A   1      44.121  28.139  33.188  1.00  0.00     0.029 A 
ATOM     41  N   UNL A   1      42.354  29.504  33.036  1.00  0.00    -0.354 N 
ATOM     42  C   UNL A   1      41.188  32.046  36.316  1.00  0.00     0.074 A 
ATOM     43  C   UNL A   1      42.083  31.889  37.441  1.00  0.00     0.031 C 
ATOM     44  C   UNL A   1      43.596  27.996  31.955  1.00  0.00     0.029 A 
ATOM     45  C   UNL A   1      42.403  28.835  31.833  1.00  0.00     0.049 A 
ATOM     46  H   UNL A   1      41.686  30.200  33.236  1.00  0.00     0.167 HD
ATOM     47  C   UNL A   1      40.147  32.909  36.294  1.00  0.00     0.031 A 
ATOM     48  C   UNL A   1      41.568  28.871  30.773  1.00  0.00     0.031 A 
ATOM     49  C   UNL A   1      39.250  33.066  35.182  1.00  0.00     0.049 A 
ATOM     50  C   UNL A   1      40.361  29.782  30.804  1.00  0.00     0.074 A 
ATOM     51  C   UNL A   1      38.173  33.926  35.065  1.00  0.00     0.029 A 
ATOM     52  N   UNL A   1      39.322  32.349  33.999  1.00  0.00    -0.354 N 
ATOM     53  N   UNL A   1      39.981  30.618  31.742  1.00  0.00    -0.248 NA
ATOM     54  C   UNL A   1      39.474  29.759  29.631  1.00  0.00     0.031 C 
ATOM     55  C   UNL A   1      37.553  33.682  33.837  1.00  0.00     0.029 A 
ATOM     56  C   UNL A   1      38.292  32.728  33.157  1.00  0.00     0.049 A 
ATOM     57  H   UNL A   1      40.004  31.670  33.789  1.00  0.00     0.167 HD
ATOM     58  C   UNL A   1      38.839  31.247  31.250  1.00  0.00     0.074 A 
ATOM     59  C   UNL A   1      38.593  30.703  29.933  1.00  0.00     0.031 C 
ATOM     60  C   UNL A   1      38.068  32.198  31.836  1.00  0.00     0.031 A 
BRANCH  47  61
ATOM     61  C   UNL A   1      39.889  33.729  37.531  1.00  0.00    -0.014 A 
ATOM     62  C   UNL A   1      40.479  34.992  37.709  1.00  0.00     0.010 A 
ATOM     63  C   UNL A   1      38.991  33.248  38.502  1.00  0.00     0.010 A 
ATOM     64  C   UNL A   1      40.194  35.751  38.847  1.00  0.00     0.020 A 
ATOM     65  C   UNL A   1      38.679  34.017  39.627  1.00  0.00     0.020 A 
ATOM     66  C   UNL A   1      39.292  35.259  39.797  1.00  0.00     0.054 A 
BRANCH  66  67
ATOM     67  S   UNL A   1      38.904  36.288  41.240  1.00  0.00     0.124 S 
ATOM     68  O   UNL A   1      37.807  35.544  41.853  1.00  0.00    -0.237 OA
ATOM     69  O   UNL A   1      40.161  36.279  41.983  1.00  0.00    -0.237 OA
ATOM     70  O   UNL A   1      38.535  37.576  40.658  1.00  0.00    -0.744 OA
ENDBRANCH  66  67
ENDBRANCH  47  61
BRANCH  48  71
ATOM     71  C   UNL A   1      41.806  27.992  29.589  1.00  0.00    -0.014 A 
ATOM     72  C   UNL A   1      42.928  28.179  28.762  1.00  0.00     0.010 A 
ATOM     73  C   UNL A   1      40.879  26.986  29.256  1.00  0.00     0.010 A 
ATOM     74  C   UNL A   1      43.102  27.403  27.609  1.00  0.00     0.020 A 
ATOM     75  C   UNL A   1      41.067  26.186  28.124  1.00  0.00     0.020 A 
ATOM     76  C   UNL A   1      42.168  26.410  27.298  1.00  0.00     0.054 A 
BRANCH  76  77
ATOM     77  S   UNL A   1      42.426  25.398  25.814  1.00  0.00     0.124 S 
ATOM     78  O   UNL A   1      43.671  25.946  25.285  1.00  0.00    -0.237 OA
ATOM     79  O   UNL A   1      42.512  24.049  26.366  1.00  0.00    -0.237 OA
ATOM     80  O   UNL A   1      41.235  25.661  25.010  1.00  0.00    -0.744 OA
ENDBRANCH  76  77
ENDBRANCH  48  71
BRANCH  60  81
ATOM     81  C   UNL A   1      36.924  32.777  31.042  1.00  0.00    -0.014 A 
ATOM     82  C   UNL A   1      35.583  32.501  31.365  1.00  0.00     0.010 A 
ATOM     83  C   UNL A   1      37.203  33.691  30.007  1.00  0.00     0.010 A 
ATOM     84  C   UNL A   1      34.546  33.111  30.651  1.00  0.00     0.020 A 
ATOM     85  C   UNL A   1      36.169  34.324  29.313  1.00  0.00     0.020 A 
ATOM     86  C   UNL A   1      34.846  34.022  29.632  1.00  0.00     0.054 A 
BRANCH  86  87
ATOM     87  S   UNL A   1      33.481  34.845  28.765  1.00  0.00     0.124 S 
ATOM     88  O   UNL A   1      32.502  35.021  29.834  1.00  0.00    -0.237 OA
ATOM     89  O   UNL A   1      34.107  36.072  28.278  1.00  0.00    -0.237 OA
ATOM     90  O   UNL A   1      33.103  33.890  27.726  1.00  0.00    -0.744 OA
ENDBRANCH  86  87
ENDBRANCH  60  81
ENDBRANCH  34  35
ENDBRANCH  27  29
ENDBRANCH  26  27
ENDBRANCH  25  26
ENDBRANCH  24  25
ENDBRANCH  23  24
ENDBRANCH  22  23
ENDBRANCH   1  22
TORSDOF 23
ENDMDL
MODEL 3
REMARK VINA RESULT:      -6.7      4.130     11.357
REMARK SMILES O=C(CCC(=O)OCCOCCOCCOC(=O)c1ccc(-c2c3nc(c(-c4ccc(S(=O)(=O)[O-])cc4)c4ccc([nH]4)c(-c4ccc(S(=O)(=O)[O-])cc4)c4nc(c(-c5ccc(S(=O)(=O)[O-])cc5)c5ccc2[nH]5)C=C4)C=C3)cc1)Nc1cc(Cl)cc(Cl)c1
REMARK SMILES IDX 11 1 10 2 9 3 8 4 7 5 5 6 6 7 4 8 3 9 2 10 1 11 79 12 80 14
REMARK SMILES IDX 81 15 87 16 82 17 85 18 83 19 84 20 86 21 12 22 13 23 14 24
REMARK SMILES IDX 15 25 16 26 17 27 18 28 19 29 20 30 78 31 21 32 77 33 22 34
REMARK SMILES IDX 23 35 24 36 71 37 25 38 76 39 70 40 72 41 26 42 75 43 69 44
REMARK SMILES IDX 68 45 27 47 57 48 38 49 56 50 39 51 42 52 55 53 73 54 40 55
REMARK SMILES IDX 41 56 54 58 74 59 43 60 28 61 29 62 37 63 30 64 36 65 31 66
REMARK SMILES IDX 32 67 33 68 34 69 35 70 58 71 59 72 67 73 60 74 66 75 61 76
REMARK SMILES IDX 62 77 63 78 64 79 65 80 44 81 45 82 53 83 46 84 52 85 47 86
REMARK SMILES IDX 48 87 49 88 50 89 51 90
REMARK H PARENT 79 13 72 46 42 57
REMARK Flexibility Score: inf
ROOT
ATOM      1  C   UNL A   1      48.168  25.703  26.281  1.00  0.00     0.188 C 
ENDROOT
BRANCH   1   2
ATOM      2  O   UNL A   1      47.758  27.052  26.082  1.00  0.00    -0.376 OA
BRANCH   2   3
ATOM      3  C   UNL A   1      46.357  27.308  26.151  1.00  0.00     0.202 C 
BRANCH   3   4
ATOM      4  C   UNL A   1      45.953  28.489  27.047  1.00  0.00     0.261 C 
BRANCH   4   5
ATOM      5  O   UNL A   1      45.677  29.707  26.305  1.00  0.00    -0.463 OA
BRANCH   5   6
ATOM      6  C   UNL A   1      44.436  30.240  26.472  1.00  0.00     0.306 C 
ATOM      7  O   UNL A   1      43.425  29.571  26.651  1.00  0.00    -0.252 OA
BRANCH   6   8
ATOM      8  C   UNL A   1      44.394  31.760  26.508  1.00  0.00     0.132 C 
BRANCH   8   9
ATOM      9  C   UNL A   1      44.932  32.555  27.691  1.00  0.00     0.112 C 
BRANCH   9  10
ATOM     10  C   UNL A   1      44.068  33.704  28.176  1.00  0.00     0.224 C 
ATOM     11  O   UNL A   1      43.184  33.537  29.010  1.00  0.00    -0.275 OA
ATOM     12  N   UNL A   1      44.398  34.902  27.589  1.00  0.00    -0.326 N 
ATOM     13  H   UNL A   1      45.073  34.865  26.872  1.00  0.00     0.169 HD
BRANCH  12  14
ATOM     14  C   UNL A   1      43.885  36.170  27.892  1.00  0.00     0.044 A 
ATOM     15  C   UNL A   1      44.149  36.663  29.172  1.00  0.00     0.046 A 
ATOM     16  C   UNL A   1      43.097  36.910  27.011  1.00  0.00     0.046 A 
ATOM     17  C   UNL A   1      43.651  37.903  29.559  1.00  0.00     0.044 A 
ATOM     18  C   UNL A   1      42.563  38.130  27.431  1.00  0.00     0.044 A 
ATOM     19  Cl  UNL A   1      44.041  38.524  31.115  1.00  0.00    -0.084 Cl
ATOM     20  C   UNL A   1      42.844  38.637  28.699  1.00  0.00     0.041 A 
ATOM     21  Cl  UNL A   1      41.516  39.010  26.385  1.00  0.00    -0.084 Cl
ENDBRANCH  12  14
ENDBRANCH   9  10
ENDBRANCH   8   9
ENDBRANCH   6   8
ENDBRANCH   5   6
ENDBRANCH   4   5
ENDBRANCH   3   4
ENDBRANCH   2   3
ENDBRANCH   1   2
BRANCH   1  22
ATOM     22  C   UNL A   1      47.084  24.785  26.842  1.00  0.00     0.188 C 
BRANCH  22  23
ATOM     23  O   UNL A   1      46.846  23.578  26.128  1.00  0.00    -0.376 OA
BRANCH  23  24
ATOM     24  C   UNL A   1      46.293  23.730  24.812  1.00  0.00     0.202 C 
BRANCH  24  25
ATOM     25  C   UNL A   1      45.170  22.758  24.369  1.00  0.00     0.261 C 
BRANCH  25  26
ATOM     26  O   UNL A   1      43.836  23.300  24.239  1.00  0.00    -0.460 OA
BRANCH  26  27
ATOM     27  C   UNL A   1      42.867  22.834  25.068  1.00  0.00     0.338 C 
ATOM     28  O   UNL A   1      42.520  21.678  25.180  1.00  0.00    -0.246 OA
BRANCH  27  29
ATOM     29  C   UNL A   1      42.517  23.915  26.041  1.00  0.00     0.060 A 
ATOM     30  C   UNL A   1      42.897  25.231  25.728  1.00  0.00     0.016 A 
ATOM     31  C   UNL A   1      41.762  23.675  27.193  1.00  0.00     0.016 A 
ATOM     32  C   UNL A   1      42.563  26.294  26.576  1.00  0.00     0.010 A 
ATOM     33  C   UNL A   1      41.446  24.737  28.054  1.00  0.00     0.010 A 
ATOM     34  C   UNL A   1      41.876  26.047  27.771  1.00  0.00    -0.014 A 
BRANCH  34  35
ATOM     35  C   UNL A   1      41.825  27.089  28.835  1.00  0.00     0.031 A 
ATOM     36  C   UNL A   1      42.866  27.022  29.925  1.00  0.00     0.074 A 
ATOM     37  C   UNL A   1      40.908  28.076  28.850  1.00  0.00     0.049 A 
ATOM     38  N   UNL A   1      42.985  27.743  31.009  1.00  0.00    -0.248 NA
ATOM     39  C   UNL A   1      43.913  25.996  29.768  1.00  0.00     0.031 C 
ATOM     40  C   UNL A   1      39.884  28.305  27.833  1.00  0.00     0.029 A 
ATOM     41  N   UNL A   1      40.687  29.069  29.777  1.00  0.00    -0.354 N 
ATOM     42  C   UNL A   1      44.101  27.245  31.673  1.00  0.00     0.074 A 
ATOM     43  C   UNL A   1      44.612  26.148  30.881  1.00  0.00     0.031 C 
ATOM     44  C   UNL A   1      39.134  29.362  28.200  1.00  0.00     0.029 A 
ATOM     45  C   UNL A   1      39.594  29.860  29.497  1.00  0.00     0.049 A 
ATOM     46  H   UNL A   1      41.258  29.204  30.568  1.00  0.00     0.167 HD
ATOM     47  C   UNL A   1      44.655  27.660  32.835  1.00  0.00     0.031 A 
ATOM     48  C   UNL A   1      39.015  30.845  30.215  1.00  0.00     0.031 A 
ATOM     49  C   UNL A   1      44.149  28.746  33.629  1.00  0.00     0.049 A 
ATOM     50  C   UNL A   1      39.601  31.236  31.554  1.00  0.00     0.074 A 
ATOM     51  C   UNL A   1      44.652  29.246  34.816  1.00  0.00     0.029 A 
ATOM     52  N   UNL A   1      43.026  29.497  33.321  1.00  0.00    -0.354 N 
ATOM     53  N   UNL A   1      40.665  30.763  32.160  1.00  0.00    -0.248 NA
ATOM     54  C   UNL A   1      38.912  32.299  32.302  1.00  0.00     0.031 C 
ATOM     55  C   UNL A   1      43.795  30.257  35.261  1.00  0.00     0.029 A 
ATOM     56  C   UNL A   1      42.805  30.439  34.309  1.00  0.00     0.049 A 
ATOM     57  H   UNL A   1      42.468  29.378  32.518  1.00  0.00     0.167 HD
ATOM     58  C   UNL A   1      40.793  31.501  33.335  1.00  0.00     0.074 A 
ATOM     59  C   UNL A   1      39.705  32.454  33.354  1.00  0.00     0.031 C 
ATOM     60  C   UNL A   1      41.733  31.402  34.309  1.00  0.00     0.031 A 
BRANCH  47  61
ATOM     61  C   UNL A   1      45.855  26.909  33.348  1.00  0.00    -0.014 A 
ATOM     62  C   UNL A   1      47.163  27.321  33.043  1.00  0.00     0.010 A 
ATOM     63  C   UNL A   1      45.665  25.806  34.203  1.00  0.00     0.010 A 
ATOM     64  C   UNL A   1      48.261  26.630  33.563  1.00  0.00     0.020 A 
ATOM     65  C   UNL A   1      46.759  25.132  34.750  1.00  0.00     0.020 A 
ATOM     66  C   UNL A   1      48.050  25.542  34.417  1.00  0.00     0.054 A 
BRANCH  66  67
ATOM     67  S   UNL A   1      49.495  24.695  35.115  1.00  0.00     0.124 S 
ATOM     68  O   UNL A   1      49.145  24.622  36.531  1.00  0.00    -0.237 OA
ATOM     69  O   UNL A   1      49.493  23.422  34.401  1.00  0.00    -0.237 OA
ATOM     70  O   UNL A   1      50.608  25.585  34.795  1.00  0.00    -0.744 OA
ENDBRANCH  66  67
ENDBRANCH  47  61
BRANCH  48  71
ATOM     71  C   UNL A   1      37.781  31.523  29.717  1.00  0.00    -0.014 A 
ATOM     72  C   UNL A   1      37.859  32.721  28.982  1.00  0.00     0.010 A 
ATOM     73  C   UNL A   1      36.512  30.995  30.018  1.00  0.00     0.010 A 
ATOM     74  C   UNL A   1      36.695  33.392  28.589  1.00  0.00     0.020 A 
ATOM     75  C   UNL A   1      35.347  31.645  29.597  1.00  0.00     0.020 A 
ATOM     76  C   UNL A   1      35.446  32.848  28.899  1.00  0.00     0.054 A 
BRANCH  76  77
ATOM     77  S   UNL A   1      33.950  33.721  28.355  1.00  0.00     0.124 S 
ATOM     78  O   UNL A   1      33.424  34.236  29.615  1.00  0.00    -0.237 OA
ATOM     79  O   UNL A   1      34.487  34.721  27.437  1.00  0.00    -0.237 OA
ATOM     80  O   UNL A   1      33.152  32.672  27.726  1.00  0.00    -0.744 OA
ENDBRANCH  76  77
ENDBRANCH  48  71
BRANCH  60  81
ATOM     81  C   UNL A   1      41.688  32.390  35.447  1.00  0.00    -0.014 A 
ATOM     82  C   UNL A   1      41.030  32.099  36.655  1.00  0.00     0.010 A 
ATOM     83  C   UNL A   1      42.401  33.600  35.332  1.00  0.00     0.010 A 
ATOM     84  C   UNL A   1      41.067  33.010  37.716  1.00  0.00     0.020 A 
ATOM     85  C   UNL A   1      42.465  34.497  36.400  1.00  0.00     0.020 A 
ATOM     86  C   UNL A   1      41.789  34.201  37.583  1.00  0.00     0.054 A 
BRANCH  86  87
ATOM     87  S   UNL A   1      41.872  35.336  38.997  1.00  0.00     0.124 S 
ATOM     88  O   UNL A   1      43.186  35.948  38.819  1.00  0.00    -0.237 OA
ATOM     89  O   UNL A   1      40.732  36.219  38.766  1.00  0.00    -0.237 OA
ATOM     90  O   UNL A   1      41.748  34.456  40.157  1.00  0.00    -0.744 OA
ENDBRANCH  86  87
ENDBRANCH  60  81
ENDBRANCH  34  35
ENDBRANCH  27  29
ENDBRANCH  26  27
ENDBRANCH  25  26
ENDBRANCH  24  25
ENDBRANCH  23  24
ENDBRANCH  22  23
ENDBRANCH   1  22
TORSDOF 23
ENDMDL
