MODEL 1
REMARK VINA RESULT:     -10.0      0.000      0.000
REMARK SMILES COc1ccc(C(=O)OCCOCCOCCOC(=O)c2ccc(-c3c4nc(c(-c5ccc(S(=O)(=O)[O-])cc5)c5ccc([nH]5)c(-c5ccc(S(=O)(=O)[O-])cc5)c5nc(c(-c6ccc(S(=O)(=O)[O-])cc6)c6ccc3[nH]6)C=C5)C=C4)cc2)cc1NC(=O)c1ccccc1[N+](=O)[O-]
REMARK SMILES IDX 13 1 12 2 11 3 10 4 9 5 7 6 8 7 6 8 3 9 4 10 82 11 5 12
REMARK SMILES IDX 81 13 2 14 1 15 83 16 84 17 85 19 86 20 87 21 91 22 88 23
REMARK SMILES IDX 90 24 89 25 92 26 93 27 94 28 14 29 15 30 16 31 17 32 18 33
REMARK SMILES IDX 19 34 20 35 21 36 22 37 80 38 23 39 79 40 24 41 25 42 26 43
REMARK SMILES IDX 73 44 27 45 78 46 72 47 74 48 28 49 77 50 71 51 70 52 29 54
REMARK SMILES IDX 59 55 40 56 58 57 41 58 44 59 57 60 75 61 42 62 43 63 56 65
REMARK SMILES IDX 76 66 45 67 30 68 31 69 39 70 32 71 38 72 33 73 34 74 35 75
REMARK SMILES IDX 36 76 37 77 60 78 61 79 69 80 62 81 68 82 63 83 64 84 65 85
REMARK SMILES IDX 66 86 67 87 46 88 47 89 55 90 48 91 54 92 49 93 50 94 51 95
REMARK SMILES IDX 52 96 53 97
REMARK H PARENT 83 18 74 53 44 64
REMARK Flexibility Score: inf
ROOT
ATOM      1  C   UNL A   1      32.900  20.161  25.585  1.00  0.00     0.188 C 
ENDROOT
BRANCH   1   2
ATOM      2  O   UNL A   1      31.716  20.868  25.256  1.00  0.00    -0.376 OA
BRANCH   2   3
ATOM      3  C   UNL A   1      31.782  21.973  24.370  1.00  0.00     0.202 C 
BRANCH   3   4
ATOM      4  C   UNL A   1      30.793  23.128  24.536  1.00  0.00     0.261 C 
BRANCH   4   5
ATOM      5  O   UNL A   1      30.966  23.844  25.768  1.00  0.00    -0.460 OA
BRANCH   5   6
ATOM      6  C   UNL A   1      29.939  24.657  26.127  1.00  0.00     0.338 C 
ATOM      7  O   UNL A   1      29.209  24.508  27.094  1.00  0.00    -0.246 OA
BRANCH   6   8
ATOM      8  C   UNL A   1      29.840  25.829  25.216  1.00  0.00     0.062 A 
ATOM      9  C   UNL A   1      29.659  27.813  23.291  1.00  0.00     0.142 A 
ATOM     10  C   UNL A   1      28.501  27.155  23.712  1.00  0.00     0.049 A 
ATOM     11  C   UNL A   1      30.912  27.535  23.860  1.00  0.00     0.084 A 
ATOM     12  C   UNL A   1      28.601  26.123  24.642  1.00  0.00     0.019 A 
ATOM     13  C   UNL A   1      30.962  26.607  24.894  1.00  0.00     0.045 A 
BRANCH   9  14
ATOM     14  O   UNL A   1      29.549  28.757  22.299  1.00  0.00    -0.495 OA
ATOM     15  C   UNL A   1      28.251  29.359  22.333  1.00  0.00     0.278 C 
ENDBRANCH   9  14
BRANCH  11  16
ATOM     16  N   UNL A   1      32.034  28.164  23.281  1.00  0.00    -0.319 N 
ATOM     17  C   UNL A   1      33.208  27.723  22.717  1.00  0.00     0.262 C 
ATOM     18  H   UNL A   1      31.961  29.146  23.281  1.00  0.00     0.170 HD
ATOM     19  O   UNL A   1      33.997  28.525  22.221  1.00  0.00    -0.269 OA
BRANCH  17  20
ATOM     20  C   UNL A   1      33.622  26.315  22.758  1.00  0.00     0.117 A 
ATOM     21  C   UNL A   1      34.366  25.946  23.891  1.00  0.00     0.021 A 
ATOM     22  C   UNL A   1      33.290  25.342  21.810  1.00  0.00     0.282 A 
ATOM     23  C   UNL A   1      34.690  24.609  24.116  1.00  0.00     0.001 A 
ATOM     24  C   UNL A   1      33.593  23.990  22.050  1.00  0.00     0.086 A 
ATOM     25  C   UNL A   1      34.280  23.630  23.212  1.00  0.00     0.007 A 
BRANCH  22  26
ATOM     26  N   UNL A   1      32.537  25.678  20.607  1.00  0.00     0.063 N 
ATOM     27  O   UNL A   1      33.086  25.451  19.519  1.00  0.00    -0.258 OA
ATOM     28  O   UNL A   1      31.416  26.181  20.743  1.00  0.00    -0.258 OA
ENDBRANCH  22  26
ENDBRANCH  17  20
ENDBRANCH  11  16
ENDBRANCH   6   8
ENDBRANCH   5   6
ENDBRANCH   4   5
ENDBRANCH   3   4
ENDBRANCH   2   3
ENDBRANCH   1   2
BRANCH   1  29
ATOM     29  C   UNL A   1      34.266  20.875  25.532  1.00  0.00     0.188 C 
BRANCH  29  30
ATOM     30  O   UNL A   1      35.288  20.402  24.685  1.00  0.00    -0.376 OA
BRANCH  30  31
ATOM     31  C   UNL A   1      36.651  20.481  25.056  1.00  0.00     0.202 C 
BRANCH  31  32
ATOM     32  C   UNL A   1      37.584  21.680  24.807  1.00  0.00     0.261 C 
BRANCH  32  33
ATOM     33  O   UNL A   1      37.868  22.539  25.909  1.00  0.00    -0.460 OA
BRANCH  33  34
ATOM     34  C   UNL A   1      39.157  22.531  26.335  1.00  0.00     0.338 C 
ATOM     35  O   UNL A   1      39.971  21.637  26.193  1.00  0.00    -0.246 OA
BRANCH  34  36
ATOM     36  C   UNL A   1      39.490  23.882  26.828  1.00  0.00     0.060 A 
ATOM     37  C   UNL A   1      40.069  24.793  25.936  1.00  0.00     0.016 A 
ATOM     38  C   UNL A   1      39.230  24.247  28.150  1.00  0.00     0.016 A 
ATOM     39  C   UNL A   1      40.413  26.073  26.372  1.00  0.00     0.010 A 
ATOM     40  C   UNL A   1      39.596  25.521  28.591  1.00  0.00     0.010 A 
ATOM     41  C   UNL A   1      40.215  26.427  27.712  1.00  0.00    -0.014 A 
BRANCH  41  42
ATOM     42  C   UNL A   1      40.833  27.664  28.248  1.00  0.00     0.031 A 
ATOM     43  C   UNL A   1      42.333  27.769  28.243  1.00  0.00     0.074 A 
ATOM     44  C   UNL A   1      40.086  28.674  28.727  1.00  0.00     0.049 A 
ATOM     45  N   UNL A   1      43.100  28.733  28.681  1.00  0.00    -0.248 NA
ATOM     46  C   UNL A   1      43.064  26.630  27.664  1.00  0.00     0.031 C 
ATOM     47  C   UNL A   1      38.626  28.719  28.741  1.00  0.00     0.029 A 
ATOM     48  N   UNL A   1      40.468  29.862  29.299  1.00  0.00    -0.354 N 
ATOM     49  C   UNL A   1      44.403  28.313  28.442  1.00  0.00     0.074 A 
ATOM     50  C   UNL A   1      44.322  26.997  27.844  1.00  0.00     0.031 C 
ATOM     51  C   UNL A   1      38.233  29.880  29.294  1.00  0.00     0.029 A 
ATOM     52  C   UNL A   1      39.413  30.642  29.705  1.00  0.00     0.049 A 
ATOM     53  H   UNL A   1      41.409  30.130  29.409  1.00  0.00     0.167 HD
ATOM     54  C   UNL A   1      45.565  28.962  28.695  1.00  0.00     0.031 A 
ATOM     55  C   UNL A   1      39.401  31.828  30.347  1.00  0.00     0.031 A 
ATOM     56  C   UNL A   1      45.647  30.254  29.321  1.00  0.00     0.049 A 
ATOM     57  C   UNL A   1      40.706  32.487  30.710  1.00  0.00     0.074 A 
ATOM     58  C   UNL A   1      46.775  31.000  29.610  1.00  0.00     0.029 A 
ATOM     59  N   UNL A   1      44.557  30.982  29.774  1.00  0.00    -0.354 N 
ATOM     60  N   UNL A   1      41.932  32.094  30.453  1.00  0.00    -0.248 NA
ATOM     61  C   UNL A   1      40.625  33.755  31.450  1.00  0.00     0.031 C 
ATOM     62  C   UNL A   1      46.370  32.153  30.293  1.00  0.00     0.029 A 
ATOM     63  C   UNL A   1      44.987  32.154  30.372  1.00  0.00     0.049 A 
ATOM     64  H   UNL A   1      43.617  30.706  29.683  1.00  0.00     0.167 HD
ATOM     65  C   UNL A   1      42.765  33.081  30.972  1.00  0.00     0.074 A 
ATOM     66  C   UNL A   1      41.905  34.091  31.554  1.00  0.00     0.031 C 
ATOM     67  C   UNL A   1      44.121  33.149  30.957  1.00  0.00     0.031 A 
BRANCH  54  68
ATOM     68  C   UNL A   1      46.837  28.239  28.342  1.00  0.00    -0.014 A 
ATOM     69  C   UNL A   1      47.423  28.366  27.069  1.00  0.00     0.010 A 
ATOM     70  C   UNL A   1      47.439  27.394  29.292  1.00  0.00     0.010 A 
ATOM     71  C   UNL A   1      48.549  27.610  26.732  1.00  0.00     0.020 A 
ATOM     72  C   UNL A   1      48.582  26.659  28.968  1.00  0.00     0.020 A 
ATOM     73  C   UNL A   1      49.113  26.751  27.679  1.00  0.00     0.054 A 
BRANCH  73  74
ATOM     74  S   UNL A   1      50.551  25.753  27.207  1.00  0.00     0.124 S 
ATOM     75  O   UNL A   1      50.172  24.429  27.695  1.00  0.00    -0.237 OA
ATOM     76  O   UNL A   1      50.582  25.900  25.754  1.00  0.00    -0.237 OA
ATOM     77  O   UNL A   1      51.660  26.384  27.917  1.00  0.00    -0.744 OA
ENDBRANCH  73  74
ENDBRANCH  54  68
BRANCH  55  78
ATOM     78  C   UNL A   1      38.104  32.476  30.680  1.00  0.00    -0.014 A 
ATOM     79  C   UNL A   1      37.453  32.176  31.889  1.00  0.00     0.010 A 
ATOM     80  C   UNL A   1      37.524  33.412  29.805  1.00  0.00     0.010 A 
ATOM     81  C   UNL A   1      36.247  32.803  32.219  1.00  0.00     0.020 A 
ATOM     82  C   UNL A   1      36.330  34.058  30.141  1.00  0.00     0.020 A 
ATOM     83  C   UNL A   1      35.698  33.746  31.346  1.00  0.00     0.054 A 
BRANCH  83  84
ATOM     84  S   UNL A   1      34.174  34.603  31.835  1.00  0.00     0.124 S 
ATOM     85  O   UNL A   1      34.691  35.853  32.384  1.00  0.00    -0.237 OA
ATOM     86  O   UNL A   1      33.458  34.717  30.568  1.00  0.00    -0.237 OA
ATOM     87  O   UNL A   1      33.568  33.695  32.807  1.00  0.00    -0.744 OA
ENDBRANCH  83  84
ENDBRANCH  55  78
BRANCH  67  88
ATOM     88  C   UNL A   1      44.766  34.371  31.559  1.00  0.00    -0.014 A 
ATOM     89  C   UNL A   1      44.976  35.537  30.803  1.00  0.00     0.010 A 
ATOM     90  C   UNL A   1      45.111  34.369  32.924  1.00  0.00     0.010 A 
ATOM     91  C   UNL A   1      45.544  36.670  31.394  1.00  0.00     0.020 A 
ATOM     92  C   UNL A   1      45.654  35.508  33.525  1.00  0.00     0.020 A 
ATOM     93  C   UNL A   1      45.879  36.648  32.752  1.00  0.00     0.054 A 
BRANCH  93  94
ATOM     94  S   UNL A   1      46.570  38.146  33.508  1.00  0.00     0.124 S 
ATOM     95  O   UNL A   1      47.042  37.646  34.796  1.00  0.00    -0.237 OA
ATOM     96  O   UNL A   1      47.615  38.530  32.562  1.00  0.00    -0.237 OA
ATOM     97  O   UNL A   1      45.431  39.059  33.574  1.00  0.00    -0.744 OA
ENDBRANCH  93  94
ENDBRANCH  67  88
ENDBRANCH  41  42
ENDBRANCH  34  36
ENDBRANCH  33  34
ENDBRANCH  32  33
ENDBRANCH  31  32
ENDBRANCH  30  31
ENDBRANCH  29  30
ENDBRANCH   1  29
TORSDOF 24
ENDMDL
MODEL 2
REMARK VINA RESULT:      -9.7      2.634      9.408
REMARK SMILES COc1ccc(C(=O)OCCOCCOCCOC(=O)c2ccc(-c3c4nc(c(-c5ccc(S(=O)(=O)[O-])cc5)c5ccc([nH]5)c(-c5ccc(S(=O)(=O)[O-])cc5)c5nc(c(-c6ccc(S(=O)(=O)[O-])cc6)c6ccc3[nH]6)C=C5)C=C4)cc2)cc1NC(=O)c1ccccc1[N+](=O)[O-]
REMARK SMILES IDX 13 1 12 2 11 3 10 4 9 5 7 6 8 7 6 8 3 9 4 10 82 11 5 12
REMARK SMILES IDX 81 13 2 14 1 15 83 16 84 17 85 19 86 20 87 21 91 22 88 23
REMARK SMILES IDX 90 24 89 25 92 26 93 27 94 28 14 29 15 30 16 31 17 32 18 33
REMARK SMILES IDX 19 34 20 35 21 36 22 37 80 38 23 39 79 40 24 41 25 42 26 43
REMARK SMILES IDX 73 44 27 45 78 46 72 47 74 48 28 49 77 50 71 51 70 52 29 54
REMARK SMILES IDX 59 55 40 56 58 57 41 58 44 59 57 60 75 61 42 62 43 63 56 65
REMARK SMILES IDX 76 66 45 67 30 68 31 69 39 70 32 71 38 72 33 73 34 74 35 75
REMARK SMILES IDX 36 76 37 77 60 78 61 79 69 80 62 81 68 82 63 83 64 84 65 85
REMARK SMILES IDX 66 86 67 87 46 88 47 89 55 90 48 91 54 92 49 93 50 94 51 95
REMARK SMILES IDX 52 96 53 97
REMARK H PARENT 83 18 74 53 44 64
REMARK Flexibility Score: inf
ROOT
ATOM      1  C   UNL A   1      35.136  30.993  27.569  1.00  0.00     0.188 C 
ENDROOT
BRANCH   1   2
ATOM      2  O   UNL A   1      34.754  29.684  27.183  1.00  0.00    -0.376 OA
BRANCH   2   3
ATOM      3  C   UNL A   1      33.422  29.435  26.766  1.00  0.00     0.202 C 
BRANCH   3   4
ATOM      4  C   UNL A   1      33.171  28.785  25.405  1.00  0.00     0.261 C 
BRANCH   4   5
ATOM      5  O   UNL A   1      31.779  28.728  25.057  1.00  0.00    -0.460 OA
BRANCH   5   6
ATOM      6  C   UNL A   1      31.473  27.973  23.971  1.00  0.00     0.338 C 
ATOM      7  O   UNL A   1      31.520  28.337  22.807  1.00  0.00    -0.246 OA
BRANCH   6   8
ATOM      8  C   UNL A   1      31.126  26.582  24.366  1.00  0.00     0.062 A 
ATOM      9  C   UNL A   1      30.768  23.960  25.187  1.00  0.00     0.142 A 
ATOM     10  C   UNL A   1      30.704  24.991  26.128  1.00  0.00     0.049 A 
ATOM     11  C   UNL A   1      30.953  24.221  23.820  1.00  0.00     0.084 A 
ATOM     12  C   UNL A   1      30.935  26.302  25.721  1.00  0.00     0.019 A 
ATOM     13  C   UNL A   1      31.030  25.550  23.420  1.00  0.00     0.045 A 
BRANCH   9  14
ATOM     14  O   UNL A   1      30.638  22.665  25.628  1.00  0.00    -0.495 OA
ATOM     15  C   UNL A   1      29.956  22.638  26.886  1.00  0.00     0.278 C 
ENDBRANCH   9  14
BRANCH  11  16
ATOM     16  N   UNL A   1      31.126  23.107  22.971  1.00  0.00    -0.319 N 
ATOM     17  C   UNL A   1      32.120  22.175  22.789  1.00  0.00     0.262 C 
ATOM     18  H   UNL A   1      30.360  22.965  22.370  1.00  0.00     0.170 HD
ATOM     19  O   UNL A   1      31.963  21.249  21.993  1.00  0.00    -0.269 OA
BRANCH  17  20
ATOM     20  C   UNL A   1      33.430  22.278  23.444  1.00  0.00     0.117 A 
ATOM     21  C   UNL A   1      34.137  23.462  23.176  1.00  0.00     0.021 A 
ATOM     22  C   UNL A   1      33.974  21.340  24.327  1.00  0.00     0.282 A 
ATOM     23  C   UNL A   1      35.322  23.743  23.854  1.00  0.00     0.001 A 
ATOM     24  C   UNL A   1      35.155  21.635  25.030  1.00  0.00     0.086 A 
ATOM     25  C   UNL A   1      35.816  22.845  24.799  1.00  0.00     0.007 A 
BRANCH  22  26
ATOM     26  N   UNL A   1      33.289  20.087  24.621  1.00  0.00     0.063 N 
ATOM     27  O   UNL A   1      33.752  19.059  24.106  1.00  0.00    -0.258 OA
ATOM     28  O   UNL A   1      32.288  20.126  25.344  1.00  0.00    -0.258 OA
ENDBRANCH  22  26
ENDBRANCH  17  20
ENDBRANCH  11  16
ENDBRANCH   6   8
ENDBRANCH   5   6
ENDBRANCH   4   5
ENDBRANCH   3   4
ENDBRANCH   2   3
ENDBRANCH   1   2
BRANCH   1  29
ATOM     29  C   UNL A   1      34.068  32.005  28.031  1.00  0.00     0.188 C 
BRANCH  29  30
ATOM     30  O   UNL A   1      34.417  33.344  28.295  1.00  0.00    -0.376 OA
BRANCH  30  31
ATOM     31  C   UNL A   1      34.923  33.742  29.555  1.00  0.00     0.202 C 
BRANCH  31  32
ATOM     32  C   UNL A   1      34.742  32.978  30.879  1.00  0.00     0.261 C 
BRANCH  32  33
ATOM     33  O   UNL A   1      35.380  31.709  31.006  1.00  0.00    -0.460 OA
BRANCH  33  34
ATOM     34  C   UNL A   1      36.376  31.647  31.926  1.00  0.00     0.338 C 
ATOM     35  O   UNL A   1      36.299  31.920  33.111  1.00  0.00    -0.246 OA
BRANCH  34  36
ATOM     36  C   UNL A   1      37.542  30.991  31.304  1.00  0.00     0.060 A 
ATOM     37  C   UNL A   1      38.384  30.219  32.116  1.00  0.00     0.016 A 
ATOM     38  C   UNL A   1      37.799  31.127  29.939  1.00  0.00     0.016 A 
ATOM     39  C   UNL A   1      39.505  29.597  31.565  1.00  0.00     0.010 A 
ATOM     40  C   UNL A   1      38.935  30.523  29.394  1.00  0.00     0.010 A 
ATOM     41  C   UNL A   1      39.806  29.781  30.210  1.00  0.00    -0.014 A 
BRANCH  41  42
ATOM     42  C   UNL A   1      41.132  29.371  29.686  1.00  0.00     0.031 A 
ATOM     43  C   UNL A   1      42.236  30.392  29.665  1.00  0.00     0.074 A 
ATOM     44  C   UNL A   1      41.357  28.123  29.240  1.00  0.00     0.049 A 
ATOM     45  N   UNL A   1      43.464  30.279  29.231  1.00  0.00    -0.248 NA
ATOM     46  C   UNL A   1      41.905  31.720  30.208  1.00  0.00     0.031 C 
ATOM     47  C   UNL A   1      40.390  27.028  29.255  1.00  0.00     0.029 A 
ATOM     48  N   UNL A   1      42.485  27.572  28.684  1.00  0.00    -0.354 N 
ATOM     49  C   UNL A   1      44.049  31.522  29.438  1.00  0.00     0.074 A 
ATOM     50  C   UNL A   1      43.034  32.380  30.012  1.00  0.00     0.031 C 
ATOM     51  C   UNL A   1      40.968  25.932  28.731  1.00  0.00     0.029 A 
ATOM     52  C   UNL A   1      42.331  26.259  28.313  1.00  0.00     0.049 A 
ATOM     53  H   UNL A   1      43.324  28.072  28.561  1.00  0.00     0.167 HD
ATOM     54  C   UNL A   1      45.318  31.918  29.175  1.00  0.00     0.031 A 
ATOM     55  C   UNL A   1      43.188  25.421  27.695  1.00  0.00     0.031 A 
ATOM     56  C   UNL A   1      46.317  31.077  28.572  1.00  0.00     0.049 A 
ATOM     57  C   UNL A   1      44.563  25.911  27.319  1.00  0.00     0.074 A 
ATOM     58  C   UNL A   1      47.633  31.381  28.276  1.00  0.00     0.029 A 
ATOM     59  N   UNL A   1      46.101  29.772  28.154  1.00  0.00    -0.354 N 
ATOM     60  N   UNL A   1      45.115  27.080  27.546  1.00  0.00    -0.248 NA
ATOM     61  C   UNL A   1      45.432  24.964  26.605  1.00  0.00     0.031 C 
ATOM     62  C   UNL A   1      48.197  30.278  27.624  1.00  0.00     0.029 A 
ATOM     63  C   UNL A   1      47.251  29.267  27.571  1.00  0.00     0.049 A 
ATOM     64  H   UNL A   1      45.256  29.278  28.257  1.00  0.00     0.167 HD
ATOM     65  C   UNL A   1      46.406  26.998  27.030  1.00  0.00     0.074 A 
ATOM     66  C   UNL A   1      46.552  25.664  26.484  1.00  0.00     0.031 C 
ATOM     67  C   UNL A   1      47.383  27.939  27.021  1.00  0.00     0.031 A 
BRANCH  54  68
ATOM     68  C   UNL A   1      45.662  33.349  29.490  1.00  0.00    -0.014 A 
ATOM     69  C   UNL A   1      45.461  34.376  28.549  1.00  0.00     0.010 A 
ATOM     70  C   UNL A   1      46.224  33.666  30.740  1.00  0.00     0.010 A 
ATOM     71  C   UNL A   1      45.878  35.680  28.827  1.00  0.00     0.020 A 
ATOM     72  C   UNL A   1      46.615  34.975  31.033  1.00  0.00     0.020 A 
ATOM     73  C   UNL A   1      46.466  35.968  30.063  1.00  0.00     0.054 A 
BRANCH  73  74
ATOM     74  S   UNL A   1      47.032  37.660  30.387  1.00  0.00     0.124 S 
ATOM     75  O   UNL A   1      45.791  38.421  30.263  1.00  0.00    -0.237 OA
ATOM     76  O   UNL A   1      47.577  37.564  31.739  1.00  0.00    -0.237 OA
ATOM     77  O   UNL A   1      48.019  37.903  29.338  1.00  0.00    -0.744 OA
ENDBRANCH  73  74
ENDBRANCH  54  68
BRANCH  55  78
ATOM     78  C   UNL A   1      42.772  24.024  27.398  1.00  0.00    -0.014 A 
ATOM     79  C   UNL A   1      42.117  23.721  26.192  1.00  0.00     0.010 A 
ATOM     80  C   UNL A   1      43.050  22.985  28.306  1.00  0.00     0.010 A 
ATOM     81  C   UNL A   1      41.748  22.405  25.897  1.00  0.00     0.020 A 
ATOM     82  C   UNL A   1      42.703  21.664  28.005  1.00  0.00     0.020 A 
ATOM     83  C   UNL A   1      42.051  21.384  26.802  1.00  0.00     0.054 A 
BRANCH  83  84
ATOM     84  S   UNL A   1      41.634  19.674  26.359  1.00  0.00     0.124 S 
ATOM     85  O   UNL A   1      40.215  19.783  26.030  1.00  0.00    -0.237 OA
ATOM     86  O   UNL A   1      42.525  19.416  25.231  1.00  0.00    -0.237 OA
ATOM     87  O   UNL A   1      41.939  18.921  27.573  1.00  0.00    -0.744 OA
ENDBRANCH  83  84
ENDBRANCH  55  78
BRANCH  67  88
ATOM     88  C   UNL A   1      48.716  27.557  26.430  1.00  0.00    -0.014 A 
ATOM     89  C   UNL A   1      49.737  27.003  27.221  1.00  0.00     0.010 A 
ATOM     90  C   UNL A   1      48.925  27.700  25.045  1.00  0.00     0.010 A 
ATOM     91  C   UNL A   1      50.952  26.623  26.643  1.00  0.00     0.020 A 
ATOM     92  C   UNL A   1      50.128  27.296  24.459  1.00  0.00     0.020 A 
ATOM     93  C   UNL A   1      51.139  26.772  25.265  1.00  0.00     0.054 A 
BRANCH  93  94
ATOM     94  S   UNL A   1      52.707  26.228  24.531  1.00  0.00     0.124 S 
ATOM     95  O   UNL A   1      52.826  24.865  25.042  1.00  0.00    -0.237 OA
ATOM     96  O   UNL A   1      52.447  26.341  23.098  1.00  0.00    -0.237 OA
ATOM     97  O   UNL A   1      53.685  27.178  25.057  1.00  0.00    -0.744 OA
ENDBRANCH  93  94
ENDBRANCH  67  88
ENDBRANCH  41  42
ENDBRANCH  34  36
ENDBRANCH  33  34
ENDBRANCH  32  33
ENDBRANCH  31  32
ENDBRANCH  30  31
ENDBRANCH  29  30
ENDBRANCH   1  29
TORSDOF 24
ENDMDL
MODEL 3
REMARK VINA RESULT:      -9.4      4.775      9.576
REMARK SMILES COc1ccc(C(=O)OCCOCCOCCOC(=O)c2ccc(-c3c4nc(c(-c5ccc(S(=O)(=O)[O-])cc5)c5ccc([nH]5)c(-c5ccc(S(=O)(=O)[O-])cc5)c5nc(c(-c6ccc(S(=O)(=O)[O-])cc6)c6ccc3[nH]6)C=C5)C=C4)cc2)cc1NC(=O)c1ccccc1[N+](=O)[O-]
REMARK SMILES IDX 13 1 12 2 11 3 10 4 9 5 7 6 8 7 6 8 3 9 4 10 82 11 5 12
REMARK SMILES IDX 81 13 2 14 1 15 83 16 84 17 85 19 86 20 87 21 91 22 88 23
REMARK SMILES IDX 90 24 89 25 92 26 93 27 94 28 14 29 15 30 16 31 17 32 18 33
REMARK SMILES IDX 19 34 20 35 21 36 22 37 80 38 23 39 79 40 24 41 25 42 26 43
REMARK SMILES IDX 73 44 27 45 78 46 72 47 74 48 28 49 77 50 71 51 70 52 29 54
REMARK SMILES IDX 59 55 40 56 58 57 41 58 44 59 57 60 75 61 42 62 43 63 56 65
REMARK SMILES IDX 76 66 45 67 30 68 31 69 39 70 32 71 38 72 33 73 34 74 35 75
REMARK SMILES IDX 36 76 37 77 60 78 61 79 69 80 62 81 68 82 63 83 64 84 65 85
REMARK SMILES IDX 66 86 67 87 46 88 47 89 55 90 48 91 54 92 49 93 50 94 51 95
REMARK SMILES IDX 52 96 53 97
REMARK H PARENT 83 18 74 53 44 64
REMARK Flexibility Score: inf
ROOT
ATOM      1  C   UNL A   1      42.244  21.640  28.412  1.00  0.00     0.188 C 
ENDROOT
BRANCH   1   2
ATOM      2  O   UNL A   1      41.892  21.094  27.152  1.00  0.00    -0.376 OA
BRANCH   2   3
ATOM      3  C   UNL A   1      40.537  21.107  26.735  1.00  0.00     0.202 C 
BRANCH   3   4
ATOM      4  C   UNL A   1      39.917  22.413  26.236  1.00  0.00     0.261 C 
BRANCH   4   5
ATOM      5  O   UNL A   1      38.640  22.225  25.608  1.00  0.00    -0.460 OA
BRANCH   5   6
ATOM      6  C   UNL A   1      37.705  23.172  25.879  1.00  0.00     0.338 C 
ATOM      7  O   UNL A   1      37.908  24.250  26.415  1.00  0.00    -0.246 OA
BRANCH   6   8
ATOM      8  C   UNL A   1      36.368  22.765  25.371  1.00  0.00     0.062 A 
ATOM      9  C   UNL A   1      34.022  21.807  24.249  1.00  0.00     0.142 A 
ATOM     10  C   UNL A   1      34.598  21.128  25.326  1.00  0.00     0.049 A 
ATOM     11  C   UNL A   1      34.571  23.001  23.753  1.00  0.00     0.084 A 
ATOM     12  C   UNL A   1      35.803  21.582  25.854  1.00  0.00     0.019 A 
ATOM     13  C   UNL A   1      35.691  23.514  24.397  1.00  0.00     0.045 A 
BRANCH   9  14
ATOM     14  O   UNL A   1      32.887  21.284  23.679  1.00  0.00    -0.495 OA
ATOM     15  C   UNL A   1      32.588  20.009  24.257  1.00  0.00     0.278 C 
ENDBRANCH   9  14
BRANCH  11  16
ATOM     16  N   UNL A   1      33.986  23.541  22.588  1.00  0.00    -0.319 N 
ATOM     17  C   UNL A   1      33.294  24.692  22.297  1.00  0.00     0.262 C 
ATOM     18  H   UNL A   1      34.098  22.958  21.802  1.00  0.00     0.170 HD
ATOM     19  O   UNL A   1      32.949  24.932  21.140  1.00  0.00    -0.269 OA
BRANCH  17  20
ATOM     20  C   UNL A   1      32.852  25.632  23.335  1.00  0.00     0.117 A 
ATOM     21  C   UNL A   1      33.642  26.786  23.467  1.00  0.00     0.021 A 
ATOM     22  C   UNL A   1      31.710  25.489  24.129  1.00  0.00     0.282 A 
ATOM     23  C   UNL A   1      33.242  27.820  24.313  1.00  0.00     0.001 A 
ATOM     24  C   UNL A   1      31.293  26.542  24.961  1.00  0.00     0.086 A 
ATOM     25  C   UNL A   1      32.057  27.710  25.037  1.00  0.00     0.007 A 
BRANCH  22  26
ATOM     26  N   UNL A   1      30.869  24.301  24.044  1.00  0.00     0.063 N 
ATOM     27  O   UNL A   1      31.016  23.444  24.927  1.00  0.00    -0.258 OA
ATOM     28  O   UNL A   1      30.081  24.211  23.096  1.00  0.00    -0.258 OA
ENDBRANCH  22  26
ENDBRANCH  17  20
ENDBRANCH  11  16
ENDBRANCH   6   8
ENDBRANCH   5   6
ENDBRANCH   4   5
ENDBRANCH   3   4
ENDBRANCH   2   3
ENDBRANCH   1   2
BRANCH   1  29
ATOM     29  C   UNL A   1      43.233  22.821  28.493  1.00  0.00     0.188 C 
BRANCH  29  30
ATOM     30  O   UNL A   1      43.013  23.992  27.743  1.00  0.00    -0.376 OA
BRANCH  30  31
ATOM     31  C   UNL A   1      43.688  24.225  26.521  1.00  0.00     0.202 C 
BRANCH  31  32
ATOM     32  C   UNL A   1      43.038  24.713  25.213  1.00  0.00     0.261 C 
BRANCH  32  33
ATOM     33  O   UNL A   1      41.953  25.633  25.314  1.00  0.00    -0.460 OA
BRANCH  33  34
ATOM     34  C   UNL A   1      42.305  26.943  25.370  1.00  0.00     0.338 C 
ATOM     35  O   UNL A   1      42.540  27.680  24.429  1.00  0.00    -0.246 OA
BRANCH  34  36
ATOM     36  C   UNL A   1      42.157  27.403  26.764  1.00  0.00     0.060 A 
ATOM     37  C   UNL A   1      40.913  27.245  27.391  1.00  0.00     0.016 A 
ATOM     38  C   UNL A   1      43.230  27.977  27.447  1.00  0.00     0.016 A 
ATOM     39  C   UNL A   1      40.733  27.684  28.702  1.00  0.00     0.010 A 
ATOM     40  C   UNL A   1      43.041  28.437  28.753  1.00  0.00     0.010 A 
ATOM     41  C   UNL A   1      41.785  28.319  29.374  1.00  0.00    -0.014 A 
BRANCH  41  42
ATOM     42  C   UNL A   1      41.523  29.039  30.643  1.00  0.00     0.031 A 
ATOM     43  C   UNL A   1      40.357  29.987  30.696  1.00  0.00     0.074 A 
ATOM     44  C   UNL A   1      42.296  28.858  31.728  1.00  0.00     0.049 A 
ATOM     45  N   UNL A   1      39.947  30.746  31.678  1.00  0.00    -0.248 NA
ATOM     46  C   UNL A   1      39.547  30.090  29.471  1.00  0.00     0.031 C 
ATOM     47  C   UNL A   1      43.422  27.931  31.825  1.00  0.00     0.029 A 
ATOM     48  N   UNL A   1      42.244  29.457  32.962  1.00  0.00    -0.354 N 
ATOM     49  C   UNL A   1      38.838  31.426  31.188  1.00  0.00     0.074 A 
ATOM     50  C   UNL A   1      38.657  31.008  29.814  1.00  0.00     0.031 C 
ATOM     51  C   UNL A   1      43.955  28.023  33.056  1.00  0.00     0.029 A 
ATOM     52  C   UNL A   1      43.231  29.039  33.820  1.00  0.00     0.049 A 
ATOM     53  H   UNL A   1      41.564  30.125  33.208  1.00  0.00     0.167 HD
ATOM     54  C   UNL A   1      38.040  32.318  31.822  1.00  0.00     0.031 A 
ATOM     55  C   UNL A   1      43.524  29.440  35.074  1.00  0.00     0.031 A 
ATOM     56  C   UNL A   1      38.241  32.760  33.175  1.00  0.00     0.049 A 
ATOM     57  C   UNL A   1      42.685  30.508  35.726  1.00  0.00     0.074 A 
ATOM     58  C   UNL A   1      37.481  33.651  33.911  1.00  0.00     0.029 A 
ATOM     59  N   UNL A   1      39.289  32.359  33.989  1.00  0.00    -0.354 N 
ATOM     60  N   UNL A   1      41.621  31.122  35.264  1.00  0.00    -0.248 NA
ATOM     61  C   UNL A   1      43.086  30.934  37.075  1.00  0.00     0.031 C 
ATOM     62  C   UNL A   1      38.106  33.835  35.151  1.00  0.00     0.029 A 
ATOM     63  C   UNL A   1      39.218  33.010  35.209  1.00  0.00     0.049 A 
ATOM     64  H   UNL A   1      39.983  31.707  33.737  1.00  0.00     0.167 HD
ATOM     65  C   UNL A   1      41.208  31.984  36.276  1.00  0.00     0.074 A 
ATOM     66  C   UNL A   1      42.134  31.808  37.376  1.00  0.00     0.031 C 
ATOM     67  C   UNL A   1      40.152  32.835  36.295  1.00  0.00     0.031 A 
BRANCH  54  68
ATOM     68  C   UNL A   1      36.914  32.912  31.019  1.00  0.00    -0.014 A 
ATOM     69  C   UNL A   1      37.161  33.787  29.946  1.00  0.00     0.010 A 
ATOM     70  C   UNL A   1      35.584  32.611  31.365  1.00  0.00     0.010 A 
ATOM     71  C   UNL A   1      36.099  34.403  29.277  1.00  0.00     0.020 A 
ATOM     72  C   UNL A   1      34.519  33.202  30.680  1.00  0.00     0.020 A 
ATOM     73  C   UNL A   1      34.785  34.116  29.659  1.00  0.00     0.054 A 
BRANCH  73  74
ATOM     74  S   UNL A   1      33.425  34.955  28.802  1.00  0.00     0.124 S 
ATOM     75  O   UNL A   1      32.310  34.733  29.719  1.00  0.00    -0.237 OA
ATOM     76  O   UNL A   1      33.900  36.333  28.713  1.00  0.00    -0.237 OA
ATOM     77  O   UNL A   1      33.331  34.250  27.526  1.00  0.00    -0.744 OA
ENDBRANCH  73  74
ENDBRANCH  54  68
BRANCH  55  78
ATOM     78  C   UNL A   1      44.665  28.820  35.801  1.00  0.00    -0.014 A 
ATOM     79  C   UNL A   1      45.955  29.368  35.692  1.00  0.00     0.010 A 
ATOM     80  C   UNL A   1      44.466  27.696  36.623  1.00  0.00     0.010 A 
ATOM     81  C   UNL A   1      47.025  28.805  36.395  1.00  0.00     0.020 A 
ATOM     82  C   UNL A   1      45.528  27.144  37.345  1.00  0.00     0.020 A 
ATOM     83  C   UNL A   1      46.803  27.701  37.223  1.00  0.00     0.054 A 
BRANCH  83  84
ATOM     84  S   UNL A   1      48.192  27.040  38.186  1.00  0.00     0.124 S 
ATOM     85  O   UNL A   1      47.507  26.354  39.277  1.00  0.00    -0.237 OA
ATOM     86  O   UNL A   1      48.862  26.177  37.217  1.00  0.00    -0.237 OA
ATOM     87  O   UNL A   1      48.941  28.235  38.570  1.00  0.00    -0.744 OA
ENDBRANCH  83  84
ENDBRANCH  55  78
BRANCH  67  88
ATOM     88  C   UNL A   1      39.912  33.624  37.557  1.00  0.00    -0.014 A 
ATOM     89  C   UNL A   1      40.366  34.947  37.692  1.00  0.00     0.010 A 
ATOM     90  C   UNL A   1      39.165  33.047  38.601  1.00  0.00     0.010 A 
ATOM     91  C   UNL A   1      40.100  35.670  38.858  1.00  0.00     0.020 A 
ATOM     92  C   UNL A   1      38.874  33.776  39.758  1.00  0.00     0.020 A 
ATOM     93  C   UNL A   1      39.355  35.080  39.884  1.00  0.00     0.054 A 
BRANCH  93  94
ATOM     94  S   UNL A   1      38.982  36.054  41.369  1.00  0.00     0.124 S 
ATOM     95  O   UNL A   1      40.196  35.877  42.161  1.00  0.00    -0.237 OA
ATOM     96  O   UNL A   1      38.774  37.395  40.830  1.00  0.00    -0.237 OA
ATOM     97  O   UNL A   1      37.785  35.415  41.912  1.00  0.00    -0.744 OA
ENDBRANCH  93  94
ENDBRANCH  67  88
ENDBRANCH  41  42
ENDBRANCH  34  36
ENDBRANCH  33  34
ENDBRANCH  32  33
ENDBRANCH  31  32
ENDBRANCH  30  31
ENDBRANCH  29  30
ENDBRANCH   1  29
TORSDOF 24
ENDMDL
