MODEL 1
REMARK VINA RESULT:      -9.0      0.000      0.000
REMARK SMILES CN1C(=O)Cc2cc([C@@H](O)CCCCC(=O)OCCOCCOCCOC(=O)c3ccc(-c4c5nc(c(-c6ccc(S(=O)(=O)[O-])cc6)c6ccc([nH]6)c(-c6ccc(S(=O)(=O)[O-])cc6)c6nc(c(-c7ccc(S(=O)(=O)[O-])cc7)c7ccc4[nH]7)C=C6)C=C5)cc3)ccc21
REMARK SMILES IDX 21 1 20 2 19 3 18 4 17 5 15 6 16 7 14 8 13 9 12 10 11 11
REMARK SMILES IDX 9 12 8 13 1 14 2 15 3 16 91 17 4 18 5 19 6 20 90 21 7 22
REMARK SMILES IDX 89 23 10 24 22 26 23 27 24 28 25 29 26 30 27 31 28 32 29 33
REMARK SMILES IDX 30 34 88 35 31 36 87 37 32 38 33 39 34 40 81 41 35 42 86 43
REMARK SMILES IDX 80 44 82 45 36 46 85 47 79 48 78 49 37 51 67 52 48 53 66 54
REMARK SMILES IDX 49 55 52 56 65 57 83 58 50 59 51 60 64 62 84 63 53 64 38 65
REMARK SMILES IDX 39 66 47 67 40 68 46 69 41 70 42 71 43 72 44 73 45 74 68 75
REMARK SMILES IDX 69 76 77 77 70 78 76 79 71 80 72 81 73 82 74 83 75 84 54 85
REMARK SMILES IDX 55 86 63 87 56 88 62 89 57 90 58 91 59 92 60 93 61 94
REMARK H PARENT 10 25 82 50 52 61
REMARK Flexibility Score: inf
ROOT
ATOM      1  C   UNL A   1      32.284  28.467  25.636  1.00  0.00     0.188 C 
ENDROOT
BRANCH   1   2
ATOM      2  O   UNL A   1      30.954  27.988  25.463  1.00  0.00    -0.376 OA
BRANCH   2   3
ATOM      3  C   UNL A   1      30.794  26.577  25.320  1.00  0.00     0.202 C 
BRANCH   3   4
ATOM      4  C   UNL A   1      31.485  25.706  26.379  1.00  0.00     0.261 C 
BRANCH   4   5
ATOM      5  O   UNL A   1      30.799  24.463  26.618  1.00  0.00    -0.463 OA
BRANCH   5   6
ATOM      6  C   UNL A   1      31.103  23.438  25.780  1.00  0.00     0.305 C 
ATOM      7  O   UNL A   1      30.835  23.409  24.585  1.00  0.00    -0.252 OA
BRANCH   6   8
ATOM      8  C   UNL A   1      31.913  22.338  26.442  1.00  0.00     0.123 C 
BRANCH   8   9
ATOM      9  C   UNL A   1      32.612  22.631  27.771  1.00  0.00     0.012 C 
BRANCH   9  10
ATOM     10  C   UNL A   1      34.134  22.487  27.779  1.00  0.00     0.004 C 
BRANCH  10  11
ATOM     11  C   UNL A   1      34.696  21.556  26.702  1.00  0.00     0.037 C 
BRANCH  11  12
ATOM     12  C   UNL A   1      35.645  22.245  25.713  1.00  0.00     0.144 C 
BRANCH  12  13
ATOM     13  C   UNL A   1      34.942  23.288  24.869  1.00  0.00    -0.019 A 
ATOM     14  C   UNL A   1      33.003  27.443  22.368  1.00  0.00     0.153 C 
ATOM     15  N   UNL A   1      33.181  26.019  22.277  1.00  0.00    -0.315 N 
ATOM     16  C   UNL A   1      32.761  25.235  21.200  1.00  0.00     0.231 C 
ATOM     17  C   UNL A   1      33.801  25.241  23.259  1.00  0.00     0.047 A 
ATOM     18  O   UNL A   1      32.185  25.609  20.189  1.00  0.00    -0.274 OA
ATOM     19  C   UNL A   1      33.157  23.789  21.509  1.00  0.00     0.138 C 
ATOM     20  C   UNL A   1      33.793  23.909  22.857  1.00  0.00    -0.014 A 
ATOM     21  C   UNL A   1      34.362  25.633  24.458  1.00  0.00     0.027 A 
ATOM     22  C   UNL A   1      34.342  22.920  23.651  1.00  0.00     0.012 A 
ATOM     23  C   UNL A   1      34.939  24.645  25.265  1.00  0.00     0.008 A 
ENDBRANCH  12  13
BRANCH  12  24
ATOM     24  O   UNL A   1      36.685  22.878  26.459  1.00  0.00    -0.388 OA
ATOM     25  H   UNL A   1      36.408  22.975  27.383  1.00  0.00     0.211 HD
ENDBRANCH  12  24
ENDBRANCH  11  12
ENDBRANCH  10  11
ENDBRANCH   9  10
ENDBRANCH   8   9
ENDBRANCH   6   8
ENDBRANCH   5   6
ENDBRANCH   4   5
ENDBRANCH   3   4
ENDBRANCH   2   3
ENDBRANCH   1   2
BRANCH   1  26
ATOM     26  C   UNL A   1      32.445  29.985  25.722  1.00  0.00     0.188 C 
BRANCH  26  27
ATOM     27  O   UNL A   1      31.834  30.621  26.837  1.00  0.00    -0.376 OA
BRANCH  27  28
ATOM     28  C   UNL A   1      31.240  31.899  26.577  1.00  0.00     0.202 C 
BRANCH  28  29
ATOM     29  C   UNL A   1      32.077  33.145  26.943  1.00  0.00     0.261 C 
BRANCH  29  30
ATOM     30  O   UNL A   1      32.832  33.060  28.172  1.00  0.00    -0.460 OA
BRANCH  30  31
ATOM     31  C   UNL A   1      33.340  34.205  28.687  1.00  0.00     0.338 C 
ATOM     32  O   UNL A   1      32.842  35.315  28.603  1.00  0.00    -0.246 OA
BRANCH  31  33
ATOM     33  C   UNL A   1      34.456  33.858  29.614  1.00  0.00     0.060 A 
ATOM     34  C   UNL A   1      35.767  34.165  29.215  1.00  0.00     0.016 A 
ATOM     35  C   UNL A   1      34.232  33.315  30.884  1.00  0.00     0.016 A 
ATOM     36  C   UNL A   1      36.850  33.889  30.057  1.00  0.00     0.010 A 
ATOM     37  C   UNL A   1      35.319  33.027  31.721  1.00  0.00     0.010 A 
ATOM     38  C   UNL A   1      36.637  33.276  31.299  1.00  0.00    -0.014 A 
BRANCH  38  39
ATOM     39  C   UNL A   1      37.786  32.707  32.054  1.00  0.00     0.031 A 
ATOM     40  C   UNL A   1      38.503  31.519  31.463  1.00  0.00     0.074 A 
ATOM     41  C   UNL A   1      38.214  33.224  33.221  1.00  0.00     0.049 A 
ATOM     42  N   UNL A   1      39.501  30.825  31.945  1.00  0.00    -0.248 NA
ATOM     43  C   UNL A   1      38.024  31.052  30.152  1.00  0.00     0.031 C 
ATOM     44  C   UNL A   1      37.652  34.396  33.889  1.00  0.00     0.029 A 
ATOM     45  N   UNL A   1      39.225  32.815  34.058  1.00  0.00    -0.354 N 
ATOM     46  C   UNL A   1      39.761  29.834  31.005  1.00  0.00     0.074 A 
ATOM     47  C   UNL A   1      38.799  30.000  29.938  1.00  0.00     0.031 C 
ATOM     48  C   UNL A   1      38.320  34.605  35.038  1.00  0.00     0.029 A 
ATOM     49  C   UNL A   1      39.334  33.562  35.207  1.00  0.00     0.049 A 
ATOM     50  H   UNL A   1      39.819  32.056  33.853  1.00  0.00     0.167 HD
ATOM     51  C   UNL A   1      40.713  28.871  31.022  1.00  0.00     0.031 A 
ATOM     52  C   UNL A   1      40.136  33.413  36.282  1.00  0.00     0.031 A 
ATOM     53  C   UNL A   1      41.664  28.688  32.085  1.00  0.00     0.049 A 
ATOM     54  C   UNL A   1      41.141  32.285  36.316  1.00  0.00     0.074 A 
ATOM     55  C   UNL A   1      42.677  27.750  32.177  1.00  0.00     0.029 A 
ATOM     56  N   UNL A   1      41.714  29.445  33.245  1.00  0.00    -0.354 N 
ATOM     57  N   UNL A   1      41.393  31.375  35.405  1.00  0.00    -0.248 NA
ATOM     58  C   UNL A   1      41.974  32.170  37.523  1.00  0.00     0.031 C 
ATOM     59  C   UNL A   1      43.298  27.898  33.421  1.00  0.00     0.029 A 
ATOM     60  C   UNL A   1      42.719  28.975  34.073  1.00  0.00     0.049 A 
ATOM     61  H   UNL A   1      41.122  30.205  33.449  1.00  0.00     0.167 HD
ATOM     62  C   UNL A   1      42.433  30.601  35.917  1.00  0.00     0.074 A 
ATOM     63  C   UNL A   1      42.770  31.156  37.210  1.00  0.00     0.031 C 
ATOM     64  C   UNL A   1      43.054  29.531  35.360  1.00  0.00     0.031 A 
BRANCH  51  65
ATOM     65  C   UNL A   1      40.742  27.906  29.865  1.00  0.00    -0.014 A 
ATOM     66  C   UNL A   1      41.796  27.910  28.935  1.00  0.00     0.010 A 
ATOM     67  C   UNL A   1      39.709  26.963  29.727  1.00  0.00     0.010 A 
ATOM     68  C   UNL A   1      41.794  27.014  27.862  1.00  0.00     0.020 A 
ATOM     69  C   UNL A   1      39.718  26.045  28.673  1.00  0.00     0.020 A 
ATOM     70  C   UNL A   1      40.752  26.090  27.737  1.00  0.00     0.054 A 
BRANCH  70  71
ATOM     71  S   UNL A   1      40.782  24.930  26.343  1.00  0.00     0.124 S 
ATOM     72  O   UNL A   1      41.818  23.987  26.759  1.00  0.00    -0.237 OA
ATOM     73  O   UNL A   1      39.420  24.402  26.337  1.00  0.00    -0.237 OA
ATOM     74  O   UNL A   1      41.128  25.769  25.199  1.00  0.00    -0.744 OA
ENDBRANCH  70  71
ENDBRANCH  51  65
BRANCH  52  75
ATOM     75  C   UNL A   1      40.011  34.341  37.442  1.00  0.00    -0.014 A 
ATOM     76  C   UNL A   1      40.648  35.595  37.439  1.00  0.00     0.010 A 
ATOM     77  C   UNL A   1      39.257  33.964  38.571  1.00  0.00     0.010 A 
ATOM     78  C   UNL A   1      40.542  36.448  38.542  1.00  0.00     0.020 A 
ATOM     79  C   UNL A   1      39.126  34.826  39.663  1.00  0.00     0.020 A 
ATOM     80  C   UNL A   1      39.777  36.060  39.646  1.00  0.00     0.054 A 
BRANCH  80  81
ATOM     81  S   UNL A   1      39.606  37.209  41.041  1.00  0.00     0.124 S 
ATOM     82  O   UNL A   1      40.997  37.450  41.410  1.00  0.00    -0.237 OA
ATOM     83  O   UNL A   1      38.908  38.339  40.432  1.00  0.00    -0.237 OA
ATOM     84  O   UNL A   1      38.821  36.451  42.014  1.00  0.00    -0.744 OA
ENDBRANCH  80  81
ENDBRANCH  52  75
BRANCH  64  85
ATOM     85  C   UNL A   1      44.197  28.902  36.118  1.00  0.00    -0.014 A 
ATOM     86  C   UNL A   1      43.992  27.824  36.997  1.00  0.00     0.010 A 
ATOM     87  C   UNL A   1      45.510  29.357  35.890  1.00  0.00     0.010 A 
ATOM     88  C   UNL A   1      45.076  27.233  37.657  1.00  0.00     0.020 A 
ATOM     89  C   UNL A   1      46.597  28.749  36.523  1.00  0.00     0.020 A 
ATOM     90  C   UNL A   1      46.372  27.699  37.414  1.00  0.00     0.054 A 
BRANCH  90  91
ATOM     91  S   UNL A   1      47.764  26.884  38.245  1.00  0.00     0.124 S 
ATOM     92  O   UNL A   1      48.901  27.334  37.448  1.00  0.00    -0.237 OA
ATOM     93  O   UNL A   1      47.692  27.429  39.599  1.00  0.00    -0.237 OA
ATOM     94  O   UNL A   1      47.450  25.462  38.136  1.00  0.00    -0.744 OA
ENDBRANCH  90  91
ENDBRANCH  64  85
ENDBRANCH  38  39
ENDBRANCH  31  33
ENDBRANCH  30  31
ENDBRANCH  29  30
ENDBRANCH  28  29
ENDBRANCH  27  28
ENDBRANCH  26  27
ENDBRANCH   1  26
TORSDOF 26
ENDMDL
MODEL 2
REMARK VINA RESULT:      -9.0      5.917     10.616
REMARK SMILES CN1C(=O)Cc2cc([C@@H](O)CCCCC(=O)OCCOCCOCCOC(=O)c3ccc(-c4c5nc(c(-c6ccc(S(=O)(=O)[O-])cc6)c6ccc([nH]6)c(-c6ccc(S(=O)(=O)[O-])cc6)c6nc(c(-c7ccc(S(=O)(=O)[O-])cc7)c7ccc4[nH]7)C=C6)C=C5)cc3)ccc21
REMARK SMILES IDX 21 1 20 2 19 3 18 4 17 5 15 6 16 7 14 8 13 9 12 10 11 11
REMARK SMILES IDX 9 12 8 13 1 14 2 15 3 16 91 17 4 18 5 19 6 20 90 21 7 22
REMARK SMILES IDX 89 23 10 24 22 26 23 27 24 28 25 29 26 30 27 31 28 32 29 33
REMARK SMILES IDX 30 34 88 35 31 36 87 37 32 38 33 39 34 40 81 41 35 42 86 43
REMARK SMILES IDX 80 44 82 45 36 46 85 47 79 48 78 49 37 51 67 52 48 53 66 54
REMARK SMILES IDX 49 55 52 56 65 57 83 58 50 59 51 60 64 62 84 63 53 64 38 65
REMARK SMILES IDX 39 66 47 67 40 68 46 69 41 70 42 71 43 72 44 73 45 74 68 75
REMARK SMILES IDX 69 76 77 77 70 78 76 79 71 80 72 81 73 82 74 83 75 84 54 85
REMARK SMILES IDX 55 86 63 87 56 88 62 89 57 90 58 91 59 92 60 93 61 94
REMARK H PARENT 10 25 82 50 52 61
REMARK Flexibility Score: inf
ROOT
ATOM      1  C   UNL A   1      34.162  29.689  27.531  1.00  0.00     0.188 C 
ENDROOT
BRANCH   1   2
ATOM      2  O   UNL A   1      32.764  29.569  27.288  1.00  0.00    -0.376 OA
BRANCH   2   3
ATOM      3  C   UNL A   1      32.312  28.327  26.748  1.00  0.00     0.202 C 
BRANCH   3   4
ATOM      4  C   UNL A   1      33.401  27.309  26.384  1.00  0.00     0.261 C 
BRANCH   4   5
ATOM      5  O   UNL A   1      33.729  27.315  24.982  1.00  0.00    -0.463 OA
BRANCH   5   6
ATOM      6  C   UNL A   1      34.113  26.126  24.449  1.00  0.00     0.305 C 
ATOM      7  O   UNL A   1      34.624  25.209  25.082  1.00  0.00    -0.252 OA
BRANCH   6   8
ATOM      8  C   UNL A   1      33.759  25.979  22.981  1.00  0.00     0.123 C 
BRANCH   8   9
ATOM      9  C   UNL A   1      32.789  26.981  22.350  1.00  0.00     0.012 C 
BRANCH   9  10
ATOM     10  C   UNL A   1      31.372  26.472  22.083  1.00  0.00     0.004 C 
BRANCH  10  11
ATOM     11  C   UNL A   1      30.358  26.793  23.183  1.00  0.00     0.037 C 
BRANCH  11  12
ATOM     12  C   UNL A   1      29.649  25.560  23.760  1.00  0.00     0.144 C 
BRANCH  12  13
ATOM     13  C   UNL A   1      30.620  24.568  24.367  1.00  0.00    -0.019 A 
ATOM     14  C   UNL A   1      33.631  21.378  27.201  1.00  0.00     0.153 C 
ATOM     15  N   UNL A   1      33.092  21.591  25.885  1.00  0.00    -0.315 N 
ATOM     16  C   UNL A   1      33.320  20.755  24.790  1.00  0.00     0.231 C 
ATOM     17  C   UNL A   1      32.267  22.666  25.540  1.00  0.00     0.047 A 
ATOM     18  O   UNL A   1      33.997  19.739  24.759  1.00  0.00    -0.274 OA
ATOM     19  C   UNL A   1      32.555  21.344  23.601  1.00  0.00     0.138 C 
ATOM     20  C   UNL A   1      31.939  22.573  24.191  1.00  0.00    -0.014 A 
ATOM     21  C   UNL A   1      31.798  23.696  26.331  1.00  0.00     0.027 A 
ATOM     22  C   UNL A   1      31.133  23.518  23.585  1.00  0.00     0.012 A 
ATOM     23  C   UNL A   1      30.965  24.651  25.735  1.00  0.00     0.008 A 
ENDBRANCH  12  13
BRANCH  12  24
ATOM     24  O   UNL A   1      28.744  26.000  24.773  1.00  0.00    -0.388 OA
ATOM     25  H   UNL A   1      28.543  26.939  24.643  1.00  0.00     0.211 HD
ENDBRANCH  12  24
ENDBRANCH  11  12
ENDBRANCH  10  11
ENDBRANCH   9  10
ENDBRANCH   8   9
ENDBRANCH   6   8
ENDBRANCH   5   6
ENDBRANCH   4   5
ENDBRANCH   3   4
ENDBRANCH   2   3
ENDBRANCH   1   2
BRANCH   1  26
ATOM     26  C   UNL A   1      34.716  31.113  27.575  1.00  0.00     0.188 C 
BRANCH  26  27
ATOM     27  O   UNL A   1      33.823  32.123  28.027  1.00  0.00    -0.376 OA
BRANCH  27  28
ATOM     28  C   UNL A   1      34.413  33.175  28.800  1.00  0.00     0.202 C 
BRANCH  28  29
ATOM     29  C   UNL A   1      35.955  33.264  28.796  1.00  0.00     0.261 C 
BRANCH  29  30
ATOM     30  O   UNL A   1      36.597  33.190  30.089  1.00  0.00    -0.460 OA
BRANCH  30  31
ATOM     31  C   UNL A   1      36.628  31.990  30.716  1.00  0.00     0.338 C 
ATOM     32  O   UNL A   1      35.723  31.494  31.366  1.00  0.00    -0.246 OA
BRANCH  31  33
ATOM     33  C   UNL A   1      37.834  31.242  30.257  1.00  0.00     0.060 A 
ATOM     34  C   UNL A   1      38.789  30.874  31.217  1.00  0.00     0.016 A 
ATOM     35  C   UNL A   1      38.001  30.835  28.929  1.00  0.00     0.016 A 
ATOM     36  C   UNL A   1      39.926  30.147  30.848  1.00  0.00     0.010 A 
ATOM     37  C   UNL A   1      39.147  30.117  28.558  1.00  0.00     0.010 A 
ATOM     38  C   UNL A   1      40.136  29.801  29.507  1.00  0.00    -0.014 A 
BRANCH  38  39
ATOM     39  C   UNL A   1      41.468  29.306  29.065  1.00  0.00     0.031 A 
ATOM     40  C   UNL A   1      42.607  30.293  29.011  1.00  0.00     0.074 A 
ATOM     41  C   UNL A   1      41.690  28.020  28.736  1.00  0.00     0.049 A 
ATOM     42  N   UNL A   1      43.844  30.115  28.625  1.00  0.00    -0.248 NA
ATOM     43  C   UNL A   1      42.306  31.665  29.452  1.00  0.00     0.031 C 
ATOM     44  C   UNL A   1      40.700  26.946  28.785  1.00  0.00     0.029 A 
ATOM     45  N   UNL A   1      42.833  27.402  28.284  1.00  0.00    -0.354 N 
ATOM     46  C   UNL A   1      44.464  31.352  28.763  1.00  0.00     0.074 A 
ATOM     47  C   UNL A   1      43.461  32.277  29.243  1.00  0.00     0.031 C 
ATOM     48  C   UNL A   1      41.277  25.803  28.367  1.00  0.00     0.029 A 
ATOM     49  C   UNL A   1      42.665  26.069  27.989  1.00  0.00     0.049 A 
ATOM     50  H   UNL A   1      43.692  27.871  28.182  1.00  0.00     0.167 HD
ATOM     51  C   UNL A   1      45.751  31.694  28.515  1.00  0.00     0.031 A 
ATOM     52  C   UNL A   1      43.520  25.172  27.454  1.00  0.00     0.031 A 
ATOM     53  C   UNL A   1      46.752  30.786  28.024  1.00  0.00     0.049 A 
ATOM     54  C   UNL A   1      44.931  25.592  27.114  1.00  0.00     0.074 A 
ATOM     55  C   UNL A   1      48.086  31.040  27.763  1.00  0.00     0.029 A 
ATOM     56  N   UNL A   1      46.529  29.455  27.706  1.00  0.00    -0.354 N 
ATOM     57  N   UNL A   1      45.509  26.759  27.278  1.00  0.00    -0.248 NA
ATOM     58  C   UNL A   1      45.806  24.570  26.520  1.00  0.00     0.031 C 
ATOM     59  C   UNL A   1      48.655  29.881  27.226  1.00  0.00     0.029 A 
ATOM     60  C   UNL A   1      47.693  28.884  27.220  1.00  0.00     0.049 A 
ATOM     61  H   UNL A   1      45.669  28.986  27.810  1.00  0.00     0.167 HD
ATOM     62  C   UNL A   1      46.821  26.599  26.838  1.00  0.00     0.074 A 
ATOM     63  C   UNL A   1      46.955  25.224  26.411  1.00  0.00     0.031 C 
ATOM     64  C   UNL A   1      47.824  27.512  26.798  1.00  0.00     0.031 A 
BRANCH  51  65
ATOM     65  C   UNL A   1      46.139  33.133  28.733  1.00  0.00    -0.014 A 
ATOM     66  C   UNL A   1      45.940  34.104  27.736  1.00  0.00     0.010 A 
ATOM     67  C   UNL A   1      46.686  33.521  29.969  1.00  0.00     0.010 A 
ATOM     68  C   UNL A   1      46.321  35.430  27.958  1.00  0.00     0.020 A 
ATOM     69  C   UNL A   1      47.040  34.851  30.205  1.00  0.00     0.020 A 
ATOM     70  C   UNL A   1      46.872  35.794  29.190  1.00  0.00     0.054 A 
BRANCH  70  71
ATOM     71  S   UNL A   1      47.344  37.525  29.454  1.00  0.00     0.124 S 
ATOM     72  O   UNL A   1      46.162  38.059  30.127  1.00  0.00    -0.237 OA
ATOM     73  O   UNL A   1      48.539  37.407  30.285  1.00  0.00    -0.237 OA
ATOM     74  O   UNL A   1      47.574  38.034  28.104  1.00  0.00    -0.744 OA
ENDBRANCH  70  71
ENDBRANCH  51  65
BRANCH  52  75
ATOM     75  C   UNL A   1      43.064  23.780  27.175  1.00  0.00    -0.014 A 
ATOM     76  C   UNL A   1      42.446  23.452  25.955  1.00  0.00     0.010 A 
ATOM     77  C   UNL A   1      43.235  22.772  28.143  1.00  0.00     0.010 A 
ATOM     78  C   UNL A   1      42.000  22.149  25.713  1.00  0.00     0.020 A 
ATOM     79  C   UNL A   1      42.817  21.462  27.893  1.00  0.00     0.020 A 
ATOM     80  C   UNL A   1      42.193  21.160  26.682  1.00  0.00     0.054 A 
BRANCH  80  81
ATOM     81  S   UNL A   1      41.661  19.463  26.321  1.00  0.00     0.124 S 
ATOM     82  O   UNL A   1      41.992  18.769  27.562  1.00  0.00    -0.237 OA
ATOM     83  O   UNL A   1      40.235  19.634  26.052  1.00  0.00    -0.237 OA
ATOM     84  O   UNL A   1      42.467  19.091  25.160  1.00  0.00    -0.744 OA
ENDBRANCH  80  81
ENDBRANCH  52  75
BRANCH  64  85
ATOM     85  C   UNL A   1      49.179  27.055  26.314  1.00  0.00    -0.014 A 
ATOM     86  C   UNL A   1      49.620  27.316  25.006  1.00  0.00     0.010 A 
ATOM     87  C   UNL A   1      50.052  26.413  27.214  1.00  0.00     0.010 A 
ATOM     88  C   UNL A   1      50.896  26.917  24.596  1.00  0.00     0.020 A 
ATOM     89  C   UNL A   1      51.339  26.040  26.817  1.00  0.00     0.020 A 
ATOM     90  C   UNL A   1      51.749  26.283  25.505  1.00  0.00     0.054 A 
BRANCH  90  91
ATOM     91  S   UNL A   1      53.417  25.817  24.963  1.00  0.00     0.124 S 
ATOM     92  O   UNL A   1      53.468  26.378  23.617  1.00  0.00    -0.237 OA
ATOM     93  O   UNL A   1      54.270  26.474  25.951  1.00  0.00    -0.237 OA
ATOM     94  O   UNL A   1      53.409  24.357  25.030  1.00  0.00    -0.744 OA
ENDBRANCH  90  91
ENDBRANCH  64  85
ENDBRANCH  38  39
ENDBRANCH  31  33
ENDBRANCH  30  31
ENDBRANCH  29  30
ENDBRANCH  28  29
ENDBRANCH  27  28
ENDBRANCH  26  27
ENDBRANCH   1  26
TORSDOF 26
ENDMDL
MODEL 3
REMARK VINA RESULT:      -8.1      5.829     11.696
REMARK SMILES CN1C(=O)Cc2cc([C@@H](O)CCCCC(=O)OCCOCCOCCOC(=O)c3ccc(-c4c5nc(c(-c6ccc(S(=O)(=O)[O-])cc6)c6ccc([nH]6)c(-c6ccc(S(=O)(=O)[O-])cc6)c6nc(c(-c7ccc(S(=O)(=O)[O-])cc7)c7ccc4[nH]7)C=C6)C=C5)cc3)ccc21
REMARK SMILES IDX 21 1 20 2 19 3 18 4 17 5 15 6 16 7 14 8 13 9 12 10 11 11
REMARK SMILES IDX 9 12 8 13 1 14 2 15 3 16 91 17 4 18 5 19 6 20 90 21 7 22
REMARK SMILES IDX 89 23 10 24 22 26 23 27 24 28 25 29 26 30 27 31 28 32 29 33
REMARK SMILES IDX 30 34 88 35 31 36 87 37 32 38 33 39 34 40 81 41 35 42 86 43
REMARK SMILES IDX 80 44 82 45 36 46 85 47 79 48 78 49 37 51 67 52 48 53 66 54
REMARK SMILES IDX 49 55 52 56 65 57 83 58 50 59 51 60 64 62 84 63 53 64 38 65
REMARK SMILES IDX 39 66 47 67 40 68 46 69 41 70 42 71 43 72 44 73 45 74 68 75
REMARK SMILES IDX 69 76 77 77 70 78 76 79 71 80 72 81 73 82 74 83 75 84 54 85
REMARK SMILES IDX 55 86 63 87 56 88 62 89 57 90 58 91 59 92 60 93 61 94
REMARK H PARENT 10 25 82 50 52 61
REMARK Flexibility Score: inf
ROOT
ATOM      1  C   UNL A   1      47.954  25.221  25.555  1.00  0.00     0.188 C 
ENDROOT
BRANCH   1   2
ATOM      2  O   UNL A   1      46.555  24.965  25.475  1.00  0.00    -0.376 OA
BRANCH   2   3
ATOM      3  C   UNL A   1      45.685  26.044  25.817  1.00  0.00     0.202 C 
BRANCH   3   4
ATOM      4  C   UNL A   1      45.035  25.977  27.206  1.00  0.00     0.261 C 
BRANCH   4   5
ATOM      5  O   UNL A   1      44.303  27.171  27.541  1.00  0.00    -0.463 OA
BRANCH   5   6
ATOM      6  C   UNL A   1      43.583  27.131  28.692  1.00  0.00     0.305 C 
ATOM      7  O   UNL A   1      43.517  26.164  29.442  1.00  0.00    -0.252 OA
BRANCH   6   8
ATOM      8  C   UNL A   1      42.924  28.454  29.037  1.00  0.00     0.123 C 
BRANCH   8   9
ATOM      9  C   UNL A   1      41.885  28.494  30.159  1.00  0.00     0.012 C 
BRANCH   9  10
ATOM     10  C   UNL A   1      40.582  29.231  29.846  1.00  0.00     0.004 C 
BRANCH  10  11
ATOM     11  C   UNL A   1      40.029  28.988  28.440  1.00  0.00     0.037 C 
BRANCH  11  12
ATOM     12  C   UNL A   1      39.237  27.682  28.296  1.00  0.00     0.144 C 
BRANCH  12  13
ATOM     13  C   UNL A   1      40.041  26.591  27.620  1.00  0.00    -0.019 A 
ATOM     14  C   UNL A   1      43.201  23.460  24.881  1.00  0.00     0.153 C 
ATOM     15  N   UNL A   1      42.403  23.538  26.075  1.00  0.00    -0.315 N 
ATOM     16  C   UNL A   1      42.277  22.511  27.013  1.00  0.00     0.231 C 
ATOM     17  C   UNL A   1      41.653  24.659  26.447  1.00  0.00     0.047 A 
ATOM     18  O   UNL A   1      42.798  21.406  26.979  1.00  0.00    -0.274 OA
ATOM     19  C   UNL A   1      41.350  23.018  28.122  1.00  0.00     0.138 C 
ATOM     20  C   UNL A   1      40.996  24.391  27.644  1.00  0.00    -0.014 A 
ATOM     21  C   UNL A   1      41.525  25.875  25.806  1.00  0.00     0.027 A 
ATOM     22  C   UNL A   1      40.177  25.333  28.236  1.00  0.00     0.012 A 
ATOM     23  C   UNL A   1      40.713  26.847  26.403  1.00  0.00     0.008 A 
ENDBRANCH  12  13
BRANCH  12  24
ATOM     24  O   UNL A   1      38.865  27.240  29.602  1.00  0.00    -0.388 OA
ATOM     25  H   UNL A   1      38.265  26.482  29.529  1.00  0.00     0.211 HD
ENDBRANCH  12  24
ENDBRANCH  11  12
ENDBRANCH  10  11
ENDBRANCH   9  10
ENDBRANCH   8   9
ENDBRANCH   6   8
ENDBRANCH   5   6
ENDBRANCH   4   5
ENDBRANCH   3   4
ENDBRANCH   2   3
ENDBRANCH   1   2
BRANCH   1  26
ATOM     26  C   UNL A   1      48.576  25.124  26.949  1.00  0.00     0.188 C 
BRANCH  26  27
ATOM     27  O   UNL A   1      49.968  25.397  27.038  1.00  0.00    -0.376 OA
BRANCH  27  28
ATOM     28  C   UNL A   1      50.623  25.707  25.802  1.00  0.00     0.202 C 
BRANCH  28  29
ATOM     29  C   UNL A   1      51.883  26.597  25.884  1.00  0.00     0.261 C 
BRANCH  29  30
ATOM     30  O   UNL A   1      51.692  27.911  26.453  1.00  0.00    -0.460 OA
BRANCH  30  31
ATOM     31  C   UNL A   1      50.921  28.794  25.774  1.00  0.00     0.338 C 
ATOM     32  O   UNL A   1      51.024  29.077  24.591  1.00  0.00    -0.246 OA
BRANCH  31  33
ATOM     33  C   UNL A   1      49.749  29.157  26.621  1.00  0.00     0.060 A 
ATOM     34  C   UNL A   1      49.970  29.977  27.739  1.00  0.00     0.016 A 
ATOM     35  C   UNL A   1      48.444  28.775  26.295  1.00  0.00     0.016 A 
ATOM     36  C   UNL A   1      48.903  30.373  28.553  1.00  0.00     0.010 A 
ATOM     37  C   UNL A   1      47.377  29.162  27.119  1.00  0.00     0.010 A 
ATOM     38  C   UNL A   1      47.603  29.931  28.274  1.00  0.00    -0.014 A 
BRANCH  38  39
ATOM     39  C   UNL A   1      46.529  30.090  29.291  1.00  0.00     0.031 A 
ATOM     40  C   UNL A   1      45.712  31.358  29.266  1.00  0.00     0.074 A 
ATOM     41  C   UNL A   1      46.252  29.143  30.207  1.00  0.00     0.049 A 
ATOM     42  N   UNL A   1      44.752  31.746  30.065  1.00  0.00    -0.248 NA
ATOM     43  C   UNL A   1      46.025  32.316  28.192  1.00  0.00     0.031 C 
ATOM     44  C   UNL A   1      46.923  27.851  30.324  1.00  0.00     0.029 A 
ATOM     45  N   UNL A   1      45.329  29.135  31.226  1.00  0.00    -0.354 N 
ATOM     46  C   UNL A   1      44.357  32.996  29.601  1.00  0.00     0.074 A 
ATOM     47  C   UNL A   1      45.197  33.312  28.467  1.00  0.00     0.031 C 
ATOM     48  C   UNL A   1      46.396  27.179  31.364  1.00  0.00     0.029 A 
ATOM     49  C   UNL A   1      45.375  28.005  32.009  1.00  0.00     0.049 A 
ATOM     50  H   UNL A   1      44.692  29.869  31.380  1.00  0.00     0.167 HD
ATOM     51  C   UNL A   1      43.382  33.810  30.070  1.00  0.00     0.031 A 
ATOM     52  C   UNL A   1      44.694  27.682  33.129  1.00  0.00     0.031 A 
ATOM     53  C   UNL A   1      42.551  33.512  31.205  1.00  0.00     0.049 A 
ATOM     54  C   UNL A   1      43.663  28.639  33.681  1.00  0.00     0.074 A 
ATOM     55  C   UNL A   1      41.525  34.271  31.740  1.00  0.00     0.029 A 
ATOM     56  N   UNL A   1      42.657  32.373  31.989  1.00  0.00    -0.354 N 
ATOM     57  N   UNL A   1      43.281  29.803  33.213  1.00  0.00    -0.248 NA
ATOM     58  C   UNL A   1      42.968  28.232  34.912  1.00  0.00     0.031 C 
ATOM     59  C   UNL A   1      41.053  33.622  32.885  1.00  0.00     0.029 A 
ATOM     60  C   UNL A   1      41.737  32.424  33.023  1.00  0.00     0.049 A 
ATOM     61  H   UNL A   1      43.292  31.637  31.833  1.00  0.00     0.167 HD
ATOM     62  C   UNL A   1      42.281  30.250  34.073  1.00  0.00     0.074 A 
ATOM     63  C   UNL A   1      42.109  29.228  35.083  1.00  0.00     0.031 C 
ATOM     64  C   UNL A   1      41.567  31.402  34.026  1.00  0.00     0.031 A 
BRANCH  51  65
ATOM     65  C   UNL A   1      43.192  35.133  29.376  1.00  0.00    -0.014 A 
ATOM     66  C   UNL A   1      42.398  35.247  28.220  1.00  0.00     0.010 A 
ATOM     67  C   UNL A   1      43.796  36.286  29.908  1.00  0.00     0.010 A 
ATOM     68  C   UNL A   1      42.248  36.483  27.586  1.00  0.00     0.020 A 
ATOM     69  C   UNL A   1      43.623  37.529  29.295  1.00  0.00     0.020 A 
ATOM     70  C   UNL A   1      42.865  37.615  28.126  1.00  0.00     0.054 A 
BRANCH  70  71
ATOM     71  S   UNL A   1      42.641  39.209  27.290  1.00  0.00     0.124 S 
ATOM     72  O   UNL A   1      41.415  38.979  26.529  1.00  0.00    -0.237 OA
ATOM     73  O   UNL A   1      42.520  40.142  28.407  1.00  0.00    -0.237 OA
ATOM     74  O   UNL A   1      43.853  39.355  26.488  1.00  0.00    -0.744 OA
ENDBRANCH  70  71
ENDBRANCH  51  65
BRANCH  52  75
ATOM     75  C   UNL A   1      44.979  26.398  33.831  1.00  0.00    -0.014 A 
ATOM     76  C   UNL A   1      46.030  26.300  34.761  1.00  0.00     0.010 A 
ATOM     77  C   UNL A   1      44.202  25.256  33.561  1.00  0.00     0.010 A 
ATOM     78  C   UNL A   1      46.304  25.085  35.397  1.00  0.00     0.020 A 
ATOM     79  C   UNL A   1      44.454  24.047  34.216  1.00  0.00     0.020 A 
ATOM     80  C   UNL A   1      45.511  23.967  35.125  1.00  0.00     0.054 A 
BRANCH  80  81
ATOM     81  S   UNL A   1      45.847  22.417  36.007  1.00  0.00     0.124 S 
ATOM     82  O   UNL A   1      45.390  22.729  37.357  1.00  0.00    -0.237 OA
ATOM     83  O   UNL A   1      45.033  21.454  35.269  1.00  0.00    -0.237 OA
ATOM     84  O   UNL A   1      47.291  22.245  35.858  1.00  0.00    -0.744 OA
ENDBRANCH  80  81
ENDBRANCH  52  75
BRANCH  64  85
ATOM     85  C   UNL A   1      40.497  31.617  35.068  1.00  0.00    -0.014 A 
ATOM     86  C   UNL A   1      39.273  30.926  35.020  1.00  0.00     0.010 A 
ATOM     87  C   UNL A   1      40.754  32.475  36.155  1.00  0.00     0.010 A 
ATOM     88  C   UNL A   1      38.315  31.114  36.021  1.00  0.00     0.020 A 
ATOM     89  C   UNL A   1      39.811  32.641  37.173  1.00  0.00     0.020 A 
ATOM     90  C   UNL A   1      38.591  31.969  37.093  1.00  0.00     0.054 A 
BRANCH  90  91
ATOM     91  S   UNL A   1      37.350  32.159  38.403  1.00  0.00     0.124 S 
ATOM     92  O   UNL A   1      38.137  32.743  39.486  1.00  0.00    -0.237 OA
ATOM     93  O   UNL A   1      36.369  33.050  37.789  1.00  0.00    -0.237 OA
ATOM     94  O   UNL A   1      36.882  30.796  38.639  1.00  0.00    -0.744 OA
ENDBRANCH  90  91
ENDBRANCH  64  85
ENDBRANCH  38  39
ENDBRANCH  31  33
ENDBRANCH  30  31
ENDBRANCH  29  30
ENDBRANCH  28  29
ENDBRANCH  27  28
ENDBRANCH  26  27
ENDBRANCH   1  26
TORSDOF 26
ENDMDL
