MODEL 1
REMARK VINA RESULT:     -10.1      0.000      0.000
REMARK SMILES O=C(OCCOCCOCCOC(=O)c1cc(Br)ccc1N1CC2(CCCCC2)C1)c1ccc(-c2c3nc(c(-c4ccc(S(=O)(=O)[O-])cc4)c4ccc([nH]4)c(-c4ccc(S(=O)(=O)[O-])cc4)c4nc(c(-c5ccc(S(=O)(=O)[O-])cc5)c5ccc2[nH]5)C=C4)C=C3)cc1
REMARK SMILES IDX 7 1 6 2 5 3 4 4 3 5 2 6 1 7 31 8 32 9 90 10 33 11 89 12
REMARK SMILES IDX 34 13 35 14 36 15 83 16 37 17 88 18 82 19 84 20 38 21 87 22
REMARK SMILES IDX 81 23 80 24 39 26 69 27 50 28 68 29 51 30 54 31 67 32 85 33
REMARK SMILES IDX 52 34 53 35 66 37 86 38 55 39 40 40 41 41 49 42 42 43 48 44
REMARK SMILES IDX 43 45 44 46 45 47 46 48 47 49 70 50 71 51 79 52 72 53 78 54
REMARK SMILES IDX 73 55 74 56 75 57 76 58 77 59 56 60 57 61 65 62 58 63 64 64
REMARK SMILES IDX 59 65 60 66 61 67 62 68 63 69 8 70 9 71 10 72 11 73 12 74
REMARK SMILES IDX 13 75 14 76 15 77 16 78 21 79 17 80 20 81 18 82 19 83 22 84
REMARK SMILES IDX 23 85 30 86 24 87 25 88 29 89 26 90 28 91 27 92
REMARK H PARENT 84 25 54 36
REMARK Flexibility Score: inf
ROOT
ATOM      1  C   UNL A   1      40.259  21.980  26.549  1.00  0.00     0.188 C 
ENDROOT
BRANCH   1   2
ATOM      2  O   UNL A   1      41.602  22.174  26.963  1.00  0.00    -0.376 OA
BRANCH   2   3
ATOM      3  C   UNL A   1      42.601  21.927  25.985  1.00  0.00     0.202 C 
BRANCH   3   4
ATOM      4  C   UNL A   1      43.060  23.141  25.143  1.00  0.00     0.261 C 
BRANCH   4   5
ATOM      5  O   UNL A   1      42.682  24.415  25.701  1.00  0.00    -0.460 OA
BRANCH   5   6
ATOM      6  C   UNL A   1      43.406  25.151  26.584  1.00  0.00     0.338 C 
ATOM      7  O   UNL A   1      44.616  24.959  26.668  1.00  0.00    -0.246 OA
BRANCH   6   8
ATOM      8  C   UNL A   1      42.762  26.070  27.580  1.00  0.00     0.060 A 
ATOM      9  C   UNL A   1      43.277  27.304  27.961  1.00  0.00     0.016 A 
ATOM     10  C   UNL A   1      41.547  25.660  28.172  1.00  0.00     0.016 A 
ATOM     11  C   UNL A   1      42.677  28.067  28.949  1.00  0.00     0.010 A 
ATOM     12  C   UNL A   1      40.913  26.440  29.152  1.00  0.00     0.010 A 
ATOM     13  C   UNL A   1      41.512  27.629  29.573  1.00  0.00    -0.014 A 
BRANCH  13  14
ATOM     14  C   UNL A   1      41.113  28.378  30.782  1.00  0.00     0.031 A 
ATOM     15  C   UNL A   1      42.031  28.326  31.971  1.00  0.00     0.074 A 
ATOM     16  C   UNL A   1      40.126  29.288  30.689  1.00  0.00     0.049 A 
ATOM     17  N   UNL A   1      42.024  29.062  33.051  1.00  0.00    -0.248 NA
ATOM     18  C   UNL A   1      43.132  27.347  31.919  1.00  0.00     0.031 C 
ATOM     19  C   UNL A   1      39.276  29.492  29.511  1.00  0.00     0.029 A 
ATOM     20  N   UNL A   1      39.722  30.262  31.563  1.00  0.00    -0.354 N 
ATOM     21  C   UNL A   1      43.124  28.647  33.794  1.00  0.00     0.074 A 
ATOM     22  C   UNL A   1      43.761  27.578  33.061  1.00  0.00     0.031 C 
ATOM     23  C   UNL A   1      38.480  30.554  29.724  1.00  0.00     0.029 A 
ATOM     24  C   UNL A   1      38.730  31.072  31.062  1.00  0.00     0.049 A 
ATOM     25  H   UNL A   1      40.106  30.371  32.463  1.00  0.00     0.167 HD
ATOM     26  C   UNL A   1      43.566  29.124  34.980  1.00  0.00     0.031 A 
ATOM     27  C   UNL A   1      38.090  32.111  31.633  1.00  0.00     0.031 A 
ATOM     28  C   UNL A   1      42.892  30.162  35.709  1.00  0.00     0.049 A 
ATOM     29  C   UNL A   1      38.519  32.533  33.010  1.00  0.00     0.074 A 
ATOM     30  C   UNL A   1      43.172  30.657  36.969  1.00  0.00     0.029 A 
ATOM     31  N   UNL A   1      41.797  30.868  35.231  1.00  0.00    -0.354 N 
ATOM     32  N   UNL A   1      39.515  32.076  33.736  1.00  0.00    -0.248 NA
ATOM     33  C   UNL A   1      37.743  33.602  33.646  1.00  0.00     0.031 C 
ATOM     34  C   UNL A   1      42.212  31.630  37.273  1.00  0.00     0.029 A 
ATOM     35  C   UNL A   1      41.373  31.781  36.178  1.00  0.00     0.049 A 
ATOM     36  H   UNL A   1      41.382  30.737  34.348  1.00  0.00     0.167 HD
ATOM     37  C   UNL A   1      39.485  32.805  34.916  1.00  0.00     0.074 A 
ATOM     38  C   UNL A   1      38.396  33.756  34.789  1.00  0.00     0.031 C 
ATOM     39  C   UNL A   1      40.273  32.697  36.015  1.00  0.00     0.031 A 
BRANCH  26  40
ATOM     40  C   UNL A   1      44.785  28.473  35.574  1.00  0.00    -0.014 A 
ATOM     41  C   UNL A   1      46.073  28.990  35.346  1.00  0.00     0.010 A 
ATOM     42  C   UNL A   1      44.640  27.320  36.366  1.00  0.00     0.010 A 
ATOM     43  C   UNL A   1      47.197  28.347  35.874  1.00  0.00     0.020 A 
ATOM     44  C   UNL A   1      45.760  26.686  36.912  1.00  0.00     0.020 A 
ATOM     45  C   UNL A   1      47.033  27.195  36.650  1.00  0.00     0.054 A 
BRANCH  45  46
ATOM     46  S   UNL A   1      48.507  26.385  37.332  1.00  0.00     0.124 S 
ATOM     47  O   UNL A   1      48.521  25.120  36.601  1.00  0.00    -0.237 OA
ATOM     48  O   UNL A   1      49.574  27.322  36.987  1.00  0.00    -0.237 OA
ATOM     49  O   UNL A   1      48.215  26.277  38.759  1.00  0.00    -0.744 OA
ENDBRANCH  45  46
ENDBRANCH  26  40
BRANCH  27  50
ATOM     50  C   UNL A   1      36.932  32.757  30.955  1.00  0.00    -0.014 A 
ATOM     51  C   UNL A   1      35.606  32.371  31.215  1.00  0.00     0.010 A 
ATOM     52  C   UNL A   1      37.170  33.754  29.991  1.00  0.00     0.010 A 
ATOM     53  C   UNL A   1      34.545  32.954  30.507  1.00  0.00     0.020 A 
ATOM     54  C   UNL A   1      36.115  34.355  29.301  1.00  0.00     0.020 A 
ATOM     55  C   UNL A   1      34.808  33.941  29.551  1.00  0.00     0.054 A 
BRANCH  55  56
ATOM     56  S   UNL A   1      33.427  34.709  28.660  1.00  0.00     0.124 S 
ATOM     57  O   UNL A   1      32.485  34.984  29.740  1.00  0.00    -0.237 OA
ATOM     58  O   UNL A   1      34.052  35.881  28.052  1.00  0.00    -0.237 OA
ATOM     59  O   UNL A   1      33.014  33.674  27.715  1.00  0.00    -0.744 OA
ENDBRANCH  55  56
ENDBRANCH  27  50
BRANCH  39  60
ATOM     60  C   UNL A   1      39.980  33.637  37.148  1.00  0.00    -0.014 A 
ATOM     61  C   UNL A   1      40.421  34.971  37.111  1.00  0.00     0.010 A 
ATOM     62  C   UNL A   1      39.229  33.185  38.247  1.00  0.00     0.010 A 
ATOM     63  C   UNL A   1      40.153  35.828  38.180  1.00  0.00     0.020 A 
ATOM     64  C   UNL A   1      38.934  34.047  39.303  1.00  0.00     0.020 A 
ATOM     65  C   UNL A   1      39.414  35.358  39.270  1.00  0.00     0.054 A 
BRANCH  65  66
ATOM     66  S   UNL A   1      39.056  36.496  40.635  1.00  0.00     0.124 S 
ATOM     67  O   UNL A   1      40.341  36.550  41.326  1.00  0.00    -0.237 OA
ATOM     68  O   UNL A   1      38.663  37.719  39.940  1.00  0.00    -0.237 OA
ATOM     69  O   UNL A   1      37.981  35.829  41.366  1.00  0.00    -0.744 OA
ENDBRANCH  65  66
ENDBRANCH  39  60
ENDBRANCH  13  14
ENDBRANCH   6   8
ENDBRANCH   5   6
ENDBRANCH   4   5
ENDBRANCH   3   4
ENDBRANCH   2   3
ENDBRANCH   1   2
BRANCH   1  70
ATOM     70  C   UNL A   1      39.252  23.123  26.727  1.00  0.00     0.188 C 
BRANCH  70  71
ATOM     71  O   UNL A   1      38.106  23.174  25.903  1.00  0.00    -0.376 OA
BRANCH  71  72
ATOM     72  C   UNL A   1      37.677  21.962  25.301  1.00  0.00     0.202 C 
BRANCH  72  73
ATOM     73  C   UNL A   1      36.535  22.037  24.281  1.00  0.00     0.261 C 
BRANCH  73  74
ATOM     74  O   UNL A   1      35.645  23.162  24.448  1.00  0.00    -0.460 OA
BRANCH  74  75
ATOM     75  C   UNL A   1      34.469  23.108  23.766  1.00  0.00     0.340 C 
ATOM     76  O   UNL A   1      34.329  23.088  22.550  1.00  0.00    -0.246 OA
BRANCH  75  77
ATOM     77  C   UNL A   1      33.334  23.235  24.702  1.00  0.00     0.084 A 
ATOM     78  C   UNL A   1      32.878  24.549  24.908  1.00  0.00     0.033 A 
ATOM     79  C   UNL A   1      32.607  22.128  25.201  1.00  0.00     0.051 A 
ATOM     80  C   UNL A   1      31.685  24.764  25.586  1.00  0.00     0.018 A 
ATOM     81  C   UNL A   1      31.440  22.391  25.938  1.00  0.00     0.028 A 
ATOM     82  Br  UNL A   1      30.966  26.504  25.700  1.00  0.00    -0.051 Br
ATOM     83  C   UNL A   1      30.974  23.695  26.119  1.00  0.00     0.018 A 
BRANCH  79  84
ATOM     84  N   UNL A   1      32.972  20.787  24.932  1.00  0.00    -0.370 N 
ATOM     85  C   UNL A   1      32.978  19.705  25.885  1.00  0.00     0.125 C 
ATOM     86  C   UNL A   1      32.328  19.920  23.957  1.00  0.00     0.125 C 
ATOM     87  C   UNL A   1      33.037  18.738  24.670  1.00  0.00     0.005 C 
ATOM     88  C   UNL A   1      32.277  17.429  24.903  1.00  0.00     0.011 C 
ATOM     89  C   UNL A   1      34.381  18.467  23.964  1.00  0.00     0.011 C 
ATOM     90  C   UNL A   1      33.154  16.431  25.672  1.00  0.00     0.001 C 
ATOM     91  C   UNL A   1      35.229  17.474  24.745  1.00  0.00     0.001 C 
ATOM     92  C   UNL A   1      34.481  16.168  24.965  1.00  0.00     0.000 C 
ENDBRANCH  79  84
ENDBRANCH  75  77
ENDBRANCH  74  75
ENDBRANCH  73  74
ENDBRANCH  72  73
ENDBRANCH  71  72
ENDBRANCH  70  71
ENDBRANCH   1  70
TORSDOF 21
ENDMDL
MODEL 2
REMARK VINA RESULT:      -9.8      2.028      3.722
REMARK SMILES O=C(OCCOCCOCCOC(=O)c1cc(Br)ccc1N1CC2(CCCCC2)C1)c1ccc(-c2c3nc(c(-c4ccc(S(=O)(=O)[O-])cc4)c4ccc([nH]4)c(-c4ccc(S(=O)(=O)[O-])cc4)c4nc(c(-c5ccc(S(=O)(=O)[O-])cc5)c5ccc2[nH]5)C=C4)C=C3)cc1
REMARK SMILES IDX 7 1 6 2 5 3 4 4 3 5 2 6 1 7 31 8 32 9 90 10 33 11 89 12
REMARK SMILES IDX 34 13 35 14 36 15 83 16 37 17 88 18 82 19 84 20 38 21 87 22
REMARK SMILES IDX 81 23 80 24 39 26 69 27 50 28 68 29 51 30 54 31 67 32 85 33
REMARK SMILES IDX 52 34 53 35 66 37 86 38 55 39 40 40 41 41 49 42 42 43 48 44
REMARK SMILES IDX 43 45 44 46 45 47 46 48 47 49 70 50 71 51 79 52 72 53 78 54
REMARK SMILES IDX 73 55 74 56 75 57 76 58 77 59 56 60 57 61 65 62 58 63 64 64
REMARK SMILES IDX 59 65 60 66 61 67 62 68 63 69 8 70 9 71 10 72 11 73 12 74
REMARK SMILES IDX 13 75 14 76 15 77 16 78 21 79 17 80 20 81 18 82 19 83 22 84
REMARK SMILES IDX 23 85 30 86 24 87 25 88 29 89 26 90 28 91 27 92
REMARK H PARENT 84 25 54 36
REMARK Flexibility Score: inf
ROOT
ATOM      1  C   UNL A   1      39.356  21.668  26.052  1.00  0.00     0.188 C 
ENDROOT
BRANCH   1   2
ATOM      2  O   UNL A   1      40.769  21.740  26.143  1.00  0.00    -0.376 OA
BRANCH   2   3
ATOM      3  C   UNL A   1      41.291  22.707  27.043  1.00  0.00     0.202 C 
BRANCH   3   4
ATOM      4  C   UNL A   1      42.221  23.784  26.435  1.00  0.00     0.261 C 
BRANCH   4   5
ATOM      5  O   UNL A   1      42.125  25.070  27.080  1.00  0.00    -0.460 OA
BRANCH   5   6
ATOM      6  C   UNL A   1      41.047  25.896  27.066  1.00  0.00     0.338 C 
ATOM      7  O   UNL A   1      40.417  26.035  26.020  1.00  0.00    -0.246 OA
BRANCH   6   8
ATOM      8  C   UNL A   1      40.694  26.774  28.230  1.00  0.00     0.060 A 
ATOM      9  C   UNL A   1      41.298  27.996  28.507  1.00  0.00     0.016 A 
ATOM     10  C   UNL A   1      39.677  26.336  29.107  1.00  0.00     0.016 A 
ATOM     11  C   UNL A   1      40.984  28.717  29.646  1.00  0.00     0.010 A 
ATOM     12  C   UNL A   1      39.328  27.075  30.247  1.00  0.00     0.010 A 
ATOM     13  C   UNL A   1      40.023  28.251  30.540  1.00  0.00    -0.014 A 
BRANCH  13  14
ATOM     14  C   UNL A   1      39.962  28.951  31.838  1.00  0.00     0.031 A 
ATOM     15  C   UNL A   1      41.125  28.788  32.777  1.00  0.00     0.074 A 
ATOM     16  C   UNL A   1      39.039  29.915  32.017  1.00  0.00     0.049 A 
ATOM     17  N   UNL A   1      41.413  29.463  33.858  1.00  0.00    -0.248 NA
ATOM     18  C   UNL A   1      42.120  27.758  32.429  1.00  0.00     0.031 C 
ATOM     19  C   UNL A   1      37.954  30.226  31.079  1.00  0.00     0.029 A 
ATOM     20  N   UNL A   1      38.909  30.859  33.000  1.00  0.00    -0.354 N 
ATOM     21  C   UNL A   1      42.627  28.952  34.305  1.00  0.00     0.074 A 
ATOM     22  C   UNL A   1      43.009  27.893  33.401  1.00  0.00     0.031 C 
ATOM     23  C   UNL A   1      37.297  31.314  31.515  1.00  0.00     0.029 A 
ATOM     24  C   UNL A   1      37.881  31.745  32.779  1.00  0.00     0.049 A 
ATOM     25  H   UNL A   1      39.496  30.899  33.789  1.00  0.00     0.167 HD
ATOM     26  C   UNL A   1      43.359  29.340  35.374  1.00  0.00     0.031 A 
ATOM     27  C   UNL A   1      37.456  32.783  33.526  1.00  0.00     0.031 A 
ATOM     28  C   UNL A   1      42.938  30.370  36.282  1.00  0.00     0.049 A 
ATOM     29  C   UNL A   1      38.218  33.105  34.781  1.00  0.00     0.074 A 
ATOM     30  C   UNL A   1      43.532  30.781  37.462  1.00  0.00     0.029 A 
ATOM     31  N   UNL A   1      41.808  31.156  36.103  1.00  0.00    -0.354 N 
ATOM     32  N   UNL A   1      39.323  32.559  35.234  1.00  0.00    -0.248 NA
ATOM     33  C   UNL A   1      37.677  34.177  35.624  1.00  0.00     0.031 C 
ATOM     34  C   UNL A   1      42.731  31.783  38.021  1.00  0.00     0.029 A 
ATOM     35  C   UNL A   1      41.673  32.037  37.160  1.00  0.00     0.049 A 
ATOM     36  H   UNL A   1      41.193  31.095  35.337  1.00  0.00     0.167 HD
ATOM     37  C   UNL A   1      39.612  33.224  36.418  1.00  0.00     0.074 A 
ATOM     38  C   UNL A   1      38.585  34.234  36.588  1.00  0.00     0.031 C 
ATOM     39  C   UNL A   1      40.625  33.015  37.297  1.00  0.00     0.031 A 
BRANCH  26  40
ATOM     40  C   UNL A   1      44.639  28.597  35.639  1.00  0.00    -0.014 A 
ATOM     41  C   UNL A   1      45.861  29.027  35.092  1.00  0.00     0.010 A 
ATOM     42  C   UNL A   1      44.618  27.442  36.443  1.00  0.00     0.010 A 
ATOM     43  C   UNL A   1      47.034  28.299  35.317  1.00  0.00     0.020 A 
ATOM     44  C   UNL A   1      45.792  26.723  36.686  1.00  0.00     0.020 A 
ATOM     45  C   UNL A   1      46.990  27.147  36.110  1.00  0.00     0.054 A 
BRANCH  45  46
ATOM     46  S   UNL A   1      48.527  26.226  36.395  1.00  0.00     0.124 S 
ATOM     47  O   UNL A   1      48.673  26.325  37.846  1.00  0.00    -0.237 OA
ATOM     48  O   UNL A   1      48.201  24.896  35.886  1.00  0.00    -0.237 OA
ATOM     49  O   UNL A   1      49.522  26.960  35.618  1.00  0.00    -0.744 OA
ENDBRANCH  45  46
ENDBRANCH  26  40
BRANCH  27  50
ATOM     50  C   UNL A   1      36.216  33.523  33.165  1.00  0.00    -0.014 A 
ATOM     51  C   UNL A   1      34.936  32.978  33.367  1.00  0.00     0.010 A 
ATOM     52  C   UNL A   1      36.324  34.789  32.560  1.00  0.00     0.010 A 
ATOM     53  C   UNL A   1      33.793  33.676  32.951  1.00  0.00     0.020 A 
ATOM     54  C   UNL A   1      35.187  35.499  32.166  1.00  0.00     0.020 A 
ATOM     55  C   UNL A   1      33.927  34.931  32.350  1.00  0.00     0.054 A 
BRANCH  55  56
ATOM     56  S   UNL A   1      32.441  35.839  31.840  1.00  0.00     0.124 S 
ATOM     57  O   UNL A   1      31.433  35.305  32.751  1.00  0.00    -0.237 OA
ATOM     58  O   UNL A   1      32.824  37.230  32.065  1.00  0.00    -0.237 OA
ATOM     59  O   UNL A   1      32.279  35.466  30.437  1.00  0.00    -0.744 OA
ENDBRANCH  55  56
ENDBRANCH  27  50
BRANCH  39  60
ATOM     60  C   UNL A   1      40.660  33.906  38.505  1.00  0.00    -0.014 A 
ATOM     61  C   UNL A   1      41.373  35.117  38.487  1.00  0.00     0.010 A 
ATOM     62  C   UNL A   1      39.947  33.537  39.658  1.00  0.00     0.010 A 
ATOM     63  C   UNL A   1      41.409  35.926  39.624  1.00  0.00     0.020 A 
ATOM     64  C   UNL A   1      39.956  34.358  40.786  1.00  0.00     0.020 A 
ATOM     65  C   UNL A   1      40.702  35.538  40.767  1.00  0.00     0.054 A 
BRANCH  65  66
ATOM     66  S   UNL A   1      40.741  36.616  42.223  1.00  0.00     0.124 S 
ATOM     67  O   UNL A   1      40.791  35.647  43.315  1.00  0.00    -0.237 OA
ATOM     68  O   UNL A   1      41.961  37.393  42.015  1.00  0.00    -0.237 OA
ATOM     69  O   UNL A   1      39.500  37.379  42.121  1.00  0.00    -0.744 OA
ENDBRANCH  65  66
ENDBRANCH  39  60
ENDBRANCH  13  14
ENDBRANCH   6   8
ENDBRANCH   5   6
ENDBRANCH   4   5
ENDBRANCH   3   4
ENDBRANCH   2   3
ENDBRANCH   1   2
BRANCH   1  70
ATOM     70  C   UNL A   1      38.536  22.958  26.176  1.00  0.00     0.188 C 
BRANCH  70  71
ATOM     71  O   UNL A   1      37.237  23.013  25.622  1.00  0.00    -0.376 OA
BRANCH  71  72
ATOM     72  C   UNL A   1      37.011  22.305  24.412  1.00  0.00     0.202 C 
BRANCH  72  73
ATOM     73  C   UNL A   1      36.286  23.041  23.280  1.00  0.00     0.261 C 
BRANCH  73  74
ATOM     74  O   UNL A   1      35.276  23.978  23.713  1.00  0.00    -0.460 OA
BRANCH  74  75
ATOM     75  C   UNL A   1      34.084  23.927  23.058  1.00  0.00     0.340 C 
ATOM     76  O   UNL A   1      33.771  24.564  22.060  1.00  0.00    -0.246 OA
BRANCH  75  77
ATOM     77  C   UNL A   1      33.126  23.096  23.813  1.00  0.00     0.084 A 
ATOM     78  C   UNL A   1      33.187  21.719  23.536  1.00  0.00     0.033 A 
ATOM     79  C   UNL A   1      32.345  23.587  24.886  1.00  0.00     0.051 A 
ATOM     80  C   UNL A   1      32.494  20.825  24.342  1.00  0.00     0.018 A 
ATOM     81  C   UNL A   1      31.607  22.656  25.638  1.00  0.00     0.028 A 
ATOM     82  Br  UNL A   1      32.722  18.968  24.103  1.00  0.00    -0.051 Br
ATOM     83  C   UNL A   1      31.691  21.286  25.379  1.00  0.00     0.018 A 
BRANCH  79  84
ATOM     84  N   UNL A   1      32.332  24.951  25.265  1.00  0.00    -0.370 N 
ATOM     85  C   UNL A   1      33.384  25.645  25.965  1.00  0.00     0.125 C 
ATOM     86  C   UNL A   1      32.203  26.076  24.351  1.00  0.00     0.125 C 
ATOM     87  C   UNL A   1      32.703  26.968  25.518  1.00  0.00     0.005 C 
ATOM     88  C   UNL A   1      33.702  28.095  25.235  1.00  0.00     0.011 C 
ATOM     89  C   UNL A   1      31.481  27.507  26.290  1.00  0.00     0.011 C 
ATOM     90  C   UNL A   1      34.095  28.801  26.541  1.00  0.00     0.001 C 
ATOM     91  C   UNL A   1      31.898  28.203  27.577  1.00  0.00     0.001 C 
ATOM     92  C   UNL A   1      32.879  29.331  27.296  1.00  0.00     0.000 C 
ENDBRANCH  79  84
ENDBRANCH  75  77
ENDBRANCH  74  75
ENDBRANCH  73  74
ENDBRANCH  72  73
ENDBRANCH  71  72
ENDBRANCH  70  71
ENDBRANCH   1  70
TORSDOF 21
ENDMDL
MODEL 3
REMARK VINA RESULT:      -9.6      5.863     10.471
REMARK SMILES O=C(OCCOCCOCCOC(=O)c1cc(Br)ccc1N1CC2(CCCCC2)C1)c1ccc(-c2c3nc(c(-c4ccc(S(=O)(=O)[O-])cc4)c4ccc([nH]4)c(-c4ccc(S(=O)(=O)[O-])cc4)c4nc(c(-c5ccc(S(=O)(=O)[O-])cc5)c5ccc2[nH]5)C=C4)C=C3)cc1
REMARK SMILES IDX 7 1 6 2 5 3 4 4 3 5 2 6 1 7 31 8 32 9 90 10 33 11 89 12
REMARK SMILES IDX 34 13 35 14 36 15 83 16 37 17 88 18 82 19 84 20 38 21 87 22
REMARK SMILES IDX 81 23 80 24 39 26 69 27 50 28 68 29 51 30 54 31 67 32 85 33
REMARK SMILES IDX 52 34 53 35 66 37 86 38 55 39 40 40 41 41 49 42 42 43 48 44
REMARK SMILES IDX 43 45 44 46 45 47 46 48 47 49 70 50 71 51 79 52 72 53 78 54
REMARK SMILES IDX 73 55 74 56 75 57 76 58 77 59 56 60 57 61 65 62 58 63 64 64
REMARK SMILES IDX 59 65 60 66 61 67 62 68 63 69 8 70 9 71 10 72 11 73 12 74
REMARK SMILES IDX 13 75 14 76 15 77 16 78 21 79 17 80 20 81 18 82 19 83 22 84
REMARK SMILES IDX 23 85 30 86 24 87 25 88 29 89 26 90 28 91 27 92
REMARK H PARENT 84 25 54 36
REMARK Flexibility Score: inf
ROOT
ATOM      1  C   UNL A   1      40.789  21.629  27.602  1.00  0.00     0.188 C 
ENDROOT
BRANCH   1   2
ATOM      2  O   UNL A   1      40.774  20.219  27.756  1.00  0.00    -0.376 OA
BRANCH   2   3
ATOM      3  C   UNL A   1      42.015  19.554  27.564  1.00  0.00     0.202 C 
BRANCH   3   4
ATOM      4  C   UNL A   1      42.237  18.892  26.184  1.00  0.00     0.261 C 
BRANCH   4   5
ATOM      5  O   UNL A   1      42.675  19.808  25.161  1.00  0.00    -0.460 OA
BRANCH   5   6
ATOM      6  C   UNL A   1      43.854  20.483  25.139  1.00  0.00     0.338 C 
ATOM      7  O   UNL A   1      44.886  19.871  24.876  1.00  0.00    -0.246 OA
BRANCH   6   8
ATOM      8  C   UNL A   1      43.970  21.911  25.587  1.00  0.00     0.060 A 
ATOM      9  C   UNL A   1      43.588  23.009  24.824  1.00  0.00     0.016 A 
ATOM     10  C   UNL A   1      44.498  22.161  26.872  1.00  0.00     0.016 A 
ATOM     11  C   UNL A   1      43.800  24.305  25.264  1.00  0.00     0.010 A 
ATOM     12  C   UNL A   1      44.688  23.470  27.341  1.00  0.00     0.010 A 
ATOM     13  C   UNL A   1      44.378  24.547  26.507  1.00  0.00    -0.014 A 
BRANCH  13  14
ATOM     14  C   UNL A   1      44.800  25.940  26.756  1.00  0.00     0.031 A 
ATOM     15  C   UNL A   1      43.909  26.799  27.610  1.00  0.00     0.074 A 
ATOM     16  C   UNL A   1      46.066  26.300  26.469  1.00  0.00     0.049 A 
ATOM     17  N   UNL A   1      44.158  27.961  28.153  1.00  0.00    -0.248 NA
ATOM     18  C   UNL A   1      42.576  26.259  27.932  1.00  0.00     0.031 C 
ATOM     19  C   UNL A   1      47.039  25.462  25.760  1.00  0.00     0.029 A 
ATOM     20  N   UNL A   1      46.774  27.422  26.805  1.00  0.00    -0.354 N 
ATOM     21  C   UNL A   1      43.023  28.279  28.892  1.00  0.00     0.074 A 
ATOM     22  C   UNL A   1      42.073  27.207  28.708  1.00  0.00     0.031 C 
ATOM     23  C   UNL A   1      48.229  26.086  25.751  1.00  0.00     0.029 A 
ATOM     24  C   UNL A   1      48.091  27.380  26.408  1.00  0.00     0.049 A 
ATOM     25  H   UNL A   1      46.379  28.186  27.284  1.00  0.00     0.167 HD
ATOM     26  C   UNL A   1      42.800  29.368  29.663  1.00  0.00     0.031 A 
ATOM     27  C   UNL A   1      49.069  28.294  26.554  1.00  0.00     0.031 A 
ATOM     28  C   UNL A   1      43.746  30.440  29.800  1.00  0.00     0.049 A 
ATOM     29  C   UNL A   1      48.748  29.555  27.306  1.00  0.00     0.074 A 
ATOM     30  C   UNL A   1      43.598  31.646  30.459  1.00  0.00     0.029 A 
ATOM     31  N   UNL A   1      45.026  30.427  29.263  1.00  0.00    -0.354 N 
ATOM     32  N   UNL A   1      47.640  29.877  27.935  1.00  0.00    -0.248 NA
ATOM     33  C   UNL A   1      49.801  30.574  27.367  1.00  0.00     0.031 C 
ATOM     34  C   UNL A   1      44.774  32.384  30.276  1.00  0.00     0.029 A 
ATOM     35  C   UNL A   1      45.674  31.611  29.556  1.00  0.00     0.049 A 
ATOM     36  H   UNL A   1      45.415  29.683  28.748  1.00  0.00     0.167 HD
ATOM     37  C   UNL A   1      47.864  31.139  28.468  1.00  0.00     0.074 A 
ATOM     38  C   UNL A   1      49.225  31.502  28.118  1.00  0.00     0.031 C 
ATOM     39  C   UNL A   1      47.024  31.937  29.173  1.00  0.00     0.031 A 
BRANCH  26  40
ATOM     40  C   UNL A   1      41.464  29.467  30.346  1.00  0.00    -0.014 A 
ATOM     41  C   UNL A   1      41.311  29.134  31.704  1.00  0.00     0.010 A 
ATOM     42  C   UNL A   1      40.340  29.891  29.614  1.00  0.00     0.010 A 
ATOM     43  C   UNL A   1      40.052  29.194  32.310  1.00  0.00     0.020 A 
ATOM     44  C   UNL A   1      39.084  29.972  30.222  1.00  0.00     0.020 A 
ATOM     45  C   UNL A   1      38.945  29.609  31.563  1.00  0.00     0.054 A 
BRANCH  45  46
ATOM     46  S   UNL A   1      37.324  29.688  32.375  1.00  0.00     0.124 S 
ATOM     47  O   UNL A   1      37.422  30.940  33.122  1.00  0.00    -0.237 OA
ATOM     48  O   UNL A   1      36.400  29.703  31.243  1.00  0.00    -0.237 OA
ATOM     49  O   UNL A   1      37.285  28.478  33.191  1.00  0.00    -0.744 OA
ENDBRANCH  45  46
ENDBRANCH  26  40
BRANCH  27  50
ATOM     50  C   UNL A   1      50.397  28.098  25.909  1.00  0.00    -0.014 A 
ATOM     51  C   UNL A   1      50.607  28.354  24.543  1.00  0.00     0.010 A 
ATOM     52  C   UNL A   1      51.465  27.597  26.675  1.00  0.00     0.010 A 
ATOM     53  C   UNL A   1      51.852  28.092  23.954  1.00  0.00     0.020 A 
ATOM     54  C   UNL A   1      52.715  27.358  26.099  1.00  0.00     0.020 A 
ATOM     55  C   UNL A   1      52.898  27.592  24.737  1.00  0.00     0.054 A 
BRANCH  55  56
ATOM     56  S   UNL A   1      54.514  27.283  23.973  1.00  0.00     0.124 S 
ATOM     57  O   UNL A   1      54.339  27.869  22.648  1.00  0.00    -0.237 OA
ATOM     58  O   UNL A   1      55.429  27.992  24.863  1.00  0.00    -0.237 OA
ATOM     59  O   UNL A   1      54.632  25.827  24.005  1.00  0.00    -0.744 OA
ENDBRANCH  55  56
ENDBRANCH  27  50
BRANCH  39  60
ATOM     60  C   UNL A   1      47.567  33.267  29.608  1.00  0.00    -0.014 A 
ATOM     61  C   UNL A   1      47.408  34.409  28.805  1.00  0.00     0.010 A 
ATOM     62  C   UNL A   1      48.219  33.376  30.849  1.00  0.00     0.010 A 
ATOM     63  C   UNL A   1      47.934  35.635  29.217  1.00  0.00     0.020 A 
ATOM     64  C   UNL A   1      48.718  34.606  31.278  1.00  0.00     0.020 A 
ATOM     65  C   UNL A   1      48.588  35.723  30.450  1.00  0.00     0.054 A 
BRANCH  65  66
ATOM     66  S   UNL A   1      49.240  37.330  30.977  1.00  0.00     0.124 S 
ATOM     67  O   UNL A   1      48.618  37.493  32.288  1.00  0.00    -0.237 OA
ATOM     68  O   UNL A   1      50.683  37.103  30.989  1.00  0.00    -0.237 OA
ATOM     69  O   UNL A   1      48.769  38.249  29.944  1.00  0.00    -0.744 OA
ENDBRANCH  65  66
ENDBRANCH  39  60
ENDBRANCH  13  14
ENDBRANCH   6   8
ENDBRANCH   5   6
ENDBRANCH   4   5
ENDBRANCH   3   4
ENDBRANCH   2   3
ENDBRANCH   1   2
BRANCH   1  70
ATOM     70  C   UNL A   1      39.799  22.281  26.630  1.00  0.00     0.188 C 
BRANCH  70  71
ATOM     71  O   UNL A   1      39.057  21.469  25.744  1.00  0.00    -0.376 OA
BRANCH  71  72
ATOM     72  C   UNL A   1      37.882  22.025  25.173  1.00  0.00     0.202 C 
BRANCH  72  73
ATOM     73  C   UNL A   1      36.574  21.890  25.961  1.00  0.00     0.261 C 
BRANCH  73  74
ATOM     74  O   UNL A   1      35.554  22.851  25.614  1.00  0.00    -0.460 OA
BRANCH  74  75
ATOM     75  C   UNL A   1      34.272  22.509  25.916  1.00  0.00     0.340 C 
ATOM     76  O   UNL A   1      33.732  22.592  27.012  1.00  0.00    -0.246 OA
BRANCH  75  77
ATOM     77  C   UNL A   1      33.634  21.859  24.754  1.00  0.00     0.084 A 
ATOM     78  C   UNL A   1      33.574  20.456  24.817  1.00  0.00     0.033 A 
ATOM     79  C   UNL A   1      32.942  22.570  23.746  1.00  0.00     0.051 A 
ATOM     80  C   UNL A   1      32.803  19.759  23.895  1.00  0.00     0.018 A 
ATOM     81  C   UNL A   1      32.227  21.825  22.793  1.00  0.00     0.028 A 
ATOM     82  Br  UNL A   1      32.558  17.899  24.087  1.00  0.00    -0.051 Br
ATOM     83  C   UNL A   1      32.145  20.432  22.873  1.00  0.00     0.018 A 
BRANCH  79  84
ATOM     84  N   UNL A   1      32.891  23.984  23.702  1.00  0.00    -0.370 N 
ATOM     85  C   UNL A   1      33.874  24.849  23.097  1.00  0.00     0.125 C 
ATOM     86  C   UNL A   1      31.830  24.768  23.088  1.00  0.00     0.125 C 
ATOM     87  C   UNL A   1      32.805  25.974  23.150  1.00  0.00     0.005 C 
ATOM     88  C   UNL A   1      32.888  26.942  21.965  1.00  0.00     0.011 C 
ATOM     89  C   UNL A   1      32.559  26.744  24.464  1.00  0.00     0.011 C 
ATOM     90  C   UNL A   1      33.954  28.015  22.226  1.00  0.00     0.001 C 
ATOM     91  C   UNL A   1      33.627  27.802  24.697  1.00  0.00     0.001 C 
ATOM     92  C   UNL A   1      33.701  28.773  23.528  1.00  0.00     0.000 C 
ENDBRANCH  79  84
ENDBRANCH  75  77
ENDBRANCH  74  75
ENDBRANCH  73  74
ENDBRANCH  72  73
ENDBRANCH  71  72
ENDBRANCH  70  71
ENDBRANCH   1  70
TORSDOF 21
ENDMDL
