MODEL 1
REMARK VINA RESULT:      -9.4      0.000      0.000
REMARK SMILES O=C(OCCOCCOCCOC(=O)c1cn(C2C[NH+](CCC[C@@H]3CCCO3)C2)nn1)c1ccc(-c2c3nc(c(-c4ccc(S(=O)(=O)[O-])cc4)c4ccc([nH]4)c(-c4ccc(S(=O)(=O)[O-])cc4)c4nc(c(-c5ccc(S(=O)(=O)[O-])cc5)c5ccc2[nH]5)C=C4)C=C3)cc1
REMARK SMILES IDX 8 1 7 2 6 3 5 4 4 5 3 6 2 7 1 8 32 9 33 10 91 11 34 12 90 13
REMARK SMILES IDX 35 14 36 15 37 16 84 17 38 18 89 19 83 20 85 21 39 22 88 23
REMARK SMILES IDX 82 24 81 25 40 27 70 28 51 29 69 30 52 31 55 32 68 33 86 34
REMARK SMILES IDX 53 35 54 36 67 38 87 39 56 40 41 41 42 42 50 43 43 44 49 45
REMARK SMILES IDX 44 46 45 47 46 48 47 49 48 50 71 51 72 52 80 53 73 54 79 55
REMARK SMILES IDX 74 56 75 57 76 58 77 59 78 60 57 61 58 62 66 63 59 64 65 65
REMARK SMILES IDX 60 66 61 67 62 68 63 69 64 70 9 71 10 72 11 73 12 74 13 75
REMARK SMILES IDX 14 76 15 77 16 78 31 79 17 80 30 81 18 82 19 83 29 84 20 85
REMARK SMILES IDX 21 87 22 88 23 89 24 90 25 91 28 92 26 93 27 94
REMARK H PARENT 85 26 55 37 20 86
REMARK Flexibility Score: inf
ROOT
ATOM      1  C   UNL A   1      32.906  35.859  29.153  1.00  0.00     0.188 C 
ENDROOT
BRANCH   1   2
ATOM      2  C   UNL A   1      32.769  36.071  30.684  1.00  0.00     0.188 C 
BRANCH   2   3
ATOM      3  O   UNL A   1      33.767  36.913  31.250  1.00  0.00    -0.376 OA
BRANCH   3   4
ATOM      4  C   UNL A   1      33.712  37.191  32.640  1.00  0.00     0.202 C 
BRANCH   4   5
ATOM      5  C   UNL A   1      34.279  36.142  33.604  1.00  0.00     0.261 C 
BRANCH   5   6
ATOM      6  O   UNL A   1      35.143  35.156  33.028  1.00  0.00    -0.460 OA
BRANCH   6   7
ATOM      7  C   UNL A   1      35.359  33.864  33.333  1.00  0.00     0.338 C 
ATOM      8  O   UNL A   1      34.862  33.412  34.363  1.00  0.00    -0.246 OA
BRANCH   7   9
ATOM      9  C   UNL A   1      36.284  32.988  32.575  1.00  0.00     0.060 A 
ATOM     10  C   UNL A   1      36.251  31.593  32.567  1.00  0.00     0.016 A 
ATOM     11  C   UNL A   1      37.330  33.659  31.910  1.00  0.00     0.016 A 
ATOM     12  C   UNL A   1      37.336  30.885  32.083  1.00  0.00     0.010 A 
ATOM     13  C   UNL A   1      38.408  32.957  31.412  1.00  0.00     0.010 A 
ATOM     14  C   UNL A   1      38.443  31.582  31.608  1.00  0.00    -0.014 A 
BRANCH  14  15
ATOM     15  C   UNL A   1      39.664  30.827  31.387  1.00  0.00     0.031 A 
ATOM     16  C   UNL A   1      40.518  30.658  32.589  1.00  0.00     0.074 A 
ATOM     17  C   UNL A   1      39.914  30.290  30.176  1.00  0.00     0.049 A 
ATOM     18  N   UNL A   1      41.732  31.059  32.777  1.00  0.00    -0.248 NA
ATOM     19  C   UNL A   1      39.881  30.094  33.792  1.00  0.00     0.031 C 
ATOM     20  C   UNL A   1      39.005  30.209  29.024  1.00  0.00     0.029 A 
ATOM     21  N   UNL A   1      40.987  29.570  29.759  1.00  0.00    -0.354 N 
ATOM     22  C   UNL A   1      42.090  30.599  34.043  1.00  0.00     0.074 A 
ATOM     23  C   UNL A   1      40.869  30.177  34.681  1.00  0.00     0.031 C 
ATOM     24  C   UNL A   1      39.449  29.256  28.175  1.00  0.00     0.029 A 
ATOM     25  C   UNL A   1      40.732  28.772  28.649  1.00  0.00     0.049 A 
ATOM     26  H   UNL A   1      41.866  29.610  30.202  1.00  0.00     0.167 HD
ATOM     27  C   UNL A   1      43.387  30.354  34.381  1.00  0.00     0.031 A 
ATOM     28  C   UNL A   1      41.473  27.717  28.222  1.00  0.00     0.031 A 
ATOM     29  C   UNL A   1      44.305  31.026  33.501  1.00  0.00     0.049 A 
ATOM     30  C   UNL A   1      42.817  27.854  28.838  1.00  0.00     0.074 A 
ATOM     31  C   UNL A   1      44.559  32.347  33.189  1.00  0.00     0.029 A 
ATOM     32  N   UNL A   1      44.884  30.282  32.499  1.00  0.00    -0.354 N 
ATOM     33  N   UNL A   1      43.635  28.832  28.563  1.00  0.00    -0.248 NA
ATOM     34  C   UNL A   1      43.056  27.183  30.108  1.00  0.00     0.031 C 
ATOM     35  C   UNL A   1      44.842  32.344  31.793  1.00  0.00     0.029 A 
ATOM     36  C   UNL A   1      44.814  31.020  31.347  1.00  0.00     0.049 A 
ATOM     37  H   UNL A   1      45.274  29.383  32.593  1.00  0.00     0.167 HD
ATOM     38  C   UNL A   1      44.202  29.179  29.782  1.00  0.00     0.074 A 
ATOM     39  C   UNL A   1      43.876  28.070  30.680  1.00  0.00     0.031 C 
ATOM     40  C   UNL A   1      44.636  30.451  30.028  1.00  0.00     0.031 A 
BRANCH  27  41
ATOM     41  C   UNL A   1      43.798  29.163  35.218  1.00  0.00    -0.014 A 
ATOM     42  C   UNL A   1      44.713  29.360  36.273  1.00  0.00     0.010 A 
ATOM     43  C   UNL A   1      43.563  27.830  34.820  1.00  0.00     0.010 A 
ATOM     44  C   UNL A   1      45.432  28.287  36.819  1.00  0.00     0.020 A 
ATOM     45  C   UNL A   1      44.240  26.751  35.387  1.00  0.00     0.020 A 
ATOM     46  C   UNL A   1      45.206  26.993  36.352  1.00  0.00     0.054 A 
BRANCH  46  47
ATOM     47  S   UNL A   1      46.248  25.639  36.945  1.00  0.00     0.124 S 
ATOM     48  O   UNL A   1      45.462  25.127  38.063  1.00  0.00    -0.237 OA
ATOM     49  O   UNL A   1      46.324  24.774  35.772  1.00  0.00    -0.237 OA
ATOM     50  O   UNL A   1      47.498  26.304  37.307  1.00  0.00    -0.744 OA
ENDBRANCH  46  47
ENDBRANCH  27  41
BRANCH  28  51
ATOM     51  C   UNL A   1      40.951  26.438  27.670  1.00  0.00    -0.014 A 
ATOM     52  C   UNL A   1      41.440  25.903  26.464  1.00  0.00     0.010 A 
ATOM     53  C   UNL A   1      40.146  25.601  28.474  1.00  0.00     0.010 A 
ATOM     54  C   UNL A   1      41.171  24.569  26.102  1.00  0.00     0.020 A 
ATOM     55  C   UNL A   1      39.868  24.277  28.118  1.00  0.00     0.020 A 
ATOM     56  C   UNL A   1      40.400  23.758  26.942  1.00  0.00     0.054 A 
BRANCH  56  57
ATOM     57  S   UNL A   1      40.194  21.994  26.553  1.00  0.00     0.124 S 
ATOM     58  O   UNL A   1      40.379  21.364  27.857  1.00  0.00    -0.237 OA
ATOM     59  O   UNL A   1      38.838  21.943  26.014  1.00  0.00    -0.237 OA
ATOM     60  O   UNL A   1      41.253  21.729  25.581  1.00  0.00    -0.744 OA
ENDBRANCH  56  57
ENDBRANCH  28  51
BRANCH  40  61
ATOM     61  C   UNL A   1      44.709  31.424  28.870  1.00  0.00    -0.014 A 
ATOM     62  C   UNL A   1      45.576  31.262  27.770  1.00  0.00     0.010 A 
ATOM     63  C   UNL A   1      43.740  32.439  28.814  1.00  0.00     0.010 A 
ATOM     64  C   UNL A   1      45.483  32.108  26.653  1.00  0.00     0.020 A 
ATOM     65  C   UNL A   1      43.632  33.274  27.699  1.00  0.00     0.020 A 
ATOM     66  C   UNL A   1      44.508  33.109  26.626  1.00  0.00     0.054 A 
BRANCH  66  67
ATOM     67  S   UNL A   1      44.350  34.164  25.156  1.00  0.00     0.124 S 
ATOM     68  O   UNL A   1      43.050  34.798  25.358  1.00  0.00    -0.237 OA
ATOM     69  O   UNL A   1      45.507  35.050  25.266  1.00  0.00    -0.237 OA
ATOM     70  O   UNL A   1      44.411  33.219  24.041  1.00  0.00    -0.744 OA
ENDBRANCH  66  67
ENDBRANCH  40  61
ENDBRANCH  14  15
ENDBRANCH   7   9
ENDBRANCH   6   7
ENDBRANCH   5   6
ENDBRANCH   4   5
ENDBRANCH   3   4
ENDBRANCH   2   3
ENDBRANCH   1   2
BRANCH   1  71
ATOM     71  O   UNL A   1      33.549  34.703  28.609  1.00  0.00    -0.376 OA
BRANCH  71  72
ATOM     72  C   UNL A   1      34.699  34.188  29.254  1.00  0.00     0.202 C 
BRANCH  72  73
ATOM     73  C   UNL A   1      34.547  32.689  29.564  1.00  0.00     0.261 C 
BRANCH  73  74
ATOM     74  O   UNL A   1      33.768  31.972  28.592  1.00  0.00    -0.458 OA
BRANCH  74  75
ATOM     75  C   UNL A   1      34.501  31.230  27.704  1.00  0.00     0.360 C 
ATOM     76  O   UNL A   1      35.717  31.249  27.599  1.00  0.00    -0.244 OA
BRANCH  75  77
ATOM     77  C   UNL A   1      33.648  30.410  26.869  1.00  0.00     0.190 A 
ATOM     78  C   UNL A   1      34.013  29.311  26.124  1.00  0.00     0.147 A 
ATOM     79  N   UNL A   1      32.302  30.630  26.716  1.00  0.00    -0.123 NA
ATOM     80  N   UNL A   1      32.833  28.858  25.615  1.00  0.00    -0.237 N 
ATOM     81  N   UNL A   1      31.825  29.701  25.900  1.00  0.00    -0.066 NA
BRANCH  80  82
ATOM     82  C   UNL A   1      32.589  27.659  24.883  1.00  0.00     0.218 C 
ATOM     83  C   UNL A   1      33.378  27.493  23.569  1.00  0.00     0.295 C 
ATOM     84  C   UNL A   1      33.439  26.460  25.365  1.00  0.00     0.295 C 
ATOM     85  N   UNL A   1      33.724  26.124  23.955  1.00  0.00    -0.331 N 
ATOM     86  H   UNL A   1      34.624  25.715  23.702  1.00  0.00     0.348 HD
BRANCH  85  87
ATOM     87  C   UNL A   1      32.857  25.094  23.362  1.00  0.00     0.262 C 
BRANCH  87  88
ATOM     88  C   UNL A   1      32.688  23.665  23.912  1.00  0.00     0.064 C 
BRANCH  88  89
ATOM     89  C   UNL A   1      31.508  23.297  24.825  1.00  0.00     0.038 C 
BRANCH  89  90
ATOM     90  C   UNL A   1      31.811  22.474  26.083  1.00  0.00     0.118 C 
ATOM     91  C   UNL A   1      32.796  23.121  27.051  1.00  0.00     0.034 C 
ATOM     92  O   UNL A   1      32.448  21.249  25.661  1.00  0.00    -0.378 OA
ATOM     93  C   UNL A   1      33.555  21.948  27.613  1.00  0.00     0.031 C 
ATOM     94  C   UNL A   1      33.669  21.068  26.393  1.00  0.00     0.160 C 
ENDBRANCH  89  90
ENDBRANCH  88  89
ENDBRANCH  87  88
ENDBRANCH  85  87
ENDBRANCH  80  82
ENDBRANCH  75  77
ENDBRANCH  74  75
ENDBRANCH  73  74
ENDBRANCH  72  73
ENDBRANCH  71  72
ENDBRANCH   1  71
TORSDOF 25
ENDMDL
MODEL 2
REMARK VINA RESULT:      -8.4      4.046      6.789
REMARK SMILES O=C(OCCOCCOCCOC(=O)c1cn(C2C[NH+](CCC[C@@H]3CCCO3)C2)nn1)c1ccc(-c2c3nc(c(-c4ccc(S(=O)(=O)[O-])cc4)c4ccc([nH]4)c(-c4ccc(S(=O)(=O)[O-])cc4)c4nc(c(-c5ccc(S(=O)(=O)[O-])cc5)c5ccc2[nH]5)C=C4)C=C3)cc1
REMARK SMILES IDX 8 1 7 2 6 3 5 4 4 5 3 6 2 7 1 8 32 9 33 10 91 11 34 12 90 13
REMARK SMILES IDX 35 14 36 15 37 16 84 17 38 18 89 19 83 20 85 21 39 22 88 23
REMARK SMILES IDX 82 24 81 25 40 27 70 28 51 29 69 30 52 31 55 32 68 33 86 34
REMARK SMILES IDX 53 35 54 36 67 38 87 39 56 40 41 41 42 42 50 43 43 44 49 45
REMARK SMILES IDX 44 46 45 47 46 48 47 49 48 50 71 51 72 52 80 53 73 54 79 55
REMARK SMILES IDX 74 56 75 57 76 58 77 59 78 60 57 61 58 62 66 63 59 64 65 65
REMARK SMILES IDX 60 66 61 67 62 68 63 69 64 70 9 71 10 72 11 73 12 74 13 75
REMARK SMILES IDX 14 76 15 77 16 78 31 79 17 80 30 81 18 82 19 83 29 84 20 85
REMARK SMILES IDX 21 87 22 88 23 89 24 90 25 91 28 92 26 93 27 94
REMARK H PARENT 85 26 55 37 20 86
REMARK Flexibility Score: inf
ROOT
ATOM      1  C   UNL A   1      33.900  34.693  29.365  1.00  0.00     0.188 C 
ENDROOT
BRANCH   1   2
ATOM      2  C   UNL A   1      32.967  35.923  29.218  1.00  0.00     0.188 C 
BRANCH   2   3
ATOM      3  O   UNL A   1      32.488  36.447  30.452  1.00  0.00    -0.376 OA
BRANCH   3   4
ATOM      4  C   UNL A   1      33.411  37.075  31.327  1.00  0.00     0.202 C 
BRANCH   4   5
ATOM      5  C   UNL A   1      33.272  36.803  32.829  1.00  0.00     0.261 C 
BRANCH   5   6
ATOM      6  O   UNL A   1      34.162  35.827  33.380  1.00  0.00    -0.460 OA
BRANCH   6   7
ATOM      7  C   UNL A   1      34.359  34.529  33.090  1.00  0.00     0.338 C 
ATOM      8  O   UNL A   1      33.380  33.789  33.008  1.00  0.00    -0.246 OA
BRANCH   7   9
ATOM      9  C   UNL A   1      35.700  33.903  33.008  1.00  0.00     0.060 A 
ATOM     10  C   UNL A   1      36.157  32.861  33.817  1.00  0.00     0.016 A 
ATOM     11  C   UNL A   1      36.588  34.512  32.099  1.00  0.00     0.016 A 
ATOM     12  C   UNL A   1      37.508  32.571  33.863  1.00  0.00     0.010 A 
ATOM     13  C   UNL A   1      37.935  34.215  32.129  1.00  0.00     0.010 A 
ATOM     14  C   UNL A   1      38.390  33.325  33.093  1.00  0.00    -0.014 A 
BRANCH  14  15
ATOM     15  C   UNL A   1      39.807  33.196  33.382  1.00  0.00     0.031 A 
ATOM     16  C   UNL A   1      40.373  34.279  34.225  1.00  0.00     0.074 A 
ATOM     17  C   UNL A   1      40.488  32.118  32.945  1.00  0.00     0.049 A 
ATOM     18  N   UNL A   1      41.311  35.119  33.934  1.00  0.00    -0.248 NA
ATOM     19  C   UNL A   1      39.701  34.553  35.507  1.00  0.00     0.031 C 
ATOM     20  C   UNL A   1      39.944  30.901  32.325  1.00  0.00     0.029 A 
ATOM     21  N   UNL A   1      41.804  31.813  33.091  1.00  0.00    -0.354 N 
ATOM     22  C   UNL A   1      41.503  35.884  35.082  1.00  0.00     0.074 A 
ATOM     23  C   UNL A   1      40.377  35.615  35.941  1.00  0.00     0.031 C 
ATOM     24  C   UNL A   1      40.857  29.910  32.418  1.00  0.00     0.029 A 
ATOM     25  C   UNL A   1      42.084  30.457  32.964  1.00  0.00     0.049 A 
ATOM     26  H   UNL A   1      42.495  32.490  33.270  1.00  0.00     0.167 HD
ATOM     27  C   UNL A   1      42.696  36.481  35.361  1.00  0.00     0.031 A 
ATOM     28  C   UNL A   1      43.208  29.819  33.384  1.00  0.00     0.031 A 
ATOM     29  C   UNL A   1      43.516  36.609  34.186  1.00  0.00     0.049 A 
ATOM     30  C   UNL A   1      44.255  30.857  33.562  1.00  0.00     0.074 A 
ATOM     31  C   UNL A   1      43.386  37.265  32.978  1.00  0.00     0.029 A 
ATOM     32  N   UNL A   1      44.519  35.684  34.009  1.00  0.00    -0.354 N 
ATOM     33  N   UNL A   1      44.745  31.556  32.575  1.00  0.00    -0.248 NA
ATOM     34  C   UNL A   1      44.405  31.454  34.881  1.00  0.00     0.031 C 
ATOM     35  C   UNL A   1      43.963  36.383  32.020  1.00  0.00     0.029 A 
ATOM     36  C   UNL A   1      44.474  35.275  32.702  1.00  0.00     0.049 A 
ATOM     37  H   UNL A   1      45.151  35.371  34.696  1.00  0.00     0.167 HD
ATOM     38  C   UNL A   1      44.874  32.844  33.077  1.00  0.00     0.074 A 
ATOM     39  C   UNL A   1      44.736  32.700  34.527  1.00  0.00     0.031 C 
ATOM     40  C   UNL A   1      44.797  33.935  32.259  1.00  0.00     0.031 A 
BRANCH  27  41
ATOM     41  C   UNL A   1      43.274  36.532  36.757  1.00  0.00    -0.014 A 
ATOM     42  C   UNL A   1      43.618  35.322  37.394  1.00  0.00     0.010 A 
ATOM     43  C   UNL A   1      43.203  37.682  37.572  1.00  0.00     0.010 A 
ATOM     44  C   UNL A   1      43.773  35.253  38.785  1.00  0.00     0.020 A 
ATOM     45  C   UNL A   1      43.399  37.633  38.951  1.00  0.00     0.020 A 
ATOM     46  C   UNL A   1      43.637  36.407  39.556  1.00  0.00     0.054 A 
BRANCH  46  47
ATOM     47  S   UNL A   1      43.679  36.283  41.359  1.00  0.00     0.124 S 
ATOM     48  O   UNL A   1      45.113  36.200  41.618  1.00  0.00    -0.237 OA
ATOM     49  O   UNL A   1      43.029  37.524  41.767  1.00  0.00    -0.237 OA
ATOM     50  O   UNL A   1      42.919  35.065  41.635  1.00  0.00    -0.744 OA
ENDBRANCH  46  47
ENDBRANCH  27  41
BRANCH  28  51
ATOM     51  C   UNL A   1      43.276  28.472  34.012  1.00  0.00    -0.014 A 
ATOM     52  C   UNL A   1      42.206  27.957  34.766  1.00  0.00     0.010 A 
ATOM     53  C   UNL A   1      44.305  27.576  33.647  1.00  0.00     0.010 A 
ATOM     54  C   UNL A   1      42.147  26.590  35.100  1.00  0.00     0.020 A 
ATOM     55  C   UNL A   1      44.258  26.218  33.981  1.00  0.00     0.020 A 
ATOM     56  C   UNL A   1      43.166  25.725  34.689  1.00  0.00     0.054 A 
BRANCH  56  57
ATOM     57  S   UNL A   1      43.005  23.937  34.979  1.00  0.00     0.124 S 
ATOM     58  O   UNL A   1      43.354  23.378  33.677  1.00  0.00    -0.237 OA
ATOM     59  O   UNL A   1      43.970  23.700  36.048  1.00  0.00    -0.237 OA
ATOM     60  O   UNL A   1      41.604  23.776  35.367  1.00  0.00    -0.744 OA
ENDBRANCH  56  57
ENDBRANCH  28  51
BRANCH  40  61
ATOM     61  C   UNL A   1      44.808  33.716  30.761  1.00  0.00    -0.014 A 
ATOM     62  C   UNL A   1      45.989  33.575  30.003  1.00  0.00     0.010 A 
ATOM     63  C   UNL A   1      43.576  33.468  30.133  1.00  0.00     0.010 A 
ATOM     64  C   UNL A   1      45.931  33.214  28.647  1.00  0.00     0.020 A 
ATOM     65  C   UNL A   1      43.513  33.092  28.789  1.00  0.00     0.020 A 
ATOM     66  C   UNL A   1      44.690  32.972  28.050  1.00  0.00     0.054 A 
BRANCH  66  67
ATOM     67  S   UNL A   1      44.620  32.446  26.313  1.00  0.00     0.124 S 
ATOM     68  O   UNL A   1      43.814  33.496  25.695  1.00  0.00    -0.237 OA
ATOM     69  O   UNL A   1      46.029  32.421  25.924  1.00  0.00    -0.237 OA
ATOM     70  O   UNL A   1      43.982  31.131  26.373  1.00  0.00    -0.744 OA
ENDBRANCH  66  67
ENDBRANCH  40  61
ENDBRANCH  14  15
ENDBRANCH   7   9
ENDBRANCH   6   7
ENDBRANCH   5   6
ENDBRANCH   4   5
ENDBRANCH   3   4
ENDBRANCH   2   3
ENDBRANCH   1   2
BRANCH   1  71
ATOM     71  O   UNL A   1      33.714  33.511  28.581  1.00  0.00    -0.376 OA
BRANCH  71  72
ATOM     72  C   UNL A   1      34.851  32.819  28.100  1.00  0.00     0.202 C 
BRANCH  72  73
ATOM     73  C   UNL A   1      35.815  32.458  29.242  1.00  0.00     0.261 C 
BRANCH  73  74
ATOM     74  O   UNL A   1      36.702  31.370  28.932  1.00  0.00    -0.458 OA
BRANCH  74  75
ATOM     75  C   UNL A   1      36.920  30.496  29.965  1.00  0.00     0.360 C 
ATOM     76  O   UNL A   1      36.487  30.618  31.099  1.00  0.00    -0.244 OA
BRANCH  75  77
ATOM     77  C   UNL A   1      37.757  29.388  29.552  1.00  0.00     0.190 A 
ATOM     78  C   UNL A   1      38.334  29.190  28.318  1.00  0.00     0.147 A 
ATOM     79  N   UNL A   1      38.104  28.352  30.383  1.00  0.00    -0.123 NA
ATOM     80  N   UNL A   1      39.088  28.067  28.490  1.00  0.00    -0.237 N 
ATOM     81  N   UNL A   1      38.877  27.521  29.699  1.00  0.00    -0.066 NA
BRANCH  80  82
ATOM     82  C   UNL A   1      40.016  27.480  27.581  1.00  0.00     0.218 C 
ATOM     83  C   UNL A   1      40.850  28.460  26.732  1.00  0.00     0.295 C 
ATOM     84  C   UNL A   1      41.375  27.128  28.232  1.00  0.00     0.295 C 
ATOM     85  N   UNL A   1      42.061  27.703  27.057  1.00  0.00    -0.331 N 
ATOM     86  H   UNL A   1      42.961  28.170  27.171  1.00  0.00     0.348 HD
BRANCH  85  87
ATOM     87  C   UNL A   1      42.462  26.737  26.022  1.00  0.00     0.262 C 
BRANCH  87  88
ATOM     88  C   UNL A   1      43.767  25.918  26.045  1.00  0.00     0.064 C 
BRANCH  88  89
ATOM     89  C   UNL A   1      44.042  24.829  24.996  1.00  0.00     0.038 C 
BRANCH  89  90
ATOM     90  C   UNL A   1      44.281  23.400  25.499  1.00  0.00     0.118 C 
ATOM     91  C   UNL A   1      45.747  23.021  25.678  1.00  0.00     0.034 C 
ATOM     92  O   UNL A   1      43.779  22.493  24.494  1.00  0.00    -0.378 OA
ATOM     93  C   UNL A   1      45.780  21.563  25.304  1.00  0.00     0.031 C 
ATOM     94  C   UNL A   1      44.796  21.538  24.160  1.00  0.00     0.160 C 
ENDBRANCH  89  90
ENDBRANCH  88  89
ENDBRANCH  87  88
ENDBRANCH  85  87
ENDBRANCH  80  82
ENDBRANCH  75  77
ENDBRANCH  74  75
ENDBRANCH  73  74
ENDBRANCH  72  73
ENDBRANCH  71  72
ENDBRANCH   1  71
TORSDOF 25
ENDMDL
MODEL 3
REMARK VINA RESULT:      -8.1      8.533     14.438
REMARK SMILES O=C(OCCOCCOCCOC(=O)c1cn(C2C[NH+](CCC[C@@H]3CCCO3)C2)nn1)c1ccc(-c2c3nc(c(-c4ccc(S(=O)(=O)[O-])cc4)c4ccc([nH]4)c(-c4ccc(S(=O)(=O)[O-])cc4)c4nc(c(-c5ccc(S(=O)(=O)[O-])cc5)c5ccc2[nH]5)C=C4)C=C3)cc1
REMARK SMILES IDX 8 1 7 2 6 3 5 4 4 5 3 6 2 7 1 8 32 9 33 10 91 11 34 12 90 13
REMARK SMILES IDX 35 14 36 15 37 16 84 17 38 18 89 19 83 20 85 21 39 22 88 23
REMARK SMILES IDX 82 24 81 25 40 27 70 28 51 29 69 30 52 31 55 32 68 33 86 34
REMARK SMILES IDX 53 35 54 36 67 38 87 39 56 40 41 41 42 42 50 43 43 44 49 45
REMARK SMILES IDX 44 46 45 47 46 48 47 49 48 50 71 51 72 52 80 53 73 54 79 55
REMARK SMILES IDX 74 56 75 57 76 58 77 59 78 60 57 61 58 62 66 63 59 64 65 65
REMARK SMILES IDX 60 66 61 67 62 68 63 69 64 70 9 71 10 72 11 73 12 74 13 75
REMARK SMILES IDX 14 76 15 77 16 78 31 79 17 80 30 81 18 82 19 83 29 84 20 85
REMARK SMILES IDX 21 87 22 88 23 89 24 90 25 91 28 92 26 93 27 94
REMARK H PARENT 85 26 55 37 20 86
REMARK Flexibility Score: inf
ROOT
ATOM      1  C   UNL A   1      46.988  42.605  29.307  1.00  0.00     0.188 C 
ENDROOT
BRANCH   1   2
ATOM      2  C   UNL A   1      47.961  41.955  30.327  1.00  0.00     0.188 C 
BRANCH   2   3
ATOM      3  O   UNL A   1      47.319  41.224  31.366  1.00  0.00    -0.376 OA
BRANCH   3   4
ATOM      4  C   UNL A   1      46.029  41.636  31.789  1.00  0.00     0.202 C 
BRANCH   4   5
ATOM      5  C   UNL A   1      45.715  41.580  33.288  1.00  0.00     0.261 C 
BRANCH   5   6
ATOM      6  O   UNL A   1      45.022  40.414  33.746  1.00  0.00    -0.460 OA
BRANCH   6   7
ATOM      7  C   UNL A   1      43.851  39.864  33.377  1.00  0.00     0.338 C 
ATOM      8  O   UNL A   1      42.958  40.602  32.964  1.00  0.00    -0.246 OA
BRANCH   7   9
ATOM      9  C   UNL A   1      43.520  38.433  33.577  1.00  0.00     0.060 A 
ATOM     10  C   UNL A   1      43.341  37.495  32.560  1.00  0.00     0.016 A 
ATOM     11  C   UNL A   1      43.271  38.061  34.914  1.00  0.00     0.016 A 
ATOM     12  C   UNL A   1      42.738  36.283  32.844  1.00  0.00     0.010 A 
ATOM     13  C   UNL A   1      42.683  36.847  35.204  1.00  0.00     0.010 A 
ATOM     14  C   UNL A   1      42.324  36.021  34.147  1.00  0.00    -0.014 A 
BRANCH  14  15
ATOM     15  C   UNL A   1      41.442  34.886  34.352  1.00  0.00     0.031 A 
ATOM     16  C   UNL A   1      41.773  33.685  33.544  1.00  0.00     0.074 A 
ATOM     17  C   UNL A   1      40.456  34.955  35.268  1.00  0.00     0.049 A 
ATOM     18  N   UNL A   1      41.049  33.086  32.657  1.00  0.00    -0.248 NA
ATOM     19  C   UNL A   1      43.152  33.174  33.634  1.00  0.00     0.031 C 
ATOM     20  C   UNL A   1      40.229  36.010  36.266  1.00  0.00     0.029 A 
ATOM     21  N   UNL A   1      39.524  34.025  35.602  1.00  0.00    -0.354 N 
ATOM     22  C   UNL A   1      41.795  31.987  32.239  1.00  0.00     0.074 A 
ATOM     23  C   UNL A   1      43.133  32.193  32.734  1.00  0.00     0.031 C 
ATOM     24  C   UNL A   1      39.431  35.531  37.245  1.00  0.00     0.029 A 
ATOM     25  C   UNL A   1      38.982  34.203  36.871  1.00  0.00     0.049 A 
ATOM     26  H   UNL A   1      39.256  33.294  35.001  1.00  0.00     0.167 HD
ATOM     27  C   UNL A   1      41.207  30.862  31.743  1.00  0.00     0.031 A 
ATOM     28  C   UNL A   1      38.307  33.277  37.601  1.00  0.00     0.031 A 
ATOM     29  C   UNL A   1      39.863  31.114  31.296  1.00  0.00     0.049 A 
ATOM     30  C   UNL A   1      37.844  32.232  36.653  1.00  0.00     0.074 A 
ATOM     31  C   UNL A   1      39.297  31.925  30.332  1.00  0.00     0.029 A 
ATOM     32  N   UNL A   1      38.837  30.752  32.137  1.00  0.00    -0.354 N 
ATOM     33  N   UNL A   1      36.971  32.458  35.709  1.00  0.00    -0.248 NA
ATOM     34  C   UNL A   1      38.700  31.074  36.443  1.00  0.00     0.031 C 
ATOM     35  C   UNL A   1      38.085  32.395  30.916  1.00  0.00     0.029 A 
ATOM     36  C   UNL A   1      37.945  31.792  32.169  1.00  0.00     0.049 A 
ATOM     37  H   UNL A   1      38.759  29.902  32.628  1.00  0.00     0.167 HD
ATOM     38  C   UNL A   1      37.441  31.752  34.610  1.00  0.00     0.074 A 
ATOM     39  C   UNL A   1      38.458  30.848  35.148  1.00  0.00     0.031 C 
ATOM     40  C   UNL A   1      37.170  32.161  33.334  1.00  0.00     0.031 A 
BRANCH  27  41
ATOM     41  C   UNL A   1      41.697  29.472  32.080  1.00  0.00    -0.014 A 
ATOM     42  C   UNL A   1      41.383  28.929  33.342  1.00  0.00     0.010 A 
ATOM     43  C   UNL A   1      42.698  28.813  31.334  1.00  0.00     0.010 A 
ATOM     44  C   UNL A   1      42.111  27.854  33.871  1.00  0.00     0.020 A 
ATOM     45  C   UNL A   1      43.398  27.715  31.833  1.00  0.00     0.020 A 
ATOM     46  C   UNL A   1      43.131  27.272  33.120  1.00  0.00     0.054 A 
BRANCH  46  47
ATOM     47  S   UNL A   1      44.169  25.995  33.869  1.00  0.00     0.124 S 
ATOM     48  O   UNL A   1      44.437  25.124  32.729  1.00  0.00    -0.237 OA
ATOM     49  O   UNL A   1      45.305  26.771  34.358  1.00  0.00    -0.237 OA
ATOM     50  O   UNL A   1      43.314  25.426  34.908  1.00  0.00    -0.744 OA
ENDBRANCH  46  47
ENDBRANCH  27  41
BRANCH  28  51
ATOM     51  C   UNL A   1      38.414  33.061  39.069  1.00  0.00    -0.014 A 
ATOM     52  C   UNL A   1      37.318  32.614  39.828  1.00  0.00     0.010 A 
ATOM     53  C   UNL A   1      39.684  33.049  39.688  1.00  0.00     0.010 A 
ATOM     54  C   UNL A   1      37.495  32.128  41.138  1.00  0.00     0.020 A 
ATOM     55  C   UNL A   1      39.867  32.574  40.992  1.00  0.00     0.020 A 
ATOM     56  C   UNL A   1      38.773  32.095  41.705  1.00  0.00     0.054 A 
BRANCH  56  57
ATOM     57  S   UNL A   1      39.021  31.316  43.330  1.00  0.00     0.124 S 
ATOM     58  O   UNL A   1      40.358  31.774  43.694  1.00  0.00    -0.237 OA
ATOM     59  O   UNL A   1      37.926  31.872  44.119  1.00  0.00    -0.237 OA
ATOM     60  O   UNL A   1      38.912  29.886  43.047  1.00  0.00    -0.744 OA
ENDBRANCH  56  57
ENDBRANCH  28  51
BRANCH  40  61
ATOM     61  C   UNL A   1      36.149  33.260  33.132  1.00  0.00    -0.014 A 
ATOM     62  C   UNL A   1      36.469  34.634  33.146  1.00  0.00     0.010 A 
ATOM     63  C   UNL A   1      34.855  32.879  32.737  1.00  0.00     0.010 A 
ATOM     64  C   UNL A   1      35.509  35.596  32.791  1.00  0.00     0.020 A 
ATOM     65  C   UNL A   1      33.902  33.831  32.367  1.00  0.00     0.020 A 
ATOM     66  C   UNL A   1      34.231  35.186  32.402  1.00  0.00     0.054 A 
BRANCH  66  67
ATOM     67  S   UNL A   1      33.011  36.428  31.887  1.00  0.00     0.124 S 
ATOM     68  O   UNL A   1      33.098  36.375  30.430  1.00  0.00    -0.237 OA
ATOM     69  O   UNL A   1      31.767  35.921  32.463  1.00  0.00    -0.237 OA
ATOM     70  O   UNL A   1      33.500  37.668  32.491  1.00  0.00    -0.744 OA
ENDBRANCH  66  67
ENDBRANCH  40  61
ENDBRANCH  14  15
ENDBRANCH   7   9
ENDBRANCH   6   7
ENDBRANCH   5   6
ENDBRANCH   4   5
ENDBRANCH   3   4
ENDBRANCH   2   3
ENDBRANCH   1   2
BRANCH   1  71
ATOM     71  O   UNL A   1      47.290  43.849  28.669  1.00  0.00    -0.376 OA
BRANCH  71  72
ATOM     72  C   UNL A   1      46.428  44.329  27.655  1.00  0.00     0.202 C 
BRANCH  72  73
ATOM     73  C   UNL A   1      45.687  43.178  26.954  1.00  0.00     0.261 C 
BRANCH  73  74
ATOM     74  O   UNL A   1      44.736  43.614  25.969  1.00  0.00    -0.458 OA
BRANCH  74  75
ATOM     75  C   UNL A   1      44.078  42.602  25.320  1.00  0.00     0.360 C 
ATOM     76  O   UNL A   1      43.266  41.846  25.828  1.00  0.00    -0.244 OA
BRANCH  75  77
ATOM     77  C   UNL A   1      44.476  42.518  23.930  1.00  0.00     0.190 A 
ATOM     78  C   UNL A   1      43.873  43.121  22.849  1.00  0.00     0.147 A 
ATOM     79  N   UNL A   1      45.563  41.800  23.496  1.00  0.00    -0.123 NA
ATOM     80  N   UNL A   1      44.690  42.804  21.804  1.00  0.00    -0.237 N 
ATOM     81  N   UNL A   1      45.648  41.941  22.182  1.00  0.00    -0.066 NA
BRANCH  80  82
ATOM     82  C   UNL A   1      44.632  43.280  20.462  1.00  0.00     0.218 C 
ATOM     83  C   UNL A   1      43.568  44.358  20.169  1.00  0.00     0.295 C 
ATOM     84  C   UNL A   1      45.641  44.416  20.168  1.00  0.00     0.295 C 
ATOM     85  N   UNL A   1      44.574  45.150  19.457  1.00  0.00    -0.331 N 
ATOM     86  H   UNL A   1      44.557  46.169  19.480  1.00  0.00     0.348 HD
BRANCH  85  87
ATOM     87  C   UNL A   1      44.552  44.977  17.997  1.00  0.00     0.262 C 
BRANCH  87  88
ATOM     88  C   UNL A   1      43.426  45.475  17.070  1.00  0.00     0.064 C 
BRANCH  88  89
ATOM     89  C   UNL A   1      42.343  46.440  17.580  1.00  0.00     0.038 C 
BRANCH  89  90
ATOM     90  C   UNL A   1      42.714  47.921  17.712  1.00  0.00     0.118 C 
ATOM     91  C   UNL A   1      43.291  48.553  16.450  1.00  0.00     0.034 C 
ATOM     92  O   UNL A   1      43.766  48.023  18.697  1.00  0.00    -0.378 OA
ATOM     93  C   UNL A   1      44.301  49.536  16.980  1.00  0.00     0.031 C 
ATOM     94  C   UNL A   1      44.863  48.768  18.151  1.00  0.00     0.160 C 
ENDBRANCH  89  90
ENDBRANCH  88  89
ENDBRANCH  87  88
ENDBRANCH  85  87
ENDBRANCH  80  82
ENDBRANCH  75  77
ENDBRANCH  74  75
ENDBRANCH  73  74
ENDBRANCH  72  73
ENDBRANCH  71  72
ENDBRANCH   1  71
TORSDOF 25
ENDMDL
