MODEL 1
REMARK VINA RESULT:      -9.0      0.000      0.000
REMARK SMILES O=C(OCCOCCOCCOC(=O)c1cc(-c2ccoc2)n[nH]1)c1ccc(-c2c3nc(c(-c4ccc(S(=O)(=O)[O-])cc4)c4ccc([nH]4)c(-c4ccc(S(=O)(=O)[O-])cc4)c4nc(c(-c5ccc(S(=O)(=O)[O-])cc5)c5ccc2[nH]5)C=C4)C=C3)cc1
REMARK SMILES IDX 7 1 6 2 5 3 4 4 3 5 2 6 1 7 25 8 26 9 84 10 27 11 83 12
REMARK SMILES IDX 28 13 29 14 30 15 77 16 31 17 82 18 76 19 78 20 32 21 81 22
REMARK SMILES IDX 75 23 74 24 33 26 63 27 44 28 62 29 45 30 48 31 61 32 79 33
REMARK SMILES IDX 46 34 47 35 60 37 80 38 49 39 34 40 35 41 43 42 36 43 42 44
REMARK SMILES IDX 37 45 38 46 39 47 40 48 41 49 64 50 65 51 73 52 66 53 72 54
REMARK SMILES IDX 67 55 68 56 69 57 70 58 71 59 50 60 51 61 59 62 52 63 58 64
REMARK SMILES IDX 53 65 54 66 55 67 56 68 57 69 8 70 9 71 10 72 11 73 12 74
REMARK SMILES IDX 13 75 14 76 15 77 16 78 24 79 17 80 23 81 18 83 19 84 22 85
REMARK SMILES IDX 20 86 21 87
REMARK H PARENT 78 25 48 36 24 82
REMARK Flexibility Score: inf
ROOT
ATOM      1  C   UNL A   1      34.251  33.389  28.702  1.00  0.00     0.188 C 
ENDROOT
BRANCH   1   2
ATOM      2  O   UNL A   1      34.669  33.412  30.073  1.00  0.00    -0.376 OA
BRANCH   2   3
ATOM      3  C   UNL A   1      35.282  32.187  30.501  1.00  0.00     0.202 C 
BRANCH   3   4
ATOM      4  C   UNL A   1      36.577  31.793  29.768  1.00  0.00     0.261 C 
BRANCH   4   5
ATOM      5  O   UNL A   1      36.808  30.377  29.757  1.00  0.00    -0.460 OA
BRANCH   5   6
ATOM      6  C   UNL A   1      37.282  29.615  28.738  1.00  0.00     0.338 C 
ATOM      7  O   UNL A   1      36.469  29.086  27.982  1.00  0.00    -0.246 OA
BRANCH   6   8
ATOM      8  C   UNL A   1      38.739  29.366  28.490  1.00  0.00     0.060 A 
ATOM      9  C   UNL A   1      39.686  29.091  29.479  1.00  0.00     0.016 A 
ATOM     10  C   UNL A   1      39.172  29.345  27.151  1.00  0.00     0.016 A 
ATOM     11  C   UNL A   1      41.032  28.918  29.170  1.00  0.00     0.010 A 
ATOM     12  C   UNL A   1      40.515  29.110  26.827  1.00  0.00     0.010 A 
ATOM     13  C   UNL A   1      41.459  28.932  27.843  1.00  0.00    -0.014 A 
BRANCH  13  14
ATOM     14  C   UNL A   1      42.910  28.847  27.567  1.00  0.00     0.031 A 
ATOM     15  C   UNL A   1      43.478  27.557  27.051  1.00  0.00     0.074 A 
ATOM     16  C   UNL A   1      43.680  29.948  27.663  1.00  0.00     0.049 A 
ATOM     17  N   UNL A   1      44.715  27.268  26.746  1.00  0.00    -0.248 NA
ATOM     18  C   UNL A   1      42.528  26.453  26.828  1.00  0.00     0.031 C 
ATOM     19  C   UNL A   1      43.211  31.272  28.074  1.00  0.00     0.029 A 
ATOM     20  N   UNL A   1      45.012  30.137  27.405  1.00  0.00    -0.354 N 
ATOM     21  C   UNL A   1      44.696  25.948  26.310  1.00  0.00     0.074 A 
ATOM     22  C   UNL A   1      43.328  25.488  26.397  1.00  0.00     0.031 C 
ATOM     23  C   UNL A   1      44.235  32.141  28.031  1.00  0.00     0.029 A 
ATOM     24  C   UNL A   1      45.440  31.423  27.639  1.00  0.00     0.049 A 
ATOM     25  H   UNL A   1      45.605  29.421  27.083  1.00  0.00     0.167 HD
ATOM     26  C   UNL A   1      45.730  25.192  25.878  1.00  0.00     0.031 A 
ATOM     27  C   UNL A   1      46.677  31.950  27.582  1.00  0.00     0.031 A 
ATOM     28  C   UNL A   1      47.088  25.658  25.811  1.00  0.00     0.049 A 
ATOM     29  C   UNL A   1      47.823  31.053  27.219  1.00  0.00     0.074 A 
ATOM     30  C   UNL A   1      48.218  24.966  25.414  1.00  0.00     0.029 A 
ATOM     31  N   UNL A   1      47.497  26.937  26.155  1.00  0.00    -0.354 N 
ATOM     32  N   UNL A   1      47.796  29.792  26.859  1.00  0.00    -0.248 NA
ATOM     33  C   UNL A   1      49.166  31.643  27.276  1.00  0.00     0.031 C 
ATOM     34  C   UNL A   1      49.320  25.816  25.564  1.00  0.00     0.029 A 
ATOM     35  C   UNL A   1      48.867  27.049  26.007  1.00  0.00     0.049 A 
ATOM     36  H   UNL A   1      46.901  27.659  26.461  1.00  0.00     0.167 HD
ATOM     37  C   UNL A   1      49.121  29.435  26.650  1.00  0.00     0.074 A 
ATOM     38  C   UNL A   1      49.919  30.618  26.902  1.00  0.00     0.031 C 
ATOM     39  C   UNL A   1      49.633  28.235  26.286  1.00  0.00     0.031 A 
BRANCH  26  40
ATOM     40  C   UNL A   1      45.434  23.770  25.496  1.00  0.00    -0.014 A 
ATOM     41  C   UNL A   1      45.699  22.709  26.379  1.00  0.00     0.010 A 
ATOM     42  C   UNL A   1      44.858  23.494  24.244  1.00  0.00     0.010 A 
ATOM     43  C   UNL A   1      45.412  21.392  26.006  1.00  0.00     0.020 A 
ATOM     44  C   UNL A   1      44.554  22.182  23.873  1.00  0.00     0.020 A 
ATOM     45  C   UNL A   1      44.844  21.137  24.753  1.00  0.00     0.054 A 
BRANCH  45  46
ATOM     46  S   UNL A   1      44.456  19.424  24.304  1.00  0.00     0.124 S 
ATOM     47  O   UNL A   1      43.079  19.293  24.775  1.00  0.00    -0.237 OA
ATOM     48  O   UNL A   1      44.626  19.426  22.853  1.00  0.00    -0.237 OA
ATOM     49  O   UNL A   1      45.443  18.640  25.043  1.00  0.00    -0.744 OA
ENDBRANCH  45  46
ENDBRANCH  26  40
BRANCH  27  50
ATOM     50  C   UNL A   1      46.921  33.359  27.983  1.00  0.00    -0.014 A 
ATOM     51  C   UNL A   1      46.914  34.401  27.038  1.00  0.00     0.010 A 
ATOM     52  C   UNL A   1      47.211  33.653  29.326  1.00  0.00     0.010 A 
ATOM     53  C   UNL A   1      47.205  35.712  27.430  1.00  0.00     0.020 A 
ATOM     54  C   UNL A   1      47.500  34.960  29.719  1.00  0.00     0.020 A 
ATOM     55  C   UNL A   1      47.501  35.982  28.770  1.00  0.00     0.054 A 
BRANCH  55  56
ATOM     56  S   UNL A   1      47.827  37.685  29.305  1.00  0.00     0.124 S 
ATOM     57  O   UNL A   1      48.145  37.503  30.717  1.00  0.00    -0.237 OA
ATOM     58  O   UNL A   1      48.940  38.091  28.452  1.00  0.00    -0.237 OA
ATOM     59  O   UNL A   1      46.562  38.363  29.025  1.00  0.00    -0.744 OA
ENDBRANCH  55  56
ENDBRANCH  27  50
BRANCH  39  60
ATOM     60  C   UNL A   1      51.122  28.158  26.127  1.00  0.00    -0.014 A 
ATOM     61  C   UNL A   1      51.937  27.715  27.183  1.00  0.00     0.010 A 
ATOM     62  C   UNL A   1      51.705  28.502  24.895  1.00  0.00     0.010 A 
ATOM     63  C   UNL A   1      53.320  27.638  27.015  1.00  0.00     0.020 A 
ATOM     64  C   UNL A   1      53.085  28.405  24.718  1.00  0.00     0.020 A 
ATOM     65  C   UNL A   1      53.886  27.987  25.784  1.00  0.00     0.054 A 
BRANCH  65  66
ATOM     66  S   UNL A   1      55.680  27.840  25.572  1.00  0.00     0.124 S 
ATOM     67  O   UNL A   1      55.791  27.517  24.153  1.00  0.00    -0.237 OA
ATOM     68  O   UNL A   1      56.161  29.165  25.956  1.00  0.00    -0.237 OA
ATOM     69  O   UNL A   1      56.047  26.762  26.488  1.00  0.00    -0.744 OA
ENDBRANCH  65  66
ENDBRANCH  39  60
ENDBRANCH  13  14
ENDBRANCH   6   8
ENDBRANCH   5   6
ENDBRANCH   4   5
ENDBRANCH   3   4
ENDBRANCH   2   3
ENDBRANCH   1   2
BRANCH   1  70
ATOM     70  C   UNL A   1      33.279  34.526  28.366  1.00  0.00     0.188 C 
BRANCH  70  71
ATOM     71  O   UNL A   1      32.705  35.234  29.466  1.00  0.00    -0.376 OA
BRANCH  71  72
ATOM     72  C   UNL A   1      33.140  36.570  29.680  1.00  0.00     0.202 C 
BRANCH  72  73
ATOM     73  C   UNL A   1      33.234  37.074  31.127  1.00  0.00     0.261 C 
BRANCH  73  74
ATOM     74  O   UNL A   1      33.348  36.045  32.118  1.00  0.00    -0.459 OA
BRANCH  74  75
ATOM     75  C   UNL A   1      34.050  36.390  33.234  1.00  0.00     0.356 C 
ATOM     76  O   UNL A   1      34.007  37.485  33.784  1.00  0.00    -0.244 OA
BRANCH  75  77
ATOM     77  C   UNL A   1      34.890  35.306  33.643  1.00  0.00     0.144 A 
ATOM     78  C   UNL A   1      36.004  34.793  33.008  1.00  0.00     0.066 A 
ATOM     79  N   UNL A   1      34.754  34.554  34.777  1.00  0.00    -0.271 N 
ATOM     80  C   UNL A   1      36.460  33.746  33.833  1.00  0.00     0.096 A 
ATOM     81  N   UNL A   1      35.702  33.612  34.928  1.00  0.00    -0.175 NA
ATOM     82  H   UNL A   1      34.026  34.691  35.426  1.00  0.00     0.190 HD
BRANCH  80  83
ATOM     83  C   UNL A   1      37.604  32.897  33.528  1.00  0.00     0.040 A 
ATOM     84  C   UNL A   1      37.563  31.504  33.269  1.00  0.00     0.052 A 
ATOM     85  C   UNL A   1      38.929  33.262  33.452  1.00  0.00     0.205 A 
ATOM     86  C   UNL A   1      38.862  31.123  33.027  1.00  0.00     0.195 A 
ATOM     87  O   UNL A   1      39.701  32.186  33.142  1.00  0.00    -0.472 OA
ENDBRANCH  80  83
ENDBRANCH  75  77
ENDBRANCH  74  75
ENDBRANCH  73  74
ENDBRANCH  72  73
ENDBRANCH  71  72
ENDBRANCH  70  71
ENDBRANCH   1  70
TORSDOF 21
ENDMDL
MODEL 2
REMARK VINA RESULT:      -8.8      3.701     11.539
REMARK SMILES O=C(OCCOCCOCCOC(=O)c1cc(-c2ccoc2)n[nH]1)c1ccc(-c2c3nc(c(-c4ccc(S(=O)(=O)[O-])cc4)c4ccc([nH]4)c(-c4ccc(S(=O)(=O)[O-])cc4)c4nc(c(-c5ccc(S(=O)(=O)[O-])cc5)c5ccc2[nH]5)C=C4)C=C3)cc1
REMARK SMILES IDX 7 1 6 2 5 3 4 4 3 5 2 6 1 7 25 8 26 9 84 10 27 11 83 12
REMARK SMILES IDX 28 13 29 14 30 15 77 16 31 17 82 18 76 19 78 20 32 21 81 22
REMARK SMILES IDX 75 23 74 24 33 26 63 27 44 28 62 29 45 30 48 31 61 32 79 33
REMARK SMILES IDX 46 34 47 35 60 37 80 38 49 39 34 40 35 41 43 42 36 43 42 44
REMARK SMILES IDX 37 45 38 46 39 47 40 48 41 49 64 50 65 51 73 52 66 53 72 54
REMARK SMILES IDX 67 55 68 56 69 57 70 58 71 59 50 60 51 61 59 62 52 63 58 64
REMARK SMILES IDX 53 65 54 66 55 67 56 68 57 69 8 70 9 71 10 72 11 73 12 74
REMARK SMILES IDX 13 75 14 76 15 77 16 78 24 79 17 80 23 81 18 83 19 84 22 85
REMARK SMILES IDX 20 86 21 87
REMARK H PARENT 78 25 48 36 24 82
REMARK Flexibility Score: inf
ROOT
ATOM      1  C   UNL A   1      43.319  18.804  25.934  1.00  0.00     0.188 C 
ENDROOT
BRANCH   1   2
ATOM      2  O   UNL A   1      42.122  19.305  25.322  1.00  0.00    -0.376 OA
BRANCH   2   3
ATOM      3  C   UNL A   1      41.006  19.366  26.221  1.00  0.00     0.202 C 
BRANCH   3   4
ATOM      4  C   UNL A   1      40.874  20.664  27.039  1.00  0.00     0.261 C 
BRANCH   4   5
ATOM      5  O   UNL A   1      40.670  21.825  26.220  1.00  0.00    -0.460 OA
BRANCH   5   6
ATOM      6  C   UNL A   1      39.794  22.844  26.417  1.00  0.00     0.338 C 
ATOM      7  O   UNL A   1      38.610  22.652  26.146  1.00  0.00    -0.246 OA
BRANCH   6   8
ATOM      8  C   UNL A   1      40.190  24.196  26.930  1.00  0.00     0.060 A 
ATOM      9  C   UNL A   1      40.141  25.380  26.192  1.00  0.00     0.016 A 
ATOM     10  C   UNL A   1      40.578  24.285  28.280  1.00  0.00     0.016 A 
ATOM     11  C   UNL A   1      40.571  26.590  26.729  1.00  0.00     0.010 A 
ATOM     12  C   UNL A   1      40.955  25.511  28.846  1.00  0.00     0.010 A 
ATOM     13  C   UNL A   1      40.987  26.665  28.057  1.00  0.00    -0.014 A 
BRANCH  13  14
ATOM     14  C   UNL A   1      41.532  27.947  28.555  1.00  0.00     0.031 A 
ATOM     15  C   UNL A   1      43.010  28.193  28.466  1.00  0.00     0.074 A 
ATOM     16  C   UNL A   1      40.696  28.920  28.968  1.00  0.00     0.049 A 
ATOM     17  N   UNL A   1      43.693  29.241  28.842  1.00  0.00    -0.248 NA
ATOM     18  C   UNL A   1      43.826  27.130  27.854  1.00  0.00     0.031 C 
ATOM     19  C   UNL A   1      39.237  28.815  29.015  1.00  0.00     0.029 A 
ATOM     20  N   UNL A   1      40.948  30.193  29.406  1.00  0.00    -0.354 N 
ATOM     21  C   UNL A   1      45.017  28.960  28.528  1.00  0.00     0.074 A 
ATOM     22  C   UNL A   1      45.046  27.641  27.938  1.00  0.00     0.031 C 
ATOM     23  C   UNL A   1      38.721  29.977  29.448  1.00  0.00     0.029 A 
ATOM     24  C   UNL A   1      39.814  30.888  29.755  1.00  0.00     0.049 A 
ATOM     25  H   UNL A   1      41.854  30.573  29.467  1.00  0.00     0.167 HD
ATOM     26  C   UNL A   1      46.108  29.736  28.717  1.00  0.00     0.031 A 
ATOM     27  C   UNL A   1      39.679  32.111  30.302  1.00  0.00     0.031 A 
ATOM     28  C   UNL A   1      46.066  31.040  29.319  1.00  0.00     0.049 A 
ATOM     29  C   UNL A   1      40.918  32.897  30.615  1.00  0.00     0.074 A 
ATOM     30  C   UNL A   1      47.115  31.902  29.584  1.00  0.00     0.029 A 
ATOM     31  N   UNL A   1      44.908  31.668  29.753  1.00  0.00    -0.354 N 
ATOM     32  N   UNL A   1      42.168  32.595  30.359  1.00  0.00    -0.248 NA
ATOM     33  C   UNL A   1      40.728  34.176  31.310  1.00  0.00     0.031 C 
ATOM     34  C   UNL A   1      46.595  33.033  30.223  1.00  0.00     0.029 A 
ATOM     35  C   UNL A   1      45.219  32.894  30.311  1.00  0.00     0.049 A 
ATOM     36  H   UNL A   1      44.000  31.295  29.678  1.00  0.00     0.167 HD
ATOM     37  C   UNL A   1      42.917  33.649  30.866  1.00  0.00     0.074 A 
ATOM     38  C   UNL A   1      41.979  34.602  31.422  1.00  0.00     0.031 C 
ATOM     39  C   UNL A   1      44.262  33.811  30.874  1.00  0.00     0.031 A 
BRANCH  26  40
ATOM     40  C   UNL A   1      47.439  29.169  28.315  1.00  0.00    -0.014 A 
ATOM     41  C   UNL A   1      48.194  28.383  29.203  1.00  0.00     0.010 A 
ATOM     42  C   UNL A   1      47.929  29.403  27.018  1.00  0.00     0.010 A 
ATOM     43  C   UNL A   1      49.429  27.861  28.807  1.00  0.00     0.020 A 
ATOM     44  C   UNL A   1      49.154  28.869  26.612  1.00  0.00     0.020 A 
ATOM     45  C   UNL A   1      49.902  28.110  27.515  1.00  0.00     0.054 A 
BRANCH  45  46
ATOM     46  S   UNL A   1      51.494  27.398  27.017  1.00  0.00     0.124 S 
ATOM     47  O   UNL A   1      51.640  26.294  27.964  1.00  0.00    -0.237 OA
ATOM     48  O   UNL A   1      51.251  27.006  25.630  1.00  0.00    -0.237 OA
ATOM     49  O   UNL A   1      52.437  28.498  27.195  1.00  0.00    -0.744 OA
ENDBRANCH  45  46
ENDBRANCH  26  40
BRANCH  27  50
ATOM     50  C   UNL A   1      38.342  32.623  30.695  1.00  0.00    -0.014 A 
ATOM     51  C   UNL A   1      37.565  33.393  29.813  1.00  0.00     0.010 A 
ATOM     52  C   UNL A   1      37.863  32.372  31.992  1.00  0.00     0.010 A 
ATOM     53  C   UNL A   1      36.334  33.915  30.226  1.00  0.00     0.020 A 
ATOM     54  C   UNL A   1      36.634  32.890  32.406  1.00  0.00     0.020 A 
ATOM     55  C   UNL A   1      35.879  33.663  31.524  1.00  0.00     0.054 A 
BRANCH  55  56
ATOM     56  S   UNL A   1      34.261  34.285  32.059  1.00  0.00     0.124 S 
ATOM     57  O   UNL A   1      33.583  34.504  30.786  1.00  0.00    -0.237 OA
ATOM     58  O   UNL A   1      33.741  33.190  32.874  1.00  0.00    -0.237 OA
ATOM     59  O   UNL A   1      34.605  35.494  32.807  1.00  0.00    -0.744 OA
ENDBRANCH  55  56
ENDBRANCH  27  50
BRANCH  39  60
ATOM     60  C   UNL A   1      44.784  35.073  31.493  1.00  0.00    -0.014 A 
ATOM     61  C   UNL A   1      44.895  36.253  30.738  1.00  0.00     0.010 A 
ATOM     62  C   UNL A   1      45.135  35.083  32.854  1.00  0.00     0.010 A 
ATOM     63  C   UNL A   1      45.371  37.422  31.332  1.00  0.00     0.020 A 
ATOM     64  C   UNL A   1      45.592  36.255  33.455  1.00  0.00     0.020 A 
ATOM     65  C   UNL A   1      45.720  37.415  32.687  1.00  0.00     0.054 A 
BRANCH  65  66
ATOM     66  S   UNL A   1      46.297  38.954  33.451  1.00  0.00     0.124 S 
ATOM     67  O   UNL A   1      46.102  38.678  34.871  1.00  0.00    -0.237 OA
ATOM     68  O   UNL A   1      47.687  39.033  33.009  1.00  0.00    -0.237 OA
ATOM     69  O   UNL A   1      45.412  39.971  32.885  1.00  0.00    -0.744 OA
ENDBRANCH  65  66
ENDBRANCH  39  60
ENDBRANCH  13  14
ENDBRANCH   6   8
ENDBRANCH   5   6
ENDBRANCH   4   5
ENDBRANCH   3   4
ENDBRANCH   2   3
ENDBRANCH   1   2
BRANCH   1  70
ATOM     70  C   UNL A   1      44.559  19.022  25.062  1.00  0.00     0.188 C 
BRANCH  70  71
ATOM     71  O   UNL A   1      45.237  20.272  25.198  1.00  0.00    -0.376 OA
BRANCH  71  72
ATOM     72  C   UNL A   1      45.268  21.125  24.061  1.00  0.00     0.202 C 
BRANCH  72  73
ATOM     73  C   UNL A   1      45.569  22.613  24.285  1.00  0.00     0.261 C 
BRANCH  73  74
ATOM     74  O   UNL A   1      44.989  23.175  25.470  1.00  0.00    -0.459 OA
BRANCH  74  75
ATOM     75  C   UNL A   1      45.861  23.398  26.491  1.00  0.00     0.356 C 
ATOM     76  O   UNL A   1      47.077  23.513  26.370  1.00  0.00    -0.244 OA
BRANCH  75  77
ATOM     77  C   UNL A   1      45.162  23.426  27.741  1.00  0.00     0.144 A 
ATOM     78  C   UNL A   1      45.437  24.181  28.864  1.00  0.00     0.066 A 
ATOM     79  N   UNL A   1      44.054  22.697  28.069  1.00  0.00    -0.271 N 
ATOM     80  C   UNL A   1      44.445  23.836  29.802  1.00  0.00     0.096 A 
ATOM     81  N   UNL A   1      43.586  22.937  29.306  1.00  0.00    -0.175 NA
ATOM     82  H   UNL A   1      43.635  22.052  27.453  1.00  0.00     0.190 HD
BRANCH  80  83
ATOM     83  C   UNL A   1      44.370  24.373  31.154  1.00  0.00     0.040 A 
ATOM     84  C   UNL A   1      44.315  25.746  31.504  1.00  0.00     0.052 A 
ATOM     85  C   UNL A   1      44.360  23.675  32.340  1.00  0.00     0.205 A 
ATOM     86  C   UNL A   1      44.249  25.787  32.877  1.00  0.00     0.195 A 
ATOM     87  O   UNL A   1      44.280  24.530  33.395  1.00  0.00    -0.472 OA
ENDBRANCH  80  83
ENDBRANCH  75  77
ENDBRANCH  74  75
ENDBRANCH  73  74
ENDBRANCH  72  73
ENDBRANCH  71  72
ENDBRANCH  70  71
ENDBRANCH   1  70
TORSDOF 21
ENDMDL
MODEL 3
REMARK VINA RESULT:      -8.8      4.964     11.376
REMARK SMILES O=C(OCCOCCOCCOC(=O)c1cc(-c2ccoc2)n[nH]1)c1ccc(-c2c3nc(c(-c4ccc(S(=O)(=O)[O-])cc4)c4ccc([nH]4)c(-c4ccc(S(=O)(=O)[O-])cc4)c4nc(c(-c5ccc(S(=O)(=O)[O-])cc5)c5ccc2[nH]5)C=C4)C=C3)cc1
REMARK SMILES IDX 7 1 6 2 5 3 4 4 3 5 2 6 1 7 25 8 26 9 84 10 27 11 83 12
REMARK SMILES IDX 28 13 29 14 30 15 77 16 31 17 82 18 76 19 78 20 32 21 81 22
REMARK SMILES IDX 75 23 74 24 33 26 63 27 44 28 62 29 45 30 48 31 61 32 79 33
REMARK SMILES IDX 46 34 47 35 60 37 80 38 49 39 34 40 35 41 43 42 36 43 42 44
REMARK SMILES IDX 37 45 38 46 39 47 40 48 41 49 64 50 65 51 73 52 66 53 72 54
REMARK SMILES IDX 67 55 68 56 69 57 70 58 71 59 50 60 51 61 59 62 52 63 58 64
REMARK SMILES IDX 53 65 54 66 55 67 56 68 57 69 8 70 9 71 10 72 11 73 12 74
REMARK SMILES IDX 13 75 14 76 15 77 16 78 24 79 17 80 23 81 18 83 19 84 22 85
REMARK SMILES IDX 20 86 21 87
REMARK H PARENT 78 25 48 36 24 82
REMARK Flexibility Score: inf
ROOT
ATOM      1  C   UNL A   1      40.892  22.348  27.660  1.00  0.00     0.188 C 
ENDROOT
BRANCH   1   2
ATOM      2  O   UNL A   1      40.443  21.040  28.042  1.00  0.00    -0.376 OA
BRANCH   2   3
ATOM      3  C   UNL A   1      41.258  19.983  27.514  1.00  0.00     0.202 C 
BRANCH   3   4
ATOM      4  C   UNL A   1      41.063  19.668  26.020  1.00  0.00     0.261 C 
BRANCH   4   5
ATOM      5  O   UNL A   1      42.231  19.099  25.409  1.00  0.00    -0.460 OA
BRANCH   5   6
ATOM      6  C   UNL A   1      43.419  19.704  25.151  1.00  0.00     0.338 C 
ATOM      7  O   UNL A   1      44.313  19.033  24.639  1.00  0.00    -0.246 OA
BRANCH   6   8
ATOM      8  C   UNL A   1      43.710  21.140  25.470  1.00  0.00     0.060 A 
ATOM      9  C   UNL A   1      43.374  22.226  24.660  1.00  0.00     0.016 A 
ATOM     10  C   UNL A   1      44.309  21.416  26.713  1.00  0.00     0.016 A 
ATOM     11  C   UNL A   1      43.722  23.528  25.007  1.00  0.00     0.010 A 
ATOM     12  C   UNL A   1      44.607  22.731  27.098  1.00  0.00     0.010 A 
ATOM     13  C   UNL A   1      44.346  23.791  26.225  1.00  0.00    -0.014 A 
BRANCH  13  14
ATOM     14  C   UNL A   1      44.790  25.174  26.507  1.00  0.00     0.031 A 
ATOM     15  C   UNL A   1      43.798  26.159  27.053  1.00  0.00     0.074 A 
ATOM     16  C   UNL A   1      46.092  25.501  26.391  1.00  0.00     0.049 A 
ATOM     17  N   UNL A   1      43.975  27.415  27.367  1.00  0.00    -0.248 NA
ATOM     18  C   UNL A   1      42.432  25.664  27.295  1.00  0.00     0.031 C 
ATOM     19  C   UNL A   1      47.153  24.594  25.950  1.00  0.00     0.029 A 
ATOM     20  N   UNL A   1      46.749  26.674  26.650  1.00  0.00    -0.354 N 
ATOM     21  C   UNL A   1      42.745  27.863  27.831  1.00  0.00     0.074 A 
ATOM     22  C   UNL A   1      41.824  26.751  27.749  1.00  0.00     0.031 C 
ATOM     23  C   UNL A   1      48.331  25.241  25.978  1.00  0.00     0.029 A 
ATOM     24  C   UNL A   1      48.098  26.618  26.390  1.00  0.00     0.049 A 
ATOM     25  H   UNL A   1      46.298  27.481  26.988  1.00  0.00     0.167 HD
ATOM     26  C   UNL A   1      42.415  29.095  28.283  1.00  0.00     0.031 A 
ATOM     27  C   UNL A   1      49.033  27.585  26.439  1.00  0.00     0.031 A 
ATOM     28  C   UNL A   1      43.336  30.196  28.345  1.00  0.00     0.049 A 
ATOM     29  C   UNL A   1      48.611  28.972  26.825  1.00  0.00     0.074 A 
ATOM     30  C   UNL A   1      43.102  31.494  28.759  1.00  0.00     0.029 A 
ATOM     31  N   UNL A   1      44.671  30.125  27.975  1.00  0.00    -0.354 N 
ATOM     32  N   UNL A   1      47.431  29.392  27.211  1.00  0.00    -0.248 NA
ATOM     33  C   UNL A   1      49.641  30.016  26.760  1.00  0.00     0.031 C 
ATOM     34  C   UNL A   1      44.286  32.221  28.595  1.00  0.00     0.029 A 
ATOM     35  C   UNL A   1      45.267  31.363  28.125  1.00  0.00     0.049 A 
ATOM     36  H   UNL A   1      45.126  29.314  27.652  1.00  0.00     0.167 HD
ATOM     37  C   UNL A   1      47.575  30.755  27.432  1.00  0.00     0.074 A 
ATOM     38  C   UNL A   1      48.960  31.081  27.158  1.00  0.00     0.031 C 
ATOM     39  C   UNL A   1      46.643  31.658  27.824  1.00  0.00     0.031 A 
BRANCH  26  40
ATOM     40  C   UNL A   1      40.989  29.322  28.693  1.00  0.00    -0.014 A 
ATOM     41  C   UNL A   1      40.634  29.468  30.046  1.00  0.00     0.010 A 
ATOM     42  C   UNL A   1      39.991  29.418  27.707  1.00  0.00     0.010 A 
ATOM     43  C   UNL A   1      39.301  29.684  30.406  1.00  0.00     0.020 A 
ATOM     44  C   UNL A   1      38.660  29.650  28.061  1.00  0.00     0.020 A 
ATOM     45  C   UNL A   1      38.321  29.771  29.411  1.00  0.00     0.054 A 
BRANCH  45  46
ATOM     46  S   UNL A   1      36.603  30.078  29.903  1.00  0.00     0.124 S 
ATOM     47  O   UNL A   1      36.597  31.528  30.084  1.00  0.00    -0.237 OA
ATOM     48  O   UNL A   1      35.847  29.586  28.753  1.00  0.00    -0.237 OA
ATOM     49  O   UNL A   1      36.448  29.297  31.127  1.00  0.00    -0.744 OA
ENDBRANCH  45  46
ENDBRANCH  26  40
BRANCH  27  50
ATOM     50  C   UNL A   1      50.429  27.313  26.010  1.00  0.00    -0.014 A 
ATOM     51  C   UNL A   1      50.807  27.393  24.658  1.00  0.00     0.010 A 
ATOM     52  C   UNL A   1      51.380  26.923  26.967  1.00  0.00     0.010 A 
ATOM     53  C   UNL A   1      52.114  27.075  24.270  1.00  0.00     0.020 A 
ATOM     54  C   UNL A   1      52.684  26.607  26.583  1.00  0.00     0.020 A 
ATOM     55  C   UNL A   1      53.043  26.678  25.237  1.00  0.00     0.054 A 
BRANCH  55  56
ATOM     56  S   UNL A   1      54.756  26.316  24.760  1.00  0.00     0.124 S 
ATOM     57  O   UNL A   1      54.849  24.885  25.028  1.00  0.00    -0.237 OA
ATOM     58  O   UNL A   1      54.793  26.701  23.352  1.00  0.00    -0.237 OA
ATOM     59  O   UNL A   1      55.533  27.177  25.651  1.00  0.00    -0.744 OA
ENDBRANCH  55  56
ENDBRANCH  27  50
BRANCH  39  60
ATOM     60  C   UNL A   1      47.107  33.075  27.989  1.00  0.00    -0.014 A 
ATOM     61  C   UNL A   1      47.681  33.509  29.195  1.00  0.00     0.010 A 
ATOM     62  C   UNL A   1      46.995  33.969  26.910  1.00  0.00     0.010 A 
ATOM     63  C   UNL A   1      48.117  34.828  29.328  1.00  0.00     0.020 A 
ATOM     64  C   UNL A   1      47.450  35.282  27.033  1.00  0.00     0.020 A 
ATOM     65  C   UNL A   1      47.996  35.707  28.247  1.00  0.00     0.054 A 
BRANCH  65  66
ATOM     66  S   UNL A   1      48.608  37.404  28.425  1.00  0.00     0.124 S 
ATOM     67  O   UNL A   1      48.992  37.732  27.055  1.00  0.00    -0.237 OA
ATOM     68  O   UNL A   1      47.441  38.116  28.939  1.00  0.00    -0.237 OA
ATOM     69  O   UNL A   1      49.716  37.272  29.369  1.00  0.00    -0.744 OA
ENDBRANCH  65  66
ENDBRANCH  39  60
ENDBRANCH  13  14
ENDBRANCH   6   8
ENDBRANCH   5   6
ENDBRANCH   4   5
ENDBRANCH   3   4
ENDBRANCH   2   3
ENDBRANCH   1   2
BRANCH   1  70
ATOM     70  C   UNL A   1      39.925  23.041  26.695  1.00  0.00     0.188 C 
BRANCH  70  71
ATOM     71  O   UNL A   1      38.656  22.418  26.489  1.00  0.00    -0.376 OA
BRANCH  71  72
ATOM     72  C   UNL A   1      37.790  23.006  25.527  1.00  0.00     0.202 C 
BRANCH  72  73
ATOM     73  C   UNL A   1      36.490  23.652  26.028  1.00  0.00     0.261 C 
BRANCH  73  74
ATOM     74  O   UNL A   1      35.329  22.815  25.945  1.00  0.00    -0.459 OA
BRANCH  74  75
ATOM     75  C   UNL A   1      34.682  22.839  24.747  1.00  0.00     0.356 C 
ATOM     76  O   UNL A   1      34.655  23.795  23.978  1.00  0.00    -0.244 OA
BRANCH  75  77
ATOM     77  C   UNL A   1      33.987  21.605  24.535  1.00  0.00     0.144 A 
ATOM     78  C   UNL A   1      34.337  20.337  24.956  1.00  0.00     0.066 A 
ATOM     79  N   UNL A   1      32.808  21.440  23.864  1.00  0.00    -0.271 N 
ATOM     80  C   UNL A   1      33.313  19.489  24.492  1.00  0.00     0.096 A 
ATOM     81  N   UNL A   1      32.365  20.171  23.838  1.00  0.00    -0.175 NA
ATOM     82  H   UNL A   1      32.325  22.186  23.439  1.00  0.00     0.190 HD
BRANCH  80  83
ATOM     83  C   UNL A   1      33.292  18.045  24.683  1.00  0.00     0.040 A 
ATOM     84  C   UNL A   1      34.053  17.097  23.952  1.00  0.00     0.052 A 
ATOM     85  C   UNL A   1      32.531  17.322  25.572  1.00  0.00     0.205 A 
ATOM     86  C   UNL A   1      33.722  15.866  24.467  1.00  0.00     0.195 A 
ATOM     87  O   UNL A   1      32.792  15.993  25.450  1.00  0.00    -0.472 OA
ENDBRANCH  80  83
ENDBRANCH  75  77
ENDBRANCH  74  75
ENDBRANCH  73  74
ENDBRANCH  72  73
ENDBRANCH  71  72
ENDBRANCH  70  71
ENDBRANCH   1  70
TORSDOF 21
ENDMDL
