MODEL 1
REMARK VINA RESULT:      -9.1      0.000      0.000
REMARK SMILES Cc1cc(=O)c(Oc2ccc(C(=O)OCCOCCOCCOC(=O)c3ccc(-c4c5nc(c(-c6ccc(S(=O)(=O)[O-])cc6)c6ccc([nH]6)c(-c6ccc(S(=O)(=O)[O-])cc6)c6nc(c(-c7ccc(S(=O)(=O)[O-])cc7)c7ccc4[nH]7)C=C6)C=C5)cc3)cc2)c(-c2ccc(S(C)(=O)=O)cc2)o1
REMARK SMILES IDX 18 1 17 2 16 3 15 4 14 5 12 6 13 7 11 8 8 9 9 10 87 11 10 12
REMARK SMILES IDX 86 13 7 14 6 15 1 16 2 17 3 18 99 19 4 20 88 21 5 22 89 23
REMARK SMILES IDX 90 24 98 25 91 26 97 27 92 28 93 29 94 30 95 31 96 32 19 33
REMARK SMILES IDX 20 34 21 35 22 36 23 37 24 38 25 39 26 40 27 41 85 42 28 43
REMARK SMILES IDX 84 44 29 45 30 46 31 47 78 48 32 49 83 50 77 51 79 52 33 53
REMARK SMILES IDX 82 54 76 55 75 56 34 58 64 59 45 60 63 61 46 62 49 63 62 64
REMARK SMILES IDX 80 65 47 66 48 67 61 69 81 70 50 71 35 72 36 73 44 74 37 75
REMARK SMILES IDX 43 76 38 77 39 78 40 79 41 80 42 81 65 82 66 83 74 84 67 85
REMARK SMILES IDX 73 86 68 87 69 88 70 89 71 90 72 91 51 92 52 93 60 94 53 95
REMARK SMILES IDX 59 96 54 97 55 98 56 99 57 100 58 101
REMARK H PARENT 79 57 49 68
REMARK Flexibility Score: inf
ROOT
ATOM      1  C   UNL A   1      40.285  25.987  27.341  1.00  0.00     0.188 C 
ENDROOT
BRANCH   1   2
ATOM      2  O   UNL A   1      40.713  25.121  28.389  1.00  0.00    -0.376 OA
BRANCH   2   3
ATOM      3  C   UNL A   1      41.592  24.047  28.019  1.00  0.00     0.202 C 
BRANCH   3   4
ATOM      4  C   UNL A   1      40.987  22.665  27.713  1.00  0.00     0.261 C 
BRANCH   4   5
ATOM      5  O   UNL A   1      40.177  22.636  26.523  1.00  0.00    -0.460 OA
BRANCH   5   6
ATOM      6  C   UNL A   1      39.510  21.494  26.228  1.00  0.00     0.338 C 
ATOM      7  O   UNL A   1      39.900  20.359  26.446  1.00  0.00    -0.246 OA
BRANCH   6   8
ATOM      8  C   UNL A   1      38.177  21.840  25.641  1.00  0.00     0.060 A 
ATOM      9  C   UNL A   1      35.781  22.585  24.377  1.00  0.00     0.127 A 
ATOM     10  C   UNL A   1      36.501  23.522  25.114  1.00  0.00     0.048 A 
ATOM     11  C   UNL A   1      36.198  21.254  24.351  1.00  0.00     0.048 A 
ATOM     12  C   UNL A   1      37.715  23.161  25.716  1.00  0.00     0.019 A 
ATOM     13  C   UNL A   1      37.388  20.882  24.983  1.00  0.00     0.019 A 
BRANCH   9  14
ATOM     14  O   UNL A   1      34.577  22.886  23.807  1.00  0.00    -0.449 OA
BRANCH  14  15
ATOM     15  C   UNL A   1      33.380  23.007  24.503  1.00  0.00     0.217 A 
ATOM     16  C   UNL A   1      29.827  23.901  26.809  1.00  0.00     0.088 C 
ATOM     17  C   UNL A   1      31.058  23.707  25.981  1.00  0.00     0.105 A 
ATOM     18  C   UNL A   1      31.871  24.715  25.655  1.00  0.00     0.098 A 
ATOM     19  O   UNL A   1      31.308  22.401  25.609  1.00  0.00    -0.457 OA
ATOM     20  C   UNL A   1      33.071  24.431  24.856  1.00  0.00     0.228 A 
ATOM     21  C   UNL A   1      32.478  22.082  24.925  1.00  0.00     0.180 A 
ATOM     22  O   UNL A   1      33.804  25.363  24.533  1.00  0.00    -0.285 OA
BRANCH  21  23
ATOM     23  C   UNL A   1      32.599  20.626  24.773  1.00  0.00     0.021 A 
ATOM     24  C   UNL A   1      32.341  19.988  23.551  1.00  0.00     0.013 A 
ATOM     25  C   UNL A   1      33.031  19.862  25.857  1.00  0.00     0.013 A 
ATOM     26  C   UNL A   1      32.632  18.624  23.385  1.00  0.00     0.021 A 
ATOM     27  C   UNL A   1      33.285  18.500  25.691  1.00  0.00     0.021 A 
ATOM     28  C   UNL A   1      33.095  17.865  24.461  1.00  0.00     0.067 A 
BRANCH  28  29
ATOM     29  S   UNL A   1      33.797  16.238  24.218  1.00  0.00     0.175 S 
ATOM     30  C   UNL A   1      35.272  16.014  25.153  1.00  0.00     0.163 C 
ATOM     31  O   UNL A   1      32.815  15.293  24.726  1.00  0.00    -0.224 OA
ATOM     32  O   UNL A   1      34.210  16.202  22.839  1.00  0.00    -0.224 OA
ENDBRANCH  28  29
ENDBRANCH  21  23
ENDBRANCH  14  15
ENDBRANCH   9  14
ENDBRANCH   6   8
ENDBRANCH   5   6
ENDBRANCH   4   5
ENDBRANCH   3   4
ENDBRANCH   2   3
ENDBRANCH   1   2
BRANCH   1  33
ATOM     33  C   UNL A   1      40.310  27.476  27.714  1.00  0.00     0.188 C 
BRANCH  33  34
ATOM     34  O   UNL A   1      40.907  27.770  28.968  1.00  0.00    -0.376 OA
BRANCH  34  35
ATOM     35  C   UNL A   1      40.053  28.603  29.771  1.00  0.00     0.202 C 
BRANCH  35  36
ATOM     36  C   UNL A   1      38.644  28.001  29.961  1.00  0.00     0.261 C 
BRANCH  36  37
ATOM     37  O   UNL A   1      37.827  28.706  30.941  1.00  0.00    -0.460 OA
BRANCH  37  38
ATOM     38  C   UNL A   1      37.614  30.038  30.739  1.00  0.00     0.338 C 
ATOM     39  O   UNL A   1      37.105  30.540  29.750  1.00  0.00    -0.246 OA
BRANCH  38  40
ATOM     40  C   UNL A   1      37.978  30.829  31.959  1.00  0.00     0.060 A 
ATOM     41  C   UNL A   1      37.373  32.047  32.285  1.00  0.00     0.016 A 
ATOM     42  C   UNL A   1      38.986  30.347  32.801  1.00  0.00     0.016 A 
ATOM     43  C   UNL A   1      37.871  32.829  33.354  1.00  0.00     0.010 A 
ATOM     44  C   UNL A   1      39.506  31.144  33.840  1.00  0.00     0.010 A 
ATOM     45  C   UNL A   1      38.993  32.424  34.103  1.00  0.00    -0.014 A 
BRANCH  45  46
ATOM     46  C   UNL A   1      39.464  33.197  35.297  1.00  0.00     0.031 A 
ATOM     47  C   UNL A   1      38.935  33.050  36.712  1.00  0.00     0.074 A 
ATOM     48  C   UNL A   1      40.422  34.113  35.073  1.00  0.00     0.049 A 
ATOM     49  N   UNL A   1      39.336  33.624  37.824  1.00  0.00    -0.248 NA
ATOM     50  C   UNL A   1      37.812  32.142  36.925  1.00  0.00     0.031 C 
ATOM     51  C   UNL A   1      41.043  34.365  33.772  1.00  0.00     0.029 A 
ATOM     52  N   UNL A   1      41.039  34.993  35.923  1.00  0.00    -0.354 N 
ATOM     53  C   UNL A   1      38.540  33.109  38.852  1.00  0.00     0.074 A 
ATOM     54  C   UNL A   1      37.607  32.199  38.234  1.00  0.00     0.031 C 
ATOM     55  C   UNL A   1      41.962  35.327  33.913  1.00  0.00     0.029 A 
ATOM     56  C   UNL A   1      41.976  35.779  35.303  1.00  0.00     0.049 A 
ATOM     57  H   UNL A   1      40.830  35.054  36.883  1.00  0.00     0.167 HD
ATOM     58  C   UNL A   1      38.571  33.369  40.183  1.00  0.00     0.031 A 
ATOM     59  C   UNL A   1      42.768  36.754  35.786  1.00  0.00     0.031 A 
ATOM     60  C   UNL A   1      39.459  34.327  40.795  1.00  0.00     0.049 A 
ATOM     61  C   UNL A   1      42.746  37.082  37.249  1.00  0.00     0.074 A 
ATOM     62  C   UNL A   1      39.591  34.635  42.140  1.00  0.00     0.029 A 
ATOM     63  N   UNL A   1      40.346  35.139  40.111  1.00  0.00    -0.354 N 
ATOM     64  N   UNL A   1      42.040  36.528  38.203  1.00  0.00    -0.248 NA
ATOM     65  C   UNL A   1      43.645  38.151  37.702  1.00  0.00     0.031 C 
ATOM     66  C   UNL A   1      40.493  35.691  42.260  1.00  0.00     0.029 A 
ATOM     67  C   UNL A   1      40.996  35.977  41.001  1.00  0.00     0.049 A 
ATOM     68  H   UNL A   1      40.491  35.124  39.138  1.00  0.00     0.167 HD
ATOM     69  C   UNL A   1      42.433  37.161  39.377  1.00  0.00     0.074 A 
ATOM     70  C   UNL A   1      43.443  38.131  39.013  1.00  0.00     0.031 C 
ATOM     71  C   UNL A   1      41.996  36.949  40.641  1.00  0.00     0.031 A 
BRANCH  58  72
ATOM     72  C   UNL A   1      37.650  32.616  41.125  1.00  0.00    -0.014 A 
ATOM     73  C   UNL A   1      36.450  33.211  41.567  1.00  0.00     0.010 A 
ATOM     74  C   UNL A   1      38.088  31.436  41.756  1.00  0.00     0.010 A 
ATOM     75  C   UNL A   1      35.748  32.686  42.660  1.00  0.00     0.020 A 
ATOM     76  C   UNL A   1      37.374  30.893  42.832  1.00  0.00     0.020 A 
ATOM     77  C   UNL A   1      36.228  31.542  43.300  1.00  0.00     0.054 A 
BRANCH  77  78
ATOM     78  S   UNL A   1      35.370  30.942  44.785  1.00  0.00     0.124 S 
ATOM     79  O   UNL A   1      34.046  30.612  44.266  1.00  0.00    -0.237 OA
ATOM     80  O   UNL A   1      36.191  29.804  45.191  1.00  0.00    -0.237 OA
ATOM     81  O   UNL A   1      35.415  32.088  45.693  1.00  0.00    -0.744 OA
ENDBRANCH  77  78
ENDBRANCH  58  72
BRANCH  59  82
ATOM     82  C   UNL A   1      43.703  37.421  34.846  1.00  0.00    -0.014 A 
ATOM     83  C   UNL A   1      43.275  38.519  34.077  1.00  0.00     0.010 A 
ATOM     84  C   UNL A   1      44.974  36.869  34.617  1.00  0.00     0.010 A 
ATOM     85  C   UNL A   1      44.075  39.009  33.045  1.00  0.00     0.020 A 
ATOM     86  C   UNL A   1      45.791  37.380  33.609  1.00  0.00     0.020 A 
ATOM     87  C   UNL A   1      45.321  38.424  32.808  1.00  0.00     0.054 A 
BRANCH  87  88
ATOM     88  S   UNL A   1      46.312  39.026  31.415  1.00  0.00     0.124 S 
ATOM     89  O   UNL A   1      45.679  38.348  30.287  1.00  0.00    -0.237 OA
ATOM     90  O   UNL A   1      46.105  40.470  31.479  1.00  0.00    -0.237 OA
ATOM     91  O   UNL A   1      47.663  38.576  31.739  1.00  0.00    -0.744 OA
ENDBRANCH  87  88
ENDBRANCH  59  82
BRANCH  71  92
ATOM     92  C   UNL A   1      42.589  37.770  41.756  1.00  0.00    -0.014 A 
ATOM     93  C   UNL A   1      43.732  37.304  42.433  1.00  0.00     0.010 A 
ATOM     94  C   UNL A   1      41.938  38.924  42.223  1.00  0.00     0.010 A 
ATOM     95  C   UNL A   1      44.191  37.954  43.581  1.00  0.00     0.020 A 
ATOM     96  C   UNL A   1      42.413  39.596  43.353  1.00  0.00     0.020 A 
ATOM     97  C   UNL A   1      43.521  39.091  44.040  1.00  0.00     0.054 A 
BRANCH  97  98
ATOM     98  S   UNL A   1      44.106  39.897  45.556  1.00  0.00     0.124 S 
ATOM     99  O   UNL A   1      43.953  41.312  45.229  1.00  0.00    -0.237 OA
ATOM    100  O   UNL A   1      43.187  39.380  46.568  1.00  0.00    -0.237 OA
ATOM    101  O   UNL A   1      45.485  39.431  45.681  1.00  0.00    -0.744 OA
ENDBRANCH  97  98
ENDBRANCH  71  92
ENDBRANCH  45  46
ENDBRANCH  38  40
ENDBRANCH  37  38
ENDBRANCH  36  37
ENDBRANCH  35  36
ENDBRANCH  34  35
ENDBRANCH  33  34
ENDBRANCH   1  33
TORSDOF 24
ENDMDL
MODEL 2
REMARK VINA RESULT:      -9.0      0.824      7.620
REMARK SMILES Cc1cc(=O)c(Oc2ccc(C(=O)OCCOCCOCCOC(=O)c3ccc(-c4c5nc(c(-c6ccc(S(=O)(=O)[O-])cc6)c6ccc([nH]6)c(-c6ccc(S(=O)(=O)[O-])cc6)c6nc(c(-c7ccc(S(=O)(=O)[O-])cc7)c7ccc4[nH]7)C=C6)C=C5)cc3)cc2)c(-c2ccc(S(C)(=O)=O)cc2)o1
REMARK SMILES IDX 18 1 17 2 16 3 15 4 14 5 12 6 13 7 11 8 8 9 9 10 87 11 10 12
REMARK SMILES IDX 86 13 7 14 6 15 1 16 2 17 3 18 99 19 4 20 88 21 5 22 89 23
REMARK SMILES IDX 90 24 98 25 91 26 97 27 92 28 93 29 94 30 95 31 96 32 19 33
REMARK SMILES IDX 20 34 21 35 22 36 23 37 24 38 25 39 26 40 27 41 85 42 28 43
REMARK SMILES IDX 84 44 29 45 30 46 31 47 78 48 32 49 83 50 77 51 79 52 33 53
REMARK SMILES IDX 82 54 76 55 75 56 34 58 64 59 45 60 63 61 46 62 49 63 62 64
REMARK SMILES IDX 80 65 47 66 48 67 61 69 81 70 50 71 35 72 36 73 44 74 37 75
REMARK SMILES IDX 43 76 38 77 39 78 40 79 41 80 42 81 65 82 66 83 74 84 67 85
REMARK SMILES IDX 73 86 68 87 69 88 70 89 71 90 72 91 51 92 52 93 60 94 53 95
REMARK SMILES IDX 59 96 54 97 55 98 56 99 57 100 58 101
REMARK H PARENT 79 57 49 68
REMARK Flexibility Score: inf
ROOT
ATOM      1  C   UNL A   1      40.124  25.978  27.412  1.00  0.00     0.188 C 
ENDROOT
BRANCH   1   2
ATOM      2  O   UNL A   1      40.575  25.125  28.460  1.00  0.00    -0.376 OA
BRANCH   2   3
ATOM      3  C   UNL A   1      41.418  24.026  28.079  1.00  0.00     0.202 C 
BRANCH   3   4
ATOM      4  C   UNL A   1      40.762  22.696  27.668  1.00  0.00     0.261 C 
BRANCH   4   5
ATOM      5  O   UNL A   1      40.004  22.776  26.447  1.00  0.00    -0.460 OA
BRANCH   5   6
ATOM      6  C   UNL A   1      39.192  21.740  26.126  1.00  0.00     0.338 C 
ATOM      7  O   UNL A   1      39.399  20.562  26.374  1.00  0.00    -0.246 OA
BRANCH   6   8
ATOM      8  C   UNL A   1      37.957  22.267  25.465  1.00  0.00     0.060 A 
ATOM      9  C   UNL A   1      35.767  23.380  24.101  1.00  0.00     0.127 A 
ATOM     10  C   UNL A   1      36.399  24.101  25.112  1.00  0.00     0.048 A 
ATOM     11  C   UNL A   1      36.158  22.068  23.838  1.00  0.00     0.048 A 
ATOM     12  C   UNL A   1      37.515  23.562  25.768  1.00  0.00     0.019 A 
ATOM     13  C   UNL A   1      37.245  21.511  24.518  1.00  0.00     0.019 A 
BRANCH   9  14
ATOM     14  O   UNL A   1      34.656  23.854  23.464  1.00  0.00    -0.449 OA
BRANCH  14  15
ATOM     15  C   UNL A   1      33.431  24.088  24.076  1.00  0.00     0.217 A 
ATOM     16  C   UNL A   1      29.815  25.327  26.111  1.00  0.00     0.088 C 
ATOM     17  C   UNL A   1      31.078  25.012  25.372  1.00  0.00     0.105 A 
ATOM     18  C   UNL A   1      31.975  25.946  25.052  1.00  0.00     0.098 A 
ATOM     19  O   UNL A   1      31.260  23.675  25.077  1.00  0.00    -0.457 OA
ATOM     20  C   UNL A   1      33.199  25.545  24.344  1.00  0.00     0.228 A 
ATOM     21  C   UNL A   1      32.444  23.247  24.483  1.00  0.00     0.180 A 
ATOM     22  O   UNL A   1      34.013  26.410  24.025  1.00  0.00    -0.285 OA
BRANCH  21  23
ATOM     23  C   UNL A   1      32.475  21.780  24.407  1.00  0.00     0.021 A 
ATOM     24  C   UNL A   1      32.141  21.096  23.229  1.00  0.00     0.013 A 
ATOM     25  C   UNL A   1      32.894  21.049  25.518  1.00  0.00     0.013 A 
ATOM     26  C   UNL A   1      32.346  19.710  23.129  1.00  0.00     0.021 A 
ATOM     27  C   UNL A   1      33.061  19.666  25.419  1.00  0.00     0.021 A 
ATOM     28  C   UNL A   1      32.797  18.982  24.231  1.00  0.00     0.067 A 
BRANCH  28  29
ATOM     29  S   UNL A   1      33.393  17.304  24.057  1.00  0.00     0.175 S 
ATOM     30  C   UNL A   1      35.055  17.139  24.614  1.00  0.00     0.163 C 
ATOM     31  O   UNL A   1      32.562  16.486  24.924  1.00  0.00    -0.224 OA
ATOM     32  O   UNL A   1      33.440  17.061  22.637  1.00  0.00    -0.224 OA
ENDBRANCH  28  29
ENDBRANCH  21  23
ENDBRANCH  14  15
ENDBRANCH   9  14
ENDBRANCH   6   8
ENDBRANCH   5   6
ENDBRANCH   4   5
ENDBRANCH   3   4
ENDBRANCH   2   3
ENDBRANCH   1   2
BRANCH   1  33
ATOM     33  C   UNL A   1      40.001  27.454  27.818  1.00  0.00     0.188 C 
BRANCH  33  34
ATOM     34  O   UNL A   1      40.673  27.803  29.019  1.00  0.00    -0.376 OA
BRANCH  34  35
ATOM     35  C   UNL A   1      39.796  28.492  29.926  1.00  0.00     0.202 C 
BRANCH  35  36
ATOM     36  C   UNL A   1      38.686  27.579  30.491  1.00  0.00     0.261 C 
BRANCH  36  37
ATOM     37  O   UNL A   1      38.141  28.029  31.765  1.00  0.00    -0.460 OA
BRANCH  37  38
ATOM     38  C   UNL A   1      37.389  29.167  31.760  1.00  0.00     0.338 C 
ATOM     39  O   UNL A   1      36.416  29.379  31.057  1.00  0.00    -0.246 OA
BRANCH  38  40
ATOM     40  C   UNL A   1      37.840  30.110  32.834  1.00  0.00     0.060 A 
ATOM     41  C   UNL A   1      37.179  31.310  33.121  1.00  0.00     0.016 A 
ATOM     42  C   UNL A   1      38.986  29.797  33.572  1.00  0.00     0.016 A 
ATOM     43  C   UNL A   1      37.742  32.238  34.029  1.00  0.00     0.010 A 
ATOM     44  C   UNL A   1      39.566  30.738  34.446  1.00  0.00     0.010 A 
ATOM     45  C   UNL A   1      38.983  31.998  34.651  1.00  0.00    -0.014 A 
BRANCH  45  46
ATOM     46  C   UNL A   1      39.537  32.929  35.687  1.00  0.00     0.031 A 
ATOM     47  C   UNL A   1      40.625  33.963  35.458  1.00  0.00     0.074 A 
ATOM     48  C   UNL A   1      39.031  32.807  36.927  1.00  0.00     0.049 A 
ATOM     49  N   UNL A   1      41.113  34.864  36.278  1.00  0.00    -0.248 NA
ATOM     50  C   UNL A   1      41.254  34.005  34.141  1.00  0.00     0.031 C 
ATOM     51  C   UNL A   1      37.972  31.871  37.304  1.00  0.00     0.029 A 
ATOM     52  N   UNL A   1      39.333  33.470  38.087  1.00  0.00    -0.354 N 
ATOM     53  C   UNL A   1      42.065  35.592  35.556  1.00  0.00     0.074 A 
ATOM     54  C   UNL A   1      42.115  35.009  34.238  1.00  0.00     0.031 C 
ATOM     55  C   UNL A   1      37.704  32.027  38.606  1.00  0.00     0.029 A 
ATOM     56  C   UNL A   1      38.588  33.050  39.160  1.00  0.00     0.049 A 
ATOM     57  H   UNL A   1      40.017  34.176  38.146  1.00  0.00     0.167 HD
ATOM     58  C   UNL A   1      42.833  36.640  35.948  1.00  0.00     0.031 A 
ATOM     59  C   UNL A   1      38.601  33.439  40.448  1.00  0.00     0.031 A 
ATOM     60  C   UNL A   1      42.833  37.182  37.284  1.00  0.00     0.049 A 
ATOM     61  C   UNL A   1      39.504  34.553  40.886  1.00  0.00     0.074 A 
ATOM     62  C   UNL A   1      43.549  38.265  37.769  1.00  0.00     0.029 A 
ATOM     63  N   UNL A   1      42.103  36.679  38.346  1.00  0.00    -0.354 N 
ATOM     64  N   UNL A   1      40.334  35.267  40.167  1.00  0.00    -0.248 NA
ATOM     65  C   UNL A   1      39.454  34.927  42.306  1.00  0.00     0.031 C 
ATOM     66  C   UNL A   1      43.318  38.363  39.140  1.00  0.00     0.029 A 
ATOM     67  C   UNL A   1      42.384  37.403  39.492  1.00  0.00     0.049 A 
ATOM     68  H   UNL A   1      41.479  35.921  38.295  1.00  0.00     0.167 HD
ATOM     69  C   UNL A   1      40.883  36.198  41.042  1.00  0.00     0.074 A 
ATOM     70  C   UNL A   1      40.285  35.961  42.338  1.00  0.00     0.031 C 
ATOM     71  C   UNL A   1      41.797  37.165  40.786  1.00  0.00     0.031 A 
BRANCH  58  72
ATOM     72  C   UNL A   1      43.746  37.325  34.948  1.00  0.00    -0.014 A 
ATOM     73  C   UNL A   1      45.141  37.126  35.012  1.00  0.00     0.010 A 
ATOM     74  C   UNL A   1      43.249  38.345  34.115  1.00  0.00     0.010 A 
ATOM     75  C   UNL A   1      46.019  37.973  34.323  1.00  0.00     0.020 A 
ATOM     76  C   UNL A   1      44.124  39.177  33.403  1.00  0.00     0.020 A 
ATOM     77  C   UNL A   1      45.504  39.008  33.540  1.00  0.00     0.054 A 
BRANCH  77  78
ATOM     78  S   UNL A   1      46.659  40.165  32.746  1.00  0.00     0.124 S 
ATOM     79  O   UNL A   1      47.898  39.395  32.716  1.00  0.00    -0.237 OA
ATOM     80  O   UNL A   1      46.031  40.403  31.449  1.00  0.00    -0.237 OA
ATOM     81  O   UNL A   1      46.664  41.317  33.648  1.00  0.00    -0.744 OA
ENDBRANCH  77  78
ENDBRANCH  58  72
BRANCH  59  82
ATOM     82  C   UNL A   1      37.646  32.790  41.380  1.00  0.00    -0.014 A 
ATOM     83  C   UNL A   1      36.488  33.472  41.800  1.00  0.00     0.010 A 
ATOM     84  C   UNL A   1      37.968  31.551  41.958  1.00  0.00     0.010 A 
ATOM     85  C   UNL A   1      35.706  32.957  42.833  1.00  0.00     0.020 A 
ATOM     86  C   UNL A   1      37.166  31.017  42.968  1.00  0.00     0.020 A 
ATOM     87  C   UNL A   1      36.061  31.741  43.421  1.00  0.00     0.054 A 
BRANCH  87  88
ATOM     88  S   UNL A   1      35.074  31.128  44.812  1.00  0.00     0.124 S 
ATOM     89  O   UNL A   1      35.897  30.020  45.293  1.00  0.00    -0.237 OA
ATOM     90  O   UNL A   1      35.007  32.291  45.692  1.00  0.00    -0.237 OA
ATOM     91  O   UNL A   1      33.810  30.745  44.190  1.00  0.00    -0.744 OA
ENDBRANCH  87  88
ENDBRANCH  59  82
BRANCH  71  92
ATOM     92  C   UNL A   1      42.233  38.060  41.914  1.00  0.00    -0.014 A 
ATOM     93  C   UNL A   1      41.551  39.270  42.149  1.00  0.00     0.010 A 
ATOM     94  C   UNL A   1      43.397  37.777  42.649  1.00  0.00     0.010 A 
ATOM     95  C   UNL A   1      42.046  40.198  43.068  1.00  0.00     0.020 A 
ATOM     96  C   UNL A   1      43.878  38.688  43.593  1.00  0.00     0.020 A 
ATOM     97  C   UNL A   1      43.214  39.905  43.777  1.00  0.00     0.054 A 
BRANCH  97  98
ATOM     98  S   UNL A   1      43.865  41.139  44.936  1.00  0.00     0.124 S 
ATOM     99  O   UNL A   1      43.724  42.377  44.176  1.00  0.00    -0.237 OA
ATOM    100  O   UNL A   1      42.973  40.999  46.086  1.00  0.00    -0.237 OA
ATOM    101  O   UNL A   1      45.240  40.700  45.166  1.00  0.00    -0.744 OA
ENDBRANCH  97  98
ENDBRANCH  71  92
ENDBRANCH  45  46
ENDBRANCH  38  40
ENDBRANCH  37  38
ENDBRANCH  36  37
ENDBRANCH  35  36
ENDBRANCH  34  35
ENDBRANCH  33  34
ENDBRANCH   1  33
TORSDOF 24
ENDMDL
MODEL 3
REMARK VINA RESULT:      -8.7      7.514     11.148
REMARK SMILES Cc1cc(=O)c(Oc2ccc(C(=O)OCCOCCOCCOC(=O)c3ccc(-c4c5nc(c(-c6ccc(S(=O)(=O)[O-])cc6)c6ccc([nH]6)c(-c6ccc(S(=O)(=O)[O-])cc6)c6nc(c(-c7ccc(S(=O)(=O)[O-])cc7)c7ccc4[nH]7)C=C6)C=C5)cc3)cc2)c(-c2ccc(S(C)(=O)=O)cc2)o1
REMARK SMILES IDX 18 1 17 2 16 3 15 4 14 5 12 6 13 7 11 8 8 9 9 10 87 11 10 12
REMARK SMILES IDX 86 13 7 14 6 15 1 16 2 17 3 18 99 19 4 20 88 21 5 22 89 23
REMARK SMILES IDX 90 24 98 25 91 26 97 27 92 28 93 29 94 30 95 31 96 32 19 33
REMARK SMILES IDX 20 34 21 35 22 36 23 37 24 38 25 39 26 40 27 41 85 42 28 43
REMARK SMILES IDX 84 44 29 45 30 46 31 47 78 48 32 49 83 50 77 51 79 52 33 53
REMARK SMILES IDX 82 54 76 55 75 56 34 58 64 59 45 60 63 61 46 62 49 63 62 64
REMARK SMILES IDX 80 65 47 66 48 67 61 69 81 70 50 71 35 72 36 73 44 74 37 75
REMARK SMILES IDX 43 76 38 77 39 78 40 79 41 80 42 81 65 82 66 83 74 84 67 85
REMARK SMILES IDX 73 86 68 87 69 88 70 89 71 90 72 91 51 92 52 93 60 94 53 95
REMARK SMILES IDX 59 96 54 97 55 98 56 99 57 100 58 101
REMARK H PARENT 79 57 49 68
REMARK Flexibility Score: inf
ROOT
ATOM      1  C   UNL A   1      35.346  33.180  28.130  1.00  0.00     0.188 C 
ENDROOT
BRANCH   1   2
ATOM      2  O   UNL A   1      35.405  31.945  27.421  1.00  0.00    -0.376 OA
BRANCH   2   3
ATOM      3  C   UNL A   1      34.636  30.856  27.957  1.00  0.00     0.202 C 
BRANCH   3   4
ATOM      4  C   UNL A   1      34.751  29.471  27.297  1.00  0.00     0.261 C 
BRANCH   4   5
ATOM      5  O   UNL A   1      33.855  29.280  26.187  1.00  0.00    -0.460 OA
BRANCH   5   6
ATOM      6  C   UNL A   1      32.814  28.426  26.341  1.00  0.00     0.338 C 
ATOM      7  O   UNL A   1      31.792  28.647  26.970  1.00  0.00    -0.246 OA
BRANCH   6   8
ATOM      8  C   UNL A   1      33.084  27.175  25.564  1.00  0.00     0.060 A 
ATOM      9  C   UNL A   1      33.801  24.866  24.133  1.00  0.00     0.127 A 
ATOM     10  C   UNL A   1      33.873  26.116  23.521  1.00  0.00     0.048 A 
ATOM     11  C   UNL A   1      33.278  24.753  25.421  1.00  0.00     0.048 A 
ATOM     12  C   UNL A   1      33.549  27.272  24.245  1.00  0.00     0.019 A 
ATOM     13  C   UNL A   1      32.917  25.901  26.132  1.00  0.00     0.019 A 
BRANCH   9  14
ATOM     14  O   UNL A   1      34.071  23.714  23.452  1.00  0.00    -0.449 OA
BRANCH  14  15
ATOM     15  C   UNL A   1      33.937  22.434  23.976  1.00  0.00     0.217 A 
ATOM     16  C   UNL A   1      32.960  18.528  25.569  1.00  0.00     0.088 C 
ATOM     17  C   UNL A   1      33.201  19.869  24.949  1.00  0.00     0.105 A 
ATOM     18  C   UNL A   1      32.236  20.564  24.344  1.00  0.00     0.098 A 
ATOM     19  O   UNL A   1      34.489  20.347  25.082  1.00  0.00    -0.457 OA
ATOM     20  C   UNL A   1      32.555  21.883  23.780  1.00  0.00     0.228 A 
ATOM     21  C   UNL A   1      34.808  21.626  24.637  1.00  0.00     0.180 A 
ATOM     22  O   UNL A   1      31.673  22.512  23.199  1.00  0.00    -0.285 OA
BRANCH  21  23
ATOM     23  C   UNL A   1      36.184  21.972  25.019  1.00  0.00     0.021 A 
ATOM     24  C   UNL A   1      36.493  23.195  25.632  1.00  0.00     0.013 A 
ATOM     25  C   UNL A   1      37.202  21.042  24.813  1.00  0.00     0.013 A 
ATOM     26  C   UNL A   1      37.780  23.428  26.145  1.00  0.00     0.021 A 
ATOM     27  C   UNL A   1      38.487  21.298  25.296  1.00  0.00     0.021 A 
ATOM     28  C   UNL A   1      38.792  22.483  25.968  1.00  0.00     0.067 A 
BRANCH  28  29
ATOM     29  S   UNL A   1      40.325  22.579  26.886  1.00  0.00     0.175 S 
ATOM     30  C   UNL A   1      40.440  24.070  27.814  1.00  0.00     0.163 C 
ATOM     31  O   UNL A   1      40.298  21.479  27.836  1.00  0.00    -0.224 OA
ATOM     32  O   UNL A   1      41.361  22.668  25.890  1.00  0.00    -0.224 OA
ENDBRANCH  28  29
ENDBRANCH  21  23
ENDBRANCH  14  15
ENDBRANCH   9  14
ENDBRANCH   6   8
ENDBRANCH   5   6
ENDBRANCH   4   5
ENDBRANCH   3   4
ENDBRANCH   2   3
ENDBRANCH   1   2
BRANCH   1  33
ATOM     33  C   UNL A   1      34.843  33.046  29.574  1.00  0.00     0.188 C 
BRANCH  33  34
ATOM     34  O   UNL A   1      35.650  33.685  30.552  1.00  0.00    -0.376 OA
BRANCH  34  35
ATOM     35  C   UNL A   1      37.030  33.718  30.150  1.00  0.00     0.202 C 
BRANCH  35  36
ATOM     36  C   UNL A   1      38.000  33.516  31.334  1.00  0.00     0.261 C 
BRANCH  36  37
ATOM     37  O   UNL A   1      38.324  32.120  31.601  1.00  0.00    -0.460 OA
BRANCH  37  38
ATOM     38  C   UNL A   1      38.550  31.765  32.899  1.00  0.00     0.338 C 
ATOM     39  O   UNL A   1      37.793  31.957  33.836  1.00  0.00    -0.246 OA
BRANCH  38  40
ATOM     40  C   UNL A   1      39.822  30.982  33.025  1.00  0.00     0.060 A 
ATOM     41  C   UNL A   1      39.853  29.584  33.082  1.00  0.00     0.016 A 
ATOM     42  C   UNL A   1      41.035  31.672  33.118  1.00  0.00     0.016 A 
ATOM     43  C   UNL A   1      41.062  28.906  33.368  1.00  0.00     0.010 A 
ATOM     44  C   UNL A   1      42.229  31.000  33.441  1.00  0.00     0.010 A 
ATOM     45  C   UNL A   1      42.255  29.608  33.625  1.00  0.00    -0.014 A 
BRANCH  45  46
ATOM     46  C   UNL A   1      43.558  28.896  33.831  1.00  0.00     0.031 A 
ATOM     47  C   UNL A   1      44.231  28.649  35.169  1.00  0.00     0.074 A 
ATOM     48  C   UNL A   1      44.183  28.466  32.721  1.00  0.00     0.049 A 
ATOM     49  N   UNL A   1      45.323  27.975  35.450  1.00  0.00    -0.248 NA
ATOM     50  C   UNL A   1      43.608  29.226  36.358  1.00  0.00     0.031 C 
ATOM     51  C   UNL A   1      43.660  28.614  31.362  1.00  0.00     0.029 A 
ATOM     52  N   UNL A   1      45.380  27.820  32.558  1.00  0.00    -0.354 N 
ATOM     53  C   UNL A   1      45.477  28.020  36.839  1.00  0.00     0.074 A 
ATOM     54  C   UNL A   1      44.388  28.815  37.349  1.00  0.00     0.031 C 
ATOM     55  C   UNL A   1      44.527  28.064  30.505  1.00  0.00     0.029 A 
ATOM     56  C   UNL A   1      45.676  27.550  31.246  1.00  0.00     0.049 A 
ATOM     57  H   UNL A   1      45.968  27.574  33.308  1.00  0.00     0.167 HD
ATOM     58  C   UNL A   1      46.435  27.461  37.621  1.00  0.00     0.031 A 
ATOM     59  C   UNL A   1      46.746  26.953  30.689  1.00  0.00     0.031 A 
ATOM     60  C   UNL A   1      47.561  26.721  37.109  1.00  0.00     0.049 A 
ATOM     61  C   UNL A   1      47.834  26.400  31.560  1.00  0.00     0.074 A 
ATOM     62  C   UNL A   1      48.565  26.086  37.823  1.00  0.00     0.029 A 
ATOM     63  N   UNL A   1      47.845  26.530  35.768  1.00  0.00    -0.354 N 
ATOM     64  N   UNL A   1      47.914  26.392  32.867  1.00  0.00    -0.248 NA
ATOM     65  C   UNL A   1      48.964  25.754  30.878  1.00  0.00     0.031 C 
ATOM     66  C   UNL A   1      49.499  25.586  36.915  1.00  0.00     0.029 A 
ATOM     67  C   UNL A   1      49.028  25.825  35.635  1.00  0.00     0.049 A 
ATOM     68  H   UNL A   1      47.288  26.848  35.022  1.00  0.00     0.167 HD
ATOM     69  C   UNL A   1      49.090  25.713  33.167  1.00  0.00     0.074 A 
ATOM     70  C   UNL A   1      49.681  25.319  31.907  1.00  0.00     0.031 C 
ATOM     71  C   UNL A   1      49.623  25.438  34.381  1.00  0.00     0.031 A 
BRANCH  58  72
ATOM     72  C   UNL A   1      46.345  27.581  39.132  1.00  0.00    -0.014 A 
ATOM     73  C   UNL A   1      45.416  26.798  39.849  1.00  0.00     0.010 A 
ATOM     74  C   UNL A   1      46.999  28.632  39.801  1.00  0.00     0.010 A 
ATOM     75  C   UNL A   1      45.092  27.106  41.177  1.00  0.00     0.020 A 
ATOM     76  C   UNL A   1      46.697  28.926  41.138  1.00  0.00     0.020 A 
ATOM     77  C   UNL A   1      45.720  28.183  41.806  1.00  0.00     0.054 A 
BRANCH  77  78
ATOM     78  S   UNL A   1      45.204  28.638  43.488  1.00  0.00     0.124 S 
ATOM     79  O   UNL A   1      43.904  27.983  43.601  1.00  0.00    -0.237 OA
ATOM     80  O   UNL A   1      46.270  28.074  44.312  1.00  0.00    -0.237 OA
ATOM     81  O   UNL A   1      45.163  30.100  43.451  1.00  0.00    -0.744 OA
ENDBRANCH  77  78
ENDBRANCH  58  72
BRANCH  59  82
ATOM     82  C   UNL A   1      46.765  26.796  29.214  1.00  0.00    -0.014 A 
ATOM     83  C   UNL A   1      46.139  25.690  28.609  1.00  0.00     0.010 A 
ATOM     84  C   UNL A   1      47.530  27.674  28.428  1.00  0.00     0.010 A 
ATOM     85  C   UNL A   1      46.338  25.425  27.254  1.00  0.00     0.020 A 
ATOM     86  C   UNL A   1      47.700  27.431  27.065  1.00  0.00     0.020 A 
ATOM     87  C   UNL A   1      47.131  26.289  26.496  1.00  0.00     0.054 A 
BRANCH  87  88
ATOM     88  S   UNL A   1      47.436  25.886  24.755  1.00  0.00     0.124 S 
ATOM     89  O   UNL A   1      48.895  25.919  24.696  1.00  0.00    -0.237 OA
ATOM     90  O   UNL A   1      46.830  24.564  24.624  1.00  0.00    -0.237 OA
ATOM     91  O   UNL A   1      46.755  26.957  24.034  1.00  0.00    -0.744 OA
ENDBRANCH  87  88
ENDBRANCH  59  82
BRANCH  71  92
ATOM     92  C   UNL A   1      50.919  24.674  34.443  1.00  0.00    -0.014 A 
ATOM     93  C   UNL A   1      50.897  23.271  34.559  1.00  0.00     0.010 A 
ATOM     94  C   UNL A   1      52.149  25.349  34.527  1.00  0.00     0.010 A 
ATOM     95  C   UNL A   1      52.075  22.560  34.798  1.00  0.00     0.020 A 
ATOM     96  C   UNL A   1      53.335  24.638  34.734  1.00  0.00     0.020 A 
ATOM     97  C   UNL A   1      53.286  23.251  34.895  1.00  0.00     0.054 A 
BRANCH  97  98
ATOM     98  S   UNL A   1      54.799  22.315  35.247  1.00  0.00     0.124 S 
ATOM     99  O   UNL A   1      55.366  23.059  36.367  1.00  0.00    -0.237 OA
ATOM    100  O   UNL A   1      54.286  20.985  35.568  1.00  0.00    -0.237 OA
ATOM    101  O   UNL A   1      55.552  22.399  33.997  1.00  0.00    -0.744 OA
ENDBRANCH  97  98
ENDBRANCH  71  92
ENDBRANCH  45  46
ENDBRANCH  38  40
ENDBRANCH  37  38
ENDBRANCH  36  37
ENDBRANCH  35  36
ENDBRANCH  34  35
ENDBRANCH  33  34
ENDBRANCH   1  33
TORSDOF 24
ENDMDL
