MODEL 1
REMARK VINA RESULT:     -12.9      0.000      0.000
REMARK SMILES Cc1c(C(=O)OCCOCCOCCOC(=O)c2ccc(-c3c4nc(c(-c5ccc(S(=O)(=O)[O-])cc5)c5ccc([nH]5)c(-c5ccc(S(=O)(=O)[O-])cc5)c5nc(c(-c6ccc(S(=O)(=O)[O-])cc6)c6ccc3[nH]6)C=C5)C=C4)cc2)cccc1-n1c(C)cc(/C=C2/C(=O)NC(=S)N=C2O)c1C
REMARK SMILES IDX 10 1 9 2 8 3 7 4 6 5 4 6 5 7 3 8 1 9 2 10 81 11 78 12 80 13
REMARK SMILES IDX 79 14 82 15 83 16 97 17 84 18 85 19 86 20 98 21 87 22 88 23
REMARK SMILES IDX 89 24 95 25 90 26 91 27 94 28 92 29 93 31 96 32 11 34 12 35
REMARK SMILES IDX 13 36 14 37 15 38 16 39 17 40 18 41 19 42 77 43 20 44 76 45
REMARK SMILES IDX 21 46 22 47 23 48 70 49 24 50 75 51 69 52 71 53 25 54 74 55
REMARK SMILES IDX 68 56 67 57 26 59 56 60 37 61 55 62 38 63 41 64 54 65 72 66
REMARK SMILES IDX 39 67 40 68 53 70 73 71 42 72 27 73 28 74 36 75 29 76 35 77
REMARK SMILES IDX 30 78 31 79 32 80 33 81 34 82 57 83 58 84 66 85 59 86 65 87
REMARK SMILES IDX 60 88 61 89 62 90 63 91 64 92 43 93 44 94 52 95 45 96 51 97
REMARK SMILES IDX 46 98 47 99 48 100 49 101 50 102
REMARK H PARENT 91 30 96 33 71 58 41 69
REMARK Flexibility Score: inf
ROOT
ATOM      1  C   UNL A   1      40.880  18.986  25.773  1.00  0.00     0.188 C 
ENDROOT
BRANCH   1   2
ATOM      2  O   UNL A   1      39.608  19.658  25.917  1.00  0.00    -0.376 OA
BRANCH   2   3
ATOM      3  C   UNL A   1      38.530  19.587  24.960  1.00  0.00     0.202 C 
BRANCH   3   4
ATOM      4  C   UNL A   1      37.447  20.814  24.846  1.00  0.00     0.261 C 
BRANCH   4   5
ATOM      5  O   UNL A   1      35.753  20.799  25.154  1.00  0.00    -0.460 OA
BRANCH   5   6
ATOM      6  C   UNL A   1      34.613  19.985  24.879  1.00  0.00     0.338 C 
ATOM      7  O   UNL A   1      34.499  18.762  24.828  1.00  0.00    -0.246 OA
BRANCH   6   8
ATOM      8  C   UNL A   1      33.260  20.437  24.495  1.00  0.00     0.065 A 
ATOM      9  C   UNL A   1      33.526  21.959  26.431  1.00  0.00     0.047 C 
ATOM     10  C   UNL A   1      32.897  21.622  25.106  1.00  0.00    -0.012 A 
ATOM     11  C   UNL A   1      32.089  22.504  24.358  1.00  0.00     0.049 A 
ATOM     12  C   UNL A   1      32.810  20.209  23.150  1.00  0.00     0.016 A 
ATOM     13  C   UNL A   1      31.587  22.251  23.075  1.00  0.00     0.027 A 
ATOM     14  C   UNL A   1      31.952  21.076  22.461  1.00  0.00     0.003 A 
BRANCH  11  15
ATOM     15  N   UNL A   1      31.637  23.655  24.993  1.00  0.00    -0.318 N 
ATOM     16  C   UNL A   1      30.601  23.718  25.900  1.00  0.00     0.020 A 
ATOM     17  C   UNL A   1      31.924  24.906  24.483  1.00  0.00     0.027 A 
ATOM     18  C   UNL A   1      29.953  22.503  26.481  1.00  0.00     0.065 C 
ATOM     19  C   UNL A   1      30.298  25.056  26.055  1.00  0.00     0.031 A 
ATOM     20  C   UNL A   1      31.142  25.801  25.185  1.00  0.00    -0.003 A 
ATOM     21  C   UNL A   1      32.882  25.047  23.333  1.00  0.00     0.065 C 
BRANCH  20  22
ATOM     22  C   UNL A   1      31.035  27.194  24.933  1.00  0.00     0.029 C 
ATOM     23  C   UNL A   1      31.395  28.228  25.712  1.00  0.00     0.102 C 
ATOM     24  C   UNL A   1      31.447  29.547  25.051  1.00  0.00     0.262 C 
ATOM     25  C   UNL A   1      31.900  28.229  27.088  1.00  0.00     0.226 C 
ATOM     26  O   UNL A   1      30.888  29.821  23.991  1.00  0.00    -0.269 OA
ATOM     27  N   UNL A   1      32.236  30.455  25.701  1.00  0.00    -0.297 N 
ATOM     28  N   UNL A   1      32.581  29.159  27.651  1.00  0.00    -0.184 NA
ATOM     29  C   UNL A   1      32.851  30.284  26.918  1.00  0.00     0.203 C 
ATOM     30  H   UNL A   1      32.377  31.320  25.253  1.00  0.00     0.172 HD
ATOM     31  S   UNL A   1      33.853  31.516  27.456  1.00  0.00    -0.038 S 
BRANCH  25  32
ATOM     32  O   UNL A   1      31.567  27.181  27.846  1.00  0.00    -0.493 OA
ATOM     33  H   UNL A   1      31.016  26.508  27.499  1.00  0.00     0.295 HD
ENDBRANCH  25  32
ENDBRANCH  20  22
ENDBRANCH  11  15
ENDBRANCH   6   8
ENDBRANCH   5   6
ENDBRANCH   4   5
ENDBRANCH   3   4
ENDBRANCH   2   3
ENDBRANCH   1   2
BRANCH   1  34
ATOM     34  C   UNL A   1      42.188  19.565  26.329  1.00  0.00     0.188 C 
BRANCH  34  35
ATOM     35  O   UNL A   1      43.015  20.016  25.272  1.00  0.00    -0.376 OA
BRANCH  35  36
ATOM     36  C   UNL A   1      43.706  21.234  25.472  1.00  0.00     0.202 C 
BRANCH  36  37
ATOM     37  C   UNL A   1      43.134  22.068  26.631  1.00  0.00     0.261 C 
BRANCH  37  38
ATOM     38  O   UNL A   1      42.533  23.311  26.186  1.00  0.00    -0.460 OA
BRANCH  38  39
ATOM     39  C   UNL A   1      41.152  23.405  26.205  1.00  0.00     0.338 C 
ATOM     40  O   UNL A   1      40.439  22.437  26.010  1.00  0.00    -0.246 OA
BRANCH  39  41
ATOM     41  C   UNL A   1      40.705  24.743  26.724  1.00  0.00     0.060 A 
ATOM     42  C   UNL A   1      41.012  26.041  26.298  1.00  0.00     0.016 A 
ATOM     43  C   UNL A   1      39.984  24.697  27.858  1.00  0.00     0.016 A 
ATOM     44  C   UNL A   1      40.723  27.246  27.115  1.00  0.00     0.010 A 
ATOM     45  C   UNL A   1      39.956  25.845  28.655  1.00  0.00     0.010 A 
ATOM     46  C   UNL A   1      40.164  27.212  28.405  1.00  0.00    -0.014 A 
BRANCH  46  47
ATOM     47  C   UNL A   1      39.975  28.466  29.506  1.00  0.00     0.031 A 
ATOM     48  C   UNL A   1      38.785  29.693  29.802  1.00  0.00     0.074 A 
ATOM     49  C   UNL A   1      41.072  28.747  30.246  1.00  0.00     0.049 A 
ATOM     50  N   UNL A   1      39.068  30.985  29.909  1.00  0.00    -0.248 NA
ATOM     51  C   UNL A   1      37.264  29.602  29.902  1.00  0.00     0.031 C 
ATOM     52  C   UNL A   1      41.199  29.745  31.305  1.00  0.00     0.029 A 
ATOM     53  N   UNL A   1      42.378  28.329  30.019  1.00  0.00    -0.354 N 
ATOM     54  C   UNL A   1      37.871  31.714  30.052  1.00  0.00     0.074 A 
ATOM     55  C   UNL A   1      36.788  30.827  29.932  1.00  0.00     0.031 C 
ATOM     56  C   UNL A   1      42.492  30.085  31.416  1.00  0.00     0.029 A 
ATOM     57  C   UNL A   1      43.233  29.368  30.396  1.00  0.00     0.049 A 
ATOM     58  H   UNL A   1      42.652  27.455  29.655  1.00  0.00     0.167 HD
ATOM     59  C   UNL A   1      37.718  33.020  30.384  1.00  0.00     0.031 A 
ATOM     60  C   UNL A   1      44.146  29.885  29.528  1.00  0.00     0.031 A 
ATOM     61  C   UNL A   1      38.956  33.583  30.797  1.00  0.00     0.049 A 
ATOM     62  C   UNL A   1      43.986  31.374  29.281  1.00  0.00     0.074 A 
ATOM     63  C   UNL A   1      39.572  33.715  32.026  1.00  0.00     0.029 A 
ATOM     64  N   UNL A   1      39.930  33.719  29.841  1.00  0.00    -0.354 N 
ATOM     65  N   UNL A   1      43.077  32.134  29.830  1.00  0.00    -0.248 NA
ATOM     66  C   UNL A   1      44.808  32.109  28.316  1.00  0.00     0.031 C 
ATOM     67  C   UNL A   1      40.951  33.963  31.786  1.00  0.00     0.029 A 
ATOM     68  C   UNL A   1      41.136  34.034  30.420  1.00  0.00     0.049 A 
ATOM     69  H   UNL A   1      39.786  33.606  28.874  1.00  0.00     0.167 HD
ATOM     70  C   UNL A   1      43.125  33.382  29.259  1.00  0.00     0.074 A 
ATOM     71  C   UNL A   1      44.237  33.325  28.334  1.00  0.00     0.031 C 
ATOM     72  C   UNL A   1      42.220  34.364  29.529  1.00  0.00     0.031 A 
BRANCH  59  73
ATOM     73  C   UNL A   1      36.321  33.564  30.616  1.00  0.00    -0.014 A 
ATOM     74  C   UNL A   1      35.570  34.034  29.527  1.00  0.00     0.010 A 
ATOM     75  C   UNL A   1      35.814  33.831  31.915  1.00  0.00     0.010 A 
ATOM     76  C   UNL A   1      34.432  34.836  29.717  1.00  0.00     0.020 A 
ATOM     77  C   UNL A   1      34.693  34.662  32.114  1.00  0.00     0.020 A 
ATOM     78  C   UNL A   1      34.020  35.178  31.007  1.00  0.00     0.054 A 
BRANCH  78  79
ATOM     79  S   UNL A   1      32.693  36.411  31.207  1.00  0.00     0.124 S 
ATOM     80  O   UNL A   1      33.431  37.631  31.532  1.00  0.00    -0.237 OA
ATOM     81  O   UNL A   1      32.051  36.398  29.897  1.00  0.00    -0.237 OA
ATOM     82  O   UNL A   1      31.890  35.879  32.306  1.00  0.00    -0.744 OA
ENDBRANCH  78  79
ENDBRANCH  59  73
BRANCH  60  83
ATOM     83  C   UNL A   1      44.724  28.876  28.584  1.00  0.00    -0.014 A 
ATOM     84  C   UNL A   1      44.096  28.744  27.323  1.00  0.00     0.010 A 
ATOM     85  C   UNL A   1      46.000  28.314  28.752  1.00  0.00     0.010 A 
ATOM     86  C   UNL A   1      44.775  28.211  26.224  1.00  0.00     0.020 A 
ATOM     87  C   UNL A   1      46.680  27.751  27.651  1.00  0.00     0.020 A 
ATOM     88  C   UNL A   1      46.080  27.756  26.385  1.00  0.00     0.054 A 
BRANCH  88  89
ATOM     89  S   UNL A   1      47.021  27.362  24.876  1.00  0.00     0.124 S 
ATOM     90  O   UNL A   1      48.397  27.330  25.361  1.00  0.00    -0.237 OA
ATOM     91  O   UNL A   1      46.456  26.064  24.504  1.00  0.00    -0.237 OA
ATOM     92  O   UNL A   1      46.694  28.467  23.979  1.00  0.00    -0.744 OA
ENDBRANCH  88  89
ENDBRANCH  60  83
BRANCH  72  93
ATOM     93  C   UNL A   1      42.210  35.743  28.924  1.00  0.00    -0.014 A 
ATOM     94  C   UNL A   1      41.629  36.012  27.678  1.00  0.00     0.010 A 
ATOM     95  C   UNL A   1      42.949  36.789  29.535  1.00  0.00     0.010 A 
ATOM     96  C   UNL A   1      41.745  37.282  27.094  1.00  0.00     0.020 A 
ATOM     97  C   UNL A   1      43.087  38.048  28.953  1.00  0.00     0.020 A 
ATOM     98  C   UNL A   1      42.470  38.291  27.737  1.00  0.00     0.054 A 
BRANCH  98  99
ATOM     99  S   UNL A   1      42.641  39.907  26.941  1.00  0.00     0.124 S 
ATOM    100  O   UNL A   1      41.429  39.991  26.129  1.00  0.00    -0.237 OA
ATOM    101  O   UNL A   1      42.690  40.806  28.091  1.00  0.00    -0.237 OA
ATOM    102  O   UNL A   1      43.885  39.797  26.183  1.00  0.00    -0.744 OA
ENDBRANCH  98  99
ENDBRANCH  72  93
ENDBRANCH  46  47
ENDBRANCH  39  41
ENDBRANCH  38  39
ENDBRANCH  37  38
ENDBRANCH  36  37
ENDBRANCH  35  36
ENDBRANCH  34  35
ENDBRANCH   1  34
TORSDOF 23
ENDMDL
MODEL 2
REMARK VINA RESULT:     -12.8      4.547     11.889
REMARK SMILES Cc1c(C(=O)OCCOCCOCCOC(=O)c2ccc(-c3c4nc(c(-c5ccc(S(=O)(=O)[O-])cc5)c5ccc([nH]5)c(-c5ccc(S(=O)(=O)[O-])cc5)c5nc(c(-c6ccc(S(=O)(=O)[O-])cc6)c6ccc3[nH]6)C=C5)C=C4)cc2)cccc1-n1c(C)cc(/C=C2/C(=O)NC(=S)N=C2O)c1C
REMARK SMILES IDX 10 1 9 2 8 3 7 4 6 5 4 6 5 7 3 8 1 9 2 10 81 11 78 12 80 13
REMARK SMILES IDX 79 14 82 15 83 16 97 17 84 18 85 19 86 20 98 21 87 22 88 23
REMARK SMILES IDX 89 24 95 25 90 26 91 27 94 28 92 29 93 31 96 32 11 34 12 35
REMARK SMILES IDX 13 36 14 37 15 38 16 39 17 40 18 41 19 42 77 43 20 44 76 45
REMARK SMILES IDX 21 46 22 47 23 48 70 49 24 50 75 51 69 52 71 53 25 54 74 55
REMARK SMILES IDX 68 56 67 57 26 59 56 60 37 61 55 62 38 63 41 64 54 65 72 66
REMARK SMILES IDX 39 67 40 68 53 70 73 71 42 72 27 73 28 74 36 75 29 76 35 77
REMARK SMILES IDX 30 78 31 79 32 80 33 81 34 82 57 83 58 84 66 85 59 86 65 87
REMARK SMILES IDX 60 88 61 89 62 90 63 91 64 92 43 93 44 94 52 95 45 96 51 97
REMARK SMILES IDX 46 98 47 99 48 100 49 101 50 102
REMARK H PARENT 91 30 96 33 71 58 41 69
REMARK Flexibility Score: inf
ROOT
ATOM      1  C   UNL A   1      34.778  34.181  28.415  1.00  0.00     0.188 C 
ENDROOT
BRANCH   1   2
ATOM      2  O   UNL A   1      35.039  32.777  28.187  1.00  0.00    -0.376 OA
BRANCH   2   3
ATOM      3  C   UNL A   1      34.044  31.734  28.266  1.00  0.00     0.202 C 
BRANCH   3   4
ATOM      4  C   UNL A   1      34.174  30.398  27.324  1.00  0.00     0.261 C 
BRANCH   4   5
ATOM      5  O   UNL A   1      33.592  30.137  25.725  1.00  0.00    -0.460 OA
BRANCH   5   6
ATOM      6  C   UNL A   1      32.435  29.621  25.067  1.00  0.00     0.338 C 
ATOM      7  O   UNL A   1      31.245  29.897  25.211  1.00  0.00    -0.246 OA
BRANCH   6   8
ATOM      8  C   UNL A   1      32.379  28.529  24.075  1.00  0.00     0.065 A 
ATOM      9  C   UNL A   1      33.185  27.149  25.968  1.00  0.00     0.047 C 
ATOM     10  C   UNL A   1      32.467  27.276  24.650  1.00  0.00    -0.012 A 
ATOM     11  C   UNL A   1      31.730  26.240  24.041  1.00  0.00     0.049 A 
ATOM     12  C   UNL A   1      31.534  28.681  22.924  1.00  0.00     0.016 A 
ATOM     13  C   UNL A   1      30.964  26.370  22.875  1.00  0.00     0.027 A 
ATOM     14  C   UNL A   1      30.869  27.616  22.303  1.00  0.00     0.003 A 
BRANCH  11  15
ATOM     15  N   UNL A   1      31.883  24.956  24.551  1.00  0.00    -0.318 N 
ATOM     16  C   UNL A   1      31.208  24.436  25.635  1.00  0.00     0.020 A 
ATOM     17  C   UNL A   1      33.008  24.209  24.263  1.00  0.00     0.027 A 
ATOM     18  C   UNL A   1      30.057  25.131  26.286  1.00  0.00     0.065 C 
ATOM     19  C   UNL A   1      31.857  23.265  25.974  1.00  0.00     0.031 A 
ATOM     20  C   UNL A   1      32.971  23.112  25.101  1.00  0.00    -0.003 A 
ATOM     21  C   UNL A   1      34.001  24.704  23.249  1.00  0.00     0.065 C 
BRANCH  20  22
ATOM     22  C   UNL A   1      33.978  22.120  25.224  1.00  0.00     0.029 C 
ATOM     23  C   UNL A   1      33.859  20.781  25.203  1.00  0.00     0.102 C 
ATOM     24  C   UNL A   1      35.116  20.023  25.042  1.00  0.00     0.262 C 
ATOM     25  C   UNL A   1      32.652  19.951  25.157  1.00  0.00     0.226 C 
ATOM     26  O   UNL A   1      36.239  20.476  25.258  1.00  0.00    -0.269 OA
ATOM     27  N   UNL A   1      34.934  18.755  24.566  1.00  0.00    -0.297 N 
ATOM     28  N   UNL A   1      32.576  18.735  24.757  1.00  0.00    -0.184 NA
ATOM     29  C   UNL A   1      33.732  18.123  24.353  1.00  0.00     0.203 C 
ATOM     30  H   UNL A   1      35.746  18.241  24.353  1.00  0.00     0.172 HD
ATOM     31  S   UNL A   1      33.775  16.596  23.663  1.00  0.00    -0.038 S 
BRANCH  25  32
ATOM     32  O   UNL A   1      31.532  20.501  25.635  1.00  0.00    -0.493 OA
ATOM     33  H   UNL A   1      31.553  20.989  26.434  1.00  0.00     0.295 HD
ENDBRANCH  25  32
ENDBRANCH  20  22
ENDBRANCH  11  15
ENDBRANCH   6   8
ENDBRANCH   5   6
ENDBRANCH   4   5
ENDBRANCH   3   4
ENDBRANCH   2   3
ENDBRANCH   1   2
BRANCH   1  34
ATOM     34  C   UNL A   1      33.409  34.704  28.871  1.00  0.00     0.188 C 
BRANCH  34  35
ATOM     35  O   UNL A   1      33.557  35.568  29.982  1.00  0.00    -0.376 OA
BRANCH  35  36
ATOM     36  C   UNL A   1      34.416  35.139  31.020  1.00  0.00     0.202 C 
BRANCH  36  37
ATOM     37  C   UNL A   1      33.765  34.102  31.952  1.00  0.00     0.261 C 
BRANCH  37  38
ATOM     38  O   UNL A   1      34.399  32.800  31.874  1.00  0.00    -0.460 OA
BRANCH  38  39
ATOM     39  C   UNL A   1      35.420  32.524  32.767  1.00  0.00     0.338 C 
ATOM     40  O   UNL A   1      35.343  32.820  33.945  1.00  0.00    -0.246 OA
BRANCH  39  41
ATOM     41  C   UNL A   1      36.458  31.630  32.146  1.00  0.00     0.060 A 
ATOM     42  C   UNL A   1      36.802  30.300  32.416  1.00  0.00     0.016 A 
ATOM     43  C   UNL A   1      37.273  32.237  31.265  1.00  0.00     0.016 A 
ATOM     44  C   UNL A   1      38.051  29.674  31.914  1.00  0.00     0.010 A 
ATOM     45  C   UNL A   1      38.520  31.653  31.030  1.00  0.00     0.010 A 
ATOM     46  C   UNL A   1      39.031  30.352  31.169  1.00  0.00    -0.014 A 
BRANCH  46  47
ATOM     47  C   UNL A   1      40.563  29.829  30.719  1.00  0.00     0.031 A 
ATOM     48  C   UNL A   1      41.202  28.621  29.652  1.00  0.00     0.074 A 
ATOM     49  C   UNL A   1      41.576  30.308  31.479  1.00  0.00     0.049 A 
ATOM     50  N   UNL A   1      42.100  27.714  30.016  1.00  0.00    -0.248 NA
ATOM     51  C   UNL A   1      40.846  28.281  28.205  1.00  0.00     0.031 C 
ATOM     52  C   UNL A   1      43.006  30.068  31.307  1.00  0.00     0.029 A 
ATOM     53  N   UNL A   1      41.485  30.931  32.718  1.00  0.00    -0.354 N 
ATOM     54  C   UNL A   1      42.330  26.830  28.944  1.00  0.00     0.074 A 
ATOM     55  C   UNL A   1      41.456  27.158  27.895  1.00  0.00     0.031 C 
ATOM     56  C   UNL A   1      43.612  30.242  32.491  1.00  0.00     0.029 A 
ATOM     57  C   UNL A   1      42.591  30.539  33.477  1.00  0.00     0.049 A 
ATOM     58  H   UNL A   1      40.768  31.540  33.009  1.00  0.00     0.167 HD
ATOM     59  C   UNL A   1      43.302  25.892  28.824  1.00  0.00     0.031 A 
ATOM     60  C   UNL A   1      42.442  29.964  34.702  1.00  0.00     0.031 A 
ATOM     61  C   UNL A   1      44.259  26.021  29.868  1.00  0.00     0.049 A 
ATOM     62  C   UNL A   1      43.066  28.586  34.816  1.00  0.00     0.074 A 
ATOM     63  C   UNL A   1      45.445  26.717  29.984  1.00  0.00     0.029 A 
ATOM     64  N   UNL A   1      43.836  25.729  31.140  1.00  0.00    -0.354 N 
ATOM     65  N   UNL A   1      43.703  27.967  33.858  1.00  0.00    -0.248 NA
ATOM     66  C   UNL A   1      42.943  27.757  36.019  1.00  0.00     0.031 C 
ATOM     67  C   UNL A   1      45.746  26.817  31.369  1.00  0.00     0.029 A 
ATOM     68  C   UNL A   1      44.770  26.132  32.064  1.00  0.00     0.049 A 
ATOM     69  H   UNL A   1      42.982  25.292  31.361  1.00  0.00     0.167 HD
ATOM     70  C   UNL A   1      43.989  26.685  34.258  1.00  0.00     0.074 A 
ATOM     71  C   UNL A   1      43.515  26.607  35.624  1.00  0.00     0.031 C 
ATOM     72  C   UNL A   1      44.538  25.748  33.435  1.00  0.00     0.031 A 
BRANCH  59  73
ATOM     73  C   UNL A   1      43.447  25.141  27.513  1.00  0.00    -0.014 A 
ATOM     74  C   UNL A   1      42.729  23.952  27.313  1.00  0.00     0.010 A 
ATOM     75  C   UNL A   1      44.447  25.463  26.558  1.00  0.00     0.010 A 
ATOM     76  C   UNL A   1      43.068  23.060  26.282  1.00  0.00     0.020 A 
ATOM     77  C   UNL A   1      44.814  24.558  25.542  1.00  0.00     0.020 A 
ATOM     78  C   UNL A   1      44.132  23.348  25.424  1.00  0.00     0.054 A 
BRANCH  78  79
ATOM     79  S   UNL A   1      44.693  22.063  24.260  1.00  0.00     0.124 S 
ATOM     80  O   UNL A   1      44.099  22.492  22.995  1.00  0.00    -0.237 OA
ATOM     81  O   UNL A   1      46.146  22.177  24.340  1.00  0.00    -0.237 OA
ATOM     82  O   UNL A   1      44.129  20.830  24.807  1.00  0.00    -0.744 OA
ENDBRANCH  78  79
ENDBRANCH  59  73
BRANCH  60  83
ATOM     83  C   UNL A   1      41.270  30.484  35.477  1.00  0.00    -0.014 A 
ATOM     84  C   UNL A   1      41.525  31.522  36.405  1.00  0.00     0.010 A 
ATOM     85  C   UNL A   1      39.938  30.235  35.109  1.00  0.00     0.010 A 
ATOM     86  C   UNL A   1      40.509  32.382  36.832  1.00  0.00     0.020 A 
ATOM     87  C   UNL A   1      38.905  31.085  35.558  1.00  0.00     0.020 A 
ATOM     88  C   UNL A   1      39.211  32.184  36.371  1.00  0.00     0.054 A 
BRANCH  88  89
ATOM     89  S   UNL A   1      37.996  33.500  36.704  1.00  0.00     0.124 S 
ATOM     90  O   UNL A   1      38.655  34.283  37.743  1.00  0.00    -0.237 OA
ATOM     91  O   UNL A   1      37.896  34.150  35.397  1.00  0.00    -0.237 OA
ATOM     92  O   UNL A   1      36.810  32.761  37.128  1.00  0.00    -0.744 OA
ENDBRANCH  88  89
ENDBRANCH  60  83
BRANCH  72  93
ATOM     93  C   UNL A   1      44.858  24.325  33.809  1.00  0.00    -0.014 A 
ATOM     94  C   UNL A   1      43.884  23.320  33.839  1.00  0.00     0.010 A 
ATOM     95  C   UNL A   1      46.144  23.999  34.311  1.00  0.00     0.010 A 
ATOM     96  C   UNL A   1      44.196  22.035  34.308  1.00  0.00     0.020 A 
ATOM     97  C   UNL A   1      46.458  22.731  34.799  1.00  0.00     0.020 A 
ATOM     98  C   UNL A   1      45.481  21.749  34.781  1.00  0.00     0.054 A 
BRANCH  98  99
ATOM     99  S   UNL A   1      45.845  20.097  35.422  1.00  0.00     0.124 S 
ATOM    100  O   UNL A   1      47.047  19.726  34.677  1.00  0.00    -0.237 OA
ATOM    101  O   UNL A   1      46.044  20.362  36.844  1.00  0.00    -0.237 OA
ATOM    102  O   UNL A   1      44.652  19.320  35.093  1.00  0.00    -0.744 OA
ENDBRANCH  98  99
ENDBRANCH  72  93
ENDBRANCH  46  47
ENDBRANCH  39  41
ENDBRANCH  38  39
ENDBRANCH  37  38
ENDBRANCH  36  37
ENDBRANCH  35  36
ENDBRANCH  34  35
ENDBRANCH   1  34
TORSDOF 23
ENDMDL
MODEL 3
REMARK VINA RESULT:     -12.7      3.810     11.438
REMARK SMILES Cc1c(C(=O)OCCOCCOCCOC(=O)c2ccc(-c3c4nc(c(-c5ccc(S(=O)(=O)[O-])cc5)c5ccc([nH]5)c(-c5ccc(S(=O)(=O)[O-])cc5)c5nc(c(-c6ccc(S(=O)(=O)[O-])cc6)c6ccc3[nH]6)C=C5)C=C4)cc2)cccc1-n1c(C)cc(/C=C2/C(=O)NC(=S)N=C2O)c1C
REMARK SMILES IDX 10 1 9 2 8 3 7 4 6 5 4 6 5 7 3 8 1 9 2 10 81 11 78 12 80 13
REMARK SMILES IDX 79 14 82 15 83 16 97 17 84 18 85 19 86 20 98 21 87 22 88 23
REMARK SMILES IDX 89 24 95 25 90 26 91 27 94 28 92 29 93 31 96 32 11 34 12 35
REMARK SMILES IDX 13 36 14 37 15 38 16 39 17 40 18 41 19 42 77 43 20 44 76 45
REMARK SMILES IDX 21 46 22 47 23 48 70 49 24 50 75 51 69 52 71 53 25 54 74 55
REMARK SMILES IDX 68 56 67 57 26 59 56 60 37 61 55 62 38 63 41 64 54 65 72 66
REMARK SMILES IDX 39 67 40 68 53 70 73 71 42 72 27 73 28 74 36 75 29 76 35 77
REMARK SMILES IDX 30 78 31 79 32 80 33 81 34 82 57 83 58 84 66 85 59 86 65 87
REMARK SMILES IDX 60 88 61 89 62 90 63 91 64 92 43 93 44 94 52 95 45 96 51 97
REMARK SMILES IDX 46 98 47 99 48 100 49 101 50 102
REMARK H PARENT 91 30 96 33 71 58 41 69
REMARK Flexibility Score: inf
ROOT
ATOM      1  C   UNL A   1      34.821  34.391  28.206  1.00  0.00     0.188 C 
ENDROOT
BRANCH   1   2
ATOM      2  O   UNL A   1      34.665  33.144  27.491  1.00  0.00    -0.376 OA
BRANCH   2   3
ATOM      3  C   UNL A   1      33.997  31.977  28.015  1.00  0.00     0.202 C 
BRANCH   3   4
ATOM      4  C   UNL A   1      33.864  30.623  27.098  1.00  0.00     0.261 C 
BRANCH   4   5
ATOM      5  O   UNL A   1      32.447  29.762  26.634  1.00  0.00    -0.460 OA
BRANCH   5   6
ATOM      6  C   UNL A   1      31.878  28.461  26.778  1.00  0.00     0.338 C 
ATOM      7  O   UNL A   1      31.635  27.804  27.788  1.00  0.00    -0.246 OA
BRANCH   6   8
ATOM      8  C   UNL A   1      31.504  27.521  25.702  1.00  0.00     0.065 A 
ATOM      9  C   UNL A   1      33.956  27.269  25.458  1.00  0.00     0.047 C 
ATOM     10  C   UNL A   1      32.560  26.731  25.289  1.00  0.00    -0.012 A 
ATOM     11  C   UNL A   1      32.255  25.412  24.896  1.00  0.00     0.049 A 
ATOM     12  C   UNL A   1      30.194  26.934  25.720  1.00  0.00     0.016 A 
ATOM     13  C   UNL A   1      30.969  24.861  24.841  1.00  0.00     0.027 A 
ATOM     14  C   UNL A   1      29.916  25.641  25.258  1.00  0.00     0.003 A 
BRANCH  11  15
ATOM     15  N   UNL A   1      33.292  24.637  24.388  1.00  0.00    -0.318 N 
ATOM     16  C   UNL A   1      33.564  24.437  23.051  1.00  0.00     0.020 A 
ATOM     17  C   UNL A   1      33.909  23.679  25.168  1.00  0.00     0.027 A 
ATOM     18  C   UNL A   1      32.892  25.204  21.960  1.00  0.00     0.065 C 
ATOM     19  C   UNL A   1      34.468  23.394  22.989  1.00  0.00     0.031 A 
ATOM     20  C   UNL A   1      34.701  22.935  24.316  1.00  0.00    -0.003 A 
ATOM     21  C   UNL A   1      33.590  23.584  26.634  1.00  0.00     0.065 C 
BRANCH  20  22
ATOM     22  C   UNL A   1      35.446  21.779  24.664  1.00  0.00     0.029 C 
ATOM     23  C   UNL A   1      35.020  20.518  24.854  1.00  0.00     0.102 C 
ATOM     24  C   UNL A   1      36.070  19.481  24.902  1.00  0.00     0.262 C 
ATOM     25  C   UNL A   1      33.654  19.986  24.865  1.00  0.00     0.226 C 
ATOM     26  O   UNL A   1      37.261  19.701  25.115  1.00  0.00    -0.269 OA
ATOM     27  N   UNL A   1      35.611  18.224  24.627  1.00  0.00    -0.297 N 
ATOM     28  N   UNL A   1      33.308  18.767  24.663  1.00  0.00    -0.184 NA
ATOM     29  C   UNL A   1      34.301  17.851  24.441  1.00  0.00     0.203 C 
ATOM     30  H   UNL A   1      36.287  17.512  24.555  1.00  0.00     0.172 HD
ATOM     31  S   UNL A   1      34.006  16.257  24.014  1.00  0.00    -0.038 S 
BRANCH  25  32
ATOM     32  O   UNL A   1      32.680  20.848  25.171  1.00  0.00    -0.493 OA
ATOM     33  H   UNL A   1      32.894  21.700  25.495  1.00  0.00     0.295 HD
ENDBRANCH  25  32
ENDBRANCH  20  22
ENDBRANCH  11  15
ENDBRANCH   6   8
ENDBRANCH   5   6
ENDBRANCH   4   5
ENDBRANCH   3   4
ENDBRANCH   2   3
ENDBRANCH   1   2
BRANCH   1  34
ATOM     34  C   UNL A   1      33.765  34.921  29.184  1.00  0.00     0.188 C 
BRANCH  34  35
ATOM     35  O   UNL A   1      33.761  34.150  30.371  1.00  0.00    -0.376 OA
BRANCH  35  36
ATOM     36  C   UNL A   1      35.018  33.812  30.923  1.00  0.00     0.202 C 
BRANCH  36  37
ATOM     37  C   UNL A   1      35.047  32.402  31.537  1.00  0.00     0.261 C 
BRANCH  37  38
ATOM     38  O   UNL A   1      35.833  31.465  30.757  1.00  0.00    -0.460 OA
BRANCH  38  39
ATOM     39  C   UNL A   1      36.512  30.468  31.436  1.00  0.00     0.338 C 
ATOM     40  O   UNL A   1      36.240  30.173  32.586  1.00  0.00    -0.246 OA
BRANCH  39  41
ATOM     41  C   UNL A   1      37.400  29.686  30.508  1.00  0.00     0.060 A 
ATOM     42  C   UNL A   1      37.920  28.391  30.612  1.00  0.00     0.016 A 
ATOM     43  C   UNL A   1      37.872  30.381  29.458  1.00  0.00     0.016 A 
ATOM     44  C   UNL A   1      39.021  27.894  29.750  1.00  0.00     0.010 A 
ATOM     45  C   UNL A   1      39.044  29.922  28.852  1.00  0.00     0.010 A 
ATOM     46  C   UNL A   1      39.684  28.673  28.785  1.00  0.00    -0.014 A 
BRANCH  46  47
ATOM     47  C   UNL A   1      41.060  28.305  27.896  1.00  0.00     0.031 A 
ATOM     48  C   UNL A   1      41.776  26.863  27.250  1.00  0.00     0.074 A 
ATOM     49  C   UNL A   1      41.956  29.313  27.786  1.00  0.00     0.049 A 
ATOM     50  N   UNL A   1      43.039  26.510  27.455  1.00  0.00    -0.248 NA
ATOM     51  C   UNL A   1      41.159  25.716  26.451  1.00  0.00     0.031 C 
ATOM     52  C   UNL A   1      43.215  29.308  27.045  1.00  0.00     0.029 A 
ATOM     53  N   UNL A   1      42.008  30.485  28.531  1.00  0.00    -0.354 N 
ATOM     54  C   UNL A   1      43.269  25.247  26.875  1.00  0.00     0.074 A 
ATOM     55  C   UNL A   1      42.055  24.758  26.366  1.00  0.00     0.031 C 
ATOM     56  C   UNL A   1      44.030  30.225  27.586  1.00  0.00     0.029 A 
ATOM     57  C   UNL A   1      43.354  30.808  28.729  1.00  0.00     0.049 A 
ATOM     58  H   UNL A   1      41.234  30.997  28.861  1.00  0.00     0.167 HD
ATOM     59  C   UNL A   1      44.454  24.614  26.684  1.00  0.00     0.031 A 
ATOM     60  C   UNL A   1      43.862  30.992  29.978  1.00  0.00     0.031 A 
ATOM     61  C   UNL A   1      45.541  25.487  26.964  1.00  0.00     0.049 A 
ATOM     62  C   UNL A   1      45.014  30.065  30.318  1.00  0.00     0.074 A 
ATOM     63  C   UNL A   1      46.286  26.349  26.185  1.00  0.00     0.029 A 
ATOM     64  N   UNL A   1      45.713  25.872  28.269  1.00  0.00    -0.354 N 
ATOM     65  N   UNL A   1      45.512  29.160  29.518  1.00  0.00    -0.248 NA
ATOM     66  C   UNL A   1      45.646  30.037  31.639  1.00  0.00     0.031 C 
ATOM     67  C   UNL A   1      46.940  27.257  27.062  1.00  0.00     0.029 A 
ATOM     68  C   UNL A   1      46.626  26.894  28.356  1.00  0.00     0.049 A 
ATOM     69  H   UNL A   1      45.245  25.471  29.038  1.00  0.00     0.167 HD
ATOM     70  C   UNL A   1      46.427  28.402  30.204  1.00  0.00     0.074 A 
ATOM     71  C   UNL A   1      46.494  29.001  31.521  1.00  0.00     0.031 C 
ATOM     72  C   UNL A   1      47.029  27.297  29.680  1.00  0.00     0.031 A 
BRANCH  59  73
ATOM     73  C   UNL A   1      44.478  23.310  25.910  1.00  0.00    -0.014 A 
ATOM     74  C   UNL A   1      43.643  22.253  26.305  1.00  0.00     0.010 A 
ATOM     75  C   UNL A   1      45.470  23.023  24.935  1.00  0.00     0.010 A 
ATOM     76  C   UNL A   1      43.858  20.943  25.846  1.00  0.00     0.020 A 
ATOM     77  C   UNL A   1      45.712  21.706  24.495  1.00  0.00     0.020 A 
ATOM     78  C   UNL A   1      44.914  20.667  24.973  1.00  0.00     0.054 A 
BRANCH  78  79
ATOM     79  S   UNL A   1      45.308  18.929  24.593  1.00  0.00     0.124 S 
ATOM     80  O   UNL A   1      46.616  18.749  25.221  1.00  0.00    -0.237 OA
ATOM     81  O   UNL A   1      44.206  18.211  25.224  1.00  0.00    -0.237 OA
ATOM     82  O   UNL A   1      45.327  18.891  23.132  1.00  0.00    -0.744 OA
ENDBRANCH  78  79
ENDBRANCH  59  73
BRANCH  60  83
ATOM     83  C   UNL A   1      42.895  31.610  30.941  1.00  0.00    -0.014 A 
ATOM     84  C   UNL A   1      42.870  33.024  31.008  1.00  0.00     0.010 A 
ATOM     85  C   UNL A   1      41.828  30.900  31.515  1.00  0.00     0.010 A 
ATOM     86  C   UNL A   1      41.752  33.710  31.488  1.00  0.00     0.020 A 
ATOM     87  C   UNL A   1      40.707  31.589  32.025  1.00  0.00     0.020 A 
ATOM     88  C   UNL A   1      40.658  32.988  31.954  1.00  0.00     0.054 A 
BRANCH  88  89
ATOM     89  S   UNL A   1      39.121  33.911  32.276  1.00  0.00     0.124 S 
ATOM     90  O   UNL A   1      39.540  34.881  33.282  1.00  0.00    -0.237 OA
ATOM     91  O   UNL A   1      38.826  34.466  30.954  1.00  0.00    -0.237 OA
ATOM     92  O   UNL A   1      38.200  32.877  32.740  1.00  0.00    -0.744 OA
ENDBRANCH  88  89
ENDBRANCH  60  83
BRANCH  72  93
ATOM     93  C   UNL A   1      48.026  26.418  30.388  1.00  0.00    -0.014 A 
ATOM     94  C   UNL A   1      47.809  25.929  31.683  1.00  0.00     0.010 A 
ATOM     95  C   UNL A   1      49.304  26.195  29.816  1.00  0.00     0.010 A 
ATOM     96  C   UNL A   1      48.811  25.213  32.354  1.00  0.00     0.020 A 
ATOM     97  C   UNL A   1      50.314  25.503  30.483  1.00  0.00     0.020 A 
ATOM     98  C   UNL A   1      50.054  25.002  31.749  1.00  0.00     0.054 A 
BRANCH  98  99
ATOM     99  S   UNL A   1      51.344  24.113  32.653  1.00  0.00     0.124 S 
ATOM    100  O   UNL A   1      51.152  24.584  34.024  1.00  0.00    -0.237 OA
ATOM    101  O   UNL A   1      50.978  22.721  32.411  1.00  0.00    -0.237 OA
ATOM    102  O   UNL A   1      52.585  24.551  32.019  1.00  0.00    -0.744 OA
ENDBRANCH  98  99
ENDBRANCH  72  93
ENDBRANCH  46  47
ENDBRANCH  39  41
ENDBRANCH  38  39
ENDBRANCH  37  38
ENDBRANCH  36  37
ENDBRANCH  35  36
ENDBRANCH  34  35
ENDBRANCH   1  34
TORSDOF 23
ENDMDL
