MODEL 1
REMARK VINA RESULT:     -10.4      0.000      0.000
REMARK SMILES O=C(OCCOCCOCCOC(=O)[C@H]1C[C@](O)(c2ccccc2Cl)[C@@H](c2ccccc2Cl)O1)c1ccc(-c2c3nc(c(-c4ccc(S(=O)(=O)[O-])cc4)c4ccc([nH]4)c(-c4ccc(S(=O)(=O)[O-])cc4)c4nc(c(-c5ccc(S(=O)(=O)[O-])cc5)c5ccc2[nH]5)C=C4)C=C3)cc1
REMARK SMILES IDX 7 1 6 2 5 3 4 4 3 5 2 6 1 7 35 8 36 9 94 10 37 11 93 12
REMARK SMILES IDX 38 13 39 14 40 15 87 16 41 17 92 18 86 19 88 20 42 21 91 22
REMARK SMILES IDX 85 23 84 24 43 26 73 27 54 28 72 29 55 30 58 31 71 32 89 33
REMARK SMILES IDX 56 34 57 35 70 37 90 38 59 39 44 40 45 41 53 42 46 43 52 44
REMARK SMILES IDX 47 45 48 46 49 47 50 48 51 49 74 50 75 51 83 52 76 53 82 54
REMARK SMILES IDX 77 55 78 56 79 57 80 58 81 59 60 60 61 61 69 62 62 63 68 64
REMARK SMILES IDX 63 65 64 66 65 67 66 68 67 69 8 70 9 71 10 72 11 73 12 74
REMARK SMILES IDX 13 75 14 76 15 77 16 78 34 79 17 80 26 81 19 82 20 83 24 84
REMARK SMILES IDX 21 85 23 86 25 87 22 88 18 89 27 91 28 92 32 93 29 94 31 95
REMARK SMILES IDX 33 96 30 97
REMARK H PARENT 88 25 58 36 18 90
REMARK Flexibility Score: inf
ROOT
ATOM      1  C   UNL A   1      37.162  21.796  25.164  1.00  0.00     0.188 C 
ENDROOT
BRANCH   1   2
ATOM      2  O   UNL A   1      38.544  21.540  25.424  1.00  0.00    -0.376 OA
BRANCH   2   3
ATOM      3  C   UNL A   1      39.096  22.306  26.492  1.00  0.00     0.202 C 
BRANCH   3   4
ATOM      4  C   UNL A   1      40.634  22.427  26.540  1.00  0.00     0.261 C 
BRANCH   4   5
ATOM      5  O   UNL A   1      41.130  23.704  26.111  1.00  0.00    -0.460 OA
BRANCH   5   6
ATOM      6  C   UNL A   1      42.093  24.415  26.757  1.00  0.00     0.338 C 
ATOM      7  O   UNL A   1      43.237  23.996  26.765  1.00  0.00    -0.246 OA
BRANCH   6   8
ATOM      8  C   UNL A   1      41.748  25.652  27.541  1.00  0.00     0.060 A 
ATOM      9  C   UNL A   1      42.451  26.854  27.487  1.00  0.00     0.016 A 
ATOM     10  C   UNL A   1      40.640  25.588  28.404  1.00  0.00     0.016 A 
ATOM     11  C   UNL A   1      42.179  27.895  28.368  1.00  0.00     0.010 A 
ATOM     12  C   UNL A   1      40.310  26.658  29.247  1.00  0.00     0.010 A 
ATOM     13  C   UNL A   1      41.144  27.779  29.294  1.00  0.00    -0.014 A 
BRANCH  13  14
ATOM     14  C   UNL A   1      41.152  28.703  30.453  1.00  0.00     0.031 A 
ATOM     15  C   UNL A   1      40.052  29.731  30.534  1.00  0.00     0.074 A 
ATOM     16  C   UNL A   1      41.997  28.504  31.483  1.00  0.00     0.049 A 
ATOM     17  N   UNL A   1      39.769  30.573  31.492  1.00  0.00    -0.248 NA
ATOM     18  C   UNL A   1      39.128  29.805  29.386  1.00  0.00     0.031 C 
ATOM     19  C   UNL A   1      43.025  27.463  31.543  1.00  0.00     0.029 A 
ATOM     20  N   UNL A   1      42.090  29.136  32.696  1.00  0.00    -0.354 N 
ATOM     21  C   UNL A   1      38.656  31.284  31.052  1.00  0.00     0.074 A 
ATOM     22  C   UNL A   1      38.326  30.795  29.736  1.00  0.00     0.031 C 
ATOM     23  C   UNL A   1      43.617  27.502  32.749  1.00  0.00     0.029 A 
ATOM     24  C   UNL A   1      43.044  28.597  33.527  1.00  0.00     0.049 A 
ATOM     25  H   UNL A   1      41.527  29.904  32.947  1.00  0.00     0.167 HD
ATOM     26  C   UNL A   1      37.968  32.260  31.688  1.00  0.00     0.031 A 
ATOM     27  C   UNL A   1      43.409  28.956  34.773  1.00  0.00     0.031 A 
ATOM     28  C   UNL A   1      38.317  32.745  32.993  1.00  0.00     0.049 A 
ATOM     29  C   UNL A   1      42.681  30.102  35.430  1.00  0.00     0.074 A 
ATOM     30  C   UNL A   1      37.735  33.767  33.720  1.00  0.00     0.029 A 
ATOM     31  N   UNL A   1      39.350  32.234  33.766  1.00  0.00    -0.354 N 
ATOM     32  N   UNL A   1      41.658  30.792  34.981  1.00  0.00    -0.248 NA
ATOM     33  C   UNL A   1      43.152  30.513  36.758  1.00  0.00     0.031 C 
ATOM     34  C   UNL A   1      38.452  33.906  34.914  1.00  0.00     0.029 A 
ATOM     35  C   UNL A   1      39.437  32.930  34.957  1.00  0.00     0.049 A 
ATOM     36  H   UNL A   1      39.934  31.485  33.505  1.00  0.00     0.167 HD
ATOM     37  C   UNL A   1      41.346  31.705  35.983  1.00  0.00     0.074 A 
ATOM     38  C   UNL A   1      42.281  31.465  37.066  1.00  0.00     0.031 C 
ATOM     39  C   UNL A   1      40.379  32.656  36.012  1.00  0.00     0.031 A 
BRANCH  26  40
ATOM     40  C   UNL A   1      36.832  32.902  30.936  1.00  0.00    -0.014 A 
ATOM     41  C   UNL A   1      37.058  33.868  29.938  1.00  0.00     0.010 A 
ATOM     42  C   UNL A   1      35.509  32.554  31.262  1.00  0.00     0.010 A 
ATOM     43  C   UNL A   1      35.980  34.511  29.319  1.00  0.00     0.020 A 
ATOM     44  C   UNL A   1      34.429  33.175  30.627  1.00  0.00     0.020 A 
ATOM     45  C   UNL A   1      34.673  34.166  29.675  1.00  0.00     0.054 A 
BRANCH  45  46
ATOM     46  S   UNL A   1      33.292  35.023  28.869  1.00  0.00     0.124 S 
ATOM     47  O   UNL A   1      33.974  36.121  28.187  1.00  0.00    -0.237 OA
ATOM     48  O   UNL A   1      32.738  33.991  27.996  1.00  0.00    -0.237 OA
ATOM     49  O   UNL A   1      32.432  35.420  29.981  1.00  0.00    -0.744 OA
ENDBRANCH  45  46
ENDBRANCH  26  40
BRANCH  27  50
ATOM     50  C   UNL A   1      44.523  28.247  35.468  1.00  0.00    -0.014 A 
ATOM     51  C   UNL A   1      45.850  28.702  35.373  1.00  0.00     0.010 A 
ATOM     52  C   UNL A   1      44.256  27.095  36.233  1.00  0.00     0.010 A 
ATOM     53  C   UNL A   1      46.887  28.013  36.014  1.00  0.00     0.020 A 
ATOM     54  C   UNL A   1      45.284  26.421  36.899  1.00  0.00     0.020 A 
ATOM     55  C   UNL A   1      46.596  26.877  36.775  1.00  0.00     0.054 A 
BRANCH  55  56
ATOM     56  S   UNL A   1      47.948  26.024  37.636  1.00  0.00     0.124 S 
ATOM     57  O   UNL A   1      48.901  27.107  37.854  1.00  0.00    -0.237 OA
ATOM     58  O   UNL A   1      47.286  25.511  38.833  1.00  0.00    -0.237 OA
ATOM     59  O   UNL A   1      48.369  25.001  36.681  1.00  0.00    -0.744 OA
ENDBRANCH  55  56
ENDBRANCH  27  50
BRANCH  39  60
ATOM     60  C   UNL A   1      40.256  33.471  37.269  1.00  0.00    -0.014 A 
ATOM     61  C   UNL A   1      40.974  34.668  37.437  1.00  0.00     0.010 A 
ATOM     62  C   UNL A   1      39.360  33.057  38.271  1.00  0.00     0.010 A 
ATOM     63  C   UNL A   1      40.826  35.417  38.606  1.00  0.00     0.020 A 
ATOM     64  C   UNL A   1      39.187  33.818  39.427  1.00  0.00     0.020 A 
ATOM     65  C   UNL A   1      39.935  34.985  39.595  1.00  0.00     0.054 A 
BRANCH  65  66
ATOM     66  S   UNL A   1      39.734  35.991  41.090  1.00  0.00     0.124 S 
ATOM     67  O   UNL A   1      38.283  36.140  41.161  1.00  0.00    -0.237 OA
ATOM     68  O   UNL A   1      40.333  35.151  42.125  1.00  0.00    -0.237 OA
ATOM     69  O   UNL A   1      40.473  37.214  40.784  1.00  0.00    -0.744 OA
ENDBRANCH  65  66
ENDBRANCH  39  60
ENDBRANCH  13  14
ENDBRANCH   6   8
ENDBRANCH   5   6
ENDBRANCH   4   5
ENDBRANCH   3   4
ENDBRANCH   2   3
ENDBRANCH   1   2
BRANCH   1  70
ATOM     70  C   UNL A   1      36.762  23.143  25.748  1.00  0.00     0.188 C 
BRANCH  70  71
ATOM     71  O   UNL A   1      35.434  23.200  26.266  1.00  0.00    -0.376 OA
BRANCH  71  72
ATOM     72  C   UNL A   1      34.427  23.385  25.274  1.00  0.00     0.202 C 
BRANCH  72  73
ATOM     73  C   UNL A   1      33.756  24.769  25.290  1.00  0.00     0.261 C 
BRANCH  73  74
ATOM     74  O   UNL A   1      34.314  25.672  24.315  1.00  0.00    -0.461 OA
BRANCH  74  75
ATOM     75  C   UNL A   1      33.782  25.632  23.051  1.00  0.00     0.335 C 
ATOM     76  O   UNL A   1      33.891  24.690  22.278  1.00  0.00    -0.249 OA
BRANCH  75  77
ATOM     77  C   UNL A   1      32.977  26.917  22.776  1.00  0.00     0.232 C 
ATOM     78  C   UNL A   1      31.506  26.805  23.134  1.00  0.00     0.087 C 
ATOM     79  O   UNL A   1      33.537  28.011  23.491  1.00  0.00    -0.355 OA
ATOM     80  C   UNL A   1      31.172  27.989  24.055  1.00  0.00     0.124 C 
ATOM     81  C   UNL A   1      32.506  28.798  24.128  1.00  0.00     0.187 C 
BRANCH  80  82
ATOM     82  C   UNL A   1      29.828  28.600  23.621  1.00  0.00     0.005 A 
ATOM     83  C   UNL A   1      29.846  30.003  23.369  1.00  0.00     0.008 A 
ATOM     84  C   UNL A   1      28.574  27.976  23.497  1.00  0.00     0.047 A 
ATOM     85  C   UNL A   1      28.724  30.717  22.946  1.00  0.00     0.001 A 
ATOM     86  C   UNL A   1      27.454  28.693  23.030  1.00  0.00     0.021 A 
ATOM     87  Cl  UNL A   1      28.205  26.364  23.981  1.00  0.00    -0.084 Cl
ATOM     88  C   UNL A   1      27.528  30.053  22.749  1.00  0.00     0.002 A 
ENDBRANCH  80  82
BRANCH  80  89
ATOM     89  O   UNL A   1      30.909  27.406  25.359  1.00  0.00    -0.382 OA
ATOM     90  H   UNL A   1      31.320  26.529  25.409  1.00  0.00     0.212 HD
ENDBRANCH  80  89
BRANCH  81  91
ATOM     91  C   UNL A   1      33.088  29.174  25.488  1.00  0.00     0.003 A 
ATOM     92  C   UNL A   1      34.183  28.453  26.007  1.00  0.00     0.008 A 
ATOM     93  C   UNL A   1      32.682  30.315  26.202  1.00  0.00     0.046 A 
ATOM     94  C   UNL A   1      34.898  28.898  27.123  1.00  0.00     0.000 A 
ATOM     95  C   UNL A   1      33.432  30.790  27.287  1.00  0.00     0.021 A 
ATOM     96  Cl  UNL A   1      31.229  31.168  25.836  1.00  0.00    -0.084 Cl
ATOM     97  C   UNL A   1      34.550  30.093  27.735  1.00  0.00     0.002 A 
ENDBRANCH  81  91
ENDBRANCH  75  77
ENDBRANCH  74  75
ENDBRANCH  73  74
ENDBRANCH  72  73
ENDBRANCH  71  72
ENDBRANCH  70  71
ENDBRANCH   1  70
TORSDOF 23
ENDMDL
MODEL 2
REMARK VINA RESULT:      -9.7      6.563      9.206
REMARK SMILES O=C(OCCOCCOCCOC(=O)[C@H]1C[C@](O)(c2ccccc2Cl)[C@@H](c2ccccc2Cl)O1)c1ccc(-c2c3nc(c(-c4ccc(S(=O)(=O)[O-])cc4)c4ccc([nH]4)c(-c4ccc(S(=O)(=O)[O-])cc4)c4nc(c(-c5ccc(S(=O)(=O)[O-])cc5)c5ccc2[nH]5)C=C4)C=C3)cc1
REMARK SMILES IDX 7 1 6 2 5 3 4 4 3 5 2 6 1 7 35 8 36 9 94 10 37 11 93 12
REMARK SMILES IDX 38 13 39 14 40 15 87 16 41 17 92 18 86 19 88 20 42 21 91 22
REMARK SMILES IDX 85 23 84 24 43 26 73 27 54 28 72 29 55 30 58 31 71 32 89 33
REMARK SMILES IDX 56 34 57 35 70 37 90 38 59 39 44 40 45 41 53 42 46 43 52 44
REMARK SMILES IDX 47 45 48 46 49 47 50 48 51 49 74 50 75 51 83 52 76 53 82 54
REMARK SMILES IDX 77 55 78 56 79 57 80 58 81 59 60 60 61 61 69 62 62 63 68 64
REMARK SMILES IDX 63 65 64 66 65 67 66 68 67 69 8 70 9 71 10 72 11 73 12 74
REMARK SMILES IDX 13 75 14 76 15 77 16 78 34 79 17 80 26 81 19 82 20 83 24 84
REMARK SMILES IDX 21 85 23 86 25 87 22 88 18 89 27 91 28 92 32 93 29 94 31 95
REMARK SMILES IDX 33 96 30 97
REMARK H PARENT 88 25 58 36 18 90
REMARK Flexibility Score: inf
ROOT
ATOM      1  C   UNL A   1      42.286  20.863  26.258  1.00  0.00     0.188 C 
ENDROOT
BRANCH   1   2
ATOM      2  O   UNL A   1      42.183  19.635  25.533  1.00  0.00    -0.376 OA
BRANCH   2   3
ATOM      3  C   UNL A   1      42.858  18.534  26.138  1.00  0.00     0.202 C 
BRANCH   3   4
ATOM      4  C   UNL A   1      44.292  18.243  25.647  1.00  0.00     0.261 C 
BRANCH   4   5
ATOM      5  O   UNL A   1      44.668  18.986  24.478  1.00  0.00    -0.460 OA
BRANCH   5   6
ATOM      6  C   UNL A   1      45.673  19.902  24.437  1.00  0.00     0.338 C 
ATOM      7  O   UNL A   1      46.805  19.532  24.176  1.00  0.00    -0.246 OA
BRANCH   6   8
ATOM      8  C   UNL A   1      45.427  21.341  24.802  1.00  0.00     0.060 A 
ATOM      9  C   UNL A   1      45.017  22.332  23.912  1.00  0.00     0.016 A 
ATOM     10  C   UNL A   1      45.639  21.718  26.139  1.00  0.00     0.016 A 
ATOM     11  C   UNL A   1      44.978  23.672  24.285  1.00  0.00     0.010 A 
ATOM     12  C   UNL A   1      45.532  23.055  26.545  1.00  0.00     0.010 A 
ATOM     13  C   UNL A   1      45.294  24.047  25.589  1.00  0.00    -0.014 A 
BRANCH  13  14
ATOM     14  C   UNL A   1      45.638  25.468  25.831  1.00  0.00     0.031 A 
ATOM     15  C   UNL A   1      44.551  26.368  26.364  1.00  0.00     0.074 A 
ATOM     16  C   UNL A   1      46.915  25.888  25.757  1.00  0.00     0.049 A 
ATOM     17  N   UNL A   1      44.620  27.611  26.762  1.00  0.00    -0.248 NA
ATOM     18  C   UNL A   1      43.204  25.780  26.486  1.00  0.00     0.031 C 
ATOM     19  C   UNL A   1      48.054  25.059  25.356  1.00  0.00     0.029 A 
ATOM     20  N   UNL A   1      47.476  27.101  26.064  1.00  0.00    -0.354 N 
ATOM     21  C   UNL A   1      43.331  27.952  27.158  1.00  0.00     0.074 A 
ATOM     22  C   UNL A   1      42.493  26.800  26.934  1.00  0.00     0.031 C 
ATOM     23  C   UNL A   1      49.183  25.777  25.482  1.00  0.00     0.029 A 
ATOM     24  C   UNL A   1      48.844  27.126  25.927  1.00  0.00     0.049 A 
ATOM     25  H   UNL A   1      46.949  27.879  26.354  1.00  0.00     0.167 HD
ATOM     26  C   UNL A   1      42.881  29.123  27.665  1.00  0.00     0.031 A 
ATOM     27  C   UNL A   1      49.717  28.131  26.136  1.00  0.00     0.031 A 
ATOM     28  C   UNL A   1      43.726  30.266  27.871  1.00  0.00     0.049 A 
ATOM     29  C   UNL A   1      49.180  29.454  26.624  1.00  0.00     0.074 A 
ATOM     30  C   UNL A   1      43.381  31.526  28.323  1.00  0.00     0.029 A 
ATOM     31  N   UNL A   1      45.092  30.280  27.633  1.00  0.00    -0.354 N 
ATOM     32  N   UNL A   1      47.949  29.773  26.952  1.00  0.00    -0.248 NA
ATOM     33  C   UNL A   1      50.148  30.548  26.772  1.00  0.00     0.031 C 
ATOM     34  C   UNL A   1      44.535  32.318  28.309  1.00  0.00     0.029 A 
ATOM     35  C   UNL A   1      45.606  31.532  27.911  1.00  0.00     0.049 A 
ATOM     36  H   UNL A   1      45.619  29.511  27.313  1.00  0.00     0.167 HD
ATOM     37  C   UNL A   1      47.998  31.098  27.370  1.00  0.00     0.074 A 
ATOM     38  C   UNL A   1      49.384  31.513  27.266  1.00  0.00     0.031 C 
ATOM     39  C   UNL A   1      46.995  31.904  27.799  1.00  0.00     0.031 A 
BRANCH  26  40
ATOM     40  C   UNL A   1      41.406  29.229  27.947  1.00  0.00    -0.014 A 
ATOM     41  C   UNL A   1      40.450  29.180  26.916  1.00  0.00     0.010 A 
ATOM     42  C   UNL A   1      40.971  29.418  29.272  1.00  0.00     0.010 A 
ATOM     43  C   UNL A   1      39.093  29.370  27.199  1.00  0.00     0.020 A 
ATOM     44  C   UNL A   1      39.614  29.581  29.562  1.00  0.00     0.020 A 
ATOM     45  C   UNL A   1      38.686  29.578  28.520  1.00  0.00     0.054 A 
BRANCH  45  46
ATOM     46  S   UNL A   1      36.922  29.837  28.861  1.00  0.00     0.124 S 
ATOM     47  O   UNL A   1      36.742  29.090  30.104  1.00  0.00    -0.237 OA
ATOM     48  O   UNL A   1      36.828  31.289  28.983  1.00  0.00    -0.237 OA
ATOM     49  O   UNL A   1      36.255  29.269  27.691  1.00  0.00    -0.744 OA
ENDBRANCH  45  46
ENDBRANCH  26  40
BRANCH  27  50
ATOM     50  C   UNL A   1      51.172  27.938  25.867  1.00  0.00    -0.014 A 
ATOM     51  C   UNL A   1      52.075  27.658  26.907  1.00  0.00     0.010 A 
ATOM     52  C   UNL A   1      51.664  28.039  24.551  1.00  0.00     0.010 A 
ATOM     53  C   UNL A   1      53.441  27.499  26.641  1.00  0.00     0.020 A 
ATOM     54  C   UNL A   1      53.021  27.852  24.276  1.00  0.00     0.020 A 
ATOM     55  C   UNL A   1      53.905  27.596  25.325  1.00  0.00     0.054 A 
BRANCH  55  56
ATOM     56  S   UNL A   1      55.672  27.342  24.993  1.00  0.00     0.124 S 
ATOM     57  O   UNL A   1      56.104  28.682  24.608  1.00  0.00    -0.237 OA
ATOM     58  O   UNL A   1      56.169  26.860  26.278  1.00  0.00    -0.237 OA
ATOM     59  O   UNL A   1      55.677  26.350  23.920  1.00  0.00    -0.744 OA
ENDBRANCH  55  56
ENDBRANCH  27  50
BRANCH  39  60
ATOM     60  C   UNL A   1      47.369  33.294  28.232  1.00  0.00    -0.014 A 
ATOM     61  C   UNL A   1      47.762  33.566  29.554  1.00  0.00     0.010 A 
ATOM     62  C   UNL A   1      47.382  34.329  27.280  1.00  0.00     0.010 A 
ATOM     63  C   UNL A   1      48.124  34.863  29.925  1.00  0.00     0.020 A 
ATOM     64  C   UNL A   1      47.771  35.619  27.641  1.00  0.00     0.020 A 
ATOM     65  C   UNL A   1      48.123  35.882  28.967  1.00  0.00     0.054 A 
BRANCH  65  66
ATOM     66  S   UNL A   1      48.629  37.550  29.463  1.00  0.00     0.124 S 
ATOM     67  O   UNL A   1      49.337  38.018  28.275  1.00  0.00    -0.237 OA
ATOM     68  O   UNL A   1      47.352  38.206  29.735  1.00  0.00    -0.237 OA
ATOM     69  O   UNL A   1      49.467  37.320  30.639  1.00  0.00    -0.744 OA
ENDBRANCH  65  66
ENDBRANCH  39  60
ENDBRANCH  13  14
ENDBRANCH   6   8
ENDBRANCH   5   6
ENDBRANCH   4   5
ENDBRANCH   3   4
ENDBRANCH   2   3
ENDBRANCH   1   2
BRANCH   1  70
ATOM     70  C   UNL A   1      40.908  21.309  26.726  1.00  0.00     0.188 C 
BRANCH  70  71
ATOM     71  O   UNL A   1      40.388  22.453  26.050  1.00  0.00    -0.376 OA
BRANCH  71  72
ATOM     72  C   UNL A   1      40.236  23.603  26.880  1.00  0.00     0.202 C 
BRANCH  72  73
ATOM     73  C   UNL A   1      38.781  23.943  27.244  1.00  0.00     0.261 C 
BRANCH  73  74
ATOM     74  O   UNL A   1      37.921  24.026  26.090  1.00  0.00    -0.461 OA
BRANCH  74  75
ATOM     75  C   UNL A   1      37.102  22.954  25.844  1.00  0.00     0.335 C 
ATOM     76  O   UNL A   1      37.483  21.796  25.736  1.00  0.00    -0.249 OA
BRANCH  75  77
ATOM     77  C   UNL A   1      35.632  23.412  25.788  1.00  0.00     0.232 C 
ATOM     78  C   UNL A   1      35.294  24.232  24.556  1.00  0.00     0.087 C 
ATOM     79  O   UNL A   1      34.764  22.287  25.837  1.00  0.00    -0.355 OA
ATOM     80  C   UNL A   1      34.070  23.578  23.897  1.00  0.00     0.124 C 
ATOM     81  C   UNL A   1      33.705  22.405  24.861  1.00  0.00     0.187 C 
BRANCH  80  82
ATOM     82  C   UNL A   1      33.077  24.676  23.477  1.00  0.00     0.005 A 
ATOM     83  C   UNL A   1      33.208  25.140  22.136  1.00  0.00     0.008 A 
ATOM     84  C   UNL A   1      32.098  25.324  24.252  1.00  0.00     0.047 A 
ATOM     85  C   UNL A   1      32.376  26.114  21.581  1.00  0.00     0.001 A 
ATOM     86  C   UNL A   1      31.236  26.278  23.676  1.00  0.00     0.021 A 
ATOM     87  Cl  UNL A   1      31.894  25.151  25.955  1.00  0.00    -0.084 Cl
ATOM     88  C   UNL A   1      31.367  26.667  22.348  1.00  0.00     0.002 A 
ENDBRANCH  80  82
BRANCH  80  89
ATOM     89  O   UNL A   1      34.553  23.020  22.646  1.00  0.00    -0.382 OA
ATOM     90  H   UNL A   1      35.102  22.242  22.830  1.00  0.00     0.212 HD
ENDBRANCH  80  89
BRANCH  81  91
ATOM     91  C   UNL A   1      33.531  20.995  24.303  1.00  0.00     0.003 A 
ATOM     92  C   UNL A   1      34.387  19.960  24.733  1.00  0.00     0.008 A 
ATOM     93  C   UNL A   1      32.452  20.628  23.479  1.00  0.00     0.046 A 
ATOM     94  C   UNL A   1      34.126  18.617  24.439  1.00  0.00     0.000 A 
ATOM     95  C   UNL A   1      32.161  19.279  23.231  1.00  0.00     0.021 A 
ATOM     96  Cl  UNL A   1      31.457  21.791  22.685  1.00  0.00    -0.084 Cl
ATOM     97  C   UNL A   1      32.986  18.274  23.728  1.00  0.00     0.002 A 
ENDBRANCH  81  91
ENDBRANCH  75  77
ENDBRANCH  74  75
ENDBRANCH  73  74
ENDBRANCH  72  73
ENDBRANCH  71  72
ENDBRANCH  70  71
ENDBRANCH   1  70
TORSDOF 23
ENDMDL
MODEL 3
REMARK VINA RESULT:      -9.7      5.971     11.356
REMARK SMILES O=C(OCCOCCOCCOC(=O)[C@H]1C[C@](O)(c2ccccc2Cl)[C@@H](c2ccccc2Cl)O1)c1ccc(-c2c3nc(c(-c4ccc(S(=O)(=O)[O-])cc4)c4ccc([nH]4)c(-c4ccc(S(=O)(=O)[O-])cc4)c4nc(c(-c5ccc(S(=O)(=O)[O-])cc5)c5ccc2[nH]5)C=C4)C=C3)cc1
REMARK SMILES IDX 7 1 6 2 5 3 4 4 3 5 2 6 1 7 35 8 36 9 94 10 37 11 93 12
REMARK SMILES IDX 38 13 39 14 40 15 87 16 41 17 92 18 86 19 88 20 42 21 91 22
REMARK SMILES IDX 85 23 84 24 43 26 73 27 54 28 72 29 55 30 58 31 71 32 89 33
REMARK SMILES IDX 56 34 57 35 70 37 90 38 59 39 44 40 45 41 53 42 46 43 52 44
REMARK SMILES IDX 47 45 48 46 49 47 50 48 51 49 74 50 75 51 83 52 76 53 82 54
REMARK SMILES IDX 77 55 78 56 79 57 80 58 81 59 60 60 61 61 69 62 62 63 68 64
REMARK SMILES IDX 63 65 64 66 65 67 66 68 67 69 8 70 9 71 10 72 11 73 12 74
REMARK SMILES IDX 13 75 14 76 15 77 16 78 34 79 17 80 26 81 19 82 20 83 24 84
REMARK SMILES IDX 21 85 23 86 25 87 22 88 18 89 27 91 28 92 32 93 29 94 31 95
REMARK SMILES IDX 33 96 30 97
REMARK H PARENT 88 25 58 36 18 90
REMARK Flexibility Score: inf
ROOT
ATOM      1  C   UNL A   1      34.672  31.471  28.263  1.00  0.00     0.188 C 
ENDROOT
BRANCH   1   2
ATOM      2  O   UNL A   1      35.761  32.360  28.519  1.00  0.00    -0.376 OA
BRANCH   2   3
ATOM      3  C   UNL A   1      35.746  32.957  29.814  1.00  0.00     0.202 C 
BRANCH   3   4
ATOM      4  C   UNL A   1      35.302  32.059  30.988  1.00  0.00     0.261 C 
BRANCH   4   5
ATOM      5  O   UNL A   1      36.383  31.364  31.628  1.00  0.00    -0.460 OA
BRANCH   5   6
ATOM      6  C   UNL A   1      37.009  30.270  31.115  1.00  0.00     0.338 C 
ATOM      7  O   UNL A   1      36.464  29.183  31.190  1.00  0.00    -0.246 OA
BRANCH   6   8
ATOM      8  C   UNL A   1      38.399  30.367  30.548  1.00  0.00     0.060 A 
ATOM      9  C   UNL A   1      38.724  30.223  29.201  1.00  0.00     0.016 A 
ATOM     10  C   UNL A   1      39.453  30.609  31.447  1.00  0.00     0.016 A 
ATOM     11  C   UNL A   1      40.047  30.152  28.777  1.00  0.00     0.010 A 
ATOM     12  C   UNL A   1      40.788  30.613  31.021  1.00  0.00     0.010 A 
ATOM     13  C   UNL A   1      41.087  30.287  29.694  1.00  0.00    -0.014 A 
BRANCH  13  14
ATOM     14  C   UNL A   1      42.428  29.805  29.288  1.00  0.00     0.031 A 
ATOM     15  C   UNL A   1      42.534  28.394  28.766  1.00  0.00     0.074 A 
ATOM     16  C   UNL A   1      43.469  30.655  29.212  1.00  0.00     0.049 A 
ATOM     17  N   UNL A   1      43.559  27.774  28.246  1.00  0.00    -0.248 NA
ATOM     18  C   UNL A   1      41.308  27.575  28.817  1.00  0.00     0.031 C 
ATOM     19  C   UNL A   1      43.435  32.069  29.592  1.00  0.00     0.029 A 
ATOM     20  N   UNL A   1      44.744  30.466  28.743  1.00  0.00    -0.354 N 
ATOM     21  C   UNL A   1      43.107  26.496  27.931  1.00  0.00     0.074 A 
ATOM     22  C   UNL A   1      41.725  26.417  28.336  1.00  0.00     0.031 C 
ATOM     23  C   UNL A   1      44.621  32.630  29.301  1.00  0.00     0.029 A 
ATOM     24  C   UNL A   1      45.512  31.607  28.760  1.00  0.00     0.049 A 
ATOM     25  H   UNL A   1      45.077  29.596  28.425  1.00  0.00     0.167 HD
ATOM     26  C   UNL A   1      43.783  25.475  27.354  1.00  0.00     0.031 A 
ATOM     27  C   UNL A   1      46.792  31.795  28.380  1.00  0.00     0.031 A 
ATOM     28  C   UNL A   1      45.162  25.565  26.968  1.00  0.00     0.049 A 
ATOM     29  C   UNL A   1      47.550  30.620  27.816  1.00  0.00     0.074 A 
ATOM     30  C   UNL A   1      45.975  24.586  26.428  1.00  0.00     0.029 A 
ATOM     31  N   UNL A   1      45.933  26.713  27.086  1.00  0.00    -0.354 N 
ATOM     32  N   UNL A   1      47.118  29.404  27.565  1.00  0.00    -0.248 NA
ATOM     33  C   UNL A   1      48.962  30.840  27.481  1.00  0.00     0.031 C 
ATOM     34  C   UNL A   1      47.254  25.130  26.267  1.00  0.00     0.029 A 
ATOM     35  C   UNL A   1      47.219  26.464  26.646  1.00  0.00     0.049 A 
ATOM     36  H   UNL A   1      45.611  27.577  27.432  1.00  0.00     0.167 HD
ATOM     37  C   UNL A   1      48.200  28.722  27.019  1.00  0.00     0.074 A 
ATOM     38  C   UNL A   1      49.299  29.667  26.964  1.00  0.00     0.031 C 
ATOM     39  C   UNL A   1      48.284  27.434  26.602  1.00  0.00     0.031 A 
BRANCH  26  40
ATOM     40  C   UNL A   1      43.049  24.170  27.191  1.00  0.00    -0.014 A 
ATOM     41  C   UNL A   1      42.942  23.244  28.244  1.00  0.00     0.010 A 
ATOM     42  C   UNL A   1      42.484  23.852  25.942  1.00  0.00     0.010 A 
ATOM     43  C   UNL A   1      42.331  22.002  28.036  1.00  0.00     0.020 A 
ATOM     44  C   UNL A   1      41.849  22.624  25.738  1.00  0.00     0.020 A 
ATOM     45  C   UNL A   1      41.796  21.698  26.781  1.00  0.00     0.054 A 
BRANCH  45  46
ATOM     46  S   UNL A   1      41.021  20.076  26.531  1.00  0.00     0.124 S 
ATOM     47  O   UNL A   1      39.714  20.446  25.995  1.00  0.00    -0.237 OA
ATOM     48  O   UNL A   1      41.927  19.430  25.585  1.00  0.00    -0.237 OA
ATOM     49  O   UNL A   1      41.002  19.491  27.870  1.00  0.00    -0.744 OA
ENDBRANCH  45  46
ENDBRANCH  26  40
BRANCH  27  50
ATOM     50  C   UNL A   1      47.440  33.129  28.542  1.00  0.00    -0.014 A 
ATOM     51  C   UNL A   1      48.081  33.489  29.740  1.00  0.00     0.010 A 
ATOM     52  C   UNL A   1      47.412  34.058  27.483  1.00  0.00     0.010 A 
ATOM     53  C   UNL A   1      48.667  34.753  29.883  1.00  0.00     0.020 A 
ATOM     54  C   UNL A   1      48.020  35.310  27.611  1.00  0.00     0.020 A 
ATOM     55  C   UNL A   1      48.633  35.656  28.815  1.00  0.00     0.054 A 
BRANCH  55  56
ATOM     56  S   UNL A   1      49.437  37.272  29.003  1.00  0.00     0.124 S 
ATOM     57  O   UNL A   1      50.813  36.974  28.618  1.00  0.00    -0.237 OA
ATOM     58  O   UNL A   1      48.686  38.109  28.072  1.00  0.00    -0.237 OA
ATOM     59  O   UNL A   1      49.237  37.591  30.415  1.00  0.00    -0.744 OA
ENDBRANCH  55  56
ENDBRANCH  27  50
BRANCH  39  60
ATOM     60  C   UNL A   1      49.591  26.990  26.007  1.00  0.00    -0.014 A 
ATOM     61  C   UNL A   1      49.925  27.284  24.673  1.00  0.00     0.010 A 
ATOM     62  C   UNL A   1      50.522  26.317  26.819  1.00  0.00     0.010 A 
ATOM     63  C   UNL A   1      51.154  26.878  24.152  1.00  0.00     0.020 A 
ATOM     64  C   UNL A   1      51.763  25.935  26.310  1.00  0.00     0.020 A 
ATOM     65  C   UNL A   1      52.065  26.203  24.973  1.00  0.00     0.054 A 
BRANCH  65  66
ATOM     66  S   UNL A   1      53.668  25.714  24.283  1.00  0.00     0.124 S 
ATOM     67  O   UNL A   1      54.566  26.699  24.878  1.00  0.00    -0.237 OA
ATOM     68  O   UNL A   1      53.823  24.345  24.769  1.00  0.00    -0.237 OA
ATOM     69  O   UNL A   1      53.474  25.837  22.839  1.00  0.00    -0.744 OA
ENDBRANCH  65  66
ENDBRANCH  39  60
ENDBRANCH  13  14
ENDBRANCH   6   8
ENDBRANCH   5   6
ENDBRANCH   4   5
ENDBRANCH   3   4
ENDBRANCH   2   3
ENDBRANCH   1   2
BRANCH   1  70
ATOM     70  C   UNL A   1      35.198  30.074  27.965  1.00  0.00     0.188 C 
BRANCH  70  71
ATOM     71  O   UNL A   1      34.304  29.243  27.229  1.00  0.00    -0.376 OA
BRANCH  71  72
ATOM     72  C   UNL A   1      33.250  29.950  26.578  1.00  0.00     0.202 C 
BRANCH  72  73
ATOM     73  C   UNL A   1      33.137  29.684  25.067  1.00  0.00     0.261 C 
BRANCH  73  74
ATOM     74  O   UNL A   1      34.088  28.706  24.599  1.00  0.00    -0.461 OA
BRANCH  74  75
ATOM     75  C   UNL A   1      34.000  28.329  23.284  1.00  0.00     0.335 C 
ATOM     76  O   UNL A   1      34.591  28.874  22.361  1.00  0.00    -0.249 OA
BRANCH  75  77
ATOM     77  C   UNL A   1      33.104  27.083  23.149  1.00  0.00     0.232 C 
ATOM     78  C   UNL A   1      32.826  26.384  24.467  1.00  0.00     0.087 C 
ATOM     79  O   UNL A   1      31.862  27.433  22.551  1.00  0.00    -0.355 OA
ATOM     80  C   UNL A   1      31.302  26.235  24.591  1.00  0.00     0.124 C 
ATOM     81  C   UNL A   1      30.757  26.817  23.248  1.00  0.00     0.187 C 
BRANCH  80  82
ATOM     82  C   UNL A   1      30.974  24.821  25.102  1.00  0.00     0.005 A 
ATOM     83  C   UNL A   1      30.339  24.763  26.377  1.00  0.00     0.008 A 
ATOM     84  C   UNL A   1      31.267  23.579  24.510  1.00  0.00     0.047 A 
ATOM     85  C   UNL A   1      29.949  23.566  26.981  1.00  0.00     0.001 A 
ATOM     86  C   UNL A   1      30.836  22.377  25.106  1.00  0.00     0.021 A 
ATOM     87  Cl  UNL A   1      32.245  23.342  23.112  1.00  0.00    -0.084 Cl
ATOM     88  C   UNL A   1      30.175  22.368  26.329  1.00  0.00     0.002 A 
ENDBRANCH  80  82
BRANCH  80  89
ATOM     89  O   UNL A   1      30.911  27.119  25.675  1.00  0.00    -0.382 OA
ATOM     90  H   UNL A   1      31.094  26.688  26.524  1.00  0.00     0.212 HD
ENDBRANCH  80  89
BRANCH  81  91
ATOM     91  C   UNL A   1      29.668  27.886  23.275  1.00  0.00     0.003 A 
ATOM     92  C   UNL A   1      29.977  29.212  22.907  1.00  0.00     0.008 A 
ATOM     93  C   UNL A   1      28.314  27.591  23.509  1.00  0.00     0.046 A 
ATOM     94  C   UNL A   1      28.981  30.169  22.687  1.00  0.00     0.000 A 
ATOM     95  C   UNL A   1      27.313  28.534  23.236  1.00  0.00     0.021 A 
ATOM     96  Cl  UNL A   1      27.797  26.091  24.185  1.00  0.00    -0.084 Cl
ATOM     97  C   UNL A   1      27.645  29.816  22.806  1.00  0.00     0.002 A 
ENDBRANCH  81  91
ENDBRANCH  75  77
ENDBRANCH  74  75
ENDBRANCH  73  74
ENDBRANCH  72  73
ENDBRANCH  71  72
ENDBRANCH  70  71
ENDBRANCH   1  70
TORSDOF 23
ENDMDL
