MODEL 1
REMARK VINA RESULT:      -8.5      0.000      0.000
REMARK SMILES O=C(OCCOCCOCCOC(=O)c1ccc(-c2c3nc(c(-c4ccc(S(=O)(=O)[O-])cc4)c4ccc([nH]4)c(-c4ccc(S(=O)(=O)[O-])cc4)c4nc(c(-c5ccc(S(=O)(=O)[O-])cc5)c5ccc2[nH]5)C=C4)C=C3)cc1)C1=Cc2cc(Cl)cc(C#Cc3ccccc3)c2O[C@@H]1C(F)(F)F
REMARK SMILES IDX 8 1 7 2 6 3 5 4 4 5 3 6 2 7 1 8 75 9 76 10 93 11 77 12 92 13
REMARK SMILES IDX 78 14 91 15 79 16 82 17 80 18 81 19 94 20 95 21 96 22 97 23
REMARK SMILES IDX 83 24 84 25 85 26 86 27 90 28 87 29 89 30 88 31 9 32 10 33
REMARK SMILES IDX 11 34 12 35 13 36 14 37 15 38 16 39 74 40 17 41 73 42 18 43
REMARK SMILES IDX 19 44 20 45 67 46 21 47 72 48 66 49 68 50 22 51 71 52 65 53
REMARK SMILES IDX 64 54 23 56 53 57 34 58 52 59 35 60 38 61 51 62 69 63 36 64
REMARK SMILES IDX 37 65 50 67 70 68 39 69 24 70 25 71 33 72 26 73 32 74 27 75
REMARK SMILES IDX 28 76 29 77 30 78 31 79 54 80 55 81 63 82 56 83 62 84 57 85
REMARK SMILES IDX 58 86 59 87 60 88 61 89 40 90 41 91 49 92 42 93 48 94 43 95
REMARK SMILES IDX 44 96 45 97 46 98 47 99
REMARK H PARENT 68 55 38 66
REMARK Flexibility Score: inf
ROOT
ATOM      1  C   UNL A   1      35.986  34.724  33.127  1.00  0.00     0.188 C 
ENDROOT
BRANCH   1   2
ATOM      2  C   UNL A   1      35.491  33.856  34.290  1.00  0.00     0.188 C 
BRANCH   2   3
ATOM      3  O   UNL A   1      36.380  33.059  35.156  1.00  0.00    -0.376 OA
BRANCH   3   4
ATOM      4  C   UNL A   1      36.920  33.369  36.724  1.00  0.00     0.202 C 
BRANCH   4   5
ATOM      5  C   UNL A   1      38.377  32.208  37.844  1.00  0.00     0.261 C 
BRANCH   5   6
ATOM      6  O   UNL A   1      39.901  32.335  37.747  1.00  0.00    -0.460 OA
BRANCH   6   7
ATOM      7  C   UNL A   1      40.331  32.395  36.478  1.00  0.00     0.338 C 
ATOM      8  O   UNL A   1      40.078  31.657  35.561  1.00  0.00    -0.246 OA
BRANCH   7   9
ATOM      9  C   UNL A   1      41.474  33.244  36.745  1.00  0.00     0.087 C 
ATOM     10  C   UNL A   1      42.778  32.597  36.580  1.00  0.00     0.027 C 
ATOM     11  C   UNL A   1      40.823  34.701  35.668  1.00  0.00     0.316 C 
ATOM     12  C   UNL A   1      43.863  32.874  35.163  1.00  0.00     0.020 A 
ATOM     13  O   UNL A   1      41.902  34.915  34.058  1.00  0.00    -0.474 OA
ATOM     14  C   UNL A   1      45.014  32.141  35.081  1.00  0.00     0.032 A 
ATOM     15  C   UNL A   1      43.447  33.958  33.863  1.00  0.00     0.143 A 
ATOM     16  C   UNL A   1      45.780  32.379  33.931  1.00  0.00     0.043 A 
ATOM     17  C   UNL A   1      44.273  34.123  32.772  1.00  0.00     0.069 A 
ATOM     18  Cl  UNL A   1      47.260  31.485  33.780  1.00  0.00    -0.084 Cl
ATOM     19  C   UNL A   1      45.440  33.305  32.862  1.00  0.00     0.041 A 
BRANCH  11  20
ATOM     20  C   UNL A   1      40.547  35.695  36.981  1.00  0.00     0.430 C 
ATOM     21  F   UNL A   1      39.516  35.503  37.801  1.00  0.00    -0.167 F 
ATOM     22  F   UNL A   1      41.652  35.656  37.773  1.00  0.00    -0.167 F 
ATOM     23  F   UNL A   1      40.435  37.004  36.603  1.00  0.00    -0.167 F 
ENDBRANCH  11  20
BRANCH  17  24
ATOM     24  C   UNL A   1      44.166  34.999  31.651  1.00  0.00    -0.058 C 
ATOM     25  C   UNL A   1      43.862  35.642  30.673  1.00  0.00    -0.062 C 
BRANCH  25  26
ATOM     26  C   UNL A   1      43.416  36.308  29.477  1.00  0.00     0.025 A 
ATOM     27  C   UNL A   1      43.840  37.607  29.188  1.00  0.00     0.017 A 
ATOM     28  C   UNL A   1      42.526  35.683  28.596  1.00  0.00     0.017 A 
ATOM     29  C   UNL A   1      43.395  38.256  28.028  1.00  0.00     0.001 A 
ATOM     30  C   UNL A   1      42.073  36.330  27.444  1.00  0.00     0.001 A 
ATOM     31  C   UNL A   1      42.512  37.618  27.158  1.00  0.00     0.000 A 
ENDBRANCH  25  26
ENDBRANCH  17  24
ENDBRANCH   7   9
ENDBRANCH   6   7
ENDBRANCH   5   6
ENDBRANCH   4   5
ENDBRANCH   3   4
ENDBRANCH   2   3
ENDBRANCH   1   2
BRANCH   1  32
ATOM     32  O   UNL A   1      36.108  34.181  31.840  1.00  0.00    -0.376 OA
BRANCH  32  33
ATOM     33  C   UNL A   1      34.933  33.682  31.223  1.00  0.00     0.202 C 
BRANCH  33  34
ATOM     34  C   UNL A   1      34.904  32.197  30.889  1.00  0.00     0.261 C 
BRANCH  34  35
ATOM     35  O   UNL A   1      36.170  31.719  30.421  1.00  0.00    -0.460 OA
BRANCH  35  36
ATOM     36  C   UNL A   1      36.712  30.669  31.079  1.00  0.00     0.338 C 
ATOM     37  O   UNL A   1      36.163  29.898  31.843  1.00  0.00    -0.246 OA
BRANCH  36  38
ATOM     38  C   UNL A   1      38.098  30.527  30.606  1.00  0.00     0.060 A 
ATOM     39  C   UNL A   1      38.366  30.492  29.229  1.00  0.00     0.016 A 
ATOM     40  C   UNL A   1      39.126  30.425  31.544  1.00  0.00     0.016 A 
ATOM     41  C   UNL A   1      39.679  30.364  28.785  1.00  0.00     0.010 A 
ATOM     42  C   UNL A   1      40.430  30.247  31.102  1.00  0.00     0.010 A 
ATOM     43  C   UNL A   1      40.702  30.184  29.724  1.00  0.00    -0.014 A 
BRANCH  43  44
ATOM     44  C   UNL A   1      41.988  29.593  29.306  1.00  0.00     0.031 A 
ATOM     45  C   UNL A   1      43.155  30.532  29.205  1.00  0.00     0.074 A 
ATOM     46  C   UNL A   1      42.093  28.302  28.958  1.00  0.00     0.049 A 
ATOM     47  N   UNL A   1      44.354  30.319  28.736  1.00  0.00    -0.248 NA
ATOM     48  C   UNL A   1      42.928  31.911  29.680  1.00  0.00     0.031 C 
ATOM     49  C   UNL A   1      41.028  27.306  29.054  1.00  0.00     0.029 A 
ATOM     50  N   UNL A   1      43.155  27.618  28.428  1.00  0.00    -0.354 N 
ATOM     51  C   UNL A   1      45.015  31.536  28.847  1.00  0.00     0.074 A 
ATOM     52  C   UNL A   1      44.080  32.489  29.395  1.00  0.00     0.031 C 
ATOM     53  C   UNL A   1      41.489  26.135  28.576  1.00  0.00     0.029 A 
ATOM     54  C   UNL A   1      42.861  26.315  28.104  1.00  0.00     0.049 A 
ATOM     55  H   UNL A   1      44.044  28.020  28.291  1.00  0.00     0.167 HD
ATOM     56  C   UNL A   1      46.292  31.832  28.515  1.00  0.00     0.031 A 
ATOM     57  C   UNL A   1      43.613  25.392  27.471  1.00  0.00     0.031 A 
ATOM     58  C   UNL A   1      47.193  30.882  27.923  1.00  0.00     0.049 A 
ATOM     59  C   UNL A   1      45.009  25.763  27.036  1.00  0.00     0.074 A 
ATOM     60  C   UNL A   1      48.510  31.063  27.551  1.00  0.00     0.029 A 
ATOM     61  N   UNL A   1      46.856  29.575  27.599  1.00  0.00    -0.354 N 
ATOM     62  N   UNL A   1      45.641  26.906  27.174  1.00  0.00    -0.248 NA
ATOM     63  C   UNL A   1      45.797  24.720  26.366  1.00  0.00     0.031 C 
ATOM     64  C   UNL A   1      48.948  29.889  26.932  1.00  0.00     0.029 A 
ATOM     65  C   UNL A   1      47.932  28.946  27.003  1.00  0.00     0.049 A 
ATOM     66  H   UNL A   1      45.980  29.158  27.770  1.00  0.00     0.167 HD
ATOM     67  C   UNL A   1      46.915  26.706  26.648  1.00  0.00     0.074 A 
ATOM     68  C   UNL A   1      46.962  25.330  26.192  1.00  0.00     0.031 C 
ATOM     69  C   UNL A   1      47.956  27.573  26.561  1.00  0.00     0.031 A 
BRANCH  56  70
ATOM     70  C   UNL A   1      46.751  33.249  28.731  1.00  0.00    -0.014 A 
ATOM     71  C   UNL A   1      46.529  34.249  27.764  1.00  0.00     0.010 A 
ATOM     72  C   UNL A   1      47.420  33.589  29.921  1.00  0.00     0.010 A 
ATOM     73  C   UNL A   1      47.010  35.545  27.962  1.00  0.00     0.020 A 
ATOM     74  C   UNL A   1      47.868  34.893  30.140  1.00  0.00     0.020 A 
ATOM     75  C   UNL A   1      47.677  35.858  29.150  1.00  0.00     0.054 A 
BRANCH  75  76
ATOM     76  S   UNL A   1      48.273  37.553  29.387  1.00  0.00     0.124 S 
ATOM     77  O   UNL A   1      49.610  37.331  29.934  1.00  0.00    -0.237 OA
ATOM     78  O   UNL A   1      48.233  38.098  28.033  1.00  0.00    -0.237 OA
ATOM     79  O   UNL A   1      47.310  38.134  30.319  1.00  0.00    -0.744 OA
ENDBRANCH  75  76
ENDBRANCH  56  70
BRANCH  57  80
ATOM     80  C   UNL A   1      43.056  24.036  27.205  1.00  0.00    -0.014 A 
ATOM     81  C   UNL A   1      43.088  23.041  28.197  1.00  0.00     0.010 A 
ATOM     82  C   UNL A   1      42.473  23.736  25.960  1.00  0.00     0.010 A 
ATOM     83  C   UNL A   1      42.554  21.771  27.949  1.00  0.00     0.020 A 
ATOM     84  C   UNL A   1      41.909  22.480  25.718  1.00  0.00     0.020 A 
ATOM     85  C   UNL A   1      41.960  21.502  26.713  1.00  0.00     0.054 A 
BRANCH  85  86
ATOM     86  S   UNL A   1      41.212  19.871  26.440  1.00  0.00     0.124 S 
ATOM     87  O   UNL A   1      42.075  19.308  25.407  1.00  0.00    -0.237 OA
ATOM     88  O   UNL A   1      41.317  19.254  27.760  1.00  0.00    -0.237 OA
ATOM     89  O   UNL A   1      39.849  20.185  26.013  1.00  0.00    -0.744 OA
ENDBRANCH  85  86
ENDBRANCH  57  80
BRANCH  69  90
ATOM     90  C   UNL A   1      49.259  27.055  26.008  1.00  0.00    -0.014 A 
ATOM     91  C   UNL A   1      49.616  27.231  24.660  1.00  0.00     0.010 A 
ATOM     92  C   UNL A   1      50.182  26.457  26.889  1.00  0.00     0.010 A 
ATOM     93  C   UNL A   1      50.861  26.795  24.199  1.00  0.00     0.020 A 
ATOM     94  C   UNL A   1      51.441  26.055  26.440  1.00  0.00     0.020 A 
ATOM     95  C   UNL A   1      51.768  26.215  25.094  1.00  0.00     0.054 A 
BRANCH  95  96
ATOM     96  S   UNL A   1      53.400  25.715  24.481  1.00  0.00     0.124 S 
ATOM     97  O   UNL A   1      53.453  24.309  24.870  1.00  0.00    -0.237 OA
ATOM     98  O   UNL A   1      53.292  25.967  23.046  1.00  0.00    -0.237 OA
ATOM     99  O   UNL A   1      54.324  26.594  25.195  1.00  0.00    -0.744 OA
ENDBRANCH  95  96
ENDBRANCH  69  90
ENDBRANCH  43  44
ENDBRANCH  36  38
ENDBRANCH  35  36
ENDBRANCH  34  35
ENDBRANCH  33  34
ENDBRANCH  32  33
ENDBRANCH   1  32
TORSDOF 23
ENDMDL
MODEL 2
REMARK VINA RESULT:      -7.6      5.304     11.760
REMARK SMILES O=C(OCCOCCOCCOC(=O)c1ccc(-c2c3nc(c(-c4ccc(S(=O)(=O)[O-])cc4)c4ccc([nH]4)c(-c4ccc(S(=O)(=O)[O-])cc4)c4nc(c(-c5ccc(S(=O)(=O)[O-])cc5)c5ccc2[nH]5)C=C4)C=C3)cc1)C1=Cc2cc(Cl)cc(C#Cc3ccccc3)c2O[C@@H]1C(F)(F)F
REMARK SMILES IDX 8 1 7 2 6 3 5 4 4 5 3 6 2 7 1 8 75 9 76 10 93 11 77 12 92 13
REMARK SMILES IDX 78 14 91 15 79 16 82 17 80 18 81 19 94 20 95 21 96 22 97 23
REMARK SMILES IDX 83 24 84 25 85 26 86 27 90 28 87 29 89 30 88 31 9 32 10 33
REMARK SMILES IDX 11 34 12 35 13 36 14 37 15 38 16 39 74 40 17 41 73 42 18 43
REMARK SMILES IDX 19 44 20 45 67 46 21 47 72 48 66 49 68 50 22 51 71 52 65 53
REMARK SMILES IDX 64 54 23 56 53 57 34 58 52 59 35 60 38 61 51 62 69 63 36 64
REMARK SMILES IDX 37 65 50 67 70 68 39 69 24 70 25 71 33 72 26 73 32 74 27 75
REMARK SMILES IDX 28 76 29 77 30 78 31 79 54 80 55 81 63 82 56 83 62 84 57 85
REMARK SMILES IDX 58 86 59 87 60 88 61 89 40 90 41 91 49 92 42 93 48 94 43 95
REMARK SMILES IDX 44 96 45 97 46 98 47 99
REMARK H PARENT 68 55 38 66
REMARK Flexibility Score: inf
ROOT
ATOM      1  C   UNL A   1      36.568  30.911  29.867  1.00  0.00     0.188 C 
ENDROOT
BRANCH   1   2
ATOM      2  C   UNL A   1      37.882  30.844  29.080  1.00  0.00     0.188 C 
BRANCH   2   3
ATOM      3  O   UNL A   1      39.081  30.120  29.543  1.00  0.00    -0.376 OA
BRANCH   3   4
ATOM      4  C   UNL A   1      40.503  30.716  30.229  1.00  0.00     0.202 C 
BRANCH   4   5
ATOM      5  C   UNL A   1      42.313  29.585  30.641  1.00  0.00     0.261 C 
BRANCH   5   6
ATOM      6  O   UNL A   1      42.705  28.245  30.011  1.00  0.00    -0.460 OA
BRANCH   6   7
ATOM      7  C   UNL A   1      41.643  27.464  29.764  1.00  0.00     0.338 C 
ATOM      8  O   UNL A   1      40.797  27.080  30.529  1.00  0.00    -0.246 OA
BRANCH   7   9
ATOM      9  C   UNL A   1      42.150  26.905  28.528  1.00  0.00     0.087 C 
ATOM     10  C   UNL A   1      42.562  25.501  28.606  1.00  0.00     0.027 C 
ATOM     11  C   UNL A   1      40.688  27.566  27.464  1.00  0.00     0.316 C 
ATOM     12  C   UNL A   1      41.591  24.132  27.940  1.00  0.00     0.020 A 
ATOM     13  O   UNL A   1      39.547  26.104  26.861  1.00  0.00    -0.474 OA
ATOM     14  C   UNL A   1      42.040  22.858  28.157  1.00  0.00     0.032 A 
ATOM     15  C   UNL A   1      40.068  24.372  27.128  1.00  0.00     0.143 A 
ATOM     16  C   UNL A   1      41.210  21.850  27.650  1.00  0.00     0.043 A 
ATOM     17  C   UNL A   1      39.324  23.309  26.664  1.00  0.00     0.069 A 
ATOM     18  Cl  UNL A   1      41.737  20.213  27.886  1.00  0.00    -0.084 Cl
ATOM     19  C   UNL A   1      39.951  22.059  26.950  1.00  0.00     0.041 A 
BRANCH  11  20
ATOM     20  C   UNL A   1      41.638  28.667  26.643  1.00  0.00     0.430 C 
ATOM     21  F   UNL A   1      42.774  28.307  26.051  1.00  0.00    -0.167 F 
ATOM     22  F   UNL A   1      40.878  29.223  25.661  1.00  0.00    -0.167 F 
ATOM     23  F   UNL A   1      41.995  29.715  27.445  1.00  0.00    -0.167 F 
ENDBRANCH  11  20
BRANCH  17  24
ATOM     24  C   UNL A   1      38.109  23.282  25.918  1.00  0.00    -0.058 C 
ATOM     25  C   UNL A   1      37.067  23.490  25.338  1.00  0.00    -0.062 C 
BRANCH  25  26
ATOM     26  C   UNL A   1      35.811  23.842  24.730  1.00  0.00     0.025 A 
ATOM     27  C   UNL A   1      34.991  24.815  25.307  1.00  0.00     0.017 A 
ATOM     28  C   UNL A   1      35.370  23.197  23.568  1.00  0.00     0.017 A 
ATOM     29  C   UNL A   1      33.764  25.146  24.717  1.00  0.00     0.001 A 
ATOM     30  C   UNL A   1      34.143  23.518  22.984  1.00  0.00     0.001 A 
ATOM     31  C   UNL A   1      33.340  24.498  23.558  1.00  0.00     0.000 A 
ENDBRANCH  25  26
ENDBRANCH  17  24
ENDBRANCH   7   9
ENDBRANCH   6   7
ENDBRANCH   5   6
ENDBRANCH   4   5
ENDBRANCH   3   4
ENDBRANCH   2   3
ENDBRANCH   1   2
BRANCH   1  32
ATOM     32  O   UNL A   1      36.255  32.046  30.628  1.00  0.00    -0.376 OA
BRANCH  32  33
ATOM     33  C   UNL A   1      36.362  31.942  32.038  1.00  0.00     0.202 C 
BRANCH  33  34
ATOM     34  C   UNL A   1      37.758  32.046  32.634  1.00  0.00     0.261 C 
BRANCH  34  35
ATOM     35  O   UNL A   1      38.552  33.050  31.994  1.00  0.00    -0.460 OA
BRANCH  35  36
ATOM     36  C   UNL A   1      39.337  33.812  32.788  1.00  0.00     0.338 C 
ATOM     37  O   UNL A   1      39.253  33.978  33.990  1.00  0.00    -0.246 OA
BRANCH  36  38
ATOM     38  C   UNL A   1      40.431  34.332  31.952  1.00  0.00     0.060 A 
ATOM     39  C   UNL A   1      40.253  34.448  30.565  1.00  0.00     0.016 A 
ATOM     40  C   UNL A   1      41.632  34.698  32.559  1.00  0.00     0.016 A 
ATOM     41  C   UNL A   1      41.287  34.947  29.777  1.00  0.00     0.010 A 
ATOM     42  C   UNL A   1      42.680  35.148  31.767  1.00  0.00     0.010 A 
ATOM     43  C   UNL A   1      42.519  35.241  30.374  1.00  0.00    -0.014 A 
BRANCH  43  44
ATOM     44  C   UNL A   1      43.738  35.315  29.546  1.00  0.00     0.031 A 
ATOM     45  C   UNL A   1      44.440  34.017  29.269  1.00  0.00     0.074 A 
ATOM     46  C   UNL A   1      44.238  36.487  29.127  1.00  0.00     0.049 A 
ATOM     47  N   UNL A   1      45.591  33.802  28.694  1.00  0.00    -0.248 NA
ATOM     48  C   UNL A   1      43.754  32.793  29.726  1.00  0.00     0.031 C 
ATOM     49  C   UNL A   1      43.612  37.795  29.315  1.00  0.00     0.029 A 
ATOM     50  N   UNL A   1      45.409  36.760  28.471  1.00  0.00    -0.354 N 
ATOM     51  C   UNL A   1      45.772  32.425  28.734  1.00  0.00     0.074 A 
ATOM     52  C   UNL A   1      44.633  31.858  29.416  1.00  0.00     0.031 C 
ATOM     53  C   UNL A   1      44.423  38.738  28.800  1.00  0.00     0.029 A 
ATOM     54  C   UNL A   1      45.636  38.103  28.289  1.00  0.00     0.049 A 
ATOM     55  H   UNL A   1      46.030  36.061  28.160  1.00  0.00     0.167 HD
ATOM     56  C   UNL A   1      46.803  31.699  28.248  1.00  0.00     0.031 A 
ATOM     57  C   UNL A   1      46.718  38.736  27.793  1.00  0.00     0.031 A 
ATOM     58  C   UNL A   1      47.953  32.286  27.618  1.00  0.00     0.049 A 
ATOM     59  C   UNL A   1      47.894  37.913  27.327  1.00  0.00     0.074 A 
ATOM     60  C   UNL A   1      49.056  31.652  27.080  1.00  0.00     0.029 A 
ATOM     61  N   UNL A   1      48.153  33.651  27.462  1.00  0.00    -0.354 N 
ATOM     62  N   UNL A   1      48.045  36.609  27.336  1.00  0.00    -0.248 NA
ATOM     63  C   UNL A   1      49.042  38.646  26.777  1.00  0.00     0.031 C 
ATOM     64  C   UNL A   1      49.958  32.636  26.667  1.00  0.00     0.029 A 
ATOM     65  C   UNL A   1      49.377  33.881  26.862  1.00  0.00     0.049 A 
ATOM     66  H   UNL A   1      47.517  34.351  27.737  1.00  0.00     0.167 HD
ATOM     67  C   UNL A   1      49.286  36.363  26.754  1.00  0.00     0.074 A 
ATOM     68  C   UNL A   1      49.841  37.655  26.403  1.00  0.00     0.031 C 
ATOM     69  C   UNL A   1      49.906  35.179  26.519  1.00  0.00     0.031 A 
BRANCH  56  70
ATOM     70  C   UNL A   1      46.748  30.207  28.441  1.00  0.00    -0.014 A 
ATOM     71  C   UNL A   1      47.306  29.592  29.579  1.00  0.00     0.010 A 
ATOM     72  C   UNL A   1      46.131  29.403  27.466  1.00  0.00     0.010 A 
ATOM     73  C   UNL A   1      47.291  28.202  29.712  1.00  0.00     0.020 A 
ATOM     74  C   UNL A   1      46.080  28.015  27.614  1.00  0.00     0.020 A 
ATOM     75  C   UNL A   1      46.677  27.422  28.728  1.00  0.00     0.054 A 
BRANCH  75  76
ATOM     76  S   UNL A   1      46.656  25.622  28.937  1.00  0.00     0.124 S 
ATOM     77  O   UNL A   1      46.285  25.166  27.599  1.00  0.00    -0.237 OA
ATOM     78  O   UNL A   1      48.029  25.332  29.340  1.00  0.00    -0.237 OA
ATOM     79  O   UNL A   1      45.646  25.404  29.970  1.00  0.00    -0.744 OA
ENDBRANCH  75  76
ENDBRANCH  56  70
BRANCH  57  80
ATOM     80  C   UNL A   1      46.740  40.224  27.721  1.00  0.00    -0.014 A 
ATOM     81  C   UNL A   1      46.203  40.896  26.609  1.00  0.00     0.010 A 
ATOM     82  C   UNL A   1      47.282  40.981  28.776  1.00  0.00     0.010 A 
ATOM     83  C   UNL A   1      46.214  42.294  26.549  1.00  0.00     0.020 A 
ATOM     84  C   UNL A   1      47.267  42.379  28.735  1.00  0.00     0.020 A 
ATOM     85  C   UNL A   1      46.739  43.026  27.618  1.00  0.00     0.054 A 
BRANCH  85  86
ATOM     86  S   UNL A   1      46.677  44.839  27.547  1.00  0.00     0.124 S 
ATOM     87  O   UNL A   1      45.587  45.144  28.469  1.00  0.00    -0.237 OA
ATOM     88  O   UNL A   1      48.013  45.216  28.000  1.00  0.00    -0.237 OA
ATOM     89  O   UNL A   1      46.401  45.119  26.139  1.00  0.00    -0.744 OA
ENDBRANCH  85  86
ENDBRANCH  57  80
BRANCH  69  90
ATOM     90  C   UNL A   1      51.228  35.207  25.795  1.00  0.00    -0.014 A 
ATOM     91  C   UNL A   1      52.452  35.221  26.485  1.00  0.00     0.010 A 
ATOM     92  C   UNL A   1      51.234  35.129  24.388  1.00  0.00     0.010 A 
ATOM     93  C   UNL A   1      53.658  35.181  25.779  1.00  0.00     0.020 A 
ATOM     94  C   UNL A   1      52.437  35.051  23.682  1.00  0.00     0.020 A 
ATOM     95  C   UNL A   1      53.642  35.090  24.383  1.00  0.00     0.054 A 
BRANCH  95  96
ATOM     96  S   UNL A   1      55.221  34.978  23.498  1.00  0.00     0.124 S 
ATOM     97  O   UNL A   1      55.096  36.051  22.515  1.00  0.00    -0.237 OA
ATOM     98  O   UNL A   1      56.198  35.208  24.559  1.00  0.00    -0.237 OA
ATOM     99  O   UNL A   1      55.215  33.625  22.945  1.00  0.00    -0.744 OA
ENDBRANCH  95  96
ENDBRANCH  69  90
ENDBRANCH  43  44
ENDBRANCH  36  38
ENDBRANCH  35  36
ENDBRANCH  34  35
ENDBRANCH  33  34
ENDBRANCH  32  33
ENDBRANCH   1  32
TORSDOF 23
ENDMDL
MODEL 3
REMARK VINA RESULT:      -7.5      5.570     12.301
REMARK SMILES O=C(OCCOCCOCCOC(=O)c1ccc(-c2c3nc(c(-c4ccc(S(=O)(=O)[O-])cc4)c4ccc([nH]4)c(-c4ccc(S(=O)(=O)[O-])cc4)c4nc(c(-c5ccc(S(=O)(=O)[O-])cc5)c5ccc2[nH]5)C=C4)C=C3)cc1)C1=Cc2cc(Cl)cc(C#Cc3ccccc3)c2O[C@@H]1C(F)(F)F
REMARK SMILES IDX 8 1 7 2 6 3 5 4 4 5 3 6 2 7 1 8 75 9 76 10 93 11 77 12 92 13
REMARK SMILES IDX 78 14 91 15 79 16 82 17 80 18 81 19 94 20 95 21 96 22 97 23
REMARK SMILES IDX 83 24 84 25 85 26 86 27 90 28 87 29 89 30 88 31 9 32 10 33
REMARK SMILES IDX 11 34 12 35 13 36 14 37 15 38 16 39 74 40 17 41 73 42 18 43
REMARK SMILES IDX 19 44 20 45 67 46 21 47 72 48 66 49 68 50 22 51 71 52 65 53
REMARK SMILES IDX 64 54 23 56 53 57 34 58 52 59 35 60 38 61 51 62 69 63 36 64
REMARK SMILES IDX 37 65 50 67 70 68 39 69 24 70 25 71 33 72 26 73 32 74 27 75
REMARK SMILES IDX 28 76 29 77 30 78 31 79 54 80 55 81 63 82 56 83 62 84 57 85
REMARK SMILES IDX 58 86 59 87 60 88 61 89 40 90 41 91 49 92 42 93 48 94 43 95
REMARK SMILES IDX 44 96 45 97 46 98 47 99
REMARK H PARENT 68 55 38 66
REMARK Flexibility Score: inf
ROOT
ATOM      1  C   UNL A   1      36.959  30.263  28.642  1.00  0.00     0.188 C 
ENDROOT
BRANCH   1   2
ATOM      2  C   UNL A   1      38.288  30.984  28.896  1.00  0.00     0.188 C 
BRANCH   2   3
ATOM      3  O   UNL A   1      39.568  30.288  29.131  1.00  0.00    -0.376 OA
BRANCH   3   4
ATOM      4  C   UNL A   1      40.936  30.803  29.975  1.00  0.00     0.202 C 
BRANCH   4   5
ATOM      5  C   UNL A   1      42.719  29.630  30.386  1.00  0.00     0.261 C 
BRANCH   5   6
ATOM      6  O   UNL A   1      43.037  28.241  29.824  1.00  0.00    -0.460 OA
BRANCH   6   7
ATOM      7  C   UNL A   1      41.932  27.520  29.583  1.00  0.00     0.338 C 
ATOM      8  O   UNL A   1      41.032  27.246  30.335  1.00  0.00    -0.246 OA
BRANCH   7   9
ATOM      9  C   UNL A   1      42.443  26.847  28.407  1.00  0.00     0.087 C 
ATOM     10  C   UNL A   1      42.686  25.411  28.571  1.00  0.00     0.027 C 
ATOM     11  C   UNL A   1      41.132  27.614  27.224  1.00  0.00     0.316 C 
ATOM     12  C   UNL A   1      41.605  24.128  27.903  1.00  0.00     0.020 A 
ATOM     13  O   UNL A   1      39.868  26.261  26.612  1.00  0.00    -0.474 OA
ATOM     14  C   UNL A   1      41.891  22.825  28.202  1.00  0.00     0.032 A 
ATOM     15  C   UNL A   1      40.170  24.497  26.985  1.00  0.00     0.143 A 
ATOM     16  C   UNL A   1      40.982  21.891  27.686  1.00  0.00     0.043 A 
ATOM     17  C   UNL A   1      39.338  23.502  26.520  1.00  0.00     0.069 A 
ATOM     18  Cl  UNL A   1      41.303  20.219  28.024  1.00  0.00    -0.084 Cl
ATOM     19  C   UNL A   1      39.800  22.205  26.898  1.00  0.00     0.041 A 
BRANCH  11  20
ATOM     20  C   UNL A   1      42.248  28.560  26.420  1.00  0.00     0.430 C 
ATOM     21  F   UNL A   1      43.508  28.164  26.250  1.00  0.00    -0.167 F 
ATOM     22  F   UNL A   1      41.771  28.796  25.169  1.00  0.00    -0.167 F 
ATOM     23  F   UNL A   1      42.360  29.797  26.992  1.00  0.00    -0.167 F 
ENDBRANCH  11  20
BRANCH  17  24
ATOM     24  C   UNL A   1      38.174  23.574  25.699  1.00  0.00    -0.058 C 
ATOM     25  C   UNL A   1      37.079  23.707  25.201  1.00  0.00    -0.062 C 
BRANCH  25  26
ATOM     26  C   UNL A   1      35.726  23.850  24.732  1.00  0.00     0.025 A 
ATOM     27  C   UNL A   1      35.265  23.093  23.653  1.00  0.00     0.017 A 
ATOM     28  C   UNL A   1      34.853  24.771  25.326  1.00  0.00     0.017 A 
ATOM     29  C   UNL A   1      33.950  23.243  23.193  1.00  0.00     0.001 A 
ATOM     30  C   UNL A   1      33.545  24.930  24.863  1.00  0.00     0.001 A 
ATOM     31  C   UNL A   1      33.091  24.161  23.797  1.00  0.00     0.000 A 
ENDBRANCH  25  26
ENDBRANCH  17  24
ENDBRANCH   7   9
ENDBRANCH   6   7
ENDBRANCH   5   6
ENDBRANCH   4   5
ENDBRANCH   3   4
ENDBRANCH   2   3
ENDBRANCH   1   2
BRANCH   1  32
ATOM     32  O   UNL A   1      35.769  30.757  29.195  1.00  0.00    -0.376 OA
BRANCH  32  33
ATOM     33  C   UNL A   1      35.319  32.028  28.757  1.00  0.00     0.202 C 
BRANCH  33  34
ATOM     34  C   UNL A   1      34.522  32.859  29.753  1.00  0.00     0.261 C 
BRANCH  34  35
ATOM     35  O   UNL A   1      34.371  32.202  31.015  1.00  0.00    -0.460 OA
BRANCH  35  36
ATOM     36  C   UNL A   1      34.423  32.978  32.122  1.00  0.00     0.338 C 
ATOM     37  O   UNL A   1      33.507  33.299  32.856  1.00  0.00    -0.246 OA
BRANCH  36  38
ATOM     38  C   UNL A   1      35.840  33.280  32.378  1.00  0.00     0.060 A 
ATOM     39  C   UNL A   1      36.742  32.234  32.627  1.00  0.00     0.016 A 
ATOM     40  C   UNL A   1      36.260  34.609  32.373  1.00  0.00     0.016 A 
ATOM     41  C   UNL A   1      38.084  32.522  32.862  1.00  0.00     0.010 A 
ATOM     42  C   UNL A   1      37.588  34.901  32.657  1.00  0.00     0.010 A 
ATOM     43  C   UNL A   1      38.491  33.860  32.934  1.00  0.00    -0.014 A 
BRANCH  43  44
ATOM     44  C   UNL A   1      39.749  34.209  33.622  1.00  0.00     0.031 A 
ATOM     45  C   UNL A   1      40.976  34.314  32.763  1.00  0.00     0.074 A 
ATOM     46  C   UNL A   1      39.811  34.349  34.954  1.00  0.00     0.049 A 
ATOM     47  N   UNL A   1      42.223  34.469  33.112  1.00  0.00    -0.248 NA
ATOM     48  C   UNL A   1      40.764  34.207  31.306  1.00  0.00     0.031 C 
ATOM     49  C   UNL A   1      38.672  34.299  35.869  1.00  0.00     0.029 A 
ATOM     50  N   UNL A   1      40.896  34.539  35.769  1.00  0.00    -0.354 N 
ATOM     51  C   UNL A   1      42.943  34.463  31.923  1.00  0.00     0.074 A 
ATOM     52  C   UNL A   1      42.002  34.258  30.848  1.00  0.00     0.031 C 
ATOM     53  C   UNL A   1      39.125  34.436  37.129  1.00  0.00     0.029 A 
ATOM     54  C   UNL A   1      40.583  34.538  37.108  1.00  0.00     0.049 A 
ATOM     55  H   UNL A   1      41.812  34.663  35.430  1.00  0.00     0.167 HD
ATOM     56  C   UNL A   1      44.275  34.612  31.746  1.00  0.00     0.031 A 
ATOM     57  C   UNL A   1      41.394  34.585  38.184  1.00  0.00     0.031 A 
ATOM     58  C   UNL A   1      45.202  34.764  32.833  1.00  0.00     0.049 A 
ATOM     59  C   UNL A   1      42.885  34.671  37.969  1.00  0.00     0.074 A 
ATOM     60  C   UNL A   1      46.572  34.929  32.778  1.00  0.00     0.029 A 
ATOM     61  N   UNL A   1      44.849  34.747  34.176  1.00  0.00    -0.354 N 
ATOM     62  N   UNL A   1      43.558  34.700  36.841  1.00  0.00    -0.248 NA
ATOM     63  C   UNL A   1      43.727  34.739  39.171  1.00  0.00     0.031 C 
ATOM     64  C   UNL A   1      47.058  34.936  34.088  1.00  0.00     0.029 A 
ATOM     65  C   UNL A   1      45.980  34.869  34.960  1.00  0.00     0.049 A 
ATOM     66  H   UNL A   1      43.930  34.661  34.518  1.00  0.00     0.167 HD
ATOM     67  C   UNL A   1      44.897  34.832  37.197  1.00  0.00     0.074 A 
ATOM     68  C   UNL A   1      44.937  34.880  38.646  1.00  0.00     0.031 C 
ATOM     69  C   UNL A   1      45.994  34.919  36.402  1.00  0.00     0.031 A 
BRANCH  56  70
ATOM     70  C   UNL A   1      44.795  34.552  30.335  1.00  0.00    -0.014 A 
ATOM     71  C   UNL A   1      44.919  35.714  29.548  1.00  0.00     0.010 A 
ATOM     72  C   UNL A   1      45.161  33.312  29.781  1.00  0.00     0.010 A 
ATOM     73  C   UNL A   1      45.353  35.629  28.223  1.00  0.00     0.020 A 
ATOM     74  C   UNL A   1      45.632  33.228  28.470  1.00  0.00     0.020 A 
ATOM     75  C   UNL A   1      45.706  34.385  27.692  1.00  0.00     0.054 A 
BRANCH  75  76
ATOM     76  S   UNL A   1      46.283  34.309  25.976  1.00  0.00     0.124 S 
ATOM     77  O   UNL A   1      47.377  33.344  26.068  1.00  0.00    -0.237 OA
ATOM     78  O   UNL A   1      45.098  33.847  25.261  1.00  0.00    -0.237 OA
ATOM     79  O   UNL A   1      46.690  35.681  25.684  1.00  0.00    -0.744 OA
ENDBRANCH  75  76
ENDBRANCH  56  70
BRANCH  57  80
ATOM     80  C   UNL A   1      40.812  34.543  39.554  1.00  0.00    -0.014 A 
ATOM     81  C   UNL A   1      40.446  35.730  40.215  1.00  0.00     0.010 A 
ATOM     82  C   UNL A   1      40.602  33.312  40.202  1.00  0.00     0.010 A 
ATOM     83  C   UNL A   1      39.889  35.687  41.497  1.00  0.00     0.020 A 
ATOM     84  C   UNL A   1      40.016  33.262  41.471  1.00  0.00     0.020 A 
ATOM     85  C   UNL A   1      39.670  34.451  42.114  1.00  0.00     0.054 A 
BRANCH  85  86
ATOM     86  S   UNL A   1      38.881  34.419  43.748  1.00  0.00     0.124 S 
ATOM     87  O   UNL A   1      38.200  33.128  43.734  1.00  0.00    -0.237 OA
ATOM     88  O   UNL A   1      40.025  34.522  44.650  1.00  0.00    -0.237 OA
ATOM     89  O   UNL A   1      38.003  35.588  43.729  1.00  0.00    -0.744 OA
ENDBRANCH  85  86
ENDBRANCH  57  80
BRANCH  69  90
ATOM     90  C   UNL A   1      47.329  35.137  37.066  1.00  0.00    -0.014 A 
ATOM     91  C   UNL A   1      47.769  36.417  37.446  1.00  0.00     0.010 A 
ATOM     92  C   UNL A   1      48.118  34.017  37.393  1.00  0.00     0.010 A 
ATOM     93  C   UNL A   1      48.985  36.573  38.119  1.00  0.00     0.020 A 
ATOM     94  C   UNL A   1      49.314  34.165  38.097  1.00  0.00     0.020 A 
ATOM     95  C   UNL A   1      49.746  35.445  38.445  1.00  0.00     0.054 A 
BRANCH  95  96
ATOM     96  S   UNL A   1      51.288  35.672  39.371  1.00  0.00     0.124 S 
ATOM     97  O   UNL A   1      52.227  36.038  38.315  1.00  0.00    -0.237 OA
ATOM     98  O   UNL A   1      50.945  36.740  40.306  1.00  0.00    -0.237 OA
ATOM     99  O   UNL A   1      51.522  34.366  39.985  1.00  0.00    -0.744 OA
ENDBRANCH  95  96
ENDBRANCH  69  90
ENDBRANCH  43  44
ENDBRANCH  36  38
ENDBRANCH  35  36
ENDBRANCH  34  35
ENDBRANCH  33  34
ENDBRANCH  32  33
ENDBRANCH   1  32
TORSDOF 23
ENDMDL
