MODEL 1
REMARK VINA RESULT:     -10.5      0.000      0.000
REMARK SMILES Cc1cc(OC(F)(F)F)cc2c1O[C@H](C(F)(F)F)C(C(=O)OCCOCCOCCOC(=O)c1ccc(-c3c4nc(c(-c5ccc(S(=O)(=O)[O-])cc5)c5ccc([nH]5)c(-c5ccc(S(=O)(=O)[O-])cc5)c5nc(c(-c6ccc(S(=O)(=O)[O-])cc6)c6ccc3[nH]6)C=C5)C=C4)cc1)=C2
REMARK SMILES IDX 27 1 26 2 25 3 24 4 23 5 22 6 20 7 21 8 19 9 1 10 2 11 3 12
REMARK SMILES IDX 12 13 4 14 11 15 13 16 10 17 94 18 14 19 5 20 6 21 7 22 8 23
REMARK SMILES IDX 9 24 15 25 16 26 17 27 18 28 28 29 29 30 30 31 31 32 32 33
REMARK SMILES IDX 33 34 34 35 35 36 93 37 36 38 92 39 37 40 38 41 39 42 86 43
REMARK SMILES IDX 40 44 91 45 85 46 87 47 41 48 90 49 84 50 83 51 42 53 72 54
REMARK SMILES IDX 53 55 71 56 54 57 57 58 70 59 88 60 55 61 56 62 69 64 89 65
REMARK SMILES IDX 58 66 43 67 44 68 52 69 45 70 51 71 46 72 47 73 48 74 49 75
REMARK SMILES IDX 50 76 73 77 74 78 82 79 75 80 81 81 76 82 77 83 78 84 79 85
REMARK SMILES IDX 80 86 59 87 60 88 68 89 61 90 67 91 62 92 63 93 64 94 65 95
REMARK SMILES IDX 66 96
REMARK H PARENT 87 52 57 63
REMARK Flexibility Score: inf
ROOT
ATOM      1  C   UNL A   1      43.890  20.120  25.454  1.00  0.00     0.188 C 
ENDROOT
BRANCH   1   2
ATOM      2  C   UNL A   1      42.551  19.383  25.669  1.00  0.00     0.188 C 
BRANCH   2   3
ATOM      3  O   UNL A   1      41.811  19.735  26.813  1.00  0.00    -0.376 OA
BRANCH   3   4
ATOM      4  C   UNL A   1      40.434  20.055  26.727  1.00  0.00     0.202 C 
BRANCH   4   5
ATOM      5  C   UNL A   1      39.814  21.173  25.868  1.00  0.00     0.261 C 
BRANCH   5   6
ATOM      6  O   UNL A   1      38.524  20.938  25.300  1.00  0.00    -0.460 OA
BRANCH   6   7
ATOM      7  C   UNL A   1      37.561  21.825  25.651  1.00  0.00     0.338 C 
ATOM      8  O   UNL A   1      37.723  22.903  26.195  1.00  0.00    -0.246 OA
BRANCH   7   9
ATOM      9  C   UNL A   1      36.255  21.343  25.158  1.00  0.00     0.087 C 
ATOM     10  C   UNL A   1      31.747  20.867  22.785  1.00  0.00     0.048 C 
ATOM     11  C   UNL A   1      32.710  19.933  23.464  1.00  0.00    -0.005 A 
ATOM     12  C   UNL A   1      32.505  18.545  23.366  1.00  0.00     0.054 A 
ATOM     13  C   UNL A   1      33.861  20.415  24.106  1.00  0.00     0.131 A 
ATOM     14  C   UNL A   1      33.413  17.649  23.928  1.00  0.00     0.130 A 
ATOM     15  C   UNL A   1      34.793  19.522  24.640  1.00  0.00     0.021 A 
ATOM     16  O   UNL A   1      34.010  21.772  24.161  1.00  0.00    -0.475 OA
ATOM     17  C   UNL A   1      34.548  18.145  24.578  1.00  0.00     0.058 A 
ATOM     18  C   UNL A   1      36.045  20.021  25.186  1.00  0.00     0.027 C 
ATOM     19  C   UNL A   1      35.241  22.342  24.673  1.00  0.00     0.316 C 
BRANCH  14  20
ATOM     20  O   UNL A   1      33.325  16.285  23.903  1.00  0.00    -0.406 OA
BRANCH  20  21
ATOM     21  C   UNL A   1      33.091  15.616  25.132  1.00  0.00     0.573 C 
ATOM     22  F   UNL A   1      32.546  16.450  26.044  1.00  0.00    -0.132 F 
ATOM     23  F   UNL A   1      32.275  14.552  24.958  1.00  0.00    -0.132 F 
ATOM     24  F   UNL A   1      34.266  15.166  25.619  1.00  0.00    -0.132 F 
ENDBRANCH  20  21
ENDBRANCH  14  20
BRANCH  19  25
ATOM     25  C   UNL A   1      35.808  23.279  23.599  1.00  0.00     0.430 C 
ATOM     26  F   UNL A   1      36.723  22.644  22.826  1.00  0.00    -0.167 F 
ATOM     27  F   UNL A   1      34.847  23.731  22.761  1.00  0.00    -0.167 F 
ATOM     28  F   UNL A   1      36.417  24.360  24.137  1.00  0.00    -0.167 F 
ENDBRANCH  19  25
ENDBRANCH   7   9
ENDBRANCH   6   7
ENDBRANCH   5   6
ENDBRANCH   4   5
ENDBRANCH   3   4
ENDBRANCH   2   3
ENDBRANCH   1   2
BRANCH   1  29
ATOM     29  O   UNL A   1      43.965  21.210  24.556  1.00  0.00    -0.376 OA
BRANCH  29  30
ATOM     30  C   UNL A   1      44.114  22.525  25.070  1.00  0.00     0.202 C 
BRANCH  30  31
ATOM     31  C   UNL A   1      42.932  23.484  25.315  1.00  0.00     0.261 C 
BRANCH  31  32
ATOM     32  O   UNL A   1      43.035  24.381  26.427  1.00  0.00    -0.460 OA
BRANCH  32  33
ATOM     33  C   UNL A   1      43.188  25.690  26.110  1.00  0.00     0.338 C 
ATOM     34  O   UNL A   1      43.595  26.154  25.054  1.00  0.00    -0.246 OA
BRANCH  33  35
ATOM     35  C   UNL A   1      42.623  26.513  27.191  1.00  0.00     0.060 A 
ATOM     36  C   UNL A   1      43.161  27.784  27.445  1.00  0.00     0.016 A 
ATOM     37  C   UNL A   1      41.593  26.006  27.982  1.00  0.00     0.016 A 
ATOM     38  C   UNL A   1      42.667  28.557  28.495  1.00  0.00     0.010 A 
ATOM     39  C   UNL A   1      41.129  26.762  29.059  1.00  0.00     0.010 A 
ATOM     40  C   UNL A   1      41.680  28.027  29.333  1.00  0.00    -0.014 A 
BRANCH  40  41
ATOM     41  C   UNL A   1      41.348  28.689  30.612  1.00  0.00     0.031 A 
ATOM     42  C   UNL A   1      40.198  29.656  30.632  1.00  0.00     0.074 A 
ATOM     43  C   UNL A   1      42.081  28.475  31.719  1.00  0.00     0.049 A 
ATOM     44  N   UNL A   1      39.832  30.479  31.577  1.00  0.00    -0.248 NA
ATOM     45  C   UNL A   1      39.353  29.704  29.425  1.00  0.00     0.031 C 
ATOM     46  C   UNL A   1      43.175  27.512  31.839  1.00  0.00     0.029 A 
ATOM     47  N   UNL A   1      42.026  29.080  32.949  1.00  0.00    -0.354 N 
ATOM     48  C   UNL A   1      38.725  31.154  31.077  1.00  0.00     0.074 A 
ATOM     49  C   UNL A   1      38.478  30.648  29.745  1.00  0.00     0.031 C 
ATOM     50  C   UNL A   1      43.709  27.613  33.069  1.00  0.00     0.029 A 
ATOM     51  C   UNL A   1      43.023  28.677  33.804  1.00  0.00     0.049 A 
ATOM     52  H   UNL A   1      41.339  29.740  33.195  1.00  0.00     0.167 HD
ATOM     53  C   UNL A   1      37.988  32.116  31.674  1.00  0.00     0.031 A 
ATOM     54  C   UNL A   1      43.367  29.137  35.024  1.00  0.00     0.031 A 
ATOM     55  C   UNL A   1      38.251  32.631  32.989  1.00  0.00     0.049 A 
ATOM     56  C   UNL A   1      42.580  30.267  35.636  1.00  0.00     0.074 A 
ATOM     57  C   UNL A   1      37.559  33.612  33.677  1.00  0.00     0.029 A 
ATOM     58  N   UNL A   1      39.282  32.210  33.812  1.00  0.00    -0.354 N 
ATOM     59  N   UNL A   1      41.558  30.921  35.139  1.00  0.00    -0.248 NA
ATOM     60  C   UNL A   1      42.993  30.721  36.972  1.00  0.00     0.031 C 
ATOM     61  C   UNL A   1      38.205  33.822  34.898  1.00  0.00     0.029 A 
ATOM     62  C   UNL A   1      39.254  32.922  34.998  1.00  0.00     0.049 A 
ATOM     63  H   UNL A   1      39.937  31.510  33.587  1.00  0.00     0.167 HD
ATOM     64  C   UNL A   1      41.178  31.835  36.119  1.00  0.00     0.074 A 
ATOM     65  C   UNL A   1      42.087  31.655  37.232  1.00  0.00     0.031 C 
ATOM     66  C   UNL A   1      40.159  32.728  36.101  1.00  0.00     0.031 A 
BRANCH  53  67
ATOM     67  C   UNL A   1      36.840  32.708  30.907  1.00  0.00    -0.014 A 
ATOM     68  C   UNL A   1      35.514  32.348  31.199  1.00  0.00     0.010 A 
ATOM     69  C   UNL A   1      37.089  33.717  29.959  1.00  0.00     0.010 A 
ATOM     70  C   UNL A   1      34.454  32.996  30.560  1.00  0.00     0.020 A 
ATOM     71  C   UNL A   1      36.031  34.380  29.333  1.00  0.00     0.020 A 
ATOM     72  C   UNL A   1      34.720  34.018  29.642  1.00  0.00     0.054 A 
BRANCH  72  73
ATOM     73  S   UNL A   1      33.319  34.885  28.884  1.00  0.00     0.124 S 
ATOM     74  O   UNL A   1      32.877  33.927  27.873  1.00  0.00    -0.237 OA
ATOM     75  O   UNL A   1      32.414  35.067  30.016  1.00  0.00    -0.237 OA
ATOM     76  O   UNL A   1      33.912  36.110  28.356  1.00  0.00    -0.744 OA
ENDBRANCH  72  73
ENDBRANCH  53  67
BRANCH  54  77
ATOM     77  C   UNL A   1      44.525  28.537  35.737  1.00  0.00    -0.014 A 
ATOM     78  C   UNL A   1      45.795  29.131  35.663  1.00  0.00     0.010 A 
ATOM     79  C   UNL A   1      44.354  27.381  36.522  1.00  0.00     0.010 A 
ATOM     80  C   UNL A   1      46.874  28.585  36.364  1.00  0.00     0.020 A 
ATOM     81  C   UNL A   1      45.425  26.845  37.243  1.00  0.00     0.020 A 
ATOM     82  C   UNL A   1      46.679  27.452  37.160  1.00  0.00     0.054 A 
BRANCH  82  83
ATOM     83  S   UNL A   1      48.085  26.799  38.102  1.00  0.00     0.124 S 
ATOM     84  O   UNL A   1      49.064  26.532  37.052  1.00  0.00    -0.237 OA
ATOM     85  O   UNL A   1      48.400  27.914  38.992  1.00  0.00    -0.237 OA
ATOM     86  O   UNL A   1      47.540  25.616  38.761  1.00  0.00    -0.744 OA
ENDBRANCH  82  83
ENDBRANCH  54  77
BRANCH  66  87
ATOM     87  C   UNL A   1      39.911  33.546  37.339  1.00  0.00    -0.014 A 
ATOM     88  C   UNL A   1      40.544  34.783  37.547  1.00  0.00     0.010 A 
ATOM     89  C   UNL A   1      38.942  33.106  38.263  1.00  0.00     0.010 A 
ATOM     90  C   UNL A   1      40.226  35.555  38.668  1.00  0.00     0.020 A 
ATOM     91  C   UNL A   1      38.605  33.887  39.369  1.00  0.00     0.020 A 
ATOM     92  C   UNL A   1      39.255  35.105  39.568  1.00  0.00     0.054 A 
BRANCH  92  93
ATOM     93  S   UNL A   1      38.845  36.143  40.998  1.00  0.00     0.124 S 
ATOM     94  O   UNL A   1      40.081  36.098  41.775  1.00  0.00    -0.237 OA
ATOM     95  O   UNL A   1      38.541  37.429  40.375  1.00  0.00    -0.237 OA
ATOM     96  O   UNL A   1      37.704  35.464  41.608  1.00  0.00    -0.744 OA
ENDBRANCH  92  93
ENDBRANCH  66  87
ENDBRANCH  40  41
ENDBRANCH  33  35
ENDBRANCH  32  33
ENDBRANCH  31  32
ENDBRANCH  30  31
ENDBRANCH  29  30
ENDBRANCH   1  29
TORSDOF 23
ENDMDL
MODEL 2
REMARK VINA RESULT:      -9.2     10.483     17.204
REMARK SMILES Cc1cc(OC(F)(F)F)cc2c1O[C@H](C(F)(F)F)C(C(=O)OCCOCCOCCOC(=O)c1ccc(-c3c4nc(c(-c5ccc(S(=O)(=O)[O-])cc5)c5ccc([nH]5)c(-c5ccc(S(=O)(=O)[O-])cc5)c5nc(c(-c6ccc(S(=O)(=O)[O-])cc6)c6ccc3[nH]6)C=C5)C=C4)cc1)=C2
REMARK SMILES IDX 27 1 26 2 25 3 24 4 23 5 22 6 20 7 21 8 19 9 1 10 2 11 3 12
REMARK SMILES IDX 12 13 4 14 11 15 13 16 10 17 94 18 14 19 5 20 6 21 7 22 8 23
REMARK SMILES IDX 9 24 15 25 16 26 17 27 18 28 28 29 29 30 30 31 31 32 32 33
REMARK SMILES IDX 33 34 34 35 35 36 93 37 36 38 92 39 37 40 38 41 39 42 86 43
REMARK SMILES IDX 40 44 91 45 85 46 87 47 41 48 90 49 84 50 83 51 42 53 72 54
REMARK SMILES IDX 53 55 71 56 54 57 57 58 70 59 88 60 55 61 56 62 69 64 89 65
REMARK SMILES IDX 58 66 43 67 44 68 52 69 45 70 51 71 46 72 47 73 48 74 49 75
REMARK SMILES IDX 50 76 73 77 74 78 82 79 75 80 81 81 76 82 77 83 78 84 79 85
REMARK SMILES IDX 80 86 59 87 60 88 68 89 61 90 67 91 62 92 63 93 64 94 65 95
REMARK SMILES IDX 66 96
REMARK H PARENT 87 52 57 63
REMARK Flexibility Score: inf
ROOT
ATOM      1  C   UNL A   1      47.124  42.124  26.548  1.00  0.00     0.188 C 
ENDROOT
BRANCH   1   2
ATOM      2  C   UNL A   1      46.505  43.403  27.147  1.00  0.00     0.188 C 
BRANCH   2   3
ATOM      3  O   UNL A   1      45.204  43.736  26.724  1.00  0.00    -0.376 OA
BRANCH   3   4
ATOM      4  C   UNL A   1      44.946  44.137  25.391  1.00  0.00     0.202 C 
BRANCH   4   5
ATOM      5  C   UNL A   1      45.991  44.281  24.268  1.00  0.00     0.261 C 
BRANCH   5   6
ATOM      6  O   UNL A   1      45.513  44.432  22.930  1.00  0.00    -0.460 OA
BRANCH   6   7
ATOM      7  C   UNL A   1      45.224  43.277  22.280  1.00  0.00     0.338 C 
ATOM      8  O   UNL A   1      45.597  42.157  22.580  1.00  0.00    -0.246 OA
BRANCH   7   9
ATOM      9  C   UNL A   1      44.266  43.559  21.192  1.00  0.00     0.087 C 
ATOM     10  C   UNL A   1      40.053  44.038  18.329  1.00  0.00     0.048 C 
ATOM     11  C   UNL A   1      41.442  44.613  18.305  1.00  0.00    -0.005 A 
ATOM     12  C   UNL A   1      41.736  45.659  17.412  1.00  0.00     0.054 A 
ATOM     13  C   UNL A   1      42.417  44.199  19.225  1.00  0.00     0.131 A 
ATOM     14  C   UNL A   1      42.995  46.260  17.407  1.00  0.00     0.130 A 
ATOM     15  C   UNL A   1      43.668  44.821  19.250  1.00  0.00     0.021 A 
ATOM     16  O   UNL A   1      42.069  43.187  20.073  1.00  0.00    -0.475 OA
ATOM     17  C   UNL A   1      43.961  45.825  18.320  1.00  0.00     0.058 A 
ATOM     18  C   UNL A   1      44.627  44.479  20.288  1.00  0.00     0.027 C 
ATOM     19  C   UNL A   1      42.967  42.805  21.147  1.00  0.00     0.316 C 
BRANCH  14  20
ATOM     20  O   UNL A   1      43.403  47.277  16.590  1.00  0.00    -0.406 OA
BRANCH  20  21
ATOM     21  C   UNL A   1      42.663  48.486  16.622  1.00  0.00     0.573 C 
ATOM     22  F   UNL A   1      43.367  49.501  16.074  1.00  0.00    -0.132 F 
ATOM     23  F   UNL A   1      41.489  48.355  15.964  1.00  0.00    -0.132 F 
ATOM     24  F   UNL A   1      42.391  48.804  17.904  1.00  0.00    -0.132 F 
ENDBRANCH  20  21
ENDBRANCH  14  20
BRANCH  19  25
ATOM     25  C   UNL A   1      42.189  42.898  22.466  1.00  0.00     0.430 C 
ATOM     26  F   UNL A   1      42.631  41.982  23.363  1.00  0.00    -0.167 F 
ATOM     27  F   UNL A   1      42.331  44.109  23.054  1.00  0.00    -0.167 F 
ATOM     28  F   UNL A   1      40.865  42.685  22.292  1.00  0.00    -0.167 F 
ENDBRANCH  19  25
ENDBRANCH   7   9
ENDBRANCH   6   7
ENDBRANCH   5   6
ENDBRANCH   4   5
ENDBRANCH   3   4
ENDBRANCH   2   3
ENDBRANCH   1   2
BRANCH   1  29
ATOM     29  O   UNL A   1      46.562  40.859  26.836  1.00  0.00    -0.376 OA
BRANCH  29  30
ATOM     30  C   UNL A   1      45.445  40.407  26.085  1.00  0.00     0.202 C 
BRANCH  30  31
ATOM     31  C   UNL A   1      44.137  39.898  26.724  1.00  0.00     0.261 C 
BRANCH  31  32
ATOM     32  O   UNL A   1      43.902  38.485  26.697  1.00  0.00    -0.460 OA
BRANCH  32  33
ATOM     33  C   UNL A   1      42.643  38.095  27.009  1.00  0.00     0.338 C 
ATOM     34  O   UNL A   1      41.595  38.565  26.586  1.00  0.00    -0.246 OA
BRANCH  33  35
ATOM     35  C   UNL A   1      42.709  36.877  27.833  1.00  0.00     0.060 A 
ATOM     36  C   UNL A   1      43.884  36.589  28.546  1.00  0.00     0.016 A 
ATOM     37  C   UNL A   1      41.626  36.000  27.862  1.00  0.00     0.016 A 
ATOM     38  C   UNL A   1      43.979  35.417  29.294  1.00  0.00     0.010 A 
ATOM     39  C   UNL A   1      41.740  34.806  28.576  1.00  0.00     0.010 A 
ATOM     40  C   UNL A   1      42.922  34.500  29.274  1.00  0.00    -0.014 A 
BRANCH  40  41
ATOM     41  C   UNL A   1      43.104  33.134  29.808  1.00  0.00     0.031 A 
ATOM     42  C   UNL A   1      42.660  32.859  31.216  1.00  0.00     0.074 A 
ATOM     43  C   UNL A   1      43.694  32.173  29.076  1.00  0.00     0.049 A 
ATOM     44  N   UNL A   1      42.872  31.803  31.955  1.00  0.00    -0.248 NA
ATOM     45  C   UNL A   1      41.878  33.917  31.882  1.00  0.00     0.031 C 
ATOM     46  C   UNL A   1      44.105  32.301  27.679  1.00  0.00     0.029 A 
ATOM     47  N   UNL A   1      44.073  30.901  29.426  1.00  0.00    -0.354 N 
ATOM     48  C   UNL A   1      42.264  32.072  33.175  1.00  0.00     0.074 A 
ATOM     49  C   UNL A   1      41.677  33.390  33.082  1.00  0.00     0.031 C 
ATOM     50  C   UNL A   1      44.708  31.161  27.297  1.00  0.00     0.029 A 
ATOM     51  C   UNL A   1      44.763  30.243  28.436  1.00  0.00     0.049 A 
ATOM     52  H   UNL A   1      43.872  30.499  30.300  1.00  0.00     0.167 HD
ATOM     53  C   UNL A   1      42.213  31.292  34.277  1.00  0.00     0.031 A 
ATOM     54  C   UNL A   1      45.399  29.054  28.457  1.00  0.00     0.031 A 
ATOM     55  C   UNL A   1      42.817  29.992  34.371  1.00  0.00     0.049 A 
ATOM     56  C   UNL A   1      45.396  28.237  29.722  1.00  0.00     0.074 A 
ATOM     57  C   UNL A   1      42.820  29.127  35.450  1.00  0.00     0.029 A 
ATOM     58  N   UNL A   1      43.523  29.372  33.354  1.00  0.00    -0.354 N 
ATOM     59  N   UNL A   1      44.849  28.517  30.881  1.00  0.00    -0.248 NA
ATOM     60  C   UNL A   1      46.095  26.944  29.684  1.00  0.00     0.031 C 
ATOM     61  C   UNL A   1      43.575  28.003  35.103  1.00  0.00     0.029 A 
ATOM     62  C   UNL A   1      43.979  28.139  33.785  1.00  0.00     0.049 A 
ATOM     63  H   UNL A   1      43.678  29.751  32.458  1.00  0.00     0.167 HD
ATOM     64  C   UNL A   1      45.101  27.417  31.696  1.00  0.00     0.074 A 
ATOM     65  C   UNL A   1      45.858  26.472  30.902  1.00  0.00     0.031 C 
ATOM     66  C   UNL A   1      44.725  27.205  32.981  1.00  0.00     0.031 A 
BRANCH  53  67
ATOM     67  C   UNL A   1      41.504  31.824  35.489  1.00  0.00    -0.014 A 
ATOM     68  C   UNL A   1      40.124  31.630  35.664  1.00  0.00     0.010 A 
ATOM     69  C   UNL A   1      42.252  32.429  36.516  1.00  0.00     0.010 A 
ATOM     70  C   UNL A   1      39.504  32.024  36.852  1.00  0.00     0.020 A 
ATOM     71  C   UNL A   1      41.639  32.807  37.712  1.00  0.00     0.020 A 
ATOM     72  C   UNL A   1      40.269  32.597  37.874  1.00  0.00     0.054 A 
BRANCH  72  73
ATOM     73  S   UNL A   1      39.445  33.033  39.429  1.00  0.00     0.124 S 
ATOM     74  O   UNL A   1      38.170  32.331  39.309  1.00  0.00    -0.237 OA
ATOM     75  O   UNL A   1      40.364  32.501  40.431  1.00  0.00    -0.237 OA
ATOM     76  O   UNL A   1      39.354  34.490  39.378  1.00  0.00    -0.744 OA
ENDBRANCH  72  73
ENDBRANCH  53  67
BRANCH  54  77
ATOM     77  C   UNL A   1      46.106  28.577  27.239  1.00  0.00    -0.014 A 
ATOM     78  C   UNL A   1      45.412  27.875  26.240  1.00  0.00     0.010 A 
ATOM     79  C   UNL A   1      47.475  28.851  27.059  1.00  0.00     0.010 A 
ATOM     80  C   UNL A   1      46.072  27.459  25.080  1.00  0.00     0.020 A 
ATOM     81  C   UNL A   1      48.133  28.458  25.891  1.00  0.00     0.020 A 
ATOM     82  C   UNL A   1      47.425  27.765  24.906  1.00  0.00     0.054 A 
BRANCH  82  83
ATOM     83  S   UNL A   1      48.240  27.262  23.366  1.00  0.00     0.124 S 
ATOM     84  O   UNL A   1      47.419  27.918  22.352  1.00  0.00    -0.237 OA
ATOM     85  O   UNL A   1      49.585  27.804  23.539  1.00  0.00    -0.237 OA
ATOM     86  O   UNL A   1      48.152  25.804  23.389  1.00  0.00    -0.744 OA
ENDBRANCH  82  83
ENDBRANCH  54  77
BRANCH  66  87
ATOM     87  C   UNL A   1      45.057  25.879  33.608  1.00  0.00    -0.014 A 
ATOM     88  C   UNL A   1      44.308  24.722  33.331  1.00  0.00     0.010 A 
ATOM     89  C   UNL A   1      46.208  25.775  34.413  1.00  0.00     0.010 A 
ATOM     90  C   UNL A   1      44.696  23.490  33.865  1.00  0.00     0.020 A 
ATOM     91  C   UNL A   1      46.612  24.542  34.927  1.00  0.00     0.020 A 
ATOM     92  C   UNL A   1      45.848  23.407  34.654  1.00  0.00     0.054 A 
BRANCH  92  93
ATOM     93  S   UNL A   1      46.339  21.789  35.309  1.00  0.00     0.124 S 
ATOM     94  O   UNL A   1      45.349  21.568  36.360  1.00  0.00    -0.237 OA
ATOM     95  O   UNL A   1      46.216  20.925  34.138  1.00  0.00    -0.237 OA
ATOM     96  O   UNL A   1      47.706  22.002  35.782  1.00  0.00    -0.744 OA
ENDBRANCH  92  93
ENDBRANCH  66  87
ENDBRANCH  40  41
ENDBRANCH  33  35
ENDBRANCH  32  33
ENDBRANCH  31  32
ENDBRANCH  30  31
ENDBRANCH  29  30
ENDBRANCH   1  29
TORSDOF 23
ENDMDL
MODEL 3
REMARK VINA RESULT:      -9.2      3.282      5.199
REMARK SMILES Cc1cc(OC(F)(F)F)cc2c1O[C@H](C(F)(F)F)C(C(=O)OCCOCCOCCOC(=O)c1ccc(-c3c4nc(c(-c5ccc(S(=O)(=O)[O-])cc5)c5ccc([nH]5)c(-c5ccc(S(=O)(=O)[O-])cc5)c5nc(c(-c6ccc(S(=O)(=O)[O-])cc6)c6ccc3[nH]6)C=C5)C=C4)cc1)=C2
REMARK SMILES IDX 27 1 26 2 25 3 24 4 23 5 22 6 20 7 21 8 19 9 1 10 2 11 3 12
REMARK SMILES IDX 12 13 4 14 11 15 13 16 10 17 94 18 14 19 5 20 6 21 7 22 8 23
REMARK SMILES IDX 9 24 15 25 16 26 17 27 18 28 28 29 29 30 30 31 31 32 32 33
REMARK SMILES IDX 33 34 34 35 35 36 93 37 36 38 92 39 37 40 38 41 39 42 86 43
REMARK SMILES IDX 40 44 91 45 85 46 87 47 41 48 90 49 84 50 83 51 42 53 72 54
REMARK SMILES IDX 53 55 71 56 54 57 57 58 70 59 88 60 55 61 56 62 69 64 89 65
REMARK SMILES IDX 58 66 43 67 44 68 52 69 45 70 51 71 46 72 47 73 48 74 49 75
REMARK SMILES IDX 50 76 73 77 74 78 82 79 75 80 81 81 76 82 77 83 78 84 79 85
REMARK SMILES IDX 80 86 59 87 60 88 68 89 61 90 67 91 62 92 63 93 64 94 65 95
REMARK SMILES IDX 66 96
REMARK H PARENT 87 52 57 63
REMARK Flexibility Score: inf
ROOT
ATOM      1  C   UNL A   1      38.537  22.251  25.988  1.00  0.00     0.188 C 
ENDROOT
BRANCH   1   2
ATOM      2  C   UNL A   1      37.973  21.226  24.983  1.00  0.00     0.188 C 
BRANCH   2   3
ATOM      3  O   UNL A   1      36.802  21.593  24.293  1.00  0.00    -0.376 OA
BRANCH   3   4
ATOM      4  C   UNL A   1      36.592  22.925  23.861  1.00  0.00     0.202 C 
BRANCH   4   5
ATOM      5  C   UNL A   1      35.543  23.905  24.421  1.00  0.00     0.261 C 
BRANCH   5   6
ATOM      6  O   UNL A   1      34.587  24.448  23.508  1.00  0.00    -0.460 OA
BRANCH   6   7
ATOM      7  C   UNL A   1      33.558  23.626  23.184  1.00  0.00     0.338 C 
ATOM      8  O   UNL A   1      33.618  22.428  22.974  1.00  0.00    -0.246 OA
BRANCH   7   9
ATOM      9  C   UNL A   1      32.294  24.387  23.239  1.00  0.00     0.087 C 
ATOM     10  C   UNL A   1      27.715  26.260  24.545  1.00  0.00     0.048 C 
ATOM     11  C   UNL A   1      28.846  26.703  23.659  1.00  0.00    -0.005 A 
ATOM     12  C   UNL A   1      28.824  27.999  23.113  1.00  0.00     0.054 A 
ATOM     13  C   UNL A   1      29.970  25.888  23.452  1.00  0.00     0.131 A 
ATOM     14  C   UNL A   1      29.887  28.466  22.341  1.00  0.00     0.130 A 
ATOM     15  C   UNL A   1      31.054  26.363  22.709  1.00  0.00     0.021 A 
ATOM     16  O   UNL A   1      29.938  24.645  24.016  1.00  0.00    -0.475 OA
ATOM     17  C   UNL A   1      30.993  27.636  22.130  1.00  0.00     0.058 A 
ATOM     18  C   UNL A   1      32.267  25.568  22.608  1.00  0.00     0.027 C 
ATOM     19  C   UNL A   1      31.119  23.803  23.972  1.00  0.00     0.316 C 
BRANCH  14  20
ATOM     20  O   UNL A   1      29.982  29.697  21.755  1.00  0.00    -0.406 OA
BRANCH  20  21
ATOM     21  C   UNL A   1      28.839  30.536  21.792  1.00  0.00     0.573 C 
ATOM     22  F   UNL A   1      28.268  30.525  23.016  1.00  0.00    -0.132 F 
ATOM     23  F   UNL A   1      29.159  31.808  21.462  1.00  0.00    -0.132 F 
ATOM     24  F   UNL A   1      27.934  30.088  20.899  1.00  0.00    -0.132 F 
ENDBRANCH  20  21
ENDBRANCH  14  20
BRANCH  19  25
ATOM     25  C   UNL A   1      31.466  23.405  25.412  1.00  0.00     0.430 C 
ATOM     26  F   UNL A   1      30.423  23.626  26.249  1.00  0.00    -0.167 F 
ATOM     27  F   UNL A   1      31.767  22.089  25.516  1.00  0.00    -0.167 F 
ATOM     28  F   UNL A   1      32.522  24.101  25.892  1.00  0.00    -0.167 F 
ENDBRANCH  19  25
ENDBRANCH   7   9
ENDBRANCH   6   7
ENDBRANCH   5   6
ENDBRANCH   4   5
ENDBRANCH   3   4
ENDBRANCH   2   3
ENDBRANCH   1   2
BRANCH   1  29
ATOM     29  O   UNL A   1      39.931  22.339  26.206  1.00  0.00    -0.376 OA
BRANCH  29  30
ATOM     30  C   UNL A   1      40.413  22.996  27.368  1.00  0.00     0.202 C 
BRANCH  30  31
ATOM     31  C   UNL A   1      41.835  23.581  27.489  1.00  0.00     0.261 C 
BRANCH  31  32
ATOM     32  O   UNL A   1      42.214  24.584  26.538  1.00  0.00    -0.460 OA
BRANCH  32  33
ATOM     33  C   UNL A   1      41.389  25.656  26.459  1.00  0.00     0.338 C 
ATOM     34  O   UNL A   1      40.705  25.996  25.504  1.00  0.00    -0.246 OA
BRANCH  33  35
ATOM     35  C   UNL A   1      41.298  26.288  27.785  1.00  0.00     0.060 A 
ATOM     36  C   UNL A   1      40.095  26.215  28.505  1.00  0.00     0.016 A 
ATOM     37  C   UNL A   1      42.389  26.993  28.293  1.00  0.00     0.016 A 
ATOM     38  C   UNL A   1      39.980  26.847  29.742  1.00  0.00     0.010 A 
ATOM     39  C   UNL A   1      42.257  27.662  29.510  1.00  0.00     0.010 A 
ATOM     40  C   UNL A   1      41.047  27.611  30.226  1.00  0.00    -0.014 A 
BRANCH  40  41
ATOM     41  C   UNL A   1      40.857  28.522  31.374  1.00  0.00     0.031 A 
ATOM     42  C   UNL A   1      39.813  29.596  31.261  1.00  0.00     0.074 A 
ATOM     43  C   UNL A   1      41.628  28.430  32.472  1.00  0.00     0.049 A 
ATOM     44  N   UNL A   1      39.585  30.610  32.052  1.00  0.00    -0.248 NA
ATOM     45  C   UNL A   1      38.909  29.520  30.099  1.00  0.00     0.031 C 
ATOM     46  C   UNL A   1      42.626  27.391  32.724  1.00  0.00     0.029 A 
ATOM     47  N   UNL A   1      41.704  29.248  33.572  1.00  0.00    -0.354 N 
ATOM     48  C   UNL A   1      38.524  31.300  31.480  1.00  0.00     0.074 A 
ATOM     49  C   UNL A   1      38.152  30.595  30.273  1.00  0.00     0.031 C 
ATOM     50  C   UNL A   1      43.237  27.652  33.894  1.00  0.00     0.029 A 
ATOM     51  C   UNL A   1      42.703  28.897  34.447  1.00  0.00     0.049 A 
ATOM     52  H   UNL A   1      41.101  30.011  33.719  1.00  0.00     0.167 HD
ATOM     53  C   UNL A   1      37.923  32.428  31.918  1.00  0.00     0.031 A 
ATOM     54  C   UNL A   1      43.161  29.527  35.548  1.00  0.00     0.031 A 
ATOM     55  C   UNL A   1      38.311  33.137  33.105  1.00  0.00     0.049 A 
ATOM     56  C   UNL A   1      42.528  30.827  35.972  1.00  0.00     0.074 A 
ATOM     57  C   UNL A   1      37.762  34.294  33.628  1.00  0.00     0.029 A 
ATOM     58  N   UNL A   1      39.340  32.761  33.951  1.00  0.00    -0.354 N 
ATOM     59  N   UNL A   1      41.549  31.489  35.404  1.00  0.00    -0.248 NA
ATOM     60  C   UNL A   1      43.060  31.464  37.186  1.00  0.00     0.031 C 
ATOM     61  C   UNL A   1      38.494  34.648  34.764  1.00  0.00     0.029 A 
ATOM     62  C   UNL A   1      39.452  33.671  34.987  1.00  0.00     0.049 A 
ATOM     63  H   UNL A   1      39.908  31.965  33.834  1.00  0.00     0.167 HD
ATOM     64  C   UNL A   1      41.319  32.598  36.213  1.00  0.00     0.074 A 
ATOM     65  C   UNL A   1      42.268  32.523  37.305  1.00  0.00     0.031 C 
ATOM     66  C   UNL A   1      40.395  33.580  36.071  1.00  0.00     0.031 A 
BRANCH  53  67
ATOM     67  C   UNL A   1      36.797  32.994  31.100  1.00  0.00    -0.014 A 
ATOM     68  C   UNL A   1      35.459  32.808  31.484  1.00  0.00     0.010 A 
ATOM     69  C   UNL A   1      37.091  33.816  29.996  1.00  0.00     0.010 A 
ATOM     70  C   UNL A   1      34.432  33.441  30.782  1.00  0.00     0.020 A 
ATOM     71  C   UNL A   1      36.067  34.466  29.304  1.00  0.00     0.020 A 
ATOM     72  C   UNL A   1      34.744  34.279  29.705  1.00  0.00     0.054 A 
BRANCH  72  73
ATOM     73  S   UNL A   1      33.391  35.140  28.860  1.00  0.00     0.124 S 
ATOM     74  O   UNL A   1      34.105  36.167  28.105  1.00  0.00    -0.237 OA
ATOM     75  O   UNL A   1      32.793  34.075  28.060  1.00  0.00    -0.237 OA
ATOM     76  O   UNL A   1      32.561  35.642  29.952  1.00  0.00    -0.744 OA
ENDBRANCH  72  73
ENDBRANCH  53  67
BRANCH  54  77
ATOM     77  C   UNL A   1      44.292  28.942  36.314  1.00  0.00    -0.014 A 
ATOM     78  C   UNL A   1      44.061  27.954  37.286  1.00  0.00     0.010 A 
ATOM     79  C   UNL A   1      45.614  29.347  36.051  1.00  0.00     0.010 A 
ATOM     80  C   UNL A   1      45.130  27.379  37.979  1.00  0.00     0.020 A 
ATOM     81  C   UNL A   1      46.688  28.758  36.725  1.00  0.00     0.020 A 
ATOM     82  C   UNL A   1      46.438  27.776  37.685  1.00  0.00     0.054 A 
BRANCH  82  83
ATOM     83  S   UNL A   1      47.808  26.971  38.561  1.00  0.00     0.124 S 
ATOM     84  O   UNL A   1      47.110  26.019  39.419  1.00  0.00    -0.237 OA
ATOM     85  O   UNL A   1      48.573  26.389  37.461  1.00  0.00    -0.237 OA
ATOM     86  O   UNL A   1      48.466  28.072  39.258  1.00  0.00    -0.744 OA
ENDBRANCH  82  83
ENDBRANCH  54  77
BRANCH  66  87
ATOM     87  C   UNL A   1      40.301  34.627  37.147  1.00  0.00    -0.014 A 
ATOM     88  C   UNL A   1      39.385  34.517  38.207  1.00  0.00     0.010 A 
ATOM     89  C   UNL A   1      41.225  35.690  37.145  1.00  0.00     0.010 A 
ATOM     90  C   UNL A   1      39.382  35.466  39.234  1.00  0.00     0.020 A 
ATOM     91  C   UNL A   1      41.242  36.624  38.182  1.00  0.00     0.020 A 
ATOM     92  C   UNL A   1      40.315  36.509  39.218  1.00  0.00     0.054 A 
BRANCH  92  93
ATOM     93  S   UNL A   1      40.304  37.707  40.580  1.00  0.00     0.124 S 
ATOM     94  O   UNL A   1      41.318  37.162  41.478  1.00  0.00    -0.237 OA
ATOM     95  O   UNL A   1      40.665  38.951  39.906  1.00  0.00    -0.237 OA
ATOM     96  O   UNL A   1      38.934  37.649  41.086  1.00  0.00    -0.744 OA
ENDBRANCH  92  93
ENDBRANCH  66  87
ENDBRANCH  40  41
ENDBRANCH  33  35
ENDBRANCH  32  33
ENDBRANCH  31  32
ENDBRANCH  30  31
ENDBRANCH  29  30
ENDBRANCH   1  29
TORSDOF 23
ENDMDL
