MODEL 1
REMARK VINA RESULT:      -8.9      0.000      0.000
REMARK SMILES C[C@@H](C(=O)OCCOCCOCCOC(=O)c1ccc(-c2c3nc(c(-c4ccc(S(=O)(=O)[O-])cc4)c4ccc([nH]4)c(-c4ccc(S(=O)(=O)[O-])cc4)c4nc(c(-c5ccc(S(=O)(=O)[O-])cc5)c5ccc2[nH]5)C=C4)C=C3)cc1)c1ccc(-c2cccc(OC(=O)NCCCc3ccccc3)c2)c(F)c1
REMARK SMILES IDX 7 1 6 2 5 3 3 4 4 5 2 6 1 7 77 8 78 9 102 10 79 11 100 12
REMARK SMILES IDX 80 13 101 14 81 15 82 16 99 17 83 18 85 19 84 20 86 21 87 22
REMARK SMILES IDX 88 23 89 24 90 26 91 27 92 28 93 29 94 30 98 31 95 32 97 33
REMARK SMILES IDX 96 34 8 35 9 36 10 37 11 38 12 39 13 40 14 41 15 42 16 43
REMARK SMILES IDX 17 44 18 45 76 46 19 47 75 48 20 49 21 50 22 51 69 52 23 53
REMARK SMILES IDX 74 54 68 55 70 56 24 57 73 58 67 59 66 60 25 62 55 63 36 64
REMARK SMILES IDX 54 65 37 66 40 67 53 68 71 69 38 70 39 71 52 73 72 74 41 75
REMARK SMILES IDX 26 76 27 77 35 78 28 79 34 80 29 81 30 82 31 83 32 84 33 85
REMARK SMILES IDX 56 86 57 87 65 88 58 89 64 90 59 91 60 92 61 93 62 94 63 95
REMARK SMILES IDX 42 96 43 97 51 98 44 99 50 100 45 101 46 102 47 103 48 104
REMARK SMILES IDX 49 105
REMARK H PARENT 89 25 70 61 40 72
REMARK Flexibility Score: inf
ROOT
ATOM      1  C   UNL A   1      32.786  23.038  24.294  1.00  0.00     0.202 C 
ENDROOT
BRANCH   1   2
ATOM      2  C   UNL A   1      33.031  24.495  23.852  1.00  0.00     0.261 C 
BRANCH   2   3
ATOM      3  O   UNL A   1      32.402  25.482  24.695  1.00  0.00    -0.463 OA
BRANCH   3   4
ATOM      4  C   UNL A   1      33.145  26.571  25.024  1.00  0.00     0.313 C 
ATOM      5  O   UNL A   1      33.983  27.071  24.279  1.00  0.00    -0.252 OA
BRANCH   4   6
ATOM      6  C   UNL A   1      32.792  27.174  26.394  1.00  0.00     0.126 C 
ATOM      7  C   UNL A   1      31.293  27.096  26.738  1.00  0.00     0.025 C 
BRANCH   6   8
ATOM      8  C   UNL A   1      33.447  28.531  26.698  1.00  0.00    -0.031 A 
ATOM      9  C   UNL A   1      34.785  28.639  27.115  1.00  0.00     0.005 A 
ATOM     10  C   UNL A   1      32.680  29.708  26.707  1.00  0.00     0.044 A 
ATOM     11  C   UNL A   1      35.321  29.859  27.557  1.00  0.00     0.012 A 
ATOM     12  C   UNL A   1      33.214  30.917  27.161  1.00  0.00     0.131 A 
ATOM     13  C   UNL A   1      34.527  31.009  27.630  1.00  0.00     0.018 A 
ATOM     14  F   UNL A   1      32.413  31.993  27.185  1.00  0.00    -0.206 F 
BRANCH  13  15
ATOM     15  C   UNL A   1      35.016  32.216  28.299  1.00  0.00    -0.012 A 
ATOM     16  C   UNL A   1      34.155  33.105  28.948  1.00  0.00     0.009 A 
ATOM     17  C   UNL A   1      36.385  32.515  28.277  1.00  0.00     0.056 A 
ATOM     18  C   UNL A   1      34.634  34.275  29.543  1.00  0.00     0.004 A 
ATOM     19  C   UNL A   1      36.853  33.679  28.873  1.00  0.00     0.133 A 
ATOM     20  C   UNL A   1      35.985  34.574  29.490  1.00  0.00     0.047 A 
BRANCH  19  21
ATOM     21  O   UNL A   1      38.208  34.041  28.957  1.00  0.00    -0.410 OA
BRANCH  21  22
ATOM     22  C   UNL A   1      39.249  33.300  29.486  1.00  0.00     0.412 C 
ATOM     23  O   UNL A   1      39.198  32.160  29.936  1.00  0.00    -0.224 OA
ATOM     24  N   UNL A   1      40.419  34.002  29.467  1.00  0.00    -0.321 N 
ATOM     25  H   UNL A   1      41.221  33.570  29.843  1.00  0.00     0.167 HD
BRANCH  24  26
ATOM     26  C   UNL A   1      40.559  35.337  28.930  1.00  0.00     0.120 C 
BRANCH  26  27
ATOM     27  C   UNL A   1      41.701  35.494  27.931  1.00  0.00     0.026 C 
BRANCH  27  28
ATOM     28  C   UNL A   1      43.093  35.827  28.479  1.00  0.00     0.037 C 
BRANCH  28  29
ATOM     29  C   UNL A   1      43.964  36.850  27.789  1.00  0.00    -0.048 A 
ATOM     30  C   UNL A   1      45.316  36.672  27.481  1.00  0.00     0.004 A 
ATOM     31  C   UNL A   1      43.378  38.090  27.477  1.00  0.00     0.004 A 
ATOM     32  C   UNL A   1      46.067  37.702  26.909  1.00  0.00     0.000 A 
ATOM     33  C   UNL A   1      44.121  39.114  26.887  1.00  0.00     0.000 A 
ATOM     34  C   UNL A   1      45.471  38.923  26.611  1.00  0.00     0.000 A 
ENDBRANCH  28  29
ENDBRANCH  27  28
ENDBRANCH  26  27
ENDBRANCH  24  26
ENDBRANCH  21  22
ENDBRANCH  19  21
ENDBRANCH  13  15
ENDBRANCH   6   8
ENDBRANCH   4   6
ENDBRANCH   3   4
ENDBRANCH   2   3
ENDBRANCH   1   2
BRANCH   1  35
ATOM     35  O   UNL A   1      33.626  21.998  23.794  1.00  0.00    -0.376 OA
BRANCH  35  36
ATOM     36  C   UNL A   1      34.931  21.863  24.344  1.00  0.00     0.188 C 
BRANCH  36  37
ATOM     37  C   UNL A   1      35.065  21.594  25.850  1.00  0.00     0.188 C 
BRANCH  37  38
ATOM     38  O   UNL A   1      36.011  22.392  26.518  1.00  0.00    -0.376 OA
BRANCH  38  39
ATOM     39  C   UNL A   1      36.958  23.140  25.775  1.00  0.00     0.202 C 
BRANCH  39  40
ATOM     40  C   UNL A   1      37.559  24.479  26.246  1.00  0.00     0.261 C 
BRANCH  40  41
ATOM     41  O   UNL A   1      38.687  24.449  27.127  1.00  0.00    -0.460 OA
BRANCH  41  42
ATOM     42  C   UNL A   1      39.632  25.405  26.954  1.00  0.00     0.338 C 
ATOM     43  O   UNL A   1      40.321  25.583  25.967  1.00  0.00    -0.246 OA
BRANCH  42  44
ATOM     44  C   UNL A   1      39.510  26.343  28.096  1.00  0.00     0.060 A 
ATOM     45  C   UNL A   1      39.955  27.665  27.955  1.00  0.00     0.016 A 
ATOM     46  C   UNL A   1      38.928  25.917  29.291  1.00  0.00     0.016 A 
ATOM     47  C   UNL A   1      39.833  28.561  29.020  1.00  0.00     0.010 A 
ATOM     48  C   UNL A   1      38.832  26.807  30.363  1.00  0.00     0.010 A 
ATOM     49  C   UNL A   1      39.306  28.124  30.243  1.00  0.00    -0.014 A 
BRANCH  49  50
ATOM     50  C   UNL A   1      39.424  28.967  31.458  1.00  0.00     0.031 A 
ATOM     51  C   UNL A   1      40.688  28.863  32.269  1.00  0.00     0.074 A 
ATOM     52  C   UNL A   1      38.430  29.788  31.844  1.00  0.00     0.049 A 
ATOM     53  N   UNL A   1      41.033  29.508  33.352  1.00  0.00    -0.248 NA
ATOM     54  C   UNL A   1      41.681  27.877  31.810  1.00  0.00     0.031 C 
ATOM     55  C   UNL A   1      37.173  29.983  31.122  1.00  0.00     0.029 A 
ATOM     56  N   UNL A   1      38.349  30.660  32.904  1.00  0.00    -0.354 N 
ATOM     57  C   UNL A   1      42.249  28.956  33.743  1.00  0.00     0.074 A 
ATOM     58  C   UNL A   1      42.590  27.943  32.770  1.00  0.00     0.031 C 
ATOM     59  C   UNL A   1      36.495  30.993  31.699  1.00  0.00     0.029 A 
ATOM     60  C   UNL A   1      37.241  31.479  32.859  1.00  0.00     0.049 A 
ATOM     61  H   UNL A   1      39.018  30.697  33.624  1.00  0.00     0.167 HD
ATOM     62  C   UNL A   1      42.993  29.244  34.837  1.00  0.00     0.031 A 
ATOM     63  C   UNL A   1      36.914  32.540  33.629  1.00  0.00     0.031 A 
ATOM     64  C   UNL A   1      42.646  30.254  35.801  1.00  0.00     0.049 A 
ATOM     65  C   UNL A   1      37.811  32.906  34.790  1.00  0.00     0.074 A 
ATOM     66  C   UNL A   1      43.328  30.618  36.948  1.00  0.00     0.029 A 
ATOM     67  N   UNL A   1      41.522  31.062  35.729  1.00  0.00    -0.354 N 
ATOM     68  N   UNL A   1      38.975  32.400  35.131  1.00  0.00    -0.248 NA
ATOM     69  C   UNL A   1      37.344  33.982  35.677  1.00  0.00     0.031 C 
ATOM     70  C   UNL A   1      42.581  31.600  37.605  1.00  0.00     0.029 A 
ATOM     71  C   UNL A   1      41.474  31.903  36.827  1.00  0.00     0.049 A 
ATOM     72  H   UNL A   1      40.856  31.041  35.004  1.00  0.00     0.167 HD
ATOM     73  C   UNL A   1      39.368  33.088  36.277  1.00  0.00     0.074 A 
ATOM     74  C   UNL A   1      38.354  34.091  36.530  1.00  0.00     0.031 C 
ATOM     75  C   UNL A   1      40.454  32.892  37.068  1.00  0.00     0.031 A 
BRANCH  62  76
ATOM     76  C   UNL A   1      44.210  28.395  35.098  1.00  0.00    -0.014 A 
ATOM     77  C   UNL A   1      45.498  28.795  34.701  1.00  0.00     0.010 A 
ATOM     78  C   UNL A   1      44.055  27.177  35.789  1.00  0.00     0.010 A 
ATOM     79  C   UNL A   1      46.603  27.977  34.961  1.00  0.00     0.020 A 
ATOM     80  C   UNL A   1      45.160  26.374  36.080  1.00  0.00     0.020 A 
ATOM     81  C   UNL A   1      46.426  26.772  35.650  1.00  0.00     0.054 A 
BRANCH  81  82
ATOM     82  S   UNL A   1      47.881  25.748  36.001  1.00  0.00     0.124 S 
ATOM     83  O   UNL A   1      48.479  25.609  34.676  1.00  0.00    -0.237 OA
ATOM     84  O   UNL A   1      48.629  26.572  36.947  1.00  0.00    -0.237 OA
ATOM     85  O   UNL A   1      47.316  24.521  36.559  1.00  0.00    -0.744 OA
ENDBRANCH  81  82
ENDBRANCH  62  76
BRANCH  63  86
ATOM     86  C   UNL A   1      35.734  33.395  33.292  1.00  0.00    -0.014 A 
ATOM     87  C   UNL A   1      35.900  34.781  33.092  1.00  0.00     0.010 A 
ATOM     88  C   UNL A   1      34.443  32.850  33.180  1.00  0.00     0.010 A 
ATOM     89  C   UNL A   1      34.802  35.603  32.816  1.00  0.00     0.020 A 
ATOM     90  C   UNL A   1      33.348  33.663  32.862  1.00  0.00     0.020 A 
ATOM     91  C   UNL A   1      33.531  35.037  32.701  1.00  0.00     0.054 A 
BRANCH  91  92
ATOM     92  S   UNL A   1      32.123  36.114  32.312  1.00  0.00     0.124 S 
ATOM     93  O   UNL A   1      32.338  37.233  33.224  1.00  0.00    -0.237 OA
ATOM     94  O   UNL A   1      32.328  36.405  30.896  1.00  0.00    -0.237 OA
ATOM     95  O   UNL A   1      30.962  35.277  32.608  1.00  0.00    -0.744 OA
ENDBRANCH  91  92
ENDBRANCH  63  86
BRANCH  75  96
ATOM     96  C   UNL A   1      40.600  33.762  38.293  1.00  0.00    -0.014 A 
ATOM     97  C   UNL A   1      41.081  35.080  38.192  1.00  0.00     0.010 A 
ATOM     98  C   UNL A   1      40.178  33.287  39.549  1.00  0.00     0.010 A 
ATOM     99  C   UNL A   1      41.172  35.893  39.325  1.00  0.00     0.020 A 
ATOM    100  C   UNL A   1      40.235  34.107  40.680  1.00  0.00     0.020 A 
ATOM    101  C   UNL A   1      40.747  35.401  40.563  1.00  0.00     0.054 A 
BRANCH 101 102
ATOM    102  S   UNL A   1      40.833  36.494  42.010  1.00  0.00     0.124 S 
ATOM    103  O   UNL A   1      41.589  37.629  41.487  1.00  0.00    -0.237 OA
ATOM    104  O   UNL A   1      39.425  36.755  42.298  1.00  0.00    -0.237 OA
ATOM    105  O   UNL A   1      41.531  35.690  43.010  1.00  0.00    -0.744 OA
ENDBRANCH 101 102
ENDBRANCH  75  96
ENDBRANCH  49  50
ENDBRANCH  42  44
ENDBRANCH  41  42
ENDBRANCH  40  41
ENDBRANCH  39  40
ENDBRANCH  38  39
ENDBRANCH  37  38
ENDBRANCH  36  37
ENDBRANCH  35  36
ENDBRANCH   1  35
TORSDOF 28
ENDMDL
MODEL 2
REMARK VINA RESULT:      -8.7      6.444     10.838
REMARK SMILES C[C@@H](C(=O)OCCOCCOCCOC(=O)c1ccc(-c2c3nc(c(-c4ccc(S(=O)(=O)[O-])cc4)c4ccc([nH]4)c(-c4ccc(S(=O)(=O)[O-])cc4)c4nc(c(-c5ccc(S(=O)(=O)[O-])cc5)c5ccc2[nH]5)C=C4)C=C3)cc1)c1ccc(-c2cccc(OC(=O)NCCCc3ccccc3)c2)c(F)c1
REMARK SMILES IDX 7 1 6 2 5 3 3 4 4 5 2 6 1 7 77 8 78 9 102 10 79 11 100 12
REMARK SMILES IDX 80 13 101 14 81 15 82 16 99 17 83 18 85 19 84 20 86 21 87 22
REMARK SMILES IDX 88 23 89 24 90 26 91 27 92 28 93 29 94 30 98 31 95 32 97 33
REMARK SMILES IDX 96 34 8 35 9 36 10 37 11 38 12 39 13 40 14 41 15 42 16 43
REMARK SMILES IDX 17 44 18 45 76 46 19 47 75 48 20 49 21 50 22 51 69 52 23 53
REMARK SMILES IDX 74 54 68 55 70 56 24 57 73 58 67 59 66 60 25 62 55 63 36 64
REMARK SMILES IDX 54 65 37 66 40 67 53 68 71 69 38 70 39 71 52 73 72 74 41 75
REMARK SMILES IDX 26 76 27 77 35 78 28 79 34 80 29 81 30 82 31 83 32 84 33 85
REMARK SMILES IDX 56 86 57 87 65 88 58 89 64 90 59 91 60 92 61 93 62 94 63 95
REMARK SMILES IDX 42 96 43 97 51 98 44 99 50 100 45 101 46 102 47 103 48 104
REMARK SMILES IDX 49 105
REMARK H PARENT 89 25 70 61 40 72
REMARK Flexibility Score: inf
ROOT
ATOM      1  C   UNL A   1      34.071  24.154  23.206  1.00  0.00     0.202 C 
ENDROOT
BRANCH   1   2
ATOM      2  C   UNL A   1      32.919  24.715  22.347  1.00  0.00     0.261 C 
BRANCH   2   3
ATOM      3  O   UNL A   1      31.787  25.182  23.109  1.00  0.00    -0.463 OA
BRANCH   3   4
ATOM      4  C   UNL A   1      31.236  26.363  22.726  1.00  0.00     0.313 C 
ATOM      5  O   UNL A   1      31.113  26.706  21.554  1.00  0.00    -0.252 OA
BRANCH   4   6
ATOM      6  C   UNL A   1      30.706  27.210  23.896  1.00  0.00     0.126 C 
ATOM      7  C   UNL A   1      29.376  27.925  23.591  1.00  0.00     0.025 C 
BRANCH   6   8
ATOM      8  C   UNL A   1      31.757  28.087  24.594  1.00  0.00    -0.031 A 
ATOM      9  C   UNL A   1      33.084  27.659  24.784  1.00  0.00     0.005 A 
ATOM     10  C   UNL A   1      31.388  29.299  25.201  1.00  0.00     0.044 A 
ATOM     11  C   UNL A   1      33.986  28.389  25.573  1.00  0.00     0.012 A 
ATOM     12  C   UNL A   1      32.286  30.015  25.997  1.00  0.00     0.131 A 
ATOM     13  C   UNL A   1      33.585  29.557  26.230  1.00  0.00     0.018 A 
ATOM     14  F   UNL A   1      31.853  31.143  26.582  1.00  0.00    -0.206 F 
BRANCH  13  15
ATOM     15  C   UNL A   1      34.450  30.190  27.228  1.00  0.00    -0.012 A 
ATOM     16  C   UNL A   1      34.088  31.372  27.881  1.00  0.00     0.009 A 
ATOM     17  C   UNL A   1      35.693  29.618  27.532  1.00  0.00     0.056 A 
ATOM     18  C   UNL A   1      34.946  31.986  28.798  1.00  0.00     0.004 A 
ATOM     19  C   UNL A   1      36.538  30.235  28.446  1.00  0.00     0.133 A 
ATOM     20  C   UNL A   1      36.183  31.427  29.068  1.00  0.00     0.047 A 
BRANCH  19  21
ATOM     21  O   UNL A   1      37.775  29.714  28.862  1.00  0.00    -0.410 OA
BRANCH  21  22
ATOM     22  C   UNL A   1      38.025  28.895  29.948  1.00  0.00     0.412 C 
ATOM     23  O   UNL A   1      37.724  29.100  31.119  1.00  0.00    -0.224 OA
ATOM     24  N   UNL A   1      38.688  27.762  29.574  1.00  0.00    -0.321 N 
ATOM     25  H   UNL A   1      38.934  27.120  30.280  1.00  0.00     0.167 HD
BRANCH  24  26
ATOM     26  C   UNL A   1      39.051  27.443  28.211  1.00  0.00     0.120 C 
BRANCH  26  27
ATOM     27  C   UNL A   1      40.555  27.389  27.961  1.00  0.00     0.026 C 
BRANCH  27  28
ATOM     28  C   UNL A   1      41.475  28.100  28.958  1.00  0.00     0.037 C 
BRANCH  28  29
ATOM     29  C   UNL A   1      42.799  28.671  28.507  1.00  0.00    -0.048 A 
ATOM     30  C   UNL A   1      43.376  28.458  27.252  1.00  0.00     0.004 A 
ATOM     31  C   UNL A   1      43.523  29.434  29.440  1.00  0.00     0.004 A 
ATOM     32  C   UNL A   1      44.643  28.962  26.945  1.00  0.00     0.000 A 
ATOM     33  C   UNL A   1      44.779  29.957  29.129  1.00  0.00     0.000 A 
ATOM     34  C   UNL A   1      45.345  29.712  27.883  1.00  0.00     0.000 A 
ENDBRANCH  28  29
ENDBRANCH  27  28
ENDBRANCH  26  27
ENDBRANCH  24  26
ENDBRANCH  21  22
ENDBRANCH  19  21
ENDBRANCH  13  15
ENDBRANCH   6   8
ENDBRANCH   4   6
ENDBRANCH   3   4
ENDBRANCH   2   3
ENDBRANCH   1   2
BRANCH   1  35
ATOM     35  O   UNL A   1      34.751  22.970  22.789  1.00  0.00    -0.376 OA
BRANCH  35  36
ATOM     36  C   UNL A   1      35.984  22.644  23.420  1.00  0.00     0.188 C 
BRANCH  36  37
ATOM     37  C   UNL A   1      36.649  23.701  24.314  1.00  0.00     0.188 C 
BRANCH  37  38
ATOM     38  O   UNL A   1      36.841  23.315  25.653  1.00  0.00    -0.376 OA
BRANCH  38  39
ATOM     39  C   UNL A   1      38.153  23.150  26.162  1.00  0.00     0.202 C 
BRANCH  39  40
ATOM     40  C   UNL A   1      38.993  21.871  25.981  1.00  0.00     0.261 C 
BRANCH  40  41
ATOM     41  O   UNL A   1      40.146  21.689  26.810  1.00  0.00    -0.460 OA
BRANCH  41  42
ATOM     42  C   UNL A   1      41.270  21.223  26.211  1.00  0.00     0.338 C 
ATOM     43  O   UNL A   1      41.363  20.250  25.487  1.00  0.00    -0.246 OA
BRANCH  42  44
ATOM     44  C   UNL A   1      42.321  22.249  26.410  1.00  0.00     0.060 A 
ATOM     45  C   UNL A   1      43.652  21.849  26.597  1.00  0.00     0.016 A 
ATOM     46  C   UNL A   1      41.989  23.605  26.382  1.00  0.00     0.016 A 
ATOM     47  C   UNL A   1      44.653  22.808  26.772  1.00  0.00     0.010 A 
ATOM     48  C   UNL A   1      42.986  24.561  26.584  1.00  0.00     0.010 A 
ATOM     49  C   UNL A   1      44.317  24.168  26.805  1.00  0.00    -0.014 A 
BRANCH  49  50
ATOM     50  C   UNL A   1      45.305  25.176  27.264  1.00  0.00     0.031 A 
ATOM     51  C   UNL A   1      45.233  25.634  28.696  1.00  0.00     0.074 A 
ATOM     52  C   UNL A   1      46.229  25.687  26.429  1.00  0.00     0.049 A 
ATOM     53  N   UNL A   1      45.993  26.484  29.334  1.00  0.00    -0.248 NA
ATOM     54  C   UNL A   1      44.136  25.078  29.506  1.00  0.00     0.031 C 
ATOM     55  C   UNL A   1      46.403  25.298  25.030  1.00  0.00     0.029 A 
ATOM     56  N   UNL A   1      47.237  26.594  26.655  1.00  0.00    -0.354 N 
ATOM     57  C   UNL A   1      45.425  26.619  30.597  1.00  0.00     0.074 A 
ATOM     58  C   UNL A   1      44.273  25.746  30.641  1.00  0.00     0.031 C 
ATOM     59  C   UNL A   1      47.519  25.881  24.555  1.00  0.00     0.029 A 
ATOM     60  C   UNL A   1      48.108  26.724  25.595  1.00  0.00     0.049 A 
ATOM     61  H   UNL A   1      47.327  27.101  27.493  1.00  0.00     0.167 HD
ATOM     62  C   UNL A   1      45.809  27.426  31.613  1.00  0.00     0.031 A 
ATOM     63  C   UNL A   1      49.280  27.392  25.511  1.00  0.00     0.031 A 
ATOM     64  C   UNL A   1      46.957  28.292  31.560  1.00  0.00     0.049 A 
ATOM     65  C   UNL A   1      49.741  28.212  26.695  1.00  0.00     0.074 A 
ATOM     66  C   UNL A   1      47.427  29.156  32.533  1.00  0.00     0.029 A 
ATOM     67  N   UNL A   1      47.815  28.402  30.477  1.00  0.00    -0.354 N 
ATOM     68  N   UNL A   1      49.215  28.306  27.895  1.00  0.00    -0.248 NA
ATOM     69  C   UNL A   1      50.951  29.026  26.508  1.00  0.00     0.031 C 
ATOM     70  C   UNL A   1      48.531  29.838  32.012  1.00  0.00     0.029 A 
ATOM     71  C   UNL A   1      48.795  29.341  30.745  1.00  0.00     0.049 A 
ATOM     72  H   UNL A   1      47.739  27.887  29.642  1.00  0.00     0.167 HD
ATOM     73  C   UNL A   1      50.023  29.197  28.597  1.00  0.00     0.074 A 
ATOM     74  C   UNL A   1      51.110  29.561  27.711  1.00  0.00     0.031 C 
ATOM     75  C   UNL A   1      49.868  29.696  29.850  1.00  0.00     0.031 A 
BRANCH  62  76
ATOM     76  C   UNL A   1      44.929  27.479  32.835  1.00  0.00    -0.014 A 
ATOM     77  C   UNL A   1      45.037  26.537  33.873  1.00  0.00     0.010 A 
ATOM     78  C   UNL A   1      43.992  28.523  32.955  1.00  0.00     0.010 A 
ATOM     79  C   UNL A   1      44.201  26.620  34.992  1.00  0.00     0.020 A 
ATOM     80  C   UNL A   1      43.178  28.628  34.085  1.00  0.00     0.020 A 
ATOM     81  C   UNL A   1      43.277  27.666  35.090  1.00  0.00     0.054 A 
BRANCH  81  82
ATOM     82  S   UNL A   1      42.228  27.766  36.566  1.00  0.00     0.124 S 
ATOM     83  O   UNL A   1      42.057  29.208  36.718  1.00  0.00    -0.237 OA
ATOM     84  O   UNL A   1      41.035  27.030  36.159  1.00  0.00    -0.237 OA
ATOM     85  O   UNL A   1      43.029  27.123  37.606  1.00  0.00    -0.744 OA
ENDBRANCH  81  82
ENDBRANCH  62  76
BRANCH  63  86
ATOM     86  C   UNL A   1      50.153  27.256  24.304  1.00  0.00    -0.014 A 
ATOM     87  C   UNL A   1      51.441  26.696  24.424  1.00  0.00     0.010 A 
ATOM     88  C   UNL A   1      49.724  27.689  23.038  1.00  0.00     0.010 A 
ATOM     89  C   UNL A   1      52.288  26.598  23.315  1.00  0.00     0.020 A 
ATOM     90  C   UNL A   1      50.552  27.555  21.917  1.00  0.00     0.020 A 
ATOM     91  C   UNL A   1      51.836  27.028  22.065  1.00  0.00     0.054 A 
BRANCH  91  92
ATOM     92  S   UNL A   1      52.935  26.864  20.631  1.00  0.00     0.124 S 
ATOM     93  O   UNL A   1      52.329  25.748  19.912  1.00  0.00    -0.237 OA
ATOM     94  O   UNL A   1      52.814  28.170  19.988  1.00  0.00    -0.237 OA
ATOM     95  O   UNL A   1      54.239  26.590  21.231  1.00  0.00    -0.744 OA
ENDBRANCH  91  92
ENDBRANCH  63  86
BRANCH  75  96
ATOM     96  C   UNL A   1      50.882  30.702  30.340  1.00  0.00    -0.014 A 
ATOM     97  C   UNL A   1      50.707  32.078  30.107  1.00  0.00     0.010 A 
ATOM     98  C   UNL A   1      51.980  30.276  31.110  1.00  0.00     0.010 A 
ATOM     99  C   UNL A   1      51.628  33.006  30.603  1.00  0.00     0.020 A 
ATOM    100  C   UNL A   1      52.886  31.202  31.636  1.00  0.00     0.020 A 
ATOM    101  C   UNL A   1      52.712  32.562  31.366  1.00  0.00     0.054 A 
BRANCH 101 102
ATOM    102  S   UNL A   1      53.867  33.791  32.035  1.00  0.00     0.124 S 
ATOM    103  O   UNL A   1      52.978  34.650  32.814  1.00  0.00    -0.237 OA
ATOM    104  O   UNL A   1      54.792  32.971  32.813  1.00  0.00    -0.237 OA
ATOM    105  O   UNL A   1      54.443  34.410  30.843  1.00  0.00    -0.744 OA
ENDBRANCH 101 102
ENDBRANCH  75  96
ENDBRANCH  49  50
ENDBRANCH  42  44
ENDBRANCH  41  42
ENDBRANCH  40  41
ENDBRANCH  39  40
ENDBRANCH  38  39
ENDBRANCH  37  38
ENDBRANCH  36  37
ENDBRANCH  35  36
ENDBRANCH   1  35
TORSDOF 28
ENDMDL
MODEL 3
REMARK VINA RESULT:      -8.3      1.636      2.215
REMARK SMILES C[C@@H](C(=O)OCCOCCOCCOC(=O)c1ccc(-c2c3nc(c(-c4ccc(S(=O)(=O)[O-])cc4)c4ccc([nH]4)c(-c4ccc(S(=O)(=O)[O-])cc4)c4nc(c(-c5ccc(S(=O)(=O)[O-])cc5)c5ccc2[nH]5)C=C4)C=C3)cc1)c1ccc(-c2cccc(OC(=O)NCCCc3ccccc3)c2)c(F)c1
REMARK SMILES IDX 7 1 6 2 5 3 3 4 4 5 2 6 1 7 77 8 78 9 102 10 79 11 100 12
REMARK SMILES IDX 80 13 101 14 81 15 82 16 99 17 83 18 85 19 84 20 86 21 87 22
REMARK SMILES IDX 88 23 89 24 90 26 91 27 92 28 93 29 94 30 98 31 95 32 97 33
REMARK SMILES IDX 96 34 8 35 9 36 10 37 11 38 12 39 13 40 14 41 15 42 16 43
REMARK SMILES IDX 17 44 18 45 76 46 19 47 75 48 20 49 21 50 22 51 69 52 23 53
REMARK SMILES IDX 74 54 68 55 70 56 24 57 73 58 67 59 66 60 25 62 55 63 36 64
REMARK SMILES IDX 54 65 37 66 40 67 53 68 71 69 38 70 39 71 52 73 72 74 41 75
REMARK SMILES IDX 26 76 27 77 35 78 28 79 34 80 29 81 30 82 31 83 32 84 33 85
REMARK SMILES IDX 56 86 57 87 65 88 58 89 64 90 59 91 60 92 61 93 62 94 63 95
REMARK SMILES IDX 42 96 43 97 51 98 44 99 50 100 45 101 46 102 47 103 48 104
REMARK SMILES IDX 49 105
REMARK H PARENT 89 25 70 61 40 72
REMARK Flexibility Score: inf
ROOT
ATOM      1  C   UNL A   1      32.995  23.067  24.484  1.00  0.00     0.202 C 
ENDROOT
BRANCH   1   2
ATOM      2  C   UNL A   1      33.268  24.399  23.757  1.00  0.00     0.261 C 
BRANCH   2   3
ATOM      3  O   UNL A   1      32.459  25.501  24.219  1.00  0.00    -0.463 OA
BRANCH   3   4
ATOM      4  C   UNL A   1      33.109  26.656  24.516  1.00  0.00     0.313 C 
ATOM      5  O   UNL A   1      33.593  27.400  23.668  1.00  0.00    -0.252 OA
BRANCH   4   6
ATOM      6  C   UNL A   1      33.121  26.994  26.016  1.00  0.00     0.126 C 
ATOM      7  C   UNL A   1      31.758  26.800  26.707  1.00  0.00     0.025 C 
BRANCH   6   8
ATOM      8  C   UNL A   1      33.844  28.299  26.385  1.00  0.00    -0.031 A 
ATOM      9  C   UNL A   1      35.219  28.335  26.681  1.00  0.00     0.005 A 
ATOM     10  C   UNL A   1      33.120  29.486  26.582  1.00  0.00     0.044 A 
ATOM     11  C   UNL A   1      35.833  29.493  27.185  1.00  0.00     0.012 A 
ATOM     12  C   UNL A   1      33.733  30.632  27.097  1.00  0.00     0.131 A 
ATOM     13  C   UNL A   1      35.085  30.647  27.444  1.00  0.00     0.018 A 
ATOM     14  F   UNL A   1      32.971  31.719  27.300  1.00  0.00    -0.206 F 
BRANCH  13  15
ATOM     15  C   UNL A   1      35.673  31.771  28.177  1.00  0.00    -0.012 A 
ATOM     16  C   UNL A   1      34.893  32.811  28.691  1.00  0.00     0.009 A 
ATOM     17  C   UNL A   1      37.062  31.832  28.356  1.00  0.00     0.056 A 
ATOM     18  C   UNL A   1      35.475  33.897  29.349  1.00  0.00     0.004 A 
ATOM     19  C   UNL A   1      37.631  32.915  29.013  1.00  0.00     0.133 A 
ATOM     20  C   UNL A   1      36.851  33.961  29.494  1.00  0.00     0.047 A 
BRANCH  19  21
ATOM     21  O   UNL A   1      39.003  33.044  29.294  1.00  0.00    -0.410 OA
BRANCH  21  22
ATOM     22  C   UNL A   1      39.735  34.211  29.414  1.00  0.00     0.412 C 
ATOM     23  O   UNL A   1      39.708  35.186  28.670  1.00  0.00    -0.224 OA
ATOM     24  N   UNL A   1      40.550  34.176  30.508  1.00  0.00    -0.321 N 
ATOM     25  H   UNL A   1      41.133  34.953  30.672  1.00  0.00     0.167 HD
BRANCH  24  26
ATOM     26  C   UNL A   1      40.614  33.073  31.440  1.00  0.00     0.120 C 
BRANCH  26  27
ATOM     27  C   UNL A   1      40.809  33.492  32.894  1.00  0.00     0.026 C 
BRANCH  27  28
ATOM     28  C   UNL A   1      42.241  33.688  33.399  1.00  0.00     0.037 C 
BRANCH  28  29
ATOM     29  C   UNL A   1      43.410  33.121  32.628  1.00  0.00    -0.048 A 
ATOM     30  C   UNL A   1      43.610  31.763  32.364  1.00  0.00     0.004 A 
ATOM     31  C   UNL A   1      44.391  34.026  32.187  1.00  0.00     0.004 A 
ATOM     32  C   UNL A   1      44.762  31.318  31.708  1.00  0.00     0.000 A 
ATOM     33  C   UNL A   1      45.532  33.587  31.514  1.00  0.00     0.000 A 
ATOM     34  C   UNL A   1      45.723  32.228  31.283  1.00  0.00     0.000 A 
ENDBRANCH  28  29
ENDBRANCH  27  28
ENDBRANCH  26  27
ENDBRANCH  24  26
ENDBRANCH  21  22
ENDBRANCH  19  21
ENDBRANCH  13  15
ENDBRANCH   6   8
ENDBRANCH   4   6
ENDBRANCH   3   4
ENDBRANCH   2   3
ENDBRANCH   1   2
BRANCH   1  35
ATOM     35  O   UNL A   1      33.771  21.913  24.160  1.00  0.00    -0.376 OA
BRANCH  35  36
ATOM     36  C   UNL A   1      35.058  21.779  24.751  1.00  0.00     0.188 C 
BRANCH  36  37
ATOM     37  C   UNL A   1      35.146  21.616  26.276  1.00  0.00     0.188 C 
BRANCH  37  38
ATOM     38  O   UNL A   1      36.104  22.429  26.909  1.00  0.00    -0.376 OA
BRANCH  38  39
ATOM     39  C   UNL A   1      36.997  23.208  26.132  1.00  0.00     0.202 C 
BRANCH  39  40
ATOM     40  C   UNL A   1      37.610  24.542  26.602  1.00  0.00     0.261 C 
BRANCH  40  41
ATOM     41  O   UNL A   1      38.902  24.519  27.219  1.00  0.00    -0.460 OA
BRANCH  41  42
ATOM     42  C   UNL A   1      39.714  25.582  26.992  1.00  0.00     0.338 C 
ATOM     43  O   UNL A   1      40.302  25.845  25.960  1.00  0.00    -0.246 OA
BRANCH  42  44
ATOM     44  C   UNL A   1      39.569  26.490  28.153  1.00  0.00     0.060 A 
ATOM     45  C   UNL A   1      39.857  27.855  28.004  1.00  0.00     0.016 A 
ATOM     46  C   UNL A   1      39.121  25.994  29.378  1.00  0.00     0.016 A 
ATOM     47  C   UNL A   1      39.711  28.723  29.089  1.00  0.00     0.010 A 
ATOM     48  C   UNL A   1      39.001  26.858  30.469  1.00  0.00     0.010 A 
ATOM     49  C   UNL A   1      39.320  28.221  30.337  1.00  0.00    -0.014 A 
BRANCH  49  50
ATOM     50  C   UNL A   1      39.428  29.062  31.555  1.00  0.00     0.031 A 
ATOM     51  C   UNL A   1      40.674  28.936  32.390  1.00  0.00     0.074 A 
ATOM     52  C   UNL A   1      38.441  29.900  31.921  1.00  0.00     0.049 A 
ATOM     53  N   UNL A   1      41.009  29.574  33.480  1.00  0.00    -0.248 NA
ATOM     54  C   UNL A   1      41.659  27.932  31.951  1.00  0.00     0.031 C 
ATOM     55  C   UNL A   1      37.203  30.117  31.174  1.00  0.00     0.029 A 
ATOM     56  N   UNL A   1      38.355  30.773  32.979  1.00  0.00    -0.354 N 
ATOM     57  C   UNL A   1      42.207  29.002  33.895  1.00  0.00     0.074 A 
ATOM     58  C   UNL A   1      42.550  27.983  32.929  1.00  0.00     0.031 C 
ATOM     59  C   UNL A   1      36.531  31.138  31.738  1.00  0.00     0.029 A 
ATOM     60  C   UNL A   1      37.262  31.611  32.913  1.00  0.00     0.049 A 
ATOM     61  H   UNL A   1      39.010  30.798  33.713  1.00  0.00     0.167 HD
ATOM     62  C   UNL A   1      42.935  29.276  35.003  1.00  0.00     0.031 A 
ATOM     63  C   UNL A   1      36.939  32.679  33.677  1.00  0.00     0.031 A 
ATOM     64  C   UNL A   1      42.586  30.293  35.960  1.00  0.00     0.049 A 
ATOM     65  C   UNL A   1      37.820  33.028  34.855  1.00  0.00     0.074 A 
ATOM     66  C   UNL A   1      43.252  30.644  37.122  1.00  0.00     0.029 A 
ATOM     67  N   UNL A   1      41.478  31.120  35.867  1.00  0.00    -0.354 N 
ATOM     68  N   UNL A   1      38.967  32.503  35.219  1.00  0.00    -0.248 NA
ATOM     69  C   UNL A   1      37.354  34.112  35.733  1.00  0.00     0.031 C 
ATOM     70  C   UNL A   1      42.509  31.640  37.764  1.00  0.00     0.029 A 
ATOM     71  C   UNL A   1      41.423  31.962  36.964  1.00  0.00     0.049 A 
ATOM     72  H   UNL A   1      40.826  31.111  35.129  1.00  0.00     0.167 HD
ATOM     73  C   UNL A   1      39.350  33.184  36.373  1.00  0.00     0.074 A 
ATOM     74  C   UNL A   1      38.348  34.204  36.606  1.00  0.00     0.031 C 
ATOM     75  C   UNL A   1      40.416  32.968  37.185  1.00  0.00     0.031 A 
BRANCH  62  76
ATOM     76  C   UNL A   1      44.131  28.406  35.289  1.00  0.00    -0.014 A 
ATOM     77  C   UNL A   1      44.020  27.190  35.986  1.00  0.00     0.010 A 
ATOM     78  C   UNL A   1      45.395  28.809  34.815  1.00  0.00     0.010 A 
ATOM     79  C   UNL A   1      45.155  26.411  36.232  1.00  0.00     0.020 A 
ATOM     80  C   UNL A   1      46.525  28.018  35.031  1.00  0.00     0.020 A 
ATOM     81  C   UNL A   1      46.401  26.830  35.752  1.00  0.00     0.054 A 
BRANCH  81  82
ATOM     82  S   UNL A   1      47.849  25.784  36.059  1.00  0.00     0.124 S 
ATOM     83  O   UNL A   1      48.714  26.681  36.820  1.00  0.00    -0.237 OA
ATOM     84  O   UNL A   1      47.283  24.668  36.811  1.00  0.00    -0.237 OA
ATOM     85  O   UNL A   1      48.328  25.450  34.719  1.00  0.00    -0.744 OA
ENDBRANCH  81  82
ENDBRANCH  62  76
BRANCH  63  86
ATOM     86  C   UNL A   1      35.781  33.554  33.317  1.00  0.00    -0.014 A 
ATOM     87  C   UNL A   1      36.006  34.828  32.758  1.00  0.00     0.010 A 
ATOM     88  C   UNL A   1      34.455  33.140  33.534  1.00  0.00     0.010 A 
ATOM     89  C   UNL A   1      34.937  35.678  32.453  1.00  0.00     0.020 A 
ATOM     90  C   UNL A   1      33.381  33.970  33.191  1.00  0.00     0.020 A 
ATOM     91  C   UNL A   1      33.629  35.241  32.670  1.00  0.00     0.054 A 
BRANCH  91  92
ATOM     92  S   UNL A   1      32.253  36.343  32.239  1.00  0.00     0.124 S 
ATOM     93  O   UNL A   1      32.896  37.287  31.330  1.00  0.00    -0.237 OA
ATOM     94  O   UNL A   1      31.294  35.429  31.626  1.00  0.00    -0.237 OA
ATOM     95  O   UNL A   1      31.842  36.896  33.528  1.00  0.00    -0.744 OA
ENDBRANCH  91  92
ENDBRANCH  63  86
BRANCH  75  96
ATOM     96  C   UNL A   1      40.553  33.836  38.413  1.00  0.00    -0.014 A 
ATOM     97  C   UNL A   1      39.938  33.476  39.626  1.00  0.00     0.010 A 
ATOM     98  C   UNL A   1      41.371  34.981  38.379  1.00  0.00     0.010 A 
ATOM     99  C   UNL A   1      40.108  34.262  40.770  1.00  0.00     0.020 A 
ATOM    100  C   UNL A   1      41.571  35.752  39.528  1.00  0.00     0.020 A 
ATOM    101  C   UNL A   1      40.925  35.395  40.713  1.00  0.00     0.054 A 
BRANCH 101 102
ATOM    102  S   UNL A   1      41.163  36.372  42.224  1.00  0.00     0.124 S 
ATOM    103  O   UNL A   1      42.371  35.772  42.786  1.00  0.00    -0.237 OA
ATOM    104  O   UNL A   1      41.318  37.729  41.707  1.00  0.00    -0.237 OA
ATOM    105  O   UNL A   1      39.939  36.136  42.987  1.00  0.00    -0.744 OA
ENDBRANCH 101 102
ENDBRANCH  75  96
ENDBRANCH  49  50
ENDBRANCH  42  44
ENDBRANCH  41  42
ENDBRANCH  40  41
ENDBRANCH  39  40
ENDBRANCH  38  39
ENDBRANCH  37  38
ENDBRANCH  36  37
ENDBRANCH  35  36
ENDBRANCH   1  35
TORSDOF 28
ENDMDL
