MODEL 1
REMARK VINA RESULT:      -9.4      0.000      0.000
REMARK SMILES CC(C)C[C@H](C(=O)OCCOCCOCCOC(=O)c1ccc(-c2c3nc(c(-c4ccc(S(=O)(=O)[O-])cc4)c4ccc([nH]4)c(-c4ccc(S(=O)(=O)[O-])cc4)c4nc(c(-c5ccc(S(=O)(=O)[O-])cc5)c5ccc2[nH]5)C=C4)C=C3)cc1)N1C(=O)/C(=C2\C(=O)Nc3ccc(Br)cc32)SC1=S
REMARK SMILES IDX 13 1 12 2 11 3 10 4 9 5 8 6 6 7 7 8 5 9 4 10 2 11 1 12 3 13
REMARK SMILES IDX 80 14 81 15 96 16 82 17 83 18 95 19 97 20 84 21 85 22 94 23
REMARK SMILES IDX 86 24 87 25 88 26 93 27 89 29 91 30 90 31 92 32 14 33 15 34
REMARK SMILES IDX 16 35 17 36 18 37 19 38 20 39 21 40 79 41 22 42 78 43 23 44
REMARK SMILES IDX 24 45 25 46 72 47 26 48 77 49 71 50 73 51 27 52 76 53 70 54
REMARK SMILES IDX 69 55 28 57 58 58 39 59 57 60 40 61 43 62 56 63 74 64 41 65
REMARK SMILES IDX 42 66 55 68 75 69 44 70 29 71 30 72 38 73 31 74 37 75 32 76
REMARK SMILES IDX 33 77 34 78 35 79 36 80 59 81 60 82 68 83 61 84 67 85 62 86
REMARK SMILES IDX 63 87 64 88 65 89 66 90 45 91 46 92 54 93 47 94 53 95 48 96
REMARK SMILES IDX 49 97 50 98 51 99 52 100
REMARK H PARENT 87 28 73 56 43 67
REMARK Flexibility Score: inf
ROOT
ATOM      1  C   UNL A   1      40.630  25.690  27.742  1.00  0.00     0.188 C 
ENDROOT
BRANCH   1   2
ATOM      2  C   UNL A   1      39.332  24.977  27.377  1.00  0.00     0.188 C 
BRANCH   2   3
ATOM      3  O   UNL A   1      39.258  23.587  27.614  1.00  0.00    -0.376 OA
BRANCH   3   4
ATOM      4  C   UNL A   1      39.116  22.730  26.483  1.00  0.00     0.202 C 
BRANCH   4   5
ATOM      5  C   UNL A   1      37.979  22.989  25.466  1.00  0.00     0.261 C 
BRANCH   5   6
ATOM      6  O   UNL A   1      36.710  22.363  25.805  1.00  0.00    -0.462 OA
BRANCH   6   7
ATOM      7  C   UNL A   1      36.373  21.228  25.121  1.00  0.00     0.329 C 
ATOM      8  O   UNL A   1      37.138  20.271  25.022  1.00  0.00    -0.250 OA
BRANCH   7   9
ATOM      9  C   UNL A   1      34.840  21.147  24.653  1.00  0.00     0.202 C 
BRANCH   9  10
ATOM     10  C   UNL A   1      34.497  19.644  24.975  1.00  0.00     0.040 C 
BRANCH  10  11
ATOM     11  C   UNL A   1      33.606  18.692  24.180  1.00  0.00    -0.015 C 
ATOM     12  C   UNL A   1      34.345  17.419  23.760  1.00  0.00     0.007 C 
ATOM     13  C   UNL A   1      32.393  18.257  25.027  1.00  0.00     0.007 C 
ENDBRANCH  10  11
ENDBRANCH   9  10
BRANCH   9  14
ATOM     14  N   UNL A   1      34.079  22.397  25.043  1.00  0.00    -0.278 N 
ATOM     15  C   UNL A   1      33.632  23.104  23.919  1.00  0.00     0.267 C 
ATOM     16  C   UNL A   1      33.471  22.887  26.174  1.00  0.00     0.149 C 
ATOM     17  O   UNL A   1      33.531  22.587  22.817  1.00  0.00    -0.268 OA
ATOM     18  C   UNL A   1      33.159  24.482  24.252  1.00  0.00     0.093 C 
ATOM     19  S   UNL A   1      33.056  24.589  25.960  1.00  0.00    -0.053 SA
ATOM     20  S   UNL A   1      32.978  22.222  27.608  1.00  0.00    -0.052 S 
ATOM     21  C   UNL A   1      32.756  25.450  23.413  1.00  0.00     0.069 C 
ATOM     22  C   UNL A   1      32.584  25.260  21.930  1.00  0.00     0.257 C 
ATOM     23  C   UNL A   1      32.192  26.786  23.716  1.00  0.00     0.013 A 
ATOM     24  O   UNL A   1      33.130  24.486  21.167  1.00  0.00    -0.269 OA
ATOM     25  N   UNL A   1      31.698  26.249  21.545  1.00  0.00    -0.321 N 
ATOM     26  C   UNL A   1      31.493  27.167  22.565  1.00  0.00     0.049 A 
ATOM     27  C   UNL A   1      32.313  27.688  24.764  1.00  0.00     0.026 A 
ATOM     28  H   UNL A   1      31.268  26.295  20.662  1.00  0.00     0.170 HD
ATOM     29  C   UNL A   1      30.810  28.361  22.449  1.00  0.00     0.028 A 
ATOM     30  C   UNL A   1      31.676  28.931  24.643  1.00  0.00     0.018 A 
ATOM     31  C   UNL A   1      30.906  29.256  23.512  1.00  0.00     0.018 A 
ATOM     32  Br  UNL A   1      31.906  30.236  25.996  1.00  0.00    -0.051 Br
ENDBRANCH   9  14
ENDBRANCH   7   9
ENDBRANCH   6   7
ENDBRANCH   5   6
ENDBRANCH   4   5
ENDBRANCH   3   4
ENDBRANCH   2   3
ENDBRANCH   1   2
BRANCH   1  33
ATOM     33  O   UNL A   1      41.538  26.051  26.731  1.00  0.00    -0.376 OA
BRANCH  33  34
ATOM     34  C   UNL A   1      42.071  25.075  25.853  1.00  0.00     0.202 C 
BRANCH  34  35
ATOM     35  C   UNL A   1      43.490  24.465  25.919  1.00  0.00     0.261 C 
BRANCH  35  36
ATOM     36  O   UNL A   1      44.003  24.031  27.184  1.00  0.00    -0.460 OA
BRANCH  36  37
ATOM     37  C   UNL A   1      44.972  24.816  27.729  1.00  0.00     0.338 C 
ATOM     38  O   UNL A   1      46.157  24.805  27.450  1.00  0.00    -0.246 OA
BRANCH  37  39
ATOM     39  C   UNL A   1      44.327  25.871  28.546  1.00  0.00     0.060 A 
ATOM     40  C   UNL A   1      44.512  27.209  28.173  1.00  0.00     0.016 A 
ATOM     41  C   UNL A   1      43.603  25.567  29.693  1.00  0.00     0.016 A 
ATOM     42  C   UNL A   1      43.982  28.250  28.925  1.00  0.00     0.010 A 
ATOM     43  C   UNL A   1      43.093  26.615  30.473  1.00  0.00     0.010 A 
ATOM     44  C   UNL A   1      43.297  27.960  30.104  1.00  0.00    -0.014 A 
BRANCH  44  45
ATOM     45  C   UNL A   1      42.967  29.065  31.034  1.00  0.00     0.031 A 
ATOM     46  C   UNL A   1      43.880  29.311  32.202  1.00  0.00     0.074 A 
ATOM     47  C   UNL A   1      41.916  29.877  30.820  1.00  0.00     0.049 A 
ATOM     48  N   UNL A   1      43.713  30.091  33.235  1.00  0.00    -0.248 NA
ATOM     49  C   UNL A   1      45.158  28.576  32.198  1.00  0.00     0.031 C 
ATOM     50  C   UNL A   1      41.032  29.836  29.654  1.00  0.00     0.029 A 
ATOM     51  N   UNL A   1      41.411  30.896  31.588  1.00  0.00    -0.354 N 
ATOM     52  C   UNL A   1      44.841  29.913  34.026  1.00  0.00     0.074 A 
ATOM     53  C   UNL A   1      45.683  28.945  33.356  1.00  0.00     0.031 C 
ATOM     54  C   UNL A   1      40.079  30.773  29.797  1.00  0.00     0.029 A 
ATOM     55  C   UNL A   1      40.245  31.431  31.092  1.00  0.00     0.049 A 
ATOM     56  H   UNL A   1      41.841  31.215  32.414  1.00  0.00     0.167 HD
ATOM     57  C   UNL A   1      45.143  30.498  35.209  1.00  0.00     0.031 A 
ATOM     58  C   UNL A   1      39.382  32.308  31.644  1.00  0.00     0.031 A 
ATOM     59  C   UNL A   1      44.297  31.459  35.865  1.00  0.00     0.049 A 
ATOM     60  C   UNL A   1      39.673  32.855  33.019  1.00  0.00     0.074 A 
ATOM     61  C   UNL A   1      44.495  32.093  37.079  1.00  0.00     0.029 A 
ATOM     62  N   UNL A   1      43.094  31.930  35.359  1.00  0.00    -0.354 N 
ATOM     63  N   UNL A   1      40.710  32.635  33.793  1.00  0.00    -0.248 NA
ATOM     64  C   UNL A   1      38.673  33.764  33.598  1.00  0.00     0.031 C 
ATOM     65  C   UNL A   1      43.381  32.897  37.337  1.00  0.00     0.029 A 
ATOM     66  C   UNL A   1      42.525  32.825  36.249  1.00  0.00     0.049 A 
ATOM     67  H   UNL A   1      42.702  31.666  34.496  1.00  0.00     0.167 HD
ATOM     68  C   UNL A   1      40.502  33.403  34.935  1.00  0.00     0.074 A 
ATOM     69  C   UNL A   1      39.249  34.104  34.743  1.00  0.00     0.031 C 
ATOM     70  C   UNL A   1      41.279  33.520  36.041  1.00  0.00     0.031 A 
BRANCH  57  71
ATOM     71  C   UNL A   1      46.406  30.059  35.900  1.00  0.00    -0.014 A 
ATOM     72  C   UNL A   1      46.378  29.320  37.097  1.00  0.00     0.010 A 
ATOM     73  C   UNL A   1      47.650  30.374  35.321  1.00  0.00     0.010 A 
ATOM     74  C   UNL A   1      47.570  28.937  37.718  1.00  0.00     0.020 A 
ATOM     75  C   UNL A   1      48.843  29.965  35.922  1.00  0.00     0.020 A 
ATOM     76  C   UNL A   1      48.795  29.263  37.127  1.00  0.00     0.054 A 
BRANCH  76  77
ATOM     77  S   UNL A   1      50.325  28.734  37.945  1.00  0.00     0.124 S 
ATOM     78  O   UNL A   1      50.724  27.591  37.129  1.00  0.00    -0.237 OA
ATOM     79  O   UNL A   1      51.173  29.917  37.828  1.00  0.00    -0.237 OA
ATOM     80  O   UNL A   1      49.898  28.408  39.304  1.00  0.00    -0.744 OA
ENDBRANCH  76  77
ENDBRANCH  57  71
BRANCH  58  81
ATOM     81  C   UNL A   1      38.123  32.668  30.932  1.00  0.00    -0.014 A 
ATOM     82  C   UNL A   1      36.910  32.025  31.235  1.00  0.00     0.010 A 
ATOM     83  C   UNL A   1      38.137  33.655  29.926  1.00  0.00     0.010 A 
ATOM     84  C   UNL A   1      35.743  32.349  30.535  1.00  0.00     0.020 A 
ATOM     85  C   UNL A   1      36.967  34.004  29.249  1.00  0.00     0.020 A 
ATOM     86  C   UNL A   1      35.778  33.339  29.549  1.00  0.00     0.054 A 
BRANCH  86  87
ATOM     87  S   UNL A   1      34.241  33.773  28.688  1.00  0.00     0.124 S 
ATOM     88  O   UNL A   1      33.881  32.509  28.053  1.00  0.00    -0.237 OA
ATOM     89  O   UNL A   1      33.376  34.199  29.787  1.00  0.00    -0.237 OA
ATOM     90  O   UNL A   1      34.648  34.839  27.777  1.00  0.00    -0.744 OA
ENDBRANCH  86  87
ENDBRANCH  58  81
BRANCH  70  91
ATOM     91  C   UNL A   1      40.828  34.480  37.114  1.00  0.00    -0.014 A 
ATOM     92  C   UNL A   1      41.168  35.844  37.072  1.00  0.00     0.010 A 
ATOM     93  C   UNL A   1      39.994  34.014  38.148  1.00  0.00     0.010 A 
ATOM     94  C   UNL A   1      40.709  36.716  38.063  1.00  0.00     0.020 A 
ATOM     95  C   UNL A   1      39.506  34.889  39.121  1.00  0.00     0.020 A 
ATOM     96  C   UNL A   1      39.877  36.234  39.081  1.00  0.00     0.054 A 
BRANCH  96  97
ATOM     97  S   UNL A   1      39.258  37.397  40.327  1.00  0.00     0.124 S 
ATOM     98  O   UNL A   1      38.456  36.528  41.183  1.00  0.00    -0.237 OA
ATOM     99  O   UNL A   1      40.488  37.908  40.925  1.00  0.00    -0.237 OA
ATOM    100  O   UNL A   1      38.500  38.372  39.546  1.00  0.00    -0.744 OA
ENDBRANCH  96  97
ENDBRANCH  70  91
ENDBRANCH  44  45
ENDBRANCH  37  39
ENDBRANCH  36  37
ENDBRANCH  35  36
ENDBRANCH  34  35
ENDBRANCH  33  34
ENDBRANCH   1  33
TORSDOF 23
ENDMDL
MODEL 2
REMARK VINA RESULT:      -9.3      5.747     11.409
REMARK SMILES CC(C)C[C@H](C(=O)OCCOCCOCCOC(=O)c1ccc(-c2c3nc(c(-c4ccc(S(=O)(=O)[O-])cc4)c4ccc([nH]4)c(-c4ccc(S(=O)(=O)[O-])cc4)c4nc(c(-c5ccc(S(=O)(=O)[O-])cc5)c5ccc2[nH]5)C=C4)C=C3)cc1)N1C(=O)/C(=C2\C(=O)Nc3ccc(Br)cc32)SC1=S
REMARK SMILES IDX 13 1 12 2 11 3 10 4 9 5 8 6 6 7 7 8 5 9 4 10 2 11 1 12 3 13
REMARK SMILES IDX 80 14 81 15 96 16 82 17 83 18 95 19 97 20 84 21 85 22 94 23
REMARK SMILES IDX 86 24 87 25 88 26 93 27 89 29 91 30 90 31 92 32 14 33 15 34
REMARK SMILES IDX 16 35 17 36 18 37 19 38 20 39 21 40 79 41 22 42 78 43 23 44
REMARK SMILES IDX 24 45 25 46 72 47 26 48 77 49 71 50 73 51 27 52 76 53 70 54
REMARK SMILES IDX 69 55 28 57 58 58 39 59 57 60 40 61 43 62 56 63 74 64 41 65
REMARK SMILES IDX 42 66 55 68 75 69 44 70 29 71 30 72 38 73 31 74 37 75 32 76
REMARK SMILES IDX 33 77 34 78 35 79 36 80 59 81 60 82 68 83 61 84 67 85 62 86
REMARK SMILES IDX 63 87 64 88 65 89 66 90 45 91 46 92 54 93 47 94 53 95 48 96
REMARK SMILES IDX 49 97 50 98 51 99 52 100
REMARK H PARENT 87 28 73 56 43 67
REMARK Flexibility Score: inf
ROOT
ATOM      1  C   UNL A   1      40.345  26.244  28.927  1.00  0.00     0.188 C 
ENDROOT
BRANCH   1   2
ATOM      2  C   UNL A   1      40.407  25.083  27.940  1.00  0.00     0.188 C 
BRANCH   2   3
ATOM      3  O   UNL A   1      39.629  25.179  26.765  1.00  0.00    -0.376 OA
BRANCH   3   4
ATOM      4  C   UNL A   1      38.413  24.435  26.715  1.00  0.00     0.202 C 
BRANCH   4   5
ATOM      5  C   UNL A   1      38.352  23.126  25.890  1.00  0.00     0.261 C 
BRANCH   5   6
ATOM      6  O   UNL A   1      37.111  22.932  25.155  1.00  0.00    -0.462 OA
BRANCH   6   7
ATOM      7  C   UNL A   1      36.699  21.643  24.960  1.00  0.00     0.329 C 
ATOM      8  O   UNL A   1      37.394  20.678  25.270  1.00  0.00    -0.250 OA
BRANCH   7   9
ATOM      9  C   UNL A   1      35.166  21.482  24.513  1.00  0.00     0.202 C 
BRANCH   9  10
ATOM     10  C   UNL A   1      34.913  19.956  24.816  1.00  0.00     0.040 C 
BRANCH  10  11
ATOM     11  C   UNL A   1      33.579  19.214  24.857  1.00  0.00    -0.015 C 
ATOM     12  C   UNL A   1      32.530  19.855  23.946  1.00  0.00     0.007 C 
ATOM     13  C   UNL A   1      33.760  17.756  24.391  1.00  0.00     0.007 C 
ENDBRANCH  10  11
ENDBRANCH   9  10
BRANCH   9  14
ATOM     14  N   UNL A   1      34.340  22.680  24.935  1.00  0.00    -0.278 N 
ATOM     15  C   UNL A   1      33.831  23.373  23.830  1.00  0.00     0.267 C 
ATOM     16  C   UNL A   1      33.728  23.119  26.085  1.00  0.00     0.149 C 
ATOM     17  O   UNL A   1      33.739  22.866  22.723  1.00  0.00    -0.268 OA
ATOM     18  C   UNL A   1      33.285  24.717  24.191  1.00  0.00     0.093 C 
ATOM     19  S   UNL A   1      33.210  24.797  25.902  1.00  0.00    -0.053 SA
ATOM     20  S   UNL A   1      33.302  22.408  27.518  1.00  0.00    -0.052 S 
ATOM     21  C   UNL A   1      32.810  25.670  23.373  1.00  0.00     0.069 C 
ATOM     22  C   UNL A   1      32.620  25.490  21.892  1.00  0.00     0.257 C 
ATOM     23  C   UNL A   1      32.175  26.967  23.706  1.00  0.00     0.013 A 
ATOM     24  O   UNL A   1      33.195  24.759  21.107  1.00  0.00    -0.269 OA
ATOM     25  N   UNL A   1      31.671  26.430  21.537  1.00  0.00    -0.321 N 
ATOM     26  C   UNL A   1      31.433  27.321  22.573  1.00  0.00     0.049 A 
ATOM     27  C   UNL A   1      32.263  27.861  24.763  1.00  0.00     0.026 A 
ATOM     28  H   UNL A   1      31.221  26.462  20.663  1.00  0.00     0.170 HD
ATOM     29  C   UNL A   1      30.679  28.474  22.486  1.00  0.00     0.028 A 
ATOM     30  C   UNL A   1      31.553  29.067  24.671  1.00  0.00     0.018 A 
ATOM     31  C   UNL A   1      30.743  29.360  23.560  1.00  0.00     0.018 A 
ATOM     32  Br  UNL A   1      31.733  30.365  26.038  1.00  0.00    -0.051 Br
ENDBRANCH   9  14
ENDBRANCH   7   9
ENDBRANCH   6   7
ENDBRANCH   5   6
ENDBRANCH   4   5
ENDBRANCH   3   4
ENDBRANCH   2   3
ENDBRANCH   1   2
BRANCH   1  33
ATOM     33  O   UNL A   1      39.250  26.363  29.798  1.00  0.00    -0.376 OA
BRANCH  33  34
ATOM     34  C   UNL A   1      38.519  27.575  29.883  1.00  0.00     0.202 C 
BRANCH  34  35
ATOM     35  C   UNL A   1      38.268  28.403  31.164  1.00  0.00     0.261 C 
BRANCH  35  36
ATOM     36  O   UNL A   1      38.427  29.826  31.115  1.00  0.00    -0.460 OA
BRANCH  36  37
ATOM     37  C   UNL A   1      39.566  30.314  31.678  1.00  0.00     0.338 C 
ATOM     38  O   UNL A   1      39.682  30.771  32.801  1.00  0.00    -0.246 OA
BRANCH  37  39
ATOM     39  C   UNL A   1      40.713  29.977  30.803  1.00  0.00     0.060 A 
ATOM     40  C   UNL A   1      41.841  29.382  31.382  1.00  0.00     0.016 A 
ATOM     41  C   UNL A   1      40.714  30.288  29.448  1.00  0.00     0.016 A 
ATOM     42  C   UNL A   1      42.973  29.090  30.630  1.00  0.00     0.010 A 
ATOM     43  C   UNL A   1      41.865  30.025  28.692  1.00  0.00     0.010 A 
ATOM     44  C   UNL A   1      43.006  29.444  29.283  1.00  0.00    -0.014 A 
BRANCH  44  45
ATOM     45  C   UNL A   1      44.294  29.377  28.553  1.00  0.00     0.031 A 
ATOM     46  C   UNL A   1      44.628  28.113  27.812  1.00  0.00     0.074 A 
ATOM     47  C   UNL A   1      45.125  30.433  28.492  1.00  0.00     0.049 A 
ATOM     48  N   UNL A   1      45.752  27.752  27.254  1.00  0.00    -0.248 NA
ATOM     49  C   UNL A   1      43.543  27.125  27.683  1.00  0.00     0.031 C 
ATOM     50  C   UNL A   1      44.859  31.759  29.049  1.00  0.00     0.029 A 
ATOM     51  N   UNL A   1      46.375  30.547  27.936  1.00  0.00    -0.354 N 
ATOM     52  C   UNL A   1      45.526  26.480  26.743  1.00  0.00     0.074 A 
ATOM     53  C   UNL A   1      44.159  26.130  27.063  1.00  0.00     0.031 C 
ATOM     54  C   UNL A   1      45.925  32.548  28.824  1.00  0.00     0.029 A 
ATOM     55  C   UNL A   1      46.971  31.763  28.172  1.00  0.00     0.049 A 
ATOM     56  H   UNL A   1      46.804  29.828  27.417  1.00  0.00     0.167 HD
ATOM     57  C   UNL A   1      46.384  25.675  26.074  1.00  0.00     0.031 A 
ATOM     58  C   UNL A   1      48.234  32.177  27.940  1.00  0.00     0.031 A 
ATOM     59  C   UNL A   1      47.741  26.036  25.762  1.00  0.00     0.049 A 
ATOM     60  C   UNL A   1      49.213  31.221  27.306  1.00  0.00     0.074 A 
ATOM     61  C   UNL A   1      48.703  25.284  25.112  1.00  0.00     0.029 A 
ATOM     62  N   UNL A   1      48.327  27.255  26.072  1.00  0.00    -0.354 N 
ATOM     63  N   UNL A   1      49.014  29.995  26.881  1.00  0.00    -0.248 NA
ATOM     64  C   UNL A   1      50.590  31.702  27.125  1.00  0.00     0.031 C 
ATOM     65  C   UNL A   1      49.890  26.023  25.087  1.00  0.00     0.029 A 
ATOM     66  C   UNL A   1      49.646  27.266  25.652  1.00  0.00     0.049 A 
ATOM     67  H   UNL A   1      47.873  28.002  26.525  1.00  0.00     0.167 HD
ATOM     68  C   UNL A   1      50.230  29.572  26.355  1.00  0.00     0.074 A 
ATOM     69  C   UNL A   1      51.155  30.678  26.501  1.00  0.00     0.031 C 
ATOM     70  C   UNL A   1      50.553  28.377  25.799  1.00  0.00     0.031 A 
BRANCH  57  71
ATOM     71  C   UNL A   1      45.899  24.300  25.701  1.00  0.00    -0.014 A 
ATOM     72  C   UNL A   1      45.454  23.999  24.401  1.00  0.00     0.010 A 
ATOM     73  C   UNL A   1      45.915  23.280  26.671  1.00  0.00     0.010 A 
ATOM     74  C   UNL A   1      45.000  22.714  24.089  1.00  0.00     0.020 A 
ATOM     75  C   UNL A   1      45.492  21.986  26.355  1.00  0.00     0.020 A 
ATOM     76  C   UNL A   1      45.021  21.716  25.069  1.00  0.00     0.054 A 
BRANCH  76  77
ATOM     77  S   UNL A   1      44.447  20.053  24.630  1.00  0.00     0.124 S 
ATOM     78  O   UNL A   1      44.497  20.091  23.171  1.00  0.00    -0.237 OA
ATOM     79  O   UNL A   1      45.440  19.194  25.270  1.00  0.00    -0.237 OA
ATOM     80  O   UNL A   1      43.105  19.985  25.204  1.00  0.00    -0.744 OA
ENDBRANCH  76  77
ENDBRANCH  57  71
BRANCH  58  81
ATOM     81  C   UNL A   1      48.669  33.534  28.376  1.00  0.00    -0.014 A 
ATOM     82  C   UNL A   1      48.556  34.641  27.517  1.00  0.00     0.010 A 
ATOM     83  C   UNL A   1      49.219  33.723  29.660  1.00  0.00     0.010 A 
ATOM     84  C   UNL A   1      49.000  35.904  27.925  1.00  0.00     0.020 A 
ATOM     85  C   UNL A   1      49.631  34.988  30.083  1.00  0.00     0.020 A 
ATOM     86  C   UNL A   1      49.531  36.069  29.208  1.00  0.00     0.054 A 
BRANCH  86  87
ATOM     87  S   UNL A   1      50.057  37.725  29.731  1.00  0.00     0.124 S 
ATOM     88  O   UNL A   1      50.475  37.490  31.110  1.00  0.00    -0.237 OA
ATOM     89  O   UNL A   1      51.131  38.026  28.786  1.00  0.00    -0.237 OA
ATOM     90  O   UNL A   1      48.851  38.534  29.570  1.00  0.00    -0.744 OA
ENDBRANCH  86  87
ENDBRANCH  58  81
BRANCH  70  91
ATOM     91  C   UNL A   1      51.951  28.214  25.255  1.00  0.00    -0.014 A 
ATOM     92  C   UNL A   1      53.003  27.741  26.059  1.00  0.00     0.010 A 
ATOM     93  C   UNL A   1      52.195  28.479  23.895  1.00  0.00     0.010 A 
ATOM     94  C   UNL A   1      54.281  27.569  25.519  1.00  0.00     0.020 A 
ATOM     95  C   UNL A   1      53.463  28.276  23.343  1.00  0.00     0.020 A 
ATOM     96  C   UNL A   1      54.503  27.834  24.163  1.00  0.00     0.054 A 
BRANCH  96  97
ATOM     97  S   UNL A   1      56.159  27.557  23.478  1.00  0.00     0.124 S 
ATOM     98  O   UNL A   1      56.901  28.701  24.001  1.00  0.00    -0.237 OA
ATOM     99  O   UNL A   1      56.524  26.260  24.042  1.00  0.00    -0.237 OA
ATOM    100  O   UNL A   1      55.943  27.563  22.034  1.00  0.00    -0.744 OA
ENDBRANCH  96  97
ENDBRANCH  70  91
ENDBRANCH  44  45
ENDBRANCH  37  39
ENDBRANCH  36  37
ENDBRANCH  35  36
ENDBRANCH  34  35
ENDBRANCH  33  34
ENDBRANCH   1  33
TORSDOF 23
ENDMDL
MODEL 3
REMARK VINA RESULT:      -9.2      5.567      8.631
REMARK SMILES CC(C)C[C@H](C(=O)OCCOCCOCCOC(=O)c1ccc(-c2c3nc(c(-c4ccc(S(=O)(=O)[O-])cc4)c4ccc([nH]4)c(-c4ccc(S(=O)(=O)[O-])cc4)c4nc(c(-c5ccc(S(=O)(=O)[O-])cc5)c5ccc2[nH]5)C=C4)C=C3)cc1)N1C(=O)/C(=C2\C(=O)Nc3ccc(Br)cc32)SC1=S
REMARK SMILES IDX 13 1 12 2 11 3 10 4 9 5 8 6 6 7 7 8 5 9 4 10 2 11 1 12 3 13
REMARK SMILES IDX 80 14 81 15 96 16 82 17 83 18 95 19 97 20 84 21 85 22 94 23
REMARK SMILES IDX 86 24 87 25 88 26 93 27 89 29 91 30 90 31 92 32 14 33 15 34
REMARK SMILES IDX 16 35 17 36 18 37 19 38 20 39 21 40 79 41 22 42 78 43 23 44
REMARK SMILES IDX 24 45 25 46 72 47 26 48 77 49 71 50 73 51 27 52 76 53 70 54
REMARK SMILES IDX 69 55 28 57 58 58 39 59 57 60 40 61 43 62 56 63 74 64 41 65
REMARK SMILES IDX 42 66 55 68 75 69 44 70 29 71 30 72 38 73 31 74 37 75 32 76
REMARK SMILES IDX 33 77 34 78 35 79 36 80 59 81 60 82 68 83 61 84 67 85 62 86
REMARK SMILES IDX 63 87 64 88 65 89 66 90 45 91 46 92 54 93 47 94 53 95 48 96
REMARK SMILES IDX 49 97 50 98 51 99 52 100
REMARK H PARENT 87 28 73 56 43 67
REMARK Flexibility Score: inf
ROOT
ATOM      1  C   UNL A   1      41.449  24.834  27.522  1.00  0.00     0.188 C 
ENDROOT
BRANCH   1   2
ATOM      2  C   UNL A   1      40.125  24.958  26.775  1.00  0.00     0.188 C 
BRANCH   2   3
ATOM      3  O   UNL A   1      39.054  24.142  27.199  1.00  0.00    -0.376 OA
BRANCH   3   4
ATOM      4  C   UNL A   1      38.871  22.893  26.533  1.00  0.00     0.202 C 
BRANCH   4   5
ATOM      5  C   UNL A   1      37.984  22.824  25.267  1.00  0.00     0.261 C 
BRANCH   5   6
ATOM      6  O   UNL A   1      36.588  22.503  25.524  1.00  0.00    -0.462 OA
BRANCH   6   7
ATOM      7  C   UNL A   1      36.136  21.293  25.076  1.00  0.00     0.329 C 
ATOM      8  O   UNL A   1      36.775  20.254  25.234  1.00  0.00    -0.250 OA
BRANCH   7   9
ATOM      9  C   UNL A   1      34.624  21.291  24.537  1.00  0.00     0.202 C 
BRANCH   9  10
ATOM     10  C   UNL A   1      34.221  19.783  24.751  1.00  0.00     0.040 C 
BRANCH  10  11
ATOM     11  C   UNL A   1      32.822  19.170  24.718  1.00  0.00    -0.015 C 
ATOM     12  C   UNL A   1      32.423  18.708  23.315  1.00  0.00     0.007 C 
ATOM     13  C   UNL A   1      32.753  17.938  25.642  1.00  0.00     0.007 C 
ENDBRANCH  10  11
ENDBRANCH   9  10
BRANCH   9  14
ATOM     14  N   UNL A   1      33.884  22.539  24.968  1.00  0.00    -0.278 N 
ATOM     15  C   UNL A   1      33.453  23.293  23.870  1.00  0.00     0.267 C 
ATOM     16  C   UNL A   1      33.282  23.000  26.115  1.00  0.00     0.149 C 
ATOM     17  O   UNL A   1      33.346  22.817  22.749  1.00  0.00    -0.268 OA
ATOM     18  C   UNL A   1      33.004  24.667  24.249  1.00  0.00     0.093 C 
ATOM     19  S   UNL A   1      32.898  24.716  25.959  1.00  0.00    -0.053 SA
ATOM     20  S   UNL A   1      32.772  22.295  27.524  1.00  0.00    -0.052 S 
ATOM     21  C   UNL A   1      32.621  25.671  23.443  1.00  0.00     0.069 C 
ATOM     22  C   UNL A   1      32.450  25.537  21.955  1.00  0.00     0.257 C 
ATOM     23  C   UNL A   1      32.079  27.006  23.793  1.00  0.00     0.013 A 
ATOM     24  O   UNL A   1      32.984  24.779  21.166  1.00  0.00    -0.269 OA
ATOM     25  N   UNL A   1      31.583  26.554  21.603  1.00  0.00    -0.321 N 
ATOM     26  C   UNL A   1      31.391  27.439  22.654  1.00  0.00     0.049 A 
ATOM     27  C   UNL A   1      32.213  27.867  24.872  1.00  0.00     0.026 A 
ATOM     28  H   UNL A   1      31.156  26.639  20.721  1.00  0.00     0.170 HD
ATOM     29  C   UNL A   1      30.730  28.648  22.578  1.00  0.00     0.028 A 
ATOM     30  C   UNL A   1      31.599  29.126  24.792  1.00  0.00     0.018 A 
ATOM     31  C   UNL A   1      30.838  29.503  23.672  1.00  0.00     0.018 A 
ATOM     32  Br  UNL A   1      31.848  30.378  26.191  1.00  0.00    -0.051 Br
ENDBRANCH   9  14
ENDBRANCH   7   9
ENDBRANCH   6   7
ENDBRANCH   5   6
ENDBRANCH   4   5
ENDBRANCH   3   4
ENDBRANCH   2   3
ENDBRANCH   1   2
BRANCH   1  33
ATOM     33  O   UNL A   1      42.629  24.558  26.812  1.00  0.00    -0.376 OA
BRANCH  33  34
ATOM     34  C   UNL A   1      42.631  23.627  25.743  1.00  0.00     0.202 C 
BRANCH  34  35
ATOM     35  C   UNL A   1      43.877  23.090  25.001  1.00  0.00     0.261 C 
BRANCH  35  36
ATOM     36  O   UNL A   1      45.151  23.140  25.655  1.00  0.00    -0.460 OA
BRANCH  36  37
ATOM     37  C   UNL A   1      46.030  24.058  25.167  1.00  0.00     0.338 C 
ATOM     38  O   UNL A   1      46.717  23.945  24.168  1.00  0.00    -0.246 OA
BRANCH  37  39
ATOM     39  C   UNL A   1      45.845  25.333  25.900  1.00  0.00     0.060 A 
ATOM     40  C   UNL A   1      45.293  26.422  25.214  1.00  0.00     0.016 A 
ATOM     41  C   UNL A   1      46.257  25.483  27.219  1.00  0.00     0.016 A 
ATOM     42  C   UNL A   1      45.143  27.661  25.825  1.00  0.00     0.010 A 
ATOM     43  C   UNL A   1      46.137  26.739  27.830  1.00  0.00     0.010 A 
ATOM     44  C   UNL A   1      45.598  27.838  27.130  1.00  0.00    -0.014 A 
BRANCH  44  45
ATOM     45  C   UNL A   1      45.682  29.211  27.683  1.00  0.00     0.031 A 
ATOM     46  C   UNL A   1      44.508  29.739  28.458  1.00  0.00     0.074 A 
ATOM     47  C   UNL A   1      46.795  29.955  27.557  1.00  0.00     0.049 A 
ATOM     48  N   UNL A   1      44.274  30.951  28.884  1.00  0.00    -0.248 NA
ATOM     49  C   UNL A   1      43.459  28.762  28.801  1.00  0.00     0.031 C 
ATOM     50  C   UNL A   1      48.051  29.513  26.950  1.00  0.00     0.029 A 
ATOM     51  N   UNL A   1      47.042  31.252  27.931  1.00  0.00    -0.354 N 
ATOM     52  C   UNL A   1      43.033  30.895  29.508  1.00  0.00     0.074 A 
ATOM     53  C   UNL A   1      42.563  29.532  29.400  1.00  0.00     0.031 C 
ATOM     54  C   UNL A   1      48.928  30.531  26.974  1.00  0.00     0.029 A 
ATOM     55  C   UNL A   1      48.274  31.713  27.533  1.00  0.00     0.049 A 
ATOM     56  H   UNL A   1      46.399  31.801  28.437  1.00  0.00     0.167 HD
ATOM     57  C   UNL A   1      42.347  31.895  30.110  1.00  0.00     0.031 A 
ATOM     58  C   UNL A   1      48.794  32.957  27.563  1.00  0.00     0.031 A 
ATOM     59  C   UNL A   1      42.828  33.247  30.212  1.00  0.00     0.049 A 
ATOM     60  C   UNL A   1      47.963  34.084  28.125  1.00  0.00     0.074 A 
ATOM     61  C   UNL A   1      42.200  34.343  30.777  1.00  0.00     0.029 A 
ATOM     62  N   UNL A   1      44.056  33.688  29.741  1.00  0.00    -0.354 N 
ATOM     63  N   UNL A   1      46.764  34.041  28.657  1.00  0.00    -0.248 NA
ATOM     64  C   UNL A   1      48.555  35.429  28.085  1.00  0.00     0.031 C 
ATOM     65  C   UNL A   1      43.021  35.460  30.591  1.00  0.00     0.029 A 
ATOM     66  C   UNL A   1      44.194  35.045  29.978  1.00  0.00     0.049 A 
ATOM     67  H   UNL A   1      44.730  33.120  29.302  1.00  0.00     0.167 HD
ATOM     68  C   UNL A   1      46.472  35.345  29.044  1.00  0.00     0.074 A 
ATOM     69  C   UNL A   1      47.626  36.150  28.698  1.00  0.00     0.031 C 
ATOM     70  C   UNL A   1      45.352  35.832  29.634  1.00  0.00     0.031 A 
BRANCH  57  71
ATOM     71  C   UNL A   1      40.975  31.575  30.641  1.00  0.00    -0.014 A 
ATOM     72  C   UNL A   1      39.829  31.659  29.829  1.00  0.00     0.010 A 
ATOM     73  C   UNL A   1      40.837  31.157  31.978  1.00  0.00     0.010 A 
ATOM     74  C   UNL A   1      38.568  31.366  30.356  1.00  0.00     0.020 A 
ATOM     75  C   UNL A   1      39.582  30.831  32.499  1.00  0.00     0.020 A 
ATOM     76  C   UNL A   1      38.453  30.954  31.688  1.00  0.00     0.054 A 
BRANCH  76  77
ATOM     77  S   UNL A   1      36.807  30.559  32.338  1.00  0.00     0.124 S 
ATOM     78  O   UNL A   1      36.956  29.153  32.704  1.00  0.00    -0.237 OA
ATOM     79  O   UNL A   1      36.675  31.488  33.457  1.00  0.00    -0.237 OA
ATOM     80  O   UNL A   1      35.916  30.815  31.209  1.00  0.00    -0.744 OA
ENDBRANCH  76  77
ENDBRANCH  57  71
BRANCH  58  81
ATOM     81  C   UNL A   1      50.139  33.221  26.979  1.00  0.00    -0.014 A 
ATOM     82  C   UNL A   1      50.278  33.687  25.660  1.00  0.00     0.010 A 
ATOM     83  C   UNL A   1      51.301  32.989  27.744  1.00  0.00     0.010 A 
ATOM     84  C   UNL A   1      51.548  33.897  25.112  1.00  0.00     0.020 A 
ATOM     85  C   UNL A   1      52.569  33.232  27.212  1.00  0.00     0.020 A 
ATOM     86  C   UNL A   1      52.686  33.672  25.894  1.00  0.00     0.054 A 
BRANCH  86  87
ATOM     87  S   UNL A   1      54.319  33.998  25.176  1.00  0.00     0.124 S 
ATOM     88  O   UNL A   1      54.994  34.703  26.262  1.00  0.00    -0.237 OA
ATOM     89  O   UNL A   1      54.812  32.651  24.894  1.00  0.00    -0.237 OA
ATOM     90  O   UNL A   1      54.021  34.804  23.996  1.00  0.00    -0.744 OA
ENDBRANCH  86  87
ENDBRANCH  58  81
BRANCH  70  91
ATOM     91  C   UNL A   1      45.332  37.297  29.994  1.00  0.00    -0.014 A 
ATOM     92  C   UNL A   1      45.031  38.286  29.041  1.00  0.00     0.010 A 
ATOM     93  C   UNL A   1      45.556  37.680  31.330  1.00  0.00     0.010 A 
ATOM     94  C   UNL A   1      44.989  39.634  29.412  1.00  0.00     0.020 A 
ATOM     95  C   UNL A   1      45.481  39.022  31.712  1.00  0.00     0.020 A 
ATOM     96  C   UNL A   1      45.211  39.993  30.746  1.00  0.00     0.054 A 
BRANCH  96  97
ATOM     97  S   UNL A   1      45.102  41.743  31.209  1.00  0.00     0.124 S 
ATOM     98  O   UNL A   1      44.412  41.677  32.494  1.00  0.00    -0.237 OA
ATOM     99  O   UNL A   1      46.506  42.144  31.269  1.00  0.00    -0.237 OA
ATOM    100  O   UNL A   1      44.335  42.344  30.120  1.00  0.00    -0.744 OA
ENDBRANCH  96  97
ENDBRANCH  70  91
ENDBRANCH  44  45
ENDBRANCH  37  39
ENDBRANCH  36  37
ENDBRANCH  35  36
ENDBRANCH  34  35
ENDBRANCH  33  34
ENDBRANCH   1  33
TORSDOF 23
ENDMDL
