MODEL 1
REMARK VINA RESULT:      -9.7      0.000      0.000
REMARK SMILES C[C@@H](NC1=[NH+]S(=O)(=O)c2ccccc21)C(=O)OCCOCCOCCOC(=O)c1ccc(-c2c3nc(c(-c4ccc(S(=O)(=O)[O-])cc4)c4ccc([nH]4)c(-c4ccc(S(=O)(=O)[O-])cc4)c4nc(c(-c5ccc(S(=O)(=O)[O-])cc5)c5ccc2[nH]5)C=C4)C=C3)cc1
REMARK SMILES IDX 22 1 21 2 20 3 19 4 18 5 17 6 15 7 16 8 2 9 1 10 3 11 4 12
REMARK SMILES IDX 5 14 14 15 6 16 9 18 13 19 7 20 8 21 10 22 12 23 11 24 23 25
REMARK SMILES IDX 24 26 25 27 26 28 27 29 28 30 29 31 30 32 88 33 31 34 87 35
REMARK SMILES IDX 32 36 33 37 34 38 81 39 35 40 86 41 80 42 82 43 36 44 85 45
REMARK SMILES IDX 79 46 78 47 37 49 67 50 48 51 66 52 49 53 52 54 65 55 83 56
REMARK SMILES IDX 50 57 51 58 64 60 84 61 53 62 38 63 39 64 47 65 40 66 46 67
REMARK SMILES IDX 41 68 42 69 43 70 44 71 45 72 68 73 69 74 77 75 70 76 76 77
REMARK SMILES IDX 71 78 72 79 73 80 74 81 75 82 54 83 55 84 63 85 56 86 62 87
REMARK SMILES IDX 57 88 58 89 59 90 60 91 61 92
REMARK H PARENT 3 13 5 17 82 48 52 59
REMARK Flexibility Score: inf
ROOT
ATOM      1  C   UNL A   1      32.987  27.130  23.850  1.00  0.00     0.188 C 
ENDROOT
BRANCH   1   2
ATOM      2  C   UNL A   1      33.296  26.731  22.398  1.00  0.00     0.188 C 
BRANCH   2   3
ATOM      3  O   UNL A   1      33.951  25.496  22.148  1.00  0.00    -0.376 OA
BRANCH   3   4
ATOM      4  C   UNL A   1      33.615  24.347  22.909  1.00  0.00     0.202 C 
BRANCH   4   5
ATOM      5  C   UNL A   1      32.936  23.145  22.235  1.00  0.00     0.261 C 
BRANCH   5   6
ATOM      6  O   UNL A   1      32.341  22.150  23.093  1.00  0.00    -0.460 OA
BRANCH   6   7
ATOM      7  C   UNL A   1      32.161  20.911  22.539  1.00  0.00     0.350 C 
ATOM      8  O   UNL A   1      31.842  20.717  21.370  1.00  0.00    -0.247 OA
BRANCH   7   9
ATOM      9  C   UNL A   1      32.341  19.761  23.558  1.00  0.00     0.279 C 
ATOM     10  C   UNL A   1      32.423  18.354  22.954  1.00  0.00     0.071 C 
BRANCH   9  11
ATOM     11  N   UNL A   1      33.521  19.930  24.412  1.00  0.00    -0.260 N 
ATOM     12  C   UNL A   1      33.694  20.983  25.265  1.00  0.00     0.292 C 
ATOM     13  H   UNL A   1      34.229  19.247  24.368  1.00  0.00     0.306 HD
ATOM     14  N   UNL A   1      32.786  21.424  26.082  1.00  0.00    -0.162 N 
ATOM     15  C   UNL A   1      34.955  21.742  25.249  1.00  0.00     0.087 A 
ATOM     16  S   UNL A   1      33.301  22.747  26.889  1.00  0.00     0.329 S 
ATOM     17  H   UNL A   1      31.899  21.014  26.200  1.00  0.00     0.327 HD
ATOM     18  C   UNL A   1      34.862  22.804  26.125  1.00  0.00     0.124 A 
ATOM     19  C   UNL A   1      36.068  21.578  24.444  1.00  0.00     0.018 A 
ATOM     20  O   UNL A   1      33.522  22.463  28.281  1.00  0.00    -0.179 OA
ATOM     21  O   UNL A   1      32.576  23.924  26.432  1.00  0.00    -0.179 OA
ATOM     22  C   UNL A   1      35.851  23.752  26.266  1.00  0.00     0.025 A 
ATOM     23  C   UNL A   1      37.096  22.518  24.568  1.00  0.00     0.001 A 
ATOM     24  C   UNL A   1      36.988  23.595  25.472  1.00  0.00     0.002 A 
ENDBRANCH   9  11
ENDBRANCH   7   9
ENDBRANCH   6   7
ENDBRANCH   5   6
ENDBRANCH   4   5
ENDBRANCH   3   4
ENDBRANCH   2   3
ENDBRANCH   1   2
BRANCH   1  25
ATOM     25  O   UNL A   1      32.993  28.515  24.099  1.00  0.00    -0.376 OA
BRANCH  25  26
ATOM     26  C   UNL A   1      32.046  29.044  25.005  1.00  0.00     0.202 C 
BRANCH  26  27
ATOM     27  C   UNL A   1      32.445  29.991  26.155  1.00  0.00     0.261 C 
BRANCH  27  28
ATOM     28  O   UNL A   1      33.541  29.613  27.003  1.00  0.00    -0.460 OA
BRANCH  28  29
ATOM     29  C   UNL A   1      34.187  30.590  27.681  1.00  0.00     0.338 C 
ATOM     30  O   UNL A   1      33.690  31.604  28.137  1.00  0.00    -0.246 OA
BRANCH  29  31
ATOM     31  C   UNL A   1      35.560  30.109  27.996  1.00  0.00     0.060 A 
ATOM     32  C   UNL A   1      35.850  29.723  29.312  1.00  0.00     0.016 A 
ATOM     33  C   UNL A   1      36.549  30.022  27.012  1.00  0.00     0.016 A 
ATOM     34  C   UNL A   1      37.134  29.290  29.656  1.00  0.00     0.010 A 
ATOM     35  C   UNL A   1      37.844  29.608  27.364  1.00  0.00     0.010 A 
ATOM     36  C   UNL A   1      38.154  29.272  28.694  1.00  0.00    -0.014 A 
BRANCH  36  37
ATOM     37  C   UNL A   1      39.565  29.072  29.127  1.00  0.00     0.031 A 
ATOM     38  C   UNL A   1      40.232  27.750  28.838  1.00  0.00     0.074 A 
ATOM     39  C   UNL A   1      40.269  30.059  29.715  1.00  0.00     0.049 A 
ATOM     40  N   UNL A   1      41.449  27.355  29.114  1.00  0.00    -0.248 NA
ATOM     41  C   UNL A   1      39.418  26.741  28.138  1.00  0.00     0.031 C 
ATOM     42  C   UNL A   1      39.765  31.397  30.017  1.00  0.00     0.029 A 
ATOM     43  N   UNL A   1      41.570  30.083  30.162  1.00  0.00    -0.354 N 
ATOM     44  C   UNL A   1      41.548  26.058  28.621  1.00  0.00     0.074 A 
ATOM     45  C   UNL A   1      40.257  25.719  28.064  1.00  0.00     0.031 C 
ATOM     46  C   UNL A   1      40.742  32.110  30.608  1.00  0.00     0.029 A 
ATOM     47  C   UNL A   1      41.931  31.271  30.753  1.00  0.00     0.049 A 
ATOM     48  H   UNL A   1      42.186  29.320  30.066  1.00  0.00     0.167 HD
ATOM     49  C   UNL A   1      42.618  25.226  28.619  1.00  0.00     0.031 A 
ATOM     50  C   UNL A   1      43.080  31.635  31.362  1.00  0.00     0.031 A 
ATOM     51  C   UNL A   1      43.900  25.551  29.189  1.00  0.00     0.049 A 
ATOM     52  C   UNL A   1      44.230  30.659  31.420  1.00  0.00     0.074 A 
ATOM     53  C   UNL A   1      45.042  24.770  29.236  1.00  0.00     0.029 A 
ATOM     54  N   UNL A   1      44.211  26.748  29.815  1.00  0.00    -0.354 N 
ATOM     55  N   UNL A   1      44.313  29.445  30.928  1.00  0.00    -0.248 NA
ATOM     56  C   UNL A   1      45.451  31.113  32.104  1.00  0.00     0.031 C 
ATOM     57  C   UNL A   1      46.025  25.471  29.943  1.00  0.00     0.029 A 
ATOM     58  C   UNL A   1      45.518  26.718  30.273  1.00  0.00     0.049 A 
ATOM     59  H   UNL A   1      43.594  27.509  29.919  1.00  0.00     0.167 HD
ATOM     60  C   UNL A   1      45.600  29.002  31.223  1.00  0.00     0.074 A 
ATOM     61  C   UNL A   1      46.269  30.089  31.904  1.00  0.00     0.031 C 
ATOM     62  C   UNL A   1      46.176  27.802  30.958  1.00  0.00     0.031 A 
BRANCH  49  63
ATOM     63  C   UNL A   1      42.446  23.867  27.992  1.00  0.00    -0.014 A 
ATOM     64  C   UNL A   1      42.760  23.647  26.639  1.00  0.00     0.010 A 
ATOM     65  C   UNL A   1      42.029  22.780  28.782  1.00  0.00     0.010 A 
ATOM     66  C   UNL A   1      42.641  22.371  26.082  1.00  0.00     0.020 A 
ATOM     67  C   UNL A   1      41.935  21.496  28.236  1.00  0.00     0.020 A 
ATOM     68  C   UNL A   1      42.233  21.302  26.885  1.00  0.00     0.054 A 
BRANCH  68  69
ATOM     69  S   UNL A   1      42.139  19.648  26.146  1.00  0.00     0.124 S 
ATOM     70  O   UNL A   1      42.569  18.797  27.253  1.00  0.00    -0.237 OA
ATOM     71  O   UNL A   1      40.728  19.541  25.784  1.00  0.00    -0.237 OA
ATOM     72  O   UNL A   1      43.066  19.717  25.019  1.00  0.00    -0.744 OA
ENDBRANCH  68  69
ENDBRANCH  49  63
BRANCH  50  73
ATOM     73  C   UNL A   1      43.198  32.975  32.008  1.00  0.00    -0.014 A 
ATOM     74  C   UNL A   1      42.849  33.165  33.358  1.00  0.00     0.010 A 
ATOM     75  C   UNL A   1      43.618  34.086  31.253  1.00  0.00     0.010 A 
ATOM     76  C   UNL A   1      42.885  34.443  33.928  1.00  0.00     0.020 A 
ATOM     77  C   UNL A   1      43.690  35.358  31.828  1.00  0.00     0.020 A 
ATOM     78  C   UNL A   1      43.304  35.532  33.158  1.00  0.00     0.054 A 
BRANCH  78  79
ATOM     79  S   UNL A   1      43.360  37.176  33.924  1.00  0.00     0.124 S 
ATOM     80  O   UNL A   1      43.519  38.046  32.763  1.00  0.00    -0.237 OA
ATOM     81  O   UNL A   1      42.067  37.252  34.600  1.00  0.00    -0.237 OA
ATOM     82  O   UNL A   1      44.518  37.101  34.812  1.00  0.00    -0.744 OA
ENDBRANCH  78  79
ENDBRANCH  50  73
BRANCH  62  83
ATOM     83  C   UNL A   1      47.614  27.614  31.376  1.00  0.00    -0.014 A 
ATOM     84  C   UNL A   1      47.948  27.077  32.632  1.00  0.00     0.010 A 
ATOM     85  C   UNL A   1      48.648  27.970  30.490  1.00  0.00     0.010 A 
ATOM     86  C   UNL A   1      49.288  26.956  33.018  1.00  0.00     0.020 A 
ATOM     87  C   UNL A   1      49.988  27.817  30.857  1.00  0.00     0.020 A 
ATOM     88  C   UNL A   1      50.299  27.333  32.130  1.00  0.00     0.054 A 
BRANCH  88  89
ATOM     89  S   UNL A   1      52.028  27.167  32.653  1.00  0.00     0.124 S 
ATOM     90  O   UNL A   1      52.617  28.405  32.150  1.00  0.00    -0.237 OA
ATOM     91  O   UNL A   1      51.915  27.068  34.106  1.00  0.00    -0.237 OA
ATOM     92  O   UNL A   1      52.478  25.948  31.984  1.00  0.00    -0.744 OA
ENDBRANCH  88  89
ENDBRANCH  62  83
ENDBRANCH  36  37
ENDBRANCH  29  31
ENDBRANCH  28  29
ENDBRANCH  27  28
ENDBRANCH  26  27
ENDBRANCH  25  26
ENDBRANCH   1  25
TORSDOF 21
ENDMDL
MODEL 2
REMARK VINA RESULT:      -9.7      3.463      9.425
REMARK SMILES C[C@@H](NC1=[NH+]S(=O)(=O)c2ccccc21)C(=O)OCCOCCOCCOC(=O)c1ccc(-c2c3nc(c(-c4ccc(S(=O)(=O)[O-])cc4)c4ccc([nH]4)c(-c4ccc(S(=O)(=O)[O-])cc4)c4nc(c(-c5ccc(S(=O)(=O)[O-])cc5)c5ccc2[nH]5)C=C4)C=C3)cc1
REMARK SMILES IDX 22 1 21 2 20 3 19 4 18 5 17 6 15 7 16 8 2 9 1 10 3 11 4 12
REMARK SMILES IDX 5 14 14 15 6 16 9 18 13 19 7 20 8 21 10 22 12 23 11 24 23 25
REMARK SMILES IDX 24 26 25 27 26 28 27 29 28 30 29 31 30 32 88 33 31 34 87 35
REMARK SMILES IDX 32 36 33 37 34 38 81 39 35 40 86 41 80 42 82 43 36 44 85 45
REMARK SMILES IDX 79 46 78 47 37 49 67 50 48 51 66 52 49 53 52 54 65 55 83 56
REMARK SMILES IDX 50 57 51 58 64 60 84 61 53 62 38 63 39 64 47 65 40 66 46 67
REMARK SMILES IDX 41 68 42 69 43 70 44 71 45 72 68 73 69 74 77 75 70 76 76 77
REMARK SMILES IDX 71 78 72 79 73 80 74 81 75 82 54 83 55 84 63 85 56 86 62 87
REMARK SMILES IDX 57 88 58 89 59 90 60 91 61 92
REMARK H PARENT 3 13 5 17 82 48 52 59
REMARK Flexibility Score: inf
ROOT
ATOM      1  C   UNL A   1      33.438  34.676  28.536  1.00  0.00     0.188 C 
ENDROOT
BRANCH   1   2
ATOM      2  C   UNL A   1      33.149  33.460  27.641  1.00  0.00     0.188 C 
BRANCH   2   3
ATOM      3  O   UNL A   1      31.801  33.076  27.416  1.00  0.00    -0.376 OA
BRANCH   3   4
ATOM      4  C   UNL A   1      31.503  32.013  26.525  1.00  0.00     0.202 C 
BRANCH   4   5
ATOM      5  C   UNL A   1      32.048  30.603  26.795  1.00  0.00     0.261 C 
BRANCH   5   6
ATOM      6  O   UNL A   1      31.377  29.498  26.155  1.00  0.00    -0.460 OA
BRANCH   6   7
ATOM      7  C   UNL A   1      31.734  28.248  26.588  1.00  0.00     0.350 C 
ATOM      8  O   UNL A   1      31.483  27.807  27.705  1.00  0.00    -0.247 OA
BRANCH   7   9
ATOM      9  C   UNL A   1      32.550  27.455  25.540  1.00  0.00     0.279 C 
ATOM     10  C   UNL A   1      33.845  26.819  26.060  1.00  0.00     0.071 C 
BRANCH   9  11
ATOM     11  N   UNL A   1      31.777  26.387  24.898  1.00  0.00    -0.260 N 
ATOM     12  C   UNL A   1      31.616  25.141  25.436  1.00  0.00     0.292 C 
ATOM     13  H   UNL A   1      31.349  26.578  24.032  1.00  0.00     0.306 HD
ATOM     14  N   UNL A   1      31.297  24.910  26.674  1.00  0.00    -0.162 N 
ATOM     15  C   UNL A   1      31.873  23.948  24.614  1.00  0.00     0.087 A 
ATOM     16  S   UNL A   1      31.274  23.309  26.995  1.00  0.00     0.329 S 
ATOM     17  H   UNL A   1      31.094  25.611  27.334  1.00  0.00     0.327 HD
ATOM     18  C   UNL A   1      31.733  22.817  25.392  1.00  0.00     0.124 A 
ATOM     19  C   UNL A   1      32.306  23.861  23.303  1.00  0.00     0.018 A 
ATOM     20  O   UNL A   1      29.936  22.834  27.216  1.00  0.00    -0.179 OA
ATOM     21  O   UNL A   1      32.387  22.960  27.867  1.00  0.00    -0.179 OA
ATOM     22  C   UNL A   1      31.998  21.548  24.928  1.00  0.00     0.025 A 
ATOM     23  C   UNL A   1      32.575  22.586  22.797  1.00  0.00     0.001 A 
ATOM     24  C   UNL A   1      32.421  21.439  23.603  1.00  0.00     0.002 A 
ENDBRANCH   9  11
ENDBRANCH   7   9
ENDBRANCH   6   7
ENDBRANCH   5   6
ENDBRANCH   4   5
ENDBRANCH   3   4
ENDBRANCH   2   3
ENDBRANCH   1   2
BRANCH   1  25
ATOM     25  O   UNL A   1      33.875  34.365  29.836  1.00  0.00    -0.376 OA
BRANCH  25  26
ATOM     26  C   UNL A   1      35.089  33.657  29.993  1.00  0.00     0.202 C 
BRANCH  26  27
ATOM     27  C   UNL A   1      35.137  32.208  30.515  1.00  0.00     0.261 C 
BRANCH  27  28
ATOM     28  O   UNL A   1      36.163  31.334  30.016  1.00  0.00    -0.460 OA
BRANCH  28  29
ATOM     29  C   UNL A   1      36.719  30.450  30.877  1.00  0.00     0.338 C 
ATOM     30  O   UNL A   1      36.133  29.795  31.720  1.00  0.00    -0.246 OA
BRANCH  29  31
ATOM     31  C   UNL A   1      38.131  30.221  30.462  1.00  0.00     0.060 A 
ATOM     32  C   UNL A   1      38.434  30.215  29.093  1.00  0.00     0.016 A 
ATOM     33  C   UNL A   1      39.148  30.028  31.400  1.00  0.00     0.016 A 
ATOM     34  C   UNL A   1      39.741  29.978  28.659  1.00  0.00     0.010 A 
ATOM     35  C   UNL A   1      40.456  29.768  30.962  1.00  0.00     0.010 A 
ATOM     36  C   UNL A   1      40.756  29.708  29.589  1.00  0.00    -0.014 A 
BRANCH  36  37
ATOM     37  C   UNL A   1      42.068  29.193  29.110  1.00  0.00     0.031 A 
ATOM     38  C   UNL A   1      43.251  30.130  29.091  1.00  0.00     0.074 A 
ATOM     39  C   UNL A   1      42.235  27.905  28.753  1.00  0.00     0.049 A 
ATOM     40  N   UNL A   1      44.486  29.903  28.724  1.00  0.00    -0.248 NA
ATOM     41  C   UNL A   1      43.007  31.508  29.554  1.00  0.00     0.031 C 
ATOM     42  C   UNL A   1      41.192  26.881  28.762  1.00  0.00     0.029 A 
ATOM     43  N   UNL A   1      43.355  27.238  28.312  1.00  0.00    -0.354 N 
ATOM     44  C   UNL A   1      45.165  31.102  28.913  1.00  0.00     0.074 A 
ATOM     45  C   UNL A   1      44.198  32.065  29.391  1.00  0.00     0.031 C 
ATOM     46  C   UNL A   1      41.718  25.717  28.337  1.00  0.00     0.029 A 
ATOM     47  C   UNL A   1      43.126  25.919  27.998  1.00  0.00     0.049 A 
ATOM     48  H   UNL A   1      44.237  27.666  28.229  1.00  0.00     0.167 HD
ATOM     49  C   UNL A   1      46.478  31.378  28.720  1.00  0.00     0.031 A 
ATOM     50  C   UNL A   1      43.950  24.985  27.477  1.00  0.00     0.031 A 
ATOM     51  C   UNL A   1      47.443  30.429  28.227  1.00  0.00     0.049 A 
ATOM     52  C   UNL A   1      45.389  25.342  27.193  1.00  0.00     0.074 A 
ATOM     53  C   UNL A   1      48.796  30.620  27.997  1.00  0.00     0.029 A 
ATOM     54  N   UNL A   1      47.162  29.117  27.882  1.00  0.00    -0.354 N 
ATOM     55  N   UNL A   1      46.019  26.474  27.400  1.00  0.00    -0.248 NA
ATOM     56  C   UNL A   1      46.233  24.283  26.618  1.00  0.00     0.031 C 
ATOM     57  C   UNL A   1      49.319  29.441  27.457  1.00  0.00     0.029 A 
ATOM     58  C   UNL A   1      48.309  28.492  27.418  1.00  0.00     0.049 A 
ATOM     59  H   UNL A   1      46.278  28.690  27.956  1.00  0.00     0.167 HD
ATOM     60  C   UNL A   1      47.336  26.255  27.003  1.00  0.00     0.074 A 
ATOM     61  C   UNL A   1      47.419  24.875  26.577  1.00  0.00     0.031 C 
ATOM     62  C   UNL A   1      48.383  27.120  26.988  1.00  0.00     0.031 A 
BRANCH  49  63
ATOM     63  C   UNL A   1      46.953  32.775  29.029  1.00  0.00    -0.014 A 
ATOM     64  C   UNL A   1      46.868  33.798  28.068  1.00  0.00     0.010 A 
ATOM     65  C   UNL A   1      47.427  33.084  30.316  1.00  0.00     0.010 A 
ATOM     66  C   UNL A   1      47.268  35.100  28.382  1.00  0.00     0.020 A 
ATOM     67  C   UNL A   1      47.802  34.391  30.644  1.00  0.00     0.020 A 
ATOM     68  C   UNL A   1      47.729  35.390  29.670  1.00  0.00     0.054 A 
BRANCH  68  69
ATOM     69  S   UNL A   1      48.191  37.099  30.062  1.00  0.00     0.124 S 
ATOM     70  O   UNL A   1      47.039  37.553  30.837  1.00  0.00    -0.237 OA
ATOM     71  O   UNL A   1      49.429  36.929  30.818  1.00  0.00    -0.237 OA
ATOM     72  O   UNL A   1      48.345  37.728  28.752  1.00  0.00    -0.744 OA
ENDBRANCH  68  69
ENDBRANCH  49  63
BRANCH  50  73
ATOM     73  C   UNL A   1      43.433  23.625  27.146  1.00  0.00    -0.014 A 
ATOM     74  C   UNL A   1      43.062  22.722  28.159  1.00  0.00     0.010 A 
ATOM     75  C   UNL A   1      43.355  23.209  25.804  1.00  0.00     0.010 A 
ATOM     76  C   UNL A   1      42.659  21.421  27.838  1.00  0.00     0.020 A 
ATOM     77  C   UNL A   1      42.918  21.922  25.477  1.00  0.00     0.020 A 
ATOM     78  C   UNL A   1      42.590  21.029  26.498  1.00  0.00     0.054 A 
BRANCH  78  79
ATOM     79  S   UNL A   1      42.047  19.343  26.104  1.00  0.00     0.124 S 
ATOM     80  O   UNL A   1      40.618  19.530  25.874  1.00  0.00    -0.237 OA
ATOM     81  O   UNL A   1      42.842  19.024  24.921  1.00  0.00    -0.237 OA
ATOM     82  O   UNL A   1      42.393  18.583  27.303  1.00  0.00    -0.744 OA
ENDBRANCH  78  79
ENDBRANCH  50  73
BRANCH  62  83
ATOM     83  C   UNL A   1      49.717  26.586  26.527  1.00  0.00    -0.014 A 
ATOM     84  C   UNL A   1      50.599  25.946  27.416  1.00  0.00     0.010 A 
ATOM     85  C   UNL A   1      50.088  26.715  25.175  1.00  0.00     0.010 A 
ATOM     86  C   UNL A   1      51.850  25.500  26.976  1.00  0.00     0.020 A 
ATOM     87  C   UNL A   1      51.322  26.239  24.723  1.00  0.00     0.020 A 
ATOM     88  C   UNL A   1      52.206  25.656  25.633  1.00  0.00     0.054 A 
BRANCH  88  89
ATOM     89  S   UNL A   1      53.834  25.070  25.087  1.00  0.00     0.124 S 
ATOM     90  O   UNL A   1      54.669  25.373  26.246  1.00  0.00    -0.237 OA
ATOM     91  O   UNL A   1      53.596  23.651  24.835  1.00  0.00    -0.237 OA
ATOM     92  O   UNL A   1      54.109  25.871  23.896  1.00  0.00    -0.744 OA
ENDBRANCH  88  89
ENDBRANCH  62  83
ENDBRANCH  36  37
ENDBRANCH  29  31
ENDBRANCH  28  29
ENDBRANCH  27  28
ENDBRANCH  26  27
ENDBRANCH  25  26
ENDBRANCH   1  25
TORSDOF 21
ENDMDL
MODEL 3
REMARK VINA RESULT:      -9.5      3.659      5.361
REMARK SMILES C[C@@H](NC1=[NH+]S(=O)(=O)c2ccccc21)C(=O)OCCOCCOCCOC(=O)c1ccc(-c2c3nc(c(-c4ccc(S(=O)(=O)[O-])cc4)c4ccc([nH]4)c(-c4ccc(S(=O)(=O)[O-])cc4)c4nc(c(-c5ccc(S(=O)(=O)[O-])cc5)c5ccc2[nH]5)C=C4)C=C3)cc1
REMARK SMILES IDX 22 1 21 2 20 3 19 4 18 5 17 6 15 7 16 8 2 9 1 10 3 11 4 12
REMARK SMILES IDX 5 14 14 15 6 16 9 18 13 19 7 20 8 21 10 22 12 23 11 24 23 25
REMARK SMILES IDX 24 26 25 27 26 28 27 29 28 30 29 31 30 32 88 33 31 34 87 35
REMARK SMILES IDX 32 36 33 37 34 38 81 39 35 40 86 41 80 42 82 43 36 44 85 45
REMARK SMILES IDX 79 46 78 47 37 49 67 50 48 51 66 52 49 53 52 54 65 55 83 56
REMARK SMILES IDX 50 57 51 58 64 60 84 61 53 62 38 63 39 64 47 65 40 66 46 67
REMARK SMILES IDX 41 68 42 69 43 70 44 71 45 72 68 73 69 74 77 75 70 76 76 77
REMARK SMILES IDX 71 78 72 79 73 80 74 81 75 82 54 83 55 84 63 85 56 86 62 87
REMARK SMILES IDX 57 88 58 89 59 90 60 91 61 92
REMARK H PARENT 3 13 5 17 82 48 52 59
REMARK Flexibility Score: inf
ROOT
ATOM      1  C   UNL A   1      33.447  34.503  28.731  1.00  0.00     0.188 C 
ENDROOT
BRANCH   1   2
ATOM      2  C   UNL A   1      33.079  33.323  27.818  1.00  0.00     0.188 C 
BRANCH   2   3
ATOM      3  O   UNL A   1      31.779  33.272  27.250  1.00  0.00    -0.376 OA
BRANCH   3   4
ATOM      4  C   UNL A   1      31.381  32.146  26.483  1.00  0.00     0.202 C 
BRANCH   4   5
ATOM      5  C   UNL A   1      32.036  30.778  26.724  1.00  0.00     0.261 C 
BRANCH   5   6
ATOM      6  O   UNL A   1      31.619  29.684  25.881  1.00  0.00    -0.460 OA
BRANCH   6   7
ATOM      7  C   UNL A   1      31.806  28.428  26.393  1.00  0.00     0.350 C 
ATOM      8  O   UNL A   1      31.402  28.064  27.492  1.00  0.00    -0.247 OA
BRANCH   7   9
ATOM      9  C   UNL A   1      32.641  27.514  25.464  1.00  0.00     0.279 C 
ATOM     10  C   UNL A   1      33.840  26.825  26.126  1.00  0.00     0.071 C 
BRANCH   9  11
ATOM     11  N   UNL A   1      31.843  26.463  24.824  1.00  0.00    -0.260 N 
ATOM     12  C   UNL A   1      31.646  25.225  25.366  1.00  0.00     0.292 C 
ATOM     13  H   UNL A   1      31.425  26.661  23.954  1.00  0.00     0.306 HD
ATOM     14  N   UNL A   1      31.315  25.009  26.604  1.00  0.00    -0.162 N 
ATOM     15  C   UNL A   1      31.876  24.022  24.552  1.00  0.00     0.087 A 
ATOM     16  S   UNL A   1      31.250  23.410  26.933  1.00  0.00     0.329 S 
ATOM     17  H   UNL A   1      31.128  25.718  27.260  1.00  0.00     0.327 HD
ATOM     18  C   UNL A   1      31.703  22.898  25.334  1.00  0.00     0.124 A 
ATOM     19  C   UNL A   1      32.313  23.917  23.243  1.00  0.00     0.018 A 
ATOM     20  O   UNL A   1      29.898  22.972  27.149  1.00  0.00    -0.179 OA
ATOM     21  O   UNL A   1      32.349  23.037  27.812  1.00  0.00    -0.179 OA
ATOM     22  C   UNL A   1      31.937  21.620  24.878  1.00  0.00     0.025 A 
ATOM     23  C   UNL A   1      32.551  22.632  22.744  1.00  0.00     0.001 A 
ATOM     24  C   UNL A   1      32.364  21.494  23.555  1.00  0.00     0.002 A 
ENDBRANCH   9  11
ENDBRANCH   7   9
ENDBRANCH   6   7
ENDBRANCH   5   6
ENDBRANCH   4   5
ENDBRANCH   3   4
ENDBRANCH   2   3
ENDBRANCH   1   2
BRANCH   1  25
ATOM     25  O   UNL A   1      34.089  34.147  29.931  1.00  0.00    -0.376 OA
BRANCH  25  26
ATOM     26  C   UNL A   1      35.202  33.278  29.871  1.00  0.00     0.202 C 
BRANCH  26  27
ATOM     27  C   UNL A   1      35.278  31.977  30.695  1.00  0.00     0.261 C 
BRANCH  27  28
ATOM     28  O   UNL A   1      36.065  30.888  30.184  1.00  0.00    -0.460 OA
BRANCH  28  29
ATOM     29  C   UNL A   1      36.722  30.106  31.072  1.00  0.00     0.338 C 
ATOM     30  O   UNL A   1      36.279  29.675  32.122  1.00  0.00    -0.246 OA
BRANCH  29  31
ATOM     31  C   UNL A   1      37.991  29.650  30.442  1.00  0.00     0.060 A 
ATOM     32  C   UNL A   1      38.942  29.002  31.243  1.00  0.00     0.016 A 
ATOM     33  C   UNL A   1      38.243  29.844  29.081  1.00  0.00     0.016 A 
ATOM     34  C   UNL A   1      40.158  28.582  30.696  1.00  0.00     0.010 A 
ATOM     35  C   UNL A   1      39.474  29.442  28.539  1.00  0.00     0.010 A 
ATOM     36  C   UNL A   1      40.454  28.838  29.350  1.00  0.00    -0.014 A 
BRANCH  36  37
ATOM     37  C   UNL A   1      41.842  28.634  28.853  1.00  0.00     0.031 A 
ATOM     38  C   UNL A   1      42.242  27.265  28.361  1.00  0.00     0.074 A 
ATOM     39  C   UNL A   1      42.723  29.650  28.781  1.00  0.00     0.049 A 
ATOM     40  N   UNL A   1      43.388  26.857  27.879  1.00  0.00    -0.248 NA
ATOM     41  C   UNL A   1      41.207  26.218  28.413  1.00  0.00     0.031 C 
ATOM     42  C   UNL A   1      42.460  31.031  29.183  1.00  0.00     0.029 A 
ATOM     43  N   UNL A   1      44.026  29.673  28.339  1.00  0.00    -0.354 N 
ATOM     44  C   UNL A   1      43.213  25.512  27.570  1.00  0.00     0.074 A 
ATOM     45  C   UNL A   1      41.863  25.163  27.953  1.00  0.00     0.031 C 
ATOM     46  C   UNL A   1      43.569  31.766  28.977  1.00  0.00     0.029 A 
ATOM     47  C   UNL A   1      44.630  30.904  28.457  1.00  0.00     0.049 A 
ATOM     48  H   UNL A   1      44.483  28.883  27.971  1.00  0.00     0.167 HD
ATOM     49  C   UNL A   1      44.090  24.645  27.007  1.00  0.00     0.031 A 
ATOM     50  C   UNL A   1      45.898  31.287  28.198  1.00  0.00     0.031 A 
ATOM     51  C   UNL A   1      45.442  24.981  26.640  1.00  0.00     0.049 A 
ATOM     52  C   UNL A   1      46.880  30.281  27.648  1.00  0.00     0.074 A 
ATOM     53  C   UNL A   1      46.403  24.167  26.065  1.00  0.00     0.029 A 
ATOM     54  N   UNL A   1      46.026  26.225  26.815  1.00  0.00    -0.354 N 
ATOM     55  N   UNL A   1      46.689  29.020  27.341  1.00  0.00    -0.248 NA
ATOM     56  C   UNL A   1      48.247  30.759  27.395  1.00  0.00     0.031 C 
ATOM     57  C   UNL A   1      47.587  24.903  25.948  1.00  0.00     0.029 A 
ATOM     58  C   UNL A   1      47.343  26.195  26.383  1.00  0.00     0.049 A 
ATOM     59  H   UNL A   1      45.574  27.015  27.191  1.00  0.00     0.167 HD
ATOM     60  C   UNL A   1      47.904  28.563  26.836  1.00  0.00     0.074 A 
ATOM     61  C   UNL A   1      48.811  29.691  26.849  1.00  0.00     0.031 C 
ATOM     62  C   UNL A   1      48.242  27.320  26.405  1.00  0.00     0.031 A 
BRANCH  49  63
ATOM     63  C   UNL A   1      43.620  23.234  26.763  1.00  0.00    -0.014 A 
ATOM     64  C   UNL A   1      43.923  22.566  25.563  1.00  0.00     0.010 A 
ATOM     65  C   UNL A   1      42.925  22.544  27.772  1.00  0.00     0.010 A 
ATOM     66  C   UNL A   1      43.522  21.241  25.370  1.00  0.00     0.020 A 
ATOM     67  C   UNL A   1      42.546  21.210  27.594  1.00  0.00     0.020 A 
ATOM     68  C   UNL A   1      42.839  20.570  26.388  1.00  0.00     0.054 A 
BRANCH  68  69
ATOM     69  S   UNL A   1      42.378  18.835  26.127  1.00  0.00     0.124 S 
ATOM     70  O   UNL A   1      42.647  18.249  27.438  1.00  0.00    -0.237 OA
ATOM     71  O   UNL A   1      40.968  18.932  25.760  1.00  0.00    -0.237 OA
ATOM     72  O   UNL A   1      43.269  18.395  25.055  1.00  0.00    -0.744 OA
ENDBRANCH  68  69
ENDBRANCH  49  63
BRANCH  50  73
ATOM     73  C   UNL A   1      46.337  32.683  28.492  1.00  0.00    -0.014 A 
ATOM     74  C   UNL A   1      46.831  33.039  29.760  1.00  0.00     0.010 A 
ATOM     75  C   UNL A   1      46.217  33.681  27.506  1.00  0.00     0.010 A 
ATOM     76  C   UNL A   1      47.160  34.369  30.047  1.00  0.00     0.020 A 
ATOM     77  C   UNL A   1      46.579  35.003  27.777  1.00  0.00     0.020 A 
ATOM     78  C   UNL A   1      47.031  35.343  29.053  1.00  0.00     0.054 A 
BRANCH  78  79
ATOM     79  S   UNL A   1      47.482  37.057  29.442  1.00  0.00     0.124 S 
ATOM     80  O   UNL A   1      46.174  37.688  29.590  1.00  0.00    -0.237 OA
ATOM     81  O   UNL A   1      48.255  36.907  30.673  1.00  0.00    -0.237 OA
ATOM     82  O   UNL A   1      48.253  37.481  28.276  1.00  0.00    -0.744 OA
ENDBRANCH  78  79
ENDBRANCH  50  73
BRANCH  62  83
ATOM     83  C   UNL A   1      49.643  27.126  25.880  1.00  0.00    -0.014 A 
ATOM     84  C   UNL A   1      50.711  26.807  26.738  1.00  0.00     0.010 A 
ATOM     85  C   UNL A   1      49.892  27.249  24.500  1.00  0.00     0.010 A 
ATOM     86  C   UNL A   1      52.011  26.677  26.235  1.00  0.00     0.020 A 
ATOM     87  C   UNL A   1      51.182  27.084  23.989  1.00  0.00     0.020 A 
ATOM     88  C   UNL A   1      52.238  26.823  24.864  1.00  0.00     0.054 A 
BRANCH  88  89
ATOM     89  S   UNL A   1      53.932  26.650  24.236  1.00  0.00     0.124 S 
ATOM     90  O   UNL A   1      54.700  27.403  25.224  1.00  0.00    -0.237 OA
ATOM     91  O   UNL A   1      54.133  25.203  24.252  1.00  0.00    -0.237 OA
ATOM     92  O   UNL A   1      53.872  27.250  22.905  1.00  0.00    -0.744 OA
ENDBRANCH  88  89
ENDBRANCH  62  83
ENDBRANCH  36  37
ENDBRANCH  29  31
ENDBRANCH  28  29
ENDBRANCH  27  28
ENDBRANCH  26  27
ENDBRANCH  25  26
ENDBRANCH   1  25
TORSDOF 21
ENDMDL
