MODEL 1
REMARK VINA RESULT:      -9.8      0.000      0.000
REMARK SMILES Cc1cc(NC(=O)CC2(CC(=O)OCCOCCOCCOC(=O)c3ccc(-c4c5nc(c(-c6ccc(S(=O)(=O)[O-])cc6)c6ccc([nH]6)c(-c6ccc(S(=O)(=O)[O-])cc6)c6nc(c(-c7ccc(S(=O)(=O)[O-])cc7)c7ccc4[nH]7)C=C6)C=C5)cc3)CCCC2)ccn1
REMARK SMILES IDX 17 1 16 2 15 3 14 4 13 5 11 6 12 7 10 8 9 9 85 10 88 11
REMARK SMILES IDX 86 12 87 13 8 14 6 15 5 16 7 18 4 19 1 20 2 21 3 22 91 23
REMARK SMILES IDX 90 24 89 25 18 26 19 27 20 28 21 29 22 30 23 31 24 32 25 33
REMARK SMILES IDX 26 34 84 35 27 36 83 37 28 38 29 39 30 40 77 41 31 42 82 43
REMARK SMILES IDX 76 44 78 45 32 46 81 47 75 48 74 49 33 51 63 52 44 53 62 54
REMARK SMILES IDX 45 55 48 56 61 57 79 58 46 59 47 60 60 62 80 63 49 64 34 65
REMARK SMILES IDX 35 66 43 67 36 68 42 69 37 70 38 71 39 72 40 73 41 74 64 75
REMARK SMILES IDX 65 76 73 77 66 78 72 79 67 80 68 81 69 82 70 83 71 84 50 85
REMARK SMILES IDX 51 86 59 87 52 88 58 89 53 90 54 91 55 92 56 93 57 94
REMARK H PARENT 5 17 78 50 48 61
REMARK Flexibility Score: inf
ROOT
ATOM      1  C   UNL A   1      34.112  31.522  27.719  1.00  0.00     0.188 C 
ENDROOT
BRANCH   1   2
ATOM      2  O   UNL A   1      33.083  30.560  27.565  1.00  0.00    -0.376 OA
BRANCH   2   3
ATOM      3  C   UNL A   1      33.015  29.855  26.340  1.00  0.00     0.202 C 
BRANCH   3   4
ATOM      4  C   UNL A   1      31.663  29.258  25.927  1.00  0.00     0.261 C 
BRANCH   4   5
ATOM      5  O   UNL A   1      31.463  29.035  24.510  1.00  0.00    -0.463 OA
BRANCH   5   6
ATOM      6  C   UNL A   1      30.781  27.904  24.197  1.00  0.00     0.306 C 
ATOM      7  O   UNL A   1      30.059  27.800  23.208  1.00  0.00    -0.252 OA
BRANCH   6   8
ATOM      8  C   UNL A   1      30.843  26.769  25.209  1.00  0.00     0.130 C 
BRANCH   8   9
ATOM      9  C   UNL A   1      31.655  25.440  25.085  1.00  0.00    -0.011 C 
ATOM     10  C   UNL A   1      32.730  25.481  26.201  1.00  0.00     0.008 C 
ATOM     11  C   UNL A   1      32.560  25.372  23.837  1.00  0.00     0.008 C 
ATOM     12  C   UNL A   1      33.881  26.320  25.652  1.00  0.00     0.001 C 
ATOM     13  C   UNL A   1      33.773  26.242  24.134  1.00  0.00     0.001 C 
BRANCH   9  14
ATOM     14  C   UNL A   1      30.744  24.188  25.156  1.00  0.00     0.108 C 
BRANCH  14  15
ATOM     15  C   UNL A   1      30.731  23.320  26.401  1.00  0.00     0.224 C 
ATOM     16  N   UNL A   1      31.481  22.196  26.565  1.00  0.00    -0.326 N 
ATOM     17  H   UNL A   1      31.203  21.651  27.337  1.00  0.00     0.169 HD
ATOM     18  O   UNL A   1      29.987  23.636  27.336  1.00  0.00    -0.275 OA
BRANCH  16  19
ATOM     19  C   UNL A   1      32.568  21.651  25.861  1.00  0.00     0.044 A 
ATOM     20  C   UNL A   1      32.961  18.513  23.795  1.00  0.00     0.067 C 
ATOM     21  C   UNL A   1      33.280  19.790  24.513  1.00  0.00     0.039 A 
ATOM     22  C   UNL A   1      32.254  20.578  25.023  1.00  0.00     0.049 A 
ATOM     23  N   UNL A   1      34.584  20.061  24.744  1.00  0.00    -0.261 NA
ATOM     24  C   UNL A   1      34.863  21.169  25.462  1.00  0.00     0.113 A 
ATOM     25  C   UNL A   1      33.901  21.995  26.023  1.00  0.00     0.046 A 
ENDBRANCH  16  19
ENDBRANCH  14  15
ENDBRANCH   9  14
ENDBRANCH   8   9
ENDBRANCH   6   8
ENDBRANCH   5   6
ENDBRANCH   4   5
ENDBRANCH   3   4
ENDBRANCH   2   3
ENDBRANCH   1   2
BRANCH   1  26
ATOM     26  C   UNL A   1      33.732  32.984  28.000  1.00  0.00     0.188 C 
BRANCH  26  27
ATOM     27  O   UNL A   1      34.124  33.477  29.271  1.00  0.00    -0.376 OA
BRANCH  27  28
ATOM     28  C   UNL A   1      35.428  33.048  29.658  1.00  0.00     0.202 C 
BRANCH  28  29
ATOM     29  C   UNL A   1      35.348  32.374  31.033  1.00  0.00     0.261 C 
BRANCH  29  30
ATOM     30  O   UNL A   1      36.020  31.095  31.116  1.00  0.00    -0.460 OA
BRANCH  30  31
ATOM     31  C   UNL A   1      37.069  31.005  31.967  1.00  0.00     0.338 C 
ATOM     32  O   UNL A   1      37.014  31.093  33.186  1.00  0.00    -0.246 OA
BRANCH  31  33
ATOM     33  C   UNL A   1      38.264  30.508  31.230  1.00  0.00     0.060 A 
ATOM     34  C   UNL A   1      39.356  30.042  31.977  1.00  0.00     0.016 A 
ATOM     35  C   UNL A   1      38.329  30.484  29.837  1.00  0.00     0.016 A 
ATOM     36  C   UNL A   1      40.517  29.580  31.346  1.00  0.00     0.010 A 
ATOM     37  C   UNL A   1      39.505  30.046  29.204  1.00  0.00     0.010 A 
ATOM     38  C   UNL A   1      40.622  29.619  29.951  1.00  0.00    -0.014 A 
BRANCH  38  39
ATOM     39  C   UNL A   1      41.942  29.402  29.285  1.00  0.00     0.031 A 
ATOM     40  C   UNL A   1      42.246  28.035  28.719  1.00  0.00     0.074 A 
ATOM     41  C   UNL A   1      42.857  30.382  29.140  1.00  0.00     0.049 A 
ATOM     42  N   UNL A   1      43.357  27.575  28.200  1.00  0.00    -0.248 NA
ATOM     43  C   UNL A   1      41.144  27.060  28.739  1.00  0.00     0.031 C 
ATOM     44  C   UNL A   1      42.685  31.777  29.540  1.00  0.00     0.029 A 
ATOM     45  N   UNL A   1      44.130  30.342  28.613  1.00  0.00    -0.354 N 
ATOM     46  C   UNL A   1      43.097  26.251  27.859  1.00  0.00     0.074 A 
ATOM     47  C   UNL A   1      41.729  25.979  28.245  1.00  0.00     0.031 C 
ATOM     48  C   UNL A   1      43.812  32.456  29.255  1.00  0.00     0.029 A 
ATOM     49  C   UNL A   1      44.807  31.538  28.699  1.00  0.00     0.049 A 
ATOM     50  H   UNL A   1      44.520  29.533  28.210  1.00  0.00     0.167 HD
ATOM     51  C   UNL A   1      43.917  25.340  27.281  1.00  0.00     0.031 A 
ATOM     52  C   UNL A   1      46.086  31.855  28.401  1.00  0.00     0.031 A 
ATOM     53  C   UNL A   1      45.277  25.599  26.890  1.00  0.00     0.049 A 
ATOM     54  C   UNL A   1      47.016  30.796  27.854  1.00  0.00     0.074 A 
ATOM     55  C   UNL A   1      46.179  24.730  26.298  1.00  0.00     0.029 A 
ATOM     56  N   UNL A   1      45.937  26.807  27.051  1.00  0.00    -0.354 N 
ATOM     57  N   UNL A   1      46.761  29.544  27.555  1.00  0.00    -0.248 NA
ATOM     58  C   UNL A   1      48.409  31.196  27.600  1.00  0.00     0.031 C 
ATOM     59  C   UNL A   1      47.403  25.392  26.161  1.00  0.00     0.029 A 
ATOM     60  C   UNL A   1      47.242  26.697  26.596  1.00  0.00     0.049 A 
ATOM     61  H   UNL A   1      45.538  27.622  27.433  1.00  0.00     0.167 HD
ATOM     62  C   UNL A   1      47.950  29.022  27.050  1.00  0.00     0.074 A 
ATOM     63  C   UNL A   1      48.921  30.094  27.070  1.00  0.00     0.031 C 
ATOM     64  C   UNL A   1      48.208  27.767  26.604  1.00  0.00     0.031 A 
BRANCH  51  65
ATOM     65  C   UNL A   1      43.377  23.947  27.077  1.00  0.00    -0.014 A 
ATOM     66  C   UNL A   1      43.136  23.085  28.162  1.00  0.00     0.010 A 
ATOM     67  C   UNL A   1      43.060  23.516  25.775  1.00  0.00     0.010 A 
ATOM     68  C   UNL A   1      42.626  21.802  27.942  1.00  0.00     0.020 A 
ATOM     69  C   UNL A   1      42.519  22.246  25.556  1.00  0.00     0.020 A 
ATOM     70  C   UNL A   1      42.322  21.391  26.640  1.00  0.00     0.054 A 
BRANCH  70  71
ATOM     71  S   UNL A   1      41.641  19.729  26.389  1.00  0.00     0.124 S 
ATOM     72  O   UNL A   1      40.224  20.014  26.172  1.00  0.00    -0.237 OA
ATOM     73  O   UNL A   1      42.372  19.258  25.215  1.00  0.00    -0.237 OA
ATOM     74  O   UNL A   1      41.952  19.033  27.635  1.00  0.00    -0.744 OA
ENDBRANCH  70  71
ENDBRANCH  51  65
BRANCH  52  75
ATOM     75  C   UNL A   1      46.600  33.234  28.656  1.00  0.00    -0.014 A 
ATOM     76  C   UNL A   1      47.188  33.573  29.888  1.00  0.00     0.010 A 
ATOM     77  C   UNL A   1      46.468  34.232  27.672  1.00  0.00     0.010 A 
ATOM     78  C   UNL A   1      47.611  34.883  30.140  1.00  0.00     0.020 A 
ATOM     79  C   UNL A   1      46.920  35.534  27.905  1.00  0.00     0.020 A 
ATOM     80  C   UNL A   1      47.478  35.856  29.144  1.00  0.00     0.054 A 
BRANCH  80  81
ATOM     81  S   UNL A   1      48.071  37.539  29.477  1.00  0.00     0.124 S 
ATOM     82  O   UNL A   1      46.980  38.355  28.952  1.00  0.00    -0.237 OA
ATOM     83  O   UNL A   1      48.219  37.539  30.929  1.00  0.00    -0.237 OA
ATOM     84  O   UNL A   1      49.323  37.615  28.728  1.00  0.00    -0.744 OA
ENDBRANCH  80  81
ENDBRANCH  52  75
BRANCH  64  85
ATOM     85  C   UNL A   1      49.580  27.478  26.043  1.00  0.00    -0.014 A 
ATOM     86  C   UNL A   1      50.604  26.930  26.836  1.00  0.00     0.010 A 
ATOM     87  C   UNL A   1      49.825  27.696  24.674  1.00  0.00     0.010 A 
ATOM     88  C   UNL A   1      51.853  26.634  26.277  1.00  0.00     0.020 A 
ATOM     89  C   UNL A   1      51.060  27.373  24.104  1.00  0.00     0.020 A 
ATOM     90  C   UNL A   1      52.072  26.855  24.913  1.00  0.00     0.054 A 
BRANCH  90  91
ATOM     91  S   UNL A   1      53.683  26.416  24.203  1.00  0.00     0.124 S 
ATOM     92  O   UNL A   1      54.340  27.716  24.107  1.00  0.00    -0.237 OA
ATOM     93  O   UNL A   1      54.236  25.504  25.202  1.00  0.00    -0.237 OA
ATOM     94  O   UNL A   1      53.342  25.796  22.924  1.00  0.00    -0.744 OA
ENDBRANCH  90  91
ENDBRANCH  64  85
ENDBRANCH  38  39
ENDBRANCH  31  33
ENDBRANCH  30  31
ENDBRANCH  29  30
ENDBRANCH  28  29
ENDBRANCH  27  28
ENDBRANCH  26  27
ENDBRANCH   1  26
TORSDOF 24
ENDMDL
MODEL 2
REMARK VINA RESULT:      -9.4      5.706     11.709
REMARK SMILES Cc1cc(NC(=O)CC2(CC(=O)OCCOCCOCCOC(=O)c3ccc(-c4c5nc(c(-c6ccc(S(=O)(=O)[O-])cc6)c6ccc([nH]6)c(-c6ccc(S(=O)(=O)[O-])cc6)c6nc(c(-c7ccc(S(=O)(=O)[O-])cc7)c7ccc4[nH]7)C=C6)C=C5)cc3)CCCC2)ccn1
REMARK SMILES IDX 17 1 16 2 15 3 14 4 13 5 11 6 12 7 10 8 9 9 85 10 88 11
REMARK SMILES IDX 86 12 87 13 8 14 6 15 5 16 7 18 4 19 1 20 2 21 3 22 91 23
REMARK SMILES IDX 90 24 89 25 18 26 19 27 20 28 21 29 22 30 23 31 24 32 25 33
REMARK SMILES IDX 26 34 84 35 27 36 83 37 28 38 29 39 30 40 77 41 31 42 82 43
REMARK SMILES IDX 76 44 78 45 32 46 81 47 75 48 74 49 33 51 63 52 44 53 62 54
REMARK SMILES IDX 45 55 48 56 61 57 79 58 46 59 47 60 60 62 80 63 49 64 34 65
REMARK SMILES IDX 35 66 43 67 36 68 42 69 37 70 38 71 39 72 40 73 41 74 64 75
REMARK SMILES IDX 65 76 73 77 66 78 72 79 67 80 68 81 69 82 70 83 71 84 50 85
REMARK SMILES IDX 51 86 59 87 52 88 58 89 53 90 54 91 55 92 56 93 57 94
REMARK H PARENT 5 17 78 50 48 61
REMARK Flexibility Score: inf
ROOT
ATOM      1  C   UNL A   1      41.040  21.219  26.995  1.00  0.00     0.188 C 
ENDROOT
BRANCH   1   2
ATOM      2  O   UNL A   1      40.247  21.893  26.033  1.00  0.00    -0.376 OA
BRANCH   2   3
ATOM      3  C   UNL A   1      39.123  22.618  26.495  1.00  0.00     0.202 C 
BRANCH   3   4
ATOM      4  C   UNL A   1      37.834  22.554  25.663  1.00  0.00     0.261 C 
BRANCH   4   5
ATOM      5  O   UNL A   1      36.695  23.282  26.182  1.00  0.00    -0.463 OA
BRANCH   5   6
ATOM      6  C   UNL A   1      35.889  23.836  25.241  1.00  0.00     0.306 C 
ATOM      7  O   UNL A   1      36.041  23.667  24.034  1.00  0.00    -0.252 OA
BRANCH   6   8
ATOM      8  C   UNL A   1      34.828  24.807  25.740  1.00  0.00     0.130 C 
BRANCH   8   9
ATOM      9  C   UNL A   1      33.365  24.955  25.214  1.00  0.00    -0.011 C 
ATOM     10  C   UNL A   1      33.467  25.650  23.833  1.00  0.00     0.008 C 
ATOM     11  C   UNL A   1      32.523  25.995  25.982  1.00  0.00     0.008 C 
ATOM     12  C   UNL A   1      33.591  27.145  24.117  1.00  0.00     0.001 C 
ATOM     13  C   UNL A   1      32.978  27.364  25.495  1.00  0.00     0.001 C 
BRANCH   9  14
ATOM     14  C   UNL A   1      32.621  23.595  25.163  1.00  0.00     0.108 C 
BRANCH  14  15
ATOM     15  C   UNL A   1      32.439  22.774  26.426  1.00  0.00     0.224 C 
ATOM     16  N   UNL A   1      32.695  21.441  26.524  1.00  0.00    -0.326 N 
ATOM     17  H   UNL A   1      32.334  21.033  27.345  1.00  0.00     0.169 HD
ATOM     18  O   UNL A   1      32.020  23.337  27.444  1.00  0.00    -0.275 OA
BRANCH  16  19
ATOM     19  C   UNL A   1      33.367  20.525  25.696  1.00  0.00     0.044 A 
ATOM     20  C   UNL A   1      32.701  16.913  24.812  1.00  0.00     0.067 C 
ATOM     21  C   UNL A   1      33.358  18.260  24.889  1.00  0.00     0.039 A 
ATOM     22  C   UNL A   1      32.677  19.337  25.444  1.00  0.00     0.049 A 
ATOM     23  N   UNL A   1      34.656  18.336  24.519  1.00  0.00    -0.261 NA
ATOM     24  C   UNL A   1      35.267  19.530  24.668  1.00  0.00     0.113 A 
ATOM     25  C   UNL A   1      34.667  20.646  25.231  1.00  0.00     0.046 A 
ENDBRANCH  16  19
ENDBRANCH  14  15
ENDBRANCH   9  14
ENDBRANCH   8   9
ENDBRANCH   6   8
ENDBRANCH   5   6
ENDBRANCH   4   5
ENDBRANCH   3   4
ENDBRANCH   2   3
ENDBRANCH   1   2
BRANCH   1  26
ATOM     26  C   UNL A   1      42.510  20.915  26.672  1.00  0.00     0.188 C 
BRANCH  26  27
ATOM     27  O   UNL A   1      43.024  21.568  25.522  1.00  0.00    -0.376 OA
BRANCH  27  28
ATOM     28  C   UNL A   1      44.240  22.269  25.775  1.00  0.00     0.202 C 
BRANCH  28  29
ATOM     29  C   UNL A   1      44.055  23.169  27.003  1.00  0.00     0.261 C 
BRANCH  29  30
ATOM     30  O   UNL A   1      44.151  24.587  26.729  1.00  0.00    -0.460 OA
BRANCH  30  31
ATOM     31  C   UNL A   1      43.024  25.212  26.314  1.00  0.00     0.338 C 
ATOM     32  O   UNL A   1      42.383  24.942  25.307  1.00  0.00    -0.246 OA
BRANCH  31  33
ATOM     33  C   UNL A   1      42.519  26.096  27.400  1.00  0.00     0.060 A 
ATOM     34  C   UNL A   1      43.218  27.283  27.666  1.00  0.00     0.016 A 
ATOM     35  C   UNL A   1      41.381  25.791  28.147  1.00  0.00     0.016 A 
ATOM     36  C   UNL A   1      42.808  28.148  28.687  1.00  0.00     0.010 A 
ATOM     37  C   UNL A   1      40.986  26.646  29.191  1.00  0.00     0.010 A 
ATOM     38  C   UNL A   1      41.712  27.817  29.492  1.00  0.00    -0.014 A 
BRANCH  38  39
ATOM     39  C   UNL A   1      41.439  28.576  30.750  1.00  0.00     0.031 A 
ATOM     40  C   UNL A   1      40.289  29.556  30.764  1.00  0.00     0.074 A 
ATOM     41  C   UNL A   1      42.153  28.399  31.880  1.00  0.00     0.049 A 
ATOM     42  N   UNL A   1      39.928  30.406  31.692  1.00  0.00    -0.248 NA
ATOM     43  C   UNL A   1      39.430  29.571  29.569  1.00  0.00     0.031 C 
ATOM     44  C   UNL A   1      43.229  27.428  32.066  1.00  0.00     0.029 A 
ATOM     45  N   UNL A   1      42.077  29.048  33.093  1.00  0.00    -0.354 N 
ATOM     46  C   UNL A   1      38.821  31.077  31.183  1.00  0.00     0.074 A 
ATOM     47  C   UNL A   1      38.580  30.545  29.858  1.00  0.00     0.031 C 
ATOM     48  C   UNL A   1      43.720  27.552  33.313  1.00  0.00     0.029 A 
ATOM     49  C   UNL A   1      43.030  28.645  34.001  1.00  0.00     0.049 A 
ATOM     50  H   UNL A   1      41.403  29.736  33.293  1.00  0.00     0.167 HD
ATOM     51  C   UNL A   1      38.071  32.048  31.757  1.00  0.00     0.031 A 
ATOM     52  C   UNL A   1      43.340  29.117  35.228  1.00  0.00     0.031 A 
ATOM     53  C   UNL A   1      38.298  32.583  33.074  1.00  0.00     0.049 A 
ATOM     54  C   UNL A   1      42.557  30.273  35.809  1.00  0.00     0.074 A 
ATOM     55  C   UNL A   1      37.584  33.570  33.733  1.00  0.00     0.029 A 
ATOM     56  N   UNL A   1      39.310  32.185  33.933  1.00  0.00    -0.354 N 
ATOM     57  N   UNL A   1      41.525  30.910  35.308  1.00  0.00    -0.248 NA
ATOM     58  C   UNL A   1      42.980  30.772  37.128  1.00  0.00     0.031 C 
ATOM     59  C   UNL A   1      38.203  33.815  34.962  1.00  0.00     0.029 A 
ATOM     60  C   UNL A   1      39.256  32.926  35.103  1.00  0.00     0.049 A 
ATOM     61  H   UNL A   1      39.969  31.479  33.740  1.00  0.00     0.167 HD
ATOM     62  C   UNL A   1      41.160  31.857  36.263  1.00  0.00     0.074 A 
ATOM     63  C   UNL A   1      42.070  31.703  37.376  1.00  0.00     0.031 C 
ATOM     64  C   UNL A   1      40.155  32.767  36.218  1.00  0.00     0.031 A 
BRANCH  51  65
ATOM     65  C   UNL A   1      36.950  32.639  30.940  1.00  0.00    -0.014 A 
ATOM     66  C   UNL A   1      37.188  33.636  29.977  1.00  0.00     0.010 A 
ATOM     67  C   UNL A   1      35.642  32.148  31.108  1.00  0.00     0.010 A 
ATOM     68  C   UNL A   1      36.131  34.157  29.227  1.00  0.00     0.020 A 
ATOM     69  C   UNL A   1      34.588  32.644  30.337  1.00  0.00     0.020 A 
ATOM     70  C   UNL A   1      34.837  33.659  29.413  1.00  0.00     0.054 A 
BRANCH  70  71
ATOM     71  S   UNL A   1      33.488  34.341  28.409  1.00  0.00     0.124 S 
ATOM     72  O   UNL A   1      32.569  34.831  29.433  1.00  0.00    -0.237 OA
ATOM     73  O   UNL A   1      34.164  35.374  27.627  1.00  0.00    -0.237 OA
ATOM     74  O   UNL A   1      33.011  33.193  27.642  1.00  0.00    -0.744 OA
ENDBRANCH  70  71
ENDBRANCH  51  65
BRANCH  52  75
ATOM     75  C   UNL A   1      44.484  28.537  35.994  1.00  0.00    -0.014 A 
ATOM     76  C   UNL A   1      44.288  27.485  36.906  1.00  0.00     0.010 A 
ATOM     77  C   UNL A   1      45.779  29.067  35.840  1.00  0.00     0.010 A 
ATOM     78  C   UNL A   1      45.355  26.989  37.663  1.00  0.00     0.020 A 
ATOM     79  C   UNL A   1      46.856  28.553  36.570  1.00  0.00     0.020 A 
ATOM     80  C   UNL A   1      46.635  27.525  37.488  1.00  0.00     0.054 A 
BRANCH  80  81
ATOM     81  S   UNL A   1      48.012  26.840  38.451  1.00  0.00     0.124 S 
ATOM     82  O   UNL A   1      48.123  25.490  37.906  1.00  0.00    -0.237 OA
ATOM     83  O   UNL A   1      49.108  27.746  38.122  1.00  0.00    -0.237 OA
ATOM     84  O   UNL A   1      47.539  26.919  39.831  1.00  0.00    -0.744 OA
ENDBRANCH  80  81
ENDBRANCH  52  75
BRANCH  64  85
ATOM     85  C   UNL A   1      39.934  33.644  37.428  1.00  0.00    -0.014 A 
ATOM     86  C   UNL A   1      40.465  34.944  37.507  1.00  0.00     0.010 A 
ATOM     87  C   UNL A   1      39.118  33.179  38.477  1.00  0.00     0.010 A 
ATOM     88  C   UNL A   1      40.207  35.748  38.624  1.00  0.00     0.020 A 
ATOM     89  C   UNL A   1      38.833  33.990  39.580  1.00  0.00     0.020 A 
ATOM     90  C   UNL A   1      39.391  35.266  39.652  1.00  0.00     0.054 A 
BRANCH  90  91
ATOM     91  S   UNL A   1      39.032  36.348  41.064  1.00  0.00     0.124 S 
ATOM     92  O   UNL A   1      38.665  37.598  40.407  1.00  0.00    -0.237 OA
ATOM     93  O   UNL A   1      37.941  35.647  41.737  1.00  0.00    -0.237 OA
ATOM     94  O   UNL A   1      40.292  36.383  41.805  1.00  0.00    -0.744 OA
ENDBRANCH  90  91
ENDBRANCH  64  85
ENDBRANCH  38  39
ENDBRANCH  31  33
ENDBRANCH  30  31
ENDBRANCH  29  30
ENDBRANCH  28  29
ENDBRANCH  27  28
ENDBRANCH  26  27
ENDBRANCH   1  26
TORSDOF 24
ENDMDL
MODEL 3
REMARK VINA RESULT:      -9.3      2.606      9.275
REMARK SMILES Cc1cc(NC(=O)CC2(CC(=O)OCCOCCOCCOC(=O)c3ccc(-c4c5nc(c(-c6ccc(S(=O)(=O)[O-])cc6)c6ccc([nH]6)c(-c6ccc(S(=O)(=O)[O-])cc6)c6nc(c(-c7ccc(S(=O)(=O)[O-])cc7)c7ccc4[nH]7)C=C6)C=C5)cc3)CCCC2)ccn1
REMARK SMILES IDX 17 1 16 2 15 3 14 4 13 5 11 6 12 7 10 8 9 9 85 10 88 11
REMARK SMILES IDX 86 12 87 13 8 14 6 15 5 16 7 18 4 19 1 20 2 21 3 22 91 23
REMARK SMILES IDX 90 24 89 25 18 26 19 27 20 28 21 29 22 30 23 31 24 32 25 33
REMARK SMILES IDX 26 34 84 35 27 36 83 37 28 38 29 39 30 40 77 41 31 42 82 43
REMARK SMILES IDX 76 44 78 45 32 46 81 47 75 48 74 49 33 51 63 52 44 53 62 54
REMARK SMILES IDX 45 55 48 56 61 57 79 58 46 59 47 60 60 62 80 63 49 64 34 65
REMARK SMILES IDX 35 66 43 67 36 68 42 69 37 70 38 71 39 72 40 73 41 74 64 75
REMARK SMILES IDX 65 76 73 77 66 78 72 79 67 80 68 81 69 82 70 83 71 84 50 85
REMARK SMILES IDX 51 86 59 87 52 88 58 89 53 90 54 91 55 92 56 93 57 94
REMARK H PARENT 5 17 78 50 48 61
REMARK Flexibility Score: inf
ROOT
ATOM      1  C   UNL A   1      40.433  21.660  27.192  1.00  0.00     0.188 C 
ENDROOT
BRANCH   1   2
ATOM      2  O   UNL A   1      39.615  22.504  26.399  1.00  0.00    -0.376 OA
BRANCH   2   3
ATOM      3  C   UNL A   1      38.442  21.947  25.837  1.00  0.00     0.202 C 
BRANCH   3   4
ATOM      4  C   UNL A   1      37.215  22.855  25.685  1.00  0.00     0.261 C 
BRANCH   4   5
ATOM      5  O   UNL A   1      37.129  23.626  24.462  1.00  0.00    -0.463 OA
BRANCH   5   6
ATOM      6  C   UNL A   1      36.052  23.352  23.683  1.00  0.00     0.306 C 
ATOM      7  O   UNL A   1      36.136  22.989  22.513  1.00  0.00    -0.252 OA
BRANCH   6   8
ATOM      8  C   UNL A   1      34.684  23.636  24.289  1.00  0.00     0.130 C 
BRANCH   8   9
ATOM      9  C   UNL A   1      33.429  22.707  24.258  1.00  0.00    -0.011 C 
ATOM     10  C   UNL A   1      32.703  22.912  25.611  1.00  0.00     0.008 C 
ATOM     11  C   UNL A   1      33.759  21.203  24.349  1.00  0.00     0.008 C 
ATOM     12  C   UNL A   1      33.424  22.023  26.620  1.00  0.00     0.001 C 
ATOM     13  C   UNL A   1      34.096  20.922  25.808  1.00  0.00     0.001 C 
BRANCH   9  14
ATOM     14  C   UNL A   1      32.526  22.984  23.028  1.00  0.00     0.108 C 
BRANCH  14  15
ATOM     15  C   UNL A   1      32.638  24.297  22.276  1.00  0.00     0.224 C 
ATOM     16  N   UNL A   1      32.067  25.467  22.676  1.00  0.00    -0.326 N 
ATOM     17  H   UNL A   1      32.069  26.161  21.977  1.00  0.00     0.169 HD
ATOM     18  O   UNL A   1      33.280  24.323  21.221  1.00  0.00    -0.275 OA
BRANCH  16  19
ATOM     19  C   UNL A   1      31.473  25.888  23.878  1.00  0.00     0.044 A 
ATOM     20  C   UNL A   1      32.821  27.741  26.882  1.00  0.00     0.067 C 
ATOM     21  C   UNL A   1      31.890  26.995  25.972  1.00  0.00     0.039 A 
ATOM     22  C   UNL A   1      32.251  26.753  24.652  1.00  0.00     0.049 A 
ATOM     23  N   UNL A   1      30.772  26.474  26.525  1.00  0.00    -0.261 NA
ATOM     24  C   UNL A   1      29.979  25.734  25.723  1.00  0.00     0.113 A 
ATOM     25  C   UNL A   1      30.275  25.429  24.403  1.00  0.00     0.046 A 
ENDBRANCH  16  19
ENDBRANCH  14  15
ENDBRANCH   9  14
ENDBRANCH   8   9
ENDBRANCH   6   8
ENDBRANCH   5   6
ENDBRANCH   4   5
ENDBRANCH   3   4
ENDBRANCH   2   3
ENDBRANCH   1   2
BRANCH   1  26
ATOM     26  C   UNL A   1      40.945  20.341  26.595  1.00  0.00     0.188 C 
BRANCH  26  27
ATOM     27  O   UNL A   1      42.350  20.153  26.660  1.00  0.00    -0.376 OA
BRANCH  27  28
ATOM     28  C   UNL A   1      42.728  18.777  26.663  1.00  0.00     0.202 C 
BRANCH  28  29
ATOM     29  C   UNL A   1      43.376  18.431  25.317  1.00  0.00     0.261 C 
BRANCH  29  30
ATOM     30  O   UNL A   1      44.678  19.026  25.105  1.00  0.00    -0.460 OA
BRANCH  30  31
ATOM     31  C   UNL A   1      44.777  19.960  24.131  1.00  0.00     0.338 C 
ATOM     32  O   UNL A   1      44.573  19.778  22.938  1.00  0.00    -0.246 OA
BRANCH  31  33
ATOM     33  C   UNL A   1      44.903  21.309  24.749  1.00  0.00     0.060 A 
ATOM     34  C   UNL A   1      44.633  22.430  23.950  1.00  0.00     0.016 A 
ATOM     35  C   UNL A   1      45.266  21.491  26.083  1.00  0.00     0.016 A 
ATOM     36  C   UNL A   1      44.752  23.727  24.464  1.00  0.00     0.010 A 
ATOM     37  C   UNL A   1      45.411  22.794  26.591  1.00  0.00     0.010 A 
ATOM     38  C   UNL A   1      45.187  23.925  25.780  1.00  0.00    -0.014 A 
BRANCH  38  39
ATOM     39  C   UNL A   1      45.588  25.286  26.248  1.00  0.00     0.031 A 
ATOM     40  C   UNL A   1      44.515  26.212  26.773  1.00  0.00     0.074 A 
ATOM     41  C   UNL A   1      46.868  25.710  26.251  1.00  0.00     0.049 A 
ATOM     42  N   UNL A   1      44.599  27.469  27.128  1.00  0.00    -0.248 NA
ATOM     43  C   UNL A   1      43.170  25.634  26.921  1.00  0.00     0.031 C 
ATOM     44  C   UNL A   1      48.032  24.912  25.870  1.00  0.00     0.029 A 
ATOM     45  N   UNL A   1      47.400  26.936  26.587  1.00  0.00    -0.354 N 
ATOM     46  C   UNL A   1      43.314  27.841  27.513  1.00  0.00     0.074 A 
ATOM     47  C   UNL A   1      42.469  26.680  27.332  1.00  0.00     0.031 C 
ATOM     48  C   UNL A   1      49.138  25.672  25.983  1.00  0.00     0.029 A 
ATOM     49  C   UNL A   1      48.761  27.024  26.394  1.00  0.00     0.049 A 
ATOM     50  H   UNL A   1      46.858  27.680  26.935  1.00  0.00     0.167 HD
ATOM     51  C   UNL A   1      42.872  29.037  27.972  1.00  0.00     0.031 A 
ATOM     52  C   UNL A   1      49.603  28.075  26.501  1.00  0.00     0.031 A 
ATOM     53  C   UNL A   1      43.702  30.197  28.158  1.00  0.00     0.049 A 
ATOM     54  C   UNL A   1      49.071  29.428  26.914  1.00  0.00     0.074 A 
ATOM     55  C   UNL A   1      43.333  31.450  28.619  1.00  0.00     0.029 A 
ATOM     56  N   UNL A   1      45.061  30.256  27.894  1.00  0.00    -0.354 N 
ATOM     57  N   UNL A   1      47.851  29.769  27.256  1.00  0.00    -0.248 NA
ATOM     58  C   UNL A   1      50.033  30.541  26.959  1.00  0.00     0.031 C 
ATOM     59  C   UNL A   1      44.454  32.284  28.572  1.00  0.00     0.029 A 
ATOM     60  C   UNL A   1      45.539  31.531  28.155  1.00  0.00     0.049 A 
ATOM     61  H   UNL A   1      45.606  29.504  27.569  1.00  0.00     0.167 HD
ATOM     62  C   UNL A   1      47.910  31.122  27.586  1.00  0.00     0.074 A 
ATOM     63  C   UNL A   1      49.285  31.535  27.417  1.00  0.00     0.031 C 
ATOM     64  C   UNL A   1      46.911  31.942  27.998  1.00  0.00     0.031 A 
BRANCH  51  65
ATOM     65  C   UNL A   1      41.398  29.170  28.262  1.00  0.00    -0.014 A 
ATOM     66  C   UNL A   1      40.907  29.200  29.579  1.00  0.00     0.010 A 
ATOM     67  C   UNL A   1      40.497  29.316  27.191  1.00  0.00     0.010 A 
ATOM     68  C   UNL A   1      39.537  29.334  29.818  1.00  0.00     0.020 A 
ATOM     69  C   UNL A   1      39.130  29.484  27.427  1.00  0.00     0.020 A 
ATOM     70  C   UNL A   1      38.656  29.474  28.739  1.00  0.00     0.054 A 
BRANCH  70  71
ATOM     71  S   UNL A   1      36.885  29.668  29.081  1.00  0.00     0.124 S 
ATOM     72  O   UNL A   1      36.786  29.165  30.449  1.00  0.00    -0.237 OA
ATOM     73  O   UNL A   1      36.687  31.107  28.926  1.00  0.00    -0.237 OA
ATOM     74  O   UNL A   1      36.242  28.839  28.064  1.00  0.00    -0.744 OA
ENDBRANCH  70  71
ENDBRANCH  51  65
BRANCH  52  75
ATOM     75  C   UNL A   1      51.050  27.919  26.164  1.00  0.00    -0.014 A 
ATOM     76  C   UNL A   1      51.526  28.182  24.866  1.00  0.00     0.010 A 
ATOM     77  C   UNL A   1      51.959  27.465  27.138  1.00  0.00     0.010 A 
ATOM     78  C   UNL A   1      52.872  27.974  24.544  1.00  0.00     0.020 A 
ATOM     79  C   UNL A   1      53.312  27.288  26.831  1.00  0.00     0.020 A 
ATOM     80  C   UNL A   1      53.758  27.531  25.531  1.00  0.00     0.054 A 
BRANCH  80  81
ATOM     81  S   UNL A   1      55.507  27.307  25.102  1.00  0.00     0.124 S 
ATOM     82  O   UNL A   1      55.543  25.906  24.693  1.00  0.00    -0.237 OA
ATOM     83  O   UNL A   1      55.697  28.283  24.033  1.00  0.00    -0.237 OA
ATOM     84  O   UNL A   1      56.207  27.613  26.347  1.00  0.00    -0.744 OA
ENDBRANCH  80  81
ENDBRANCH  52  75
BRANCH  64  85
ATOM     85  C   UNL A   1      47.262  33.367  28.356  1.00  0.00    -0.014 A 
ATOM     86  C   UNL A   1      47.186  34.408  27.413  1.00  0.00     0.010 A 
ATOM     87  C   UNL A   1      47.608  33.680  29.685  1.00  0.00     0.010 A 
ATOM     88  C   UNL A   1      47.477  35.725  27.785  1.00  0.00     0.020 A 
ATOM     89  C   UNL A   1      47.870  34.999  30.068  1.00  0.00     0.020 A 
ATOM     90  C   UNL A   1      47.815  36.012  29.111  1.00  0.00     0.054 A 
BRANCH  90  91
ATOM     91  S   UNL A   1      48.138  37.736  29.578  1.00  0.00     0.124 S 
ATOM     92  O   UNL A   1      46.789  38.283  29.684  1.00  0.00    -0.237 OA
ATOM     93  O   UNL A   1      48.860  37.596  30.841  1.00  0.00    -0.237 OA
ATOM     94  O   UNL A   1      48.934  38.255  28.467  1.00  0.00    -0.744 OA
ENDBRANCH  90  91
ENDBRANCH  64  85
ENDBRANCH  38  39
ENDBRANCH  31  33
ENDBRANCH  30  31
ENDBRANCH  29  30
ENDBRANCH  28  29
ENDBRANCH  27  28
ENDBRANCH  26  27
ENDBRANCH   1  26
TORSDOF 24
ENDMDL
