MODEL 1
REMARK VINA RESULT:      -9.4      0.000      0.000
REMARK SMILES C[C@@H](O)[C@@H](NC(=O)c1csc(-c2ccsc2)n1)C(=O)OCCOCCOCCOC(=O)c1ccc(-c2c3nc(c(-c4ccc(S(=O)(=O)[O-])cc4)c4ccc([nH]4)c(-c4ccc(S(=O)(=O)[O-])cc4)c4nc(c(-c5ccc(S(=O)(=O)[O-])cc5)c5ccc2[nH]5)C=C4)C=C3)cc1
REMARK SMILES IDX 24 1 23 2 22 3 21 4 20 5 18 6 19 7 4 8 2 9 1 10 3 11 5 13
REMARK SMILES IDX 6 14 7 16 8 17 9 18 17 19 10 20 11 21 12 22 13 23 16 24
REMARK SMILES IDX 14 25 15 26 25 27 26 28 27 29 28 30 29 31 30 32 31 33 32 34
REMARK SMILES IDX 33 35 91 36 34 37 90 38 35 39 36 40 37 41 84 42 38 43 89 44
REMARK SMILES IDX 83 45 85 46 39 47 88 48 82 49 81 50 40 52 70 53 51 54 69 55
REMARK SMILES IDX 52 56 55 57 68 58 86 59 53 60 54 61 67 63 87 64 56 65 41 66
REMARK SMILES IDX 42 67 50 68 43 69 49 70 44 71 45 72 46 73 47 74 48 75 71 76
REMARK SMILES IDX 72 77 80 78 73 79 79 80 74 81 75 82 76 83 77 84 78 85 57 86
REMARK SMILES IDX 58 87 66 88 59 89 65 90 60 91 61 92 62 93 63 94 64 95
REMARK H PARENT 3 12 5 15 85 51 55 62
REMARK Flexibility Score: inf
ROOT
ATOM      1  C   UNL A   1      34.225  32.208  28.563  1.00  0.00     0.188 C 
ENDROOT
BRANCH   1   2
ATOM      2  O   UNL A   1      34.794  31.154  27.791  1.00  0.00    -0.376 OA
BRANCH   2   3
ATOM      3  C   UNL A   1      34.045  29.983  27.534  1.00  0.00     0.202 C 
BRANCH   3   4
ATOM      4  C   UNL A   1      33.185  29.965  26.274  1.00  0.00     0.261 C 
BRANCH   4   5
ATOM      5  O   UNL A   1      32.020  29.140  26.141  1.00  0.00    -0.462 OA
BRANCH   5   6
ATOM      6  C   UNL A   1      31.366  29.198  24.937  1.00  0.00     0.331 C 
ATOM      7  O   UNL A   1      30.588  30.081  24.605  1.00  0.00    -0.250 OA
BRANCH   6   8
ATOM      8  C   UNL A   1      31.664  27.992  24.052  1.00  0.00     0.221 C 
BRANCH   8   9
ATOM      9  C   UNL A   1      30.374  27.669  23.221  1.00  0.00     0.145 C 
ATOM     10  C   UNL A   1      29.212  27.089  24.026  1.00  0.00     0.041 C 
BRANCH   9  11
ATOM     11  O   UNL A   1      29.856  28.855  22.603  1.00  0.00    -0.391 OA
ATOM     12  H   UNL A   1      28.903  28.920  22.775  1.00  0.00     0.211 HD
ENDBRANCH   9  11
ENDBRANCH   8   9
BRANCH   8  13
ATOM     13  N   UNL A   1      32.843  28.205  23.183  1.00  0.00    -0.335 N 
ATOM     14  C   UNL A   1      33.585  27.379  22.364  1.00  0.00     0.271 C 
ATOM     15  H   UNL A   1      33.169  29.134  23.192  1.00  0.00     0.164 HD
ATOM     16  O   UNL A   1      34.400  27.943  21.629  1.00  0.00    -0.267 OA
BRANCH  14  17
ATOM     17  C   UNL A   1      33.585  25.915  22.487  1.00  0.00     0.139 A 
ATOM     18  C   UNL A   1      32.903  25.123  21.575  1.00  0.00     0.101 A 
ATOM     19  N   UNL A   1      34.212  25.185  23.498  1.00  0.00    -0.231 NA
ATOM     20  S   UNL A   1      33.131  23.462  21.918  1.00  0.00    -0.122 S 
ATOM     21  C   UNL A   1      34.191  23.892  23.216  1.00  0.00     0.125 A 
BRANCH  21  22
ATOM     22  C   UNL A   1      35.157  22.906  23.842  1.00  0.00     0.021 A 
ATOM     23  C   UNL A   1      36.573  22.925  23.673  1.00  0.00     0.023 A 
ATOM     24  C   UNL A   1      34.755  21.789  24.554  1.00  0.00     0.076 A 
ATOM     25  C   UNL A   1      37.194  21.852  24.280  1.00  0.00     0.065 A 
ATOM     26  S   UNL A   1      36.072  20.791  25.014  1.00  0.00    -0.152 S 
ENDBRANCH  21  22
ENDBRANCH  14  17
ENDBRANCH   8  13
ENDBRANCH   6   8
ENDBRANCH   5   6
ENDBRANCH   4   5
ENDBRANCH   3   4
ENDBRANCH   2   3
ENDBRANCH   1   2
BRANCH   1  27
ATOM     27  C   UNL A   1      35.029  32.795  29.729  1.00  0.00     0.188 C 
BRANCH  27  28
ATOM     28  O   UNL A   1      34.322  32.932  30.940  1.00  0.00    -0.376 OA
BRANCH  28  29
ATOM     29  C   UNL A   1      34.947  32.634  32.171  1.00  0.00     0.202 C 
BRANCH  29  30
ATOM     30  C   UNL A   1      36.409  32.173  32.264  1.00  0.00     0.261 C 
BRANCH  30  31
ATOM     31  O   UNL A   1      36.680  30.771  32.427  1.00  0.00    -0.460 OA
BRANCH  31  32
ATOM     32  C   UNL A   1      36.716  29.982  31.336  1.00  0.00     0.338 C 
ATOM     33  O   UNL A   1      35.752  29.496  30.760  1.00  0.00    -0.246 OA
BRANCH  32  34
ATOM     34  C   UNL A   1      38.104  30.005  30.802  1.00  0.00     0.060 A 
ATOM     35  C   UNL A   1      38.297  30.166  29.422  1.00  0.00     0.016 A 
ATOM     36  C   UNL A   1      39.209  29.875  31.649  1.00  0.00     0.016 A 
ATOM     37  C   UNL A   1      39.580  30.104  28.879  1.00  0.00     0.010 A 
ATOM     38  C   UNL A   1      40.495  29.797  31.101  1.00  0.00     0.010 A 
ATOM     39  C   UNL A   1      40.679  29.847  29.708  1.00  0.00    -0.014 A 
BRANCH  39  40
ATOM     40  C   UNL A   1      41.952  29.386  29.095  1.00  0.00     0.031 A 
ATOM     41  C   UNL A   1      43.093  30.371  29.001  1.00  0.00     0.074 A 
ATOM     42  C   UNL A   1      42.129  28.113  28.696  1.00  0.00     0.049 A 
ATOM     43  N   UNL A   1      44.307  30.199  28.545  1.00  0.00    -0.248 NA
ATOM     44  C   UNL A   1      42.826  31.734  29.491  1.00  0.00     0.031 C 
ATOM     45  C   UNL A   1      41.126  27.052  28.776  1.00  0.00     0.029 A 
ATOM     46  N   UNL A   1      43.229  27.498  28.150  1.00  0.00    -0.354 N 
ATOM     47  C   UNL A   1      44.942  31.429  28.683  1.00  0.00     0.074 A 
ATOM     48  C   UNL A   1      43.969  32.349  29.229  1.00  0.00     0.031 C 
ATOM     49  C   UNL A   1      41.661  25.913  28.298  1.00  0.00     0.029 A 
ATOM     50  C   UNL A   1      43.030  26.170  27.854  1.00  0.00     0.049 A 
ATOM     51  H   UNL A   1      44.080  27.964  27.986  1.00  0.00     0.167 HD
ATOM     52  C   UNL A   1      46.222  31.766  28.396  1.00  0.00     0.031 A 
ATOM     53  C   UNL A   1      43.854  25.269  27.282  1.00  0.00     0.031 A 
ATOM     54  C   UNL A   1      47.187  30.854  27.842  1.00  0.00     0.049 A 
ATOM     55  C   UNL A   1      45.256  25.683  26.908  1.00  0.00     0.074 A 
ATOM     56  C   UNL A   1      48.512  31.093  27.525  1.00  0.00     0.029 A 
ATOM     57  N   UNL A   1      46.930  29.530  27.514  1.00  0.00    -0.354 N 
ATOM     58  N   UNL A   1      45.847  26.844  27.067  1.00  0.00    -0.248 NA
ATOM     59  C   UNL A   1      46.108  24.654  26.295  1.00  0.00     0.031 C 
ATOM     60  C   UNL A   1      49.039  29.934  26.945  1.00  0.00     0.029 A 
ATOM     61  C   UNL A   1      48.065  28.948  26.975  1.00  0.00     0.049 A 
ATOM     62  H   UNL A   1      46.069  29.073  27.647  1.00  0.00     0.167 HD
ATOM     63  C   UNL A   1      47.151  26.673  26.606  1.00  0.00     0.074 A 
ATOM     64  C   UNL A   1      47.264  25.294  26.180  1.00  0.00     0.031 C 
ATOM     65  C   UNL A   1      48.164  27.576  26.546  1.00  0.00     0.031 A 
BRANCH  52  66
ATOM     66  C   UNL A   1      46.640  33.194  28.640  1.00  0.00    -0.014 A 
ATOM     67  C   UNL A   1      47.263  33.582  29.841  1.00  0.00     0.010 A 
ATOM     68  C   UNL A   1      46.435  34.158  27.636  1.00  0.00     0.010 A 
ATOM     69  C   UNL A   1      47.638  34.914  30.046  1.00  0.00     0.020 A 
ATOM     70  C   UNL A   1      46.838  35.483  27.824  1.00  0.00     0.020 A 
ATOM     71  C   UNL A   1      47.423  35.855  29.035  1.00  0.00     0.054 A 
BRANCH  71  72
ATOM     72  S   UNL A   1      47.946  37.569  29.319  1.00  0.00     0.124 S 
ATOM     73  O   UNL A   1      49.306  37.390  29.820  1.00  0.00    -0.237 OA
ATOM     74  O   UNL A   1      47.840  38.160  27.987  1.00  0.00    -0.237 OA
ATOM     75  O   UNL A   1      46.984  38.070  30.298  1.00  0.00    -0.744 OA
ENDBRANCH  71  72
ENDBRANCH  52  66
BRANCH  53  76
ATOM     76  C   UNL A   1      43.377  23.882  27.020  1.00  0.00    -0.014 A 
ATOM     77  C   UNL A   1      42.831  23.526  25.774  1.00  0.00     0.010 A 
ATOM     78  C   UNL A   1      43.460  22.905  28.030  1.00  0.00     0.010 A 
ATOM     79  C   UNL A   1      42.360  22.228  25.549  1.00  0.00     0.020 A 
ATOM     80  C   UNL A   1      43.021  21.598  27.798  1.00  0.00     0.020 A 
ATOM     81  C   UNL A   1      42.463  21.271  26.562  1.00  0.00     0.054 A 
BRANCH  81  82
ATOM     82  S   UNL A   1      41.893  19.581  26.230  1.00  0.00     0.124 S 
ATOM     83  O   UNL A   1      40.453  19.769  26.077  1.00  0.00    -0.237 OA
ATOM     84  O   UNL A   1      42.619  19.238  25.009  1.00  0.00    -0.237 OA
ATOM     85  O   UNL A   1      42.304  18.840  27.419  1.00  0.00    -0.744 OA
ENDBRANCH  81  82
ENDBRANCH  53  76
BRANCH  65  86
ATOM     86  C   UNL A   1      49.501  27.085  26.046  1.00  0.00    -0.014 A 
ATOM     87  C   UNL A   1      49.841  27.124  24.681  1.00  0.00     0.010 A 
ATOM     88  C   UNL A   1      50.443  26.593  26.969  1.00  0.00     0.010 A 
ATOM     89  C   UNL A   1      51.072  26.624  24.245  1.00  0.00     0.020 A 
ATOM     90  C   UNL A   1      51.689  26.127  26.541  1.00  0.00     0.020 A 
ATOM     91  C   UNL A   1      51.985  26.122  25.178  1.00  0.00     0.054 A 
BRANCH  91  92
ATOM     92  S   UNL A   1      53.574  25.477  24.586  1.00  0.00     0.124 S 
ATOM     93  O   UNL A   1      54.516  26.092  25.517  1.00  0.00    -0.237 OA
ATOM     94  O   UNL A   1      53.406  24.033  24.726  1.00  0.00    -0.237 OA
ATOM     95  O   UNL A   1      53.654  25.959  23.210  1.00  0.00    -0.744 OA
ENDBRANCH  91  92
ENDBRANCH  65  86
ENDBRANCH  39  40
ENDBRANCH  32  34
ENDBRANCH  31  32
ENDBRANCH  30  31
ENDBRANCH  29  30
ENDBRANCH  28  29
ENDBRANCH  27  28
ENDBRANCH   1  27
TORSDOF 25
ENDMDL
MODEL 2
REMARK VINA RESULT:      -9.4      1.021      8.018
REMARK SMILES C[C@@H](O)[C@@H](NC(=O)c1csc(-c2ccsc2)n1)C(=O)OCCOCCOCCOC(=O)c1ccc(-c2c3nc(c(-c4ccc(S(=O)(=O)[O-])cc4)c4ccc([nH]4)c(-c4ccc(S(=O)(=O)[O-])cc4)c4nc(c(-c5ccc(S(=O)(=O)[O-])cc5)c5ccc2[nH]5)C=C4)C=C3)cc1
REMARK SMILES IDX 24 1 23 2 22 3 21 4 20 5 18 6 19 7 4 8 2 9 1 10 3 11 5 13
REMARK SMILES IDX 6 14 7 16 8 17 9 18 17 19 10 20 11 21 12 22 13 23 16 24
REMARK SMILES IDX 14 25 15 26 25 27 26 28 27 29 28 30 29 31 30 32 31 33 32 34
REMARK SMILES IDX 33 35 91 36 34 37 90 38 35 39 36 40 37 41 84 42 38 43 89 44
REMARK SMILES IDX 83 45 85 46 39 47 88 48 82 49 81 50 40 52 70 53 51 54 69 55
REMARK SMILES IDX 52 56 55 57 68 58 86 59 53 60 54 61 67 63 87 64 56 65 41 66
REMARK SMILES IDX 42 67 50 68 43 69 49 70 44 71 45 72 46 73 47 74 48 75 71 76
REMARK SMILES IDX 72 77 80 78 73 79 79 80 74 81 75 82 76 83 77 84 78 85 57 86
REMARK SMILES IDX 58 87 66 88 59 89 65 90 60 91 61 92 62 93 63 94 64 95
REMARK H PARENT 3 12 5 15 85 51 55 62
REMARK Flexibility Score: inf
ROOT
ATOM      1  C   UNL A   1      33.905  31.462  27.487  1.00  0.00     0.188 C 
ENDROOT
BRANCH   1   2
ATOM      2  O   UNL A   1      33.575  30.163  27.005  1.00  0.00    -0.376 OA
BRANCH   2   3
ATOM      3  C   UNL A   1      32.270  29.895  26.531  1.00  0.00     0.202 C 
BRANCH   3   4
ATOM      4  C   UNL A   1      32.140  29.332  25.119  1.00  0.00     0.261 C 
BRANCH   4   5
ATOM      5  O   UNL A   1      31.046  29.656  24.251  1.00  0.00    -0.462 OA
BRANCH   5   6
ATOM      6  C   UNL A   1      31.031  29.034  23.030  1.00  0.00     0.331 C 
ATOM      7  O   UNL A   1      30.744  29.575  21.972  1.00  0.00    -0.250 OA
BRANCH   6   8
ATOM      8  C   UNL A   1      31.355  27.547  23.129  1.00  0.00     0.221 C 
BRANCH   8   9
ATOM      9  C   UNL A   1      30.009  26.768  23.331  1.00  0.00     0.145 C 
ATOM     10  C   UNL A   1      29.884  26.023  24.660  1.00  0.00     0.041 C 
BRANCH   9  11
ATOM     11  O   UNL A   1      28.890  27.664  23.289  1.00  0.00    -0.391 OA
ATOM     12  H   UNL A   1      28.926  28.188  22.473  1.00  0.00     0.211 HD
ENDBRANCH   9  11
ENDBRANCH   8   9
BRANCH   8  13
ATOM     13  N   UNL A   1      32.108  27.052  21.954  1.00  0.00    -0.335 N 
ATOM     14  C   UNL A   1      32.673  25.837  21.626  1.00  0.00     0.271 C 
ATOM     15  H   UNL A   1      32.236  27.739  21.259  1.00  0.00     0.164 HD
ATOM     16  O   UNL A   1      33.069  25.726  20.463  1.00  0.00    -0.267 OA
BRANCH  14  17
ATOM     17  C   UNL A   1      32.992  24.805  22.622  1.00  0.00     0.139 A 
ATOM     18  C   UNL A   1      32.163  23.708  22.801  1.00  0.00     0.101 A 
ATOM     19  N   UNL A   1      34.092  24.818  23.480  1.00  0.00    -0.231 NA
ATOM     20  S   UNL A   1      32.810  22.637  23.969  1.00  0.00    -0.122 S 
ATOM     21  C   UNL A   1      34.200  23.658  24.111  1.00  0.00     0.125 A 
BRANCH  21  22
ATOM     22  C   UNL A   1      35.499  23.187  24.734  1.00  0.00     0.021 A 
ATOM     23  C   UNL A   1      36.202  23.865  25.774  1.00  0.00     0.023 A 
ATOM     24  C   UNL A   1      36.220  22.101  24.270  1.00  0.00     0.076 A 
ATOM     25  C   UNL A   1      37.404  23.260  26.082  1.00  0.00     0.065 A 
ATOM     26  S   UNL A   1      37.715  21.904  25.087  1.00  0.00    -0.152 S 
ENDBRANCH  21  22
ENDBRANCH  14  17
ENDBRANCH   8  13
ENDBRANCH   6   8
ENDBRANCH   5   6
ENDBRANCH   4   5
ENDBRANCH   3   4
ENDBRANCH   2   3
ENDBRANCH   1   2
BRANCH   1  27
ATOM     27  C   UNL A   1      34.808  31.591  28.720  1.00  0.00     0.188 C 
BRANCH  27  28
ATOM     28  O   UNL A   1      34.394  32.542  29.674  1.00  0.00    -0.376 OA
BRANCH  28  29
ATOM     29  C   UNL A   1      35.006  32.594  30.946  1.00  0.00     0.202 C 
BRANCH  29  30
ATOM     30  C   UNL A   1      36.483  32.231  31.165  1.00  0.00     0.261 C 
BRANCH  30  31
ATOM     31  O   UNL A   1      36.797  31.004  31.843  1.00  0.00    -0.460 OA
BRANCH  31  32
ATOM     32  C   UNL A   1      37.082  29.908  31.112  1.00  0.00     0.338 C 
ATOM     33  O   UNL A   1      36.285  29.054  30.746  1.00  0.00    -0.246 OA
BRANCH  32  34
ATOM     34  C   UNL A   1      38.476  30.041  30.616  1.00  0.00     0.060 A 
ATOM     35  C   UNL A   1      38.708  30.022  29.232  1.00  0.00     0.016 A 
ATOM     36  C   UNL A   1      39.550  30.187  31.499  1.00  0.00     0.016 A 
ATOM     37  C   UNL A   1      40.011  30.055  28.736  1.00  0.00     0.010 A 
ATOM     38  C   UNL A   1      40.859  30.205  31.000  1.00  0.00     0.010 A 
ATOM     39  C   UNL A   1      41.096  30.074  29.620  1.00  0.00    -0.014 A 
BRANCH  39  40
ATOM     40  C   UNL A   1      42.444  29.705  29.115  1.00  0.00     0.031 A 
ATOM     41  C   UNL A   1      42.661  28.287  28.642  1.00  0.00     0.074 A 
ATOM     42  C   UNL A   1      43.434  30.609  29.006  1.00  0.00     0.049 A 
ATOM     43  N   UNL A   1      43.730  27.735  28.128  1.00  0.00    -0.248 NA
ATOM     44  C   UNL A   1      41.516  27.370  28.766  1.00  0.00     0.031 C 
ATOM     45  C   UNL A   1      43.341  32.019  29.380  1.00  0.00     0.029 A 
ATOM     46  N   UNL A   1      44.717  30.469  28.533  1.00  0.00    -0.354 N 
ATOM     47  C   UNL A   1      43.389  26.410  27.877  1.00  0.00     0.074 A 
ATOM     48  C   UNL A   1      42.028  26.229  28.331  1.00  0.00     0.031 C 
ATOM     49  C   UNL A   1      44.518  32.616  29.119  1.00  0.00     0.029 A 
ATOM     50  C   UNL A   1      45.455  31.627  28.587  1.00  0.00     0.049 A 
ATOM     51  H   UNL A   1      45.074  29.619  28.189  1.00  0.00     0.167 HD
ATOM     52  C   UNL A   1      44.132  25.430  27.308  1.00  0.00     0.031 A 
ATOM     53  C   UNL A   1      46.741  31.861  28.253  1.00  0.00     0.031 A 
ATOM     54  C   UNL A   1      45.490  25.606  26.867  1.00  0.00     0.049 A 
ATOM     55  C   UNL A   1      47.572  30.738  27.683  1.00  0.00     0.074 A 
ATOM     56  C   UNL A   1      46.325  24.680  26.268  1.00  0.00     0.029 A 
ATOM     57  N   UNL A   1      46.215  26.783  26.982  1.00  0.00    -0.354 N 
ATOM     58  N   UNL A   1      47.226  29.497  27.432  1.00  0.00    -0.248 NA
ATOM     59  C   UNL A   1      48.963  31.057  27.333  1.00  0.00     0.031 C 
ATOM     60  C   UNL A   1      47.577  25.278  26.081  1.00  0.00     0.029 A 
ATOM     61  C   UNL A   1      47.496  26.600  26.489  1.00  0.00     0.049 A 
ATOM     62  H   UNL A   1      45.869  27.625  27.357  1.00  0.00     0.167 HD
ATOM     63  C   UNL A   1      48.348  28.898  26.862  1.00  0.00     0.074 A 
ATOM     64  C   UNL A   1      49.373  29.918  26.790  1.00  0.00     0.031 C 
ATOM     65  C   UNL A   1      48.512  27.621  26.431  1.00  0.00     0.031 A 
BRANCH  52  66
ATOM     66  C   UNL A   1      43.502  24.068  27.169  1.00  0.00    -0.014 A 
ATOM     67  C   UNL A   1      43.393  23.192  28.266  1.00  0.00     0.010 A 
ATOM     68  C   UNL A   1      42.978  23.669  25.925  1.00  0.00     0.010 A 
ATOM     69  C   UNL A   1      42.808  21.932  28.112  1.00  0.00     0.020 A 
ATOM     70  C   UNL A   1      42.363  22.423  25.774  1.00  0.00     0.020 A 
ATOM     71  C   UNL A   1      42.297  21.556  26.866  1.00  0.00     0.054 A 
BRANCH  71  72
ATOM     72  S   UNL A   1      41.518  19.925  26.703  1.00  0.00     0.124 S 
ATOM     73  O   UNL A   1      40.106  20.246  26.898  1.00  0.00    -0.237 OA
ATOM     74  O   UNL A   1      41.890  19.527  25.347  1.00  0.00    -0.237 OA
ATOM     75  O   UNL A   1      42.130  19.138  27.771  1.00  0.00    -0.744 OA
ENDBRANCH  71  72
ENDBRANCH  52  66
BRANCH  53  76
ATOM     76  C   UNL A   1      47.329  33.216  28.453  1.00  0.00    -0.014 A 
ATOM     77  C   UNL A   1      47.273  34.187  27.438  1.00  0.00     0.010 A 
ATOM     78  C   UNL A   1      47.962  33.537  29.668  1.00  0.00     0.010 A 
ATOM     79  C   UNL A   1      47.854  35.446  27.627  1.00  0.00     0.020 A 
ATOM     80  C   UNL A   1      48.515  34.805  29.873  1.00  0.00     0.020 A 
ATOM     81  C   UNL A   1      48.467  35.748  28.845  1.00  0.00     0.054 A 
BRANCH  81  82
ATOM     82  S   UNL A   1      49.168  37.404  29.085  1.00  0.00     0.124 S 
ATOM     83  O   UNL A   1      49.150  37.535  30.539  1.00  0.00    -0.237 OA
ATOM     84  O   UNL A   1      50.490  37.277  28.477  1.00  0.00    -0.237 OA
ATOM     85  O   UNL A   1      48.242  38.277  28.368  1.00  0.00    -0.744 OA
ENDBRANCH  81  82
ENDBRANCH  53  76
BRANCH  65  86
ATOM     86  C   UNL A   1      49.834  27.267  25.796  1.00  0.00    -0.014 A 
ATOM     87  C   UNL A   1      50.833  26.571  26.502  1.00  0.00     0.010 A 
ATOM     88  C   UNL A   1      50.073  27.624  24.455  1.00  0.00     0.010 A 
ATOM     89  C   UNL A   1      52.064  26.295  25.899  1.00  0.00     0.020 A 
ATOM     90  C   UNL A   1      51.287  27.317  23.837  1.00  0.00     0.020 A 
ATOM     91  C   UNL A   1      52.285  26.676  24.572  1.00  0.00     0.054 A 
BRANCH  91  92
ATOM     92  S   UNL A   1      53.891  26.308  23.813  1.00  0.00     0.124 S 
ATOM     93  O   UNL A   1      54.617  27.558  24.020  1.00  0.00    -0.237 OA
ATOM     94  O   UNL A   1      54.364  25.170  24.596  1.00  0.00    -0.237 OA
ATOM     95  O   UNL A   1      53.557  26.006  22.423  1.00  0.00    -0.744 OA
ENDBRANCH  91  92
ENDBRANCH  65  86
ENDBRANCH  39  40
ENDBRANCH  32  34
ENDBRANCH  31  32
ENDBRANCH  30  31
ENDBRANCH  29  30
ENDBRANCH  28  29
ENDBRANCH  27  28
ENDBRANCH   1  27
TORSDOF 25
ENDMDL
MODEL 3
REMARK VINA RESULT:      -9.0      5.628      8.332
REMARK SMILES C[C@@H](O)[C@@H](NC(=O)c1csc(-c2ccsc2)n1)C(=O)OCCOCCOCCOC(=O)c1ccc(-c2c3nc(c(-c4ccc(S(=O)(=O)[O-])cc4)c4ccc([nH]4)c(-c4ccc(S(=O)(=O)[O-])cc4)c4nc(c(-c5ccc(S(=O)(=O)[O-])cc5)c5ccc2[nH]5)C=C4)C=C3)cc1
REMARK SMILES IDX 24 1 23 2 22 3 21 4 20 5 18 6 19 7 4 8 2 9 1 10 3 11 5 13
REMARK SMILES IDX 6 14 7 16 8 17 9 18 17 19 10 20 11 21 12 22 13 23 16 24
REMARK SMILES IDX 14 25 15 26 25 27 26 28 27 29 28 30 29 31 30 32 31 33 32 34
REMARK SMILES IDX 33 35 91 36 34 37 90 38 35 39 36 40 37 41 84 42 38 43 89 44
REMARK SMILES IDX 83 45 85 46 39 47 88 48 82 49 81 50 40 52 70 53 51 54 69 55
REMARK SMILES IDX 52 56 55 57 68 58 86 59 53 60 54 61 67 63 87 64 56 65 41 66
REMARK SMILES IDX 42 67 50 68 43 69 49 70 44 71 45 72 46 73 47 74 48 75 71 76
REMARK SMILES IDX 72 77 80 78 73 79 79 80 74 81 75 82 76 83 77 84 78 85 57 86
REMARK SMILES IDX 58 87 66 88 59 89 65 90 60 91 61 92 62 93 63 94 64 95
REMARK H PARENT 3 12 5 15 85 51 55 62
REMARK Flexibility Score: inf
ROOT
ATOM      1  C   UNL A   1      33.135  28.275  24.694  1.00  0.00     0.188 C 
ENDROOT
BRANCH   1   2
ATOM      2  O   UNL A   1      32.123  27.968  23.738  1.00  0.00    -0.376 OA
BRANCH   2   3
ATOM      3  C   UNL A   1      30.762  28.179  24.059  1.00  0.00     0.202 C 
BRANCH   3   4
ATOM      4  C   UNL A   1      29.800  27.020  23.822  1.00  0.00     0.261 C 
BRANCH   4   5
ATOM      5  O   UNL A   1      30.094  25.674  24.218  1.00  0.00    -0.462 OA
BRANCH   5   6
ATOM      6  C   UNL A   1      30.617  25.508  25.474  1.00  0.00     0.331 C 
ATOM      7  O   UNL A   1      30.115  25.935  26.504  1.00  0.00    -0.250 OA
BRANCH   6   8
ATOM      8  C   UNL A   1      31.953  24.772  25.458  1.00  0.00     0.221 C 
BRANCH   8   9
ATOM      9  C   UNL A   1      31.667  23.241  25.645  1.00  0.00     0.145 C 
ATOM     10  C   UNL A   1      32.229  22.629  26.927  1.00  0.00     0.041 C 
BRANCH   9  11
ATOM     11  O   UNL A   1      30.256  22.988  25.687  1.00  0.00    -0.391 OA
ATOM     12  H   UNL A   1      29.854  23.513  26.396  1.00  0.00     0.211 HD
ENDBRANCH   9  11
ENDBRANCH   8   9
BRANCH   8  13
ATOM     13  N   UNL A   1      32.733  25.042  24.229  1.00  0.00    -0.335 N 
ATOM     14  C   UNL A   1      33.555  24.271  23.433  1.00  0.00     0.271 C 
ATOM     15  H   UNL A   1      32.650  25.972  23.914  1.00  0.00     0.164 HD
ATOM     16  O   UNL A   1      33.897  24.781  22.362  1.00  0.00    -0.267 OA
BRANCH  14  17
ATOM     17  C   UNL A   1      34.172  23.019  23.890  1.00  0.00     0.139 A 
ATOM     18  C   UNL A   1      35.279  23.033  24.725  1.00  0.00     0.101 A 
ATOM     19  N   UNL A   1      33.759  21.734  23.534  1.00  0.00    -0.231 NA
ATOM     20  S   UNL A   1      35.742  21.442  25.152  1.00  0.00    -0.122 S 
ATOM     21  C   UNL A   1      34.392  20.827  24.263  1.00  0.00     0.125 A 
BRANCH  21  22
ATOM     22  C   UNL A   1      33.860  19.421  24.455  1.00  0.00     0.021 A 
ATOM     23  C   UNL A   1      32.498  19.030  24.291  1.00  0.00     0.023 A 
ATOM     24  C   UNL A   1      34.625  18.373  24.938  1.00  0.00     0.076 A 
ATOM     25  C   UNL A   1      32.284  17.707  24.622  1.00  0.00     0.065 A 
ATOM     26  S   UNL A   1      33.708  16.944  25.179  1.00  0.00    -0.152 S 
ENDBRANCH  21  22
ENDBRANCH  14  17
ENDBRANCH   8  13
ENDBRANCH   6   8
ENDBRANCH   5   6
ENDBRANCH   4   5
ENDBRANCH   3   4
ENDBRANCH   2   3
ENDBRANCH   1   2
BRANCH   1  27
ATOM     27  C   UNL A   1      33.311  29.729  25.150  1.00  0.00     0.188 C 
BRANCH  27  28
ATOM     28  O   UNL A   1      32.712  30.050  26.384  1.00  0.00    -0.376 OA
BRANCH  28  29
ATOM     29  C   UNL A   1      31.736  31.068  26.463  1.00  0.00     0.202 C 
BRANCH  29  30
ATOM     30  C   UNL A   1      31.995  32.407  27.169  1.00  0.00     0.261 C 
BRANCH  30  31
ATOM     31  O   UNL A   1      33.312  32.671  27.681  1.00  0.00    -0.460 OA
BRANCH  31  32
ATOM     32  C   UNL A   1      33.529  33.808  28.371  1.00  0.00     0.338 C 
ATOM     33  O   UNL A   1      32.824  34.808  28.361  1.00  0.00    -0.246 OA
BRANCH  32  34
ATOM     34  C   UNL A   1      34.629  33.551  29.338  1.00  0.00     0.060 A 
ATOM     35  C   UNL A   1      35.895  34.098  29.085  1.00  0.00     0.016 A 
ATOM     36  C   UNL A   1      34.420  32.781  30.487  1.00  0.00     0.016 A 
ATOM     37  C   UNL A   1      36.970  33.804  29.924  1.00  0.00     0.010 A 
ATOM     38  C   UNL A   1      35.503  32.474  31.320  1.00  0.00     0.010 A 
ATOM     39  C   UNL A   1      36.795  32.931  31.005  1.00  0.00    -0.014 A 
BRANCH  39  40
ATOM     40  C   UNL A   1      37.991  32.313  31.633  1.00  0.00     0.031 A 
ATOM     41  C   UNL A   1      38.416  32.811  32.994  1.00  0.00     0.074 A 
ATOM     42  C   UNL A   1      38.646  31.288  31.058  1.00  0.00     0.049 A 
ATOM     43  N   UNL A   1      39.397  32.407  33.760  1.00  0.00    -0.248 NA
ATOM     44  C   UNL A   1      37.624  33.912  33.568  1.00  0.00     0.031 C 
ATOM     45  C   UNL A   1      38.310  30.681  29.771  1.00  0.00     0.029 A 
ATOM     46  N   UNL A   1      39.733  30.571  31.496  1.00  0.00    -0.354 N 
ATOM     47  C   UNL A   1      39.346  33.209  34.896  1.00  0.00     0.074 A 
ATOM     48  C   UNL A   1      38.263  34.147  34.704  1.00  0.00     0.031 C 
ATOM     49  C   UNL A   1      39.173  29.679  29.525  1.00  0.00     0.029 A 
ATOM     50  C   UNL A   1      40.138  29.591  30.620  1.00  0.00     0.049 A 
ATOM     51  H   UNL A   1      40.181  30.742  32.355  1.00  0.00     0.167 HD
ATOM     52  C   UNL A   1      40.119  33.165  36.007  1.00  0.00     0.031 A 
ATOM     53  C   UNL A   1      41.173  28.729  30.690  1.00  0.00     0.031 A 
ATOM     54  C   UNL A   1      41.205  32.239  36.194  1.00  0.00     0.049 A 
ATOM     55  C   UNL A   1      42.063  28.741  31.908  1.00  0.00     0.074 A 
ATOM     56  C   UNL A   1      42.041  32.105  37.287  1.00  0.00     0.029 A 
ATOM     57  N   UNL A   1      41.610  31.294  35.262  1.00  0.00    -0.354 N 
ATOM     58  N   UNL A   1      41.986  29.490  32.983  1.00  0.00    -0.248 NA
ATOM     59  C   UNL A   1      43.169  27.774  31.928  1.00  0.00     0.031 C 
ATOM     60  C   UNL A   1      42.994  31.124  36.991  1.00  0.00     0.029 A 
ATOM     61  C   UNL A   1      42.701  30.591  35.746  1.00  0.00     0.049 A 
ATOM     62  H   UNL A   1      41.183  31.144  34.388  1.00  0.00     0.167 HD
ATOM     63  C   UNL A   1      43.012  29.060  33.821  1.00  0.00     0.074 A 
ATOM     64  C   UNL A   1      43.682  27.975  33.135  1.00  0.00     0.031 C 
ATOM     65  C   UNL A   1      43.365  29.517  35.050  1.00  0.00     0.031 A 
BRANCH  52  66
ATOM     66  C   UNL A   1      39.842  34.175  37.091  1.00  0.00    -0.014 A 
ATOM     67  C   UNL A   1      40.243  35.518  36.964  1.00  0.00     0.010 A 
ATOM     68  C   UNL A   1      39.137  33.781  38.243  1.00  0.00     0.010 A 
ATOM     69  C   UNL A   1      39.978  36.436  37.985  1.00  0.00     0.020 A 
ATOM     70  C   UNL A   1      38.841  34.703  39.251  1.00  0.00     0.020 A 
ATOM     71  C   UNL A   1      39.278  36.022  39.122  1.00  0.00     0.054 A 
BRANCH  71  72
ATOM     72  S   UNL A   1      38.924  37.242  40.417  1.00  0.00     0.124 S 
ATOM     73  O   UNL A   1      38.169  36.446  41.382  1.00  0.00    -0.237 OA
ATOM     74  O   UNL A   1      40.259  37.649  40.847  1.00  0.00    -0.237 OA
ATOM     75  O   UNL A   1      38.154  38.272  39.724  1.00  0.00    -0.744 OA
ENDBRANCH  71  72
ENDBRANCH  52  66
BRANCH  53  76
ATOM     76  C   UNL A   1      41.431  27.781  29.570  1.00  0.00    -0.014 A 
ATOM     77  C   UNL A   1      40.673  26.605  29.427  1.00  0.00     0.010 A 
ATOM     78  C   UNL A   1      42.452  28.049  28.639  1.00  0.00     0.010 A 
ATOM     79  C   UNL A   1      40.944  25.708  28.388  1.00  0.00     0.020 A 
ATOM     80  C   UNL A   1      42.703  27.172  27.580  1.00  0.00     0.020 A 
ATOM     81  C   UNL A   1      41.954  26.000  27.468  1.00  0.00     0.054 A 
BRANCH  81  82
ATOM     82  S   UNL A   1      42.252  24.847  26.099  1.00  0.00     0.124 S 
ATOM     83  O   UNL A   1      43.691  24.620  26.200  1.00  0.00    -0.237 OA
ATOM     84  O   UNL A   1      41.406  23.711  26.455  1.00  0.00    -0.237 OA
ATOM     85  O   UNL A   1      41.818  25.593  24.921  1.00  0.00    -0.744 OA
ENDBRANCH  81  82
ENDBRANCH  53  76
BRANCH  65  86
ATOM     86  C   UNL A   1      44.496  28.811  35.755  1.00  0.00    -0.014 A 
ATOM     87  C   UNL A   1      44.275  27.677  36.559  1.00  0.00     0.010 A 
ATOM     88  C   UNL A   1      45.813  29.283  35.592  1.00  0.00     0.010 A 
ATOM     89  C   UNL A   1      45.339  27.069  37.234  1.00  0.00     0.020 A 
ATOM     90  C   UNL A   1      46.883  28.655  36.233  1.00  0.00     0.020 A 
ATOM     91  C   UNL A   1      46.636  27.568  37.071  1.00  0.00     0.054 A 
BRANCH  91  92
ATOM     92  S   UNL A   1      47.999  26.763  37.958  1.00  0.00     0.124 S 
ATOM     93  O   UNL A   1      48.477  25.801  36.969  1.00  0.00    -0.237 OA
ATOM     94  O   UNL A   1      48.901  27.877  38.239  1.00  0.00    -0.237 OA
ATOM     95  O   UNL A   1      47.353  26.180  39.131  1.00  0.00    -0.744 OA
ENDBRANCH  91  92
ENDBRANCH  65  86
ENDBRANCH  39  40
ENDBRANCH  32  34
ENDBRANCH  31  32
ENDBRANCH  30  31
ENDBRANCH  29  30
ENDBRANCH  28  29
ENDBRANCH  27  28
ENDBRANCH   1  27
TORSDOF 25
ENDMDL
