MODEL 1
REMARK VINA RESULT:     -10.8      0.000      0.000
REMARK SMILES Cc1ccc(-c2nc(NC(=O)[C@H]3[C@@H](C(=O)OCCOCCOCCOC(=O)c4ccc(-c5c6nc(c(-c7ccc(S(=O)(=O)[O-])cc7)c7ccc([nH]7)c(-c7ccc(S(=O)(=O)[O-])cc7)c7nc(c(-c8ccc(S(=O)(=O)[O-])cc8)c8ccc5[nH]8)C=C7)C=C6)cc4)[C@@H]4CC[C@H]3O4)sc2C)cc1
REMARK SMILES IDX 20 1 19 2 18 3 17 4 16 5 14 6 15 7 13 8 12 9 91 10 88 11
REMARK SMILES IDX 90 12 92 13 89 14 10 15 9 16 11 18 8 19 6 20 7 21 94 22
REMARK SMILES IDX 93 23 95 24 5 25 1 26 2 27 3 28 97 29 4 30 96 31 21 32 22 33
REMARK SMILES IDX 23 34 24 35 25 36 26 37 27 38 28 39 29 40 87 41 30 42 86 43
REMARK SMILES IDX 31 44 32 45 33 46 80 47 34 48 85 49 79 50 81 51 35 52 84 53
REMARK SMILES IDX 78 54 77 55 36 57 66 58 47 59 65 60 48 61 51 62 64 63 82 64
REMARK SMILES IDX 49 65 50 66 63 68 83 69 52 70 37 71 38 72 46 73 39 74 45 75
REMARK SMILES IDX 40 76 41 77 42 78 43 79 44 80 67 81 68 82 76 83 69 84 75 85
REMARK SMILES IDX 70 86 71 87 72 88 73 89 74 90 53 91 54 92 62 93 55 94 61 95
REMARK SMILES IDX 56 96 57 97 58 98 59 99 60 100
REMARK H PARENT 9 17 81 56 51 67
REMARK Flexibility Score: inf
ROOT
ATOM      1  C   UNL A   1      34.313  21.463  25.278  1.00  0.00     0.188 C 
ENDROOT
BRANCH   1   2
ATOM      2  O   UNL A   1      33.671  22.691  25.064  1.00  0.00    -0.376 OA
BRANCH   2   3
ATOM      3  C   UNL A   1      32.315  22.838  25.376  1.00  0.00     0.202 C 
BRANCH   3   4
ATOM      4  C   UNL A   1      31.275  23.768  24.721  1.00  0.00     0.261 C 
BRANCH   4   5
ATOM      5  O   UNL A   1      31.253  25.220  24.602  1.00  0.00    -0.463 OA
BRANCH   5   6
ATOM      6  C   UNL A   1      31.147  25.636  23.325  1.00  0.00     0.312 C 
ATOM      7  O   UNL A   1      31.437  24.899  22.440  1.00  0.00    -0.252 OA
BRANCH   6   8
ATOM      8  C   UNL A   1      30.779  27.018  22.885  1.00  0.00     0.143 C 
ATOM      9  C   UNL A   1      31.815  28.057  23.168  1.00  0.00     0.124 C 
ATOM     10  C   UNL A   1      30.875  28.982  24.089  1.00  0.00     0.132 C 
ATOM     11  C   UNL A   1      29.445  27.542  23.420  1.00  0.00     0.133 C 
ATOM     12  C   UNL A   1      29.832  29.837  23.297  1.00  0.00     0.035 C 
ATOM     13  O   UNL A   1      29.911  28.054  24.664  1.00  0.00    -0.373 OA
ATOM     14  C   UNL A   1      28.888  28.790  22.734  1.00  0.00     0.036 C 
BRANCH   9  15
ATOM     15  C   UNL A   1      33.207  27.517  23.755  1.00  0.00     0.232 C 
ATOM     16  N   UNL A   1      34.006  27.937  24.846  1.00  0.00    -0.302 N 
ATOM     17  H   UNL A   1      34.834  27.407  24.893  1.00  0.00     0.172 HD
ATOM     18  O   UNL A   1      33.689  26.566  23.114  1.00  0.00    -0.274 OA
BRANCH  16  19
ATOM     19  C   UNL A   1      33.966  28.891  25.887  1.00  0.00     0.190 A 
ATOM     20  C   UNL A   1      34.481  30.479  27.530  1.00  0.00     0.086 A 
ATOM     21  N   UNL A   1      34.885  29.256  26.821  1.00  0.00    -0.220 NA
ATOM     22  C   UNL A   1      33.263  30.888  27.038  1.00  0.00     0.031 A 
ATOM     23  S   UNL A   1      32.617  29.818  25.909  1.00  0.00    -0.101 S 
ATOM     24  C   UNL A   1      32.633  32.185  27.195  1.00  0.00     0.059 C 
BRANCH  20  25
ATOM     25  C   UNL A   1      35.187  31.431  28.534  1.00  0.00     0.001 A 
ATOM     26  C   UNL A   1      36.164  34.546  31.599  1.00  0.00     0.044 C 
ATOM     27  C   UNL A   1      35.891  33.485  30.562  1.00  0.00    -0.051 A 
ATOM     28  C   UNL A   1      36.316  33.545  29.220  1.00  0.00     0.004 A 
ATOM     29  C   UNL A   1      35.095  32.409  30.886  1.00  0.00     0.004 A 
ATOM     30  C   UNL A   1      35.967  32.546  28.225  1.00  0.00     0.010 A 
ATOM     31  C   UNL A   1      34.791  31.440  29.897  1.00  0.00     0.010 A 
ENDBRANCH  20  25
ENDBRANCH  16  19
ENDBRANCH   9  15
ENDBRANCH   6   8
ENDBRANCH   5   6
ENDBRANCH   4   5
ENDBRANCH   3   4
ENDBRANCH   2   3
ENDBRANCH   1   2
BRANCH   1  32
ATOM     32  C   UNL A   1      35.788  21.633  25.682  1.00  0.00     0.188 C 
BRANCH  32  33
ATOM     33  O   UNL A   1      36.663  22.042  24.659  1.00  0.00    -0.376 OA
BRANCH  33  34
ATOM     34  C   UNL A   1      37.857  22.625  25.153  1.00  0.00     0.202 C 
BRANCH  34  35
ATOM     35  C   UNL A   1      38.836  21.826  26.126  1.00  0.00     0.261 C 
BRANCH  35  36
ATOM     36  O   UNL A   1      40.212  22.350  26.301  1.00  0.00    -0.460 OA
BRANCH  36  37
ATOM     37  C   UNL A   1      40.783  23.041  27.350  1.00  0.00     0.338 C 
ATOM     38  O   UNL A   1      41.514  22.577  28.207  1.00  0.00    -0.246 OA
BRANCH  37  39
ATOM     39  C   UNL A   1      40.447  24.555  27.166  1.00  0.00     0.060 A 
ATOM     40  C   UNL A   1      40.769  25.493  26.171  1.00  0.00     0.016 A 
ATOM     41  C   UNL A   1      39.775  25.129  28.203  1.00  0.00     0.016 A 
ATOM     42  C   UNL A   1      40.588  26.968  26.369  1.00  0.00     0.010 A 
ATOM     43  C   UNL A   1      39.764  26.526  28.426  1.00  0.00     0.010 A 
ATOM     44  C   UNL A   1      40.138  27.549  27.586  1.00  0.00    -0.014 A 
BRANCH  44  45
ATOM     45  C   UNL A   1      40.625  28.866  28.384  1.00  0.00     0.031 A 
ATOM     46  C   UNL A   1      39.762  29.904  29.435  1.00  0.00     0.074 A 
ATOM     47  C   UNL A   1      41.951  28.550  28.548  1.00  0.00     0.049 A 
ATOM     48  N   UNL A   1      40.166  31.019  30.052  1.00  0.00    -0.248 NA
ATOM     49  C   UNL A   1      38.326  29.785  29.756  1.00  0.00     0.031 C 
ATOM     50  C   UNL A   1      42.890  28.249  29.653  1.00  0.00     0.029 A 
ATOM     51  N   UNL A   1      42.807  28.422  27.472  1.00  0.00    -0.354 N 
ATOM     52  C   UNL A   1      39.269  31.396  31.127  1.00  0.00     0.074 A 
ATOM     53  C   UNL A   1      38.102  30.599  30.816  1.00  0.00     0.031 C 
ATOM     54  C   UNL A   1      44.165  28.329  29.292  1.00  0.00     0.029 A 
ATOM     55  C   UNL A   1      44.086  28.672  27.936  1.00  0.00     0.049 A 
ATOM     56  H   UNL A   1      42.555  28.197  26.547  1.00  0.00     0.167 HD
ATOM     57  C   UNL A   1      39.628  32.162  32.265  1.00  0.00     0.031 A 
ATOM     58  C   UNL A   1      45.081  29.278  27.312  1.00  0.00     0.031 A 
ATOM     59  C   UNL A   1      40.960  32.839  32.142  1.00  0.00     0.049 A 
ATOM     60  C   UNL A   1      44.801  30.833  27.612  1.00  0.00     0.074 A 
ATOM     61  C   UNL A   1      42.040  33.081  32.989  1.00  0.00     0.029 A 
ATOM     62  N   UNL A   1      41.401  33.289  30.899  1.00  0.00    -0.354 N 
ATOM     63  N   UNL A   1      44.356  31.388  28.761  1.00  0.00    -0.248 NA
ATOM     64  C   UNL A   1      45.011  31.894  26.636  1.00  0.00     0.031 C 
ATOM     65  C   UNL A   1      43.128  33.598  32.208  1.00  0.00     0.029 A 
ATOM     66  C   UNL A   1      42.815  33.434  30.853  1.00  0.00     0.049 A 
ATOM     67  H   UNL A   1      40.803  33.485  30.141  1.00  0.00     0.167 HD
ATOM     68  C   UNL A   1      44.092  32.788  28.648  1.00  0.00     0.074 A 
ATOM     69  C   UNL A   1      44.645  33.014  27.303  1.00  0.00     0.031 C 
ATOM     70  C   UNL A   1      43.429  33.721  29.511  1.00  0.00     0.031 A 
BRANCH  57  71
ATOM     71  C   UNL A   1      38.962  32.139  33.778  1.00  0.00    -0.014 A 
ATOM     72  C   UNL A   1      38.431  33.341  34.354  1.00  0.00     0.010 A 
ATOM     73  C   UNL A   1      38.985  31.074  34.712  1.00  0.00     0.010 A 
ATOM     74  C   UNL A   1      38.023  33.499  35.713  1.00  0.00     0.020 A 
ATOM     75  C   UNL A   1      38.521  31.200  36.078  1.00  0.00     0.020 A 
ATOM     76  C   UNL A   1      38.052  32.418  36.575  1.00  0.00     0.054 A 
BRANCH  76  77
ATOM     77  S   UNL A   1      37.381  32.619  38.277  1.00  0.00     0.124 S 
ATOM     78  O   UNL A   1      37.498  31.276  38.840  1.00  0.00    -0.237 OA
ATOM     79  O   UNL A   1      38.276  33.615  38.863  1.00  0.00    -0.237 OA
ATOM     80  O   UNL A   1      36.012  33.081  38.058  1.00  0.00    -0.744 OA
ENDBRANCH  76  77
ENDBRANCH  57  71
BRANCH  58  81
ATOM     81  C   UNL A   1      45.519  28.075  26.405  1.00  0.00    -0.014 A 
ATOM     82  C   UNL A   1      46.387  27.147  27.080  1.00  0.00     0.010 A 
ATOM     83  C   UNL A   1      44.630  27.406  25.487  1.00  0.00     0.010 A 
ATOM     84  C   UNL A   1      46.308  25.722  26.957  1.00  0.00     0.020 A 
ATOM     85  C   UNL A   1      44.521  25.970  25.387  1.00  0.00     0.020 A 
ATOM     86  C   UNL A   1      45.368  25.135  26.121  1.00  0.00     0.054 A 
BRANCH  86  87
ATOM     87  S   UNL A   1      45.150  23.309  26.102  1.00  0.00     0.124 S 
ATOM     88  O   UNL A   1      44.030  23.129  25.184  1.00  0.00    -0.237 OA
ATOM     89  O   UNL A   1      46.434  22.797  25.627  1.00  0.00    -0.237 OA
ATOM     90  O   UNL A   1      44.861  23.016  27.500  1.00  0.00    -0.744 OA
ENDBRANCH  86  87
ENDBRANCH  58  81
BRANCH  70  91
ATOM     91  C   UNL A   1      43.009  35.186  29.172  1.00  0.00    -0.014 A 
ATOM     92  C   UNL A   1      43.571  36.337  29.708  1.00  0.00     0.010 A 
ATOM     93  C   UNL A   1      42.146  35.405  28.039  1.00  0.00     0.010 A 
ATOM     94  C   UNL A   1      43.285  37.603  29.165  1.00  0.00     0.020 A 
ATOM     95  C   UNL A   1      41.950  36.630  27.419  1.00  0.00     0.020 A 
ATOM     96  C   UNL A   1      42.495  37.738  28.019  1.00  0.00     0.054 A 
BRANCH  96  97
ATOM     97  S   UNL A   1      42.172  39.364  27.320  1.00  0.00     0.124 S 
ATOM     98  O   UNL A   1      43.510  39.763  26.893  1.00  0.00    -0.237 OA
ATOM     99  O   UNL A   1      41.226  39.066  26.247  1.00  0.00    -0.237 OA
ATOM    100  O   UNL A   1      41.618  40.123  28.439  1.00  0.00    -0.744 OA
ENDBRANCH  96  97
ENDBRANCH  70  91
ENDBRANCH  44  45
ENDBRANCH  37  39
ENDBRANCH  36  37
ENDBRANCH  35  36
ENDBRANCH  34  35
ENDBRANCH  33  34
ENDBRANCH  32  33
ENDBRANCH   1  32
TORSDOF 23
ENDMDL
MODEL 2
REMARK VINA RESULT:     -10.4      1.675      4.451
REMARK SMILES Cc1ccc(-c2nc(NC(=O)[C@H]3[C@@H](C(=O)OCCOCCOCCOC(=O)c4ccc(-c5c6nc(c(-c7ccc(S(=O)(=O)[O-])cc7)c7ccc([nH]7)c(-c7ccc(S(=O)(=O)[O-])cc7)c7nc(c(-c8ccc(S(=O)(=O)[O-])cc8)c8ccc5[nH]8)C=C7)C=C6)cc4)[C@@H]4CC[C@H]3O4)sc2C)cc1
REMARK SMILES IDX 20 1 19 2 18 3 17 4 16 5 14 6 15 7 13 8 12 9 91 10 88 11
REMARK SMILES IDX 90 12 92 13 89 14 10 15 9 16 11 18 8 19 6 20 7 21 94 22
REMARK SMILES IDX 93 23 95 24 5 25 1 26 2 27 3 28 97 29 4 30 96 31 21 32 22 33
REMARK SMILES IDX 23 34 24 35 25 36 26 37 27 38 28 39 29 40 87 41 30 42 86 43
REMARK SMILES IDX 31 44 32 45 33 46 80 47 34 48 85 49 79 50 81 51 35 52 84 53
REMARK SMILES IDX 78 54 77 55 36 57 66 58 47 59 65 60 48 61 51 62 64 63 82 64
REMARK SMILES IDX 49 65 50 66 63 68 83 69 52 70 37 71 38 72 46 73 39 74 45 75
REMARK SMILES IDX 40 76 41 77 42 78 43 79 44 80 67 81 68 82 76 83 69 84 75 85
REMARK SMILES IDX 70 86 71 87 72 88 73 89 74 90 53 91 54 92 62 93 55 94 61 95
REMARK SMILES IDX 56 96 57 97 58 98 59 99 60 100
REMARK H PARENT 9 17 81 56 51 67
REMARK Flexibility Score: inf
ROOT
ATOM      1  C   UNL A   1      35.829  22.290  23.196  1.00  0.00     0.188 C 
ENDROOT
BRANCH   1   2
ATOM      2  O   UNL A   1      35.732  23.631  22.798  1.00  0.00    -0.376 OA
BRANCH   2   3
ATOM      3  C   UNL A   1      34.963  24.531  23.543  1.00  0.00     0.202 C 
BRANCH   3   4
ATOM      4  C   UNL A   1      34.432  25.916  23.123  1.00  0.00     0.261 C 
BRANCH   4   5
ATOM      5  O   UNL A   1      33.089  26.475  23.209  1.00  0.00    -0.463 OA
BRANCH   5   6
ATOM      6  C   UNL A   1      33.090  27.781  23.539  1.00  0.00     0.312 C 
ATOM      7  O   UNL A   1      34.043  28.254  24.067  1.00  0.00    -0.252 OA
BRANCH   6   8
ATOM      8  C   UNL A   1      31.933  28.718  23.395  1.00  0.00     0.143 C 
ATOM      9  C   UNL A   1      31.223  29.032  24.673  1.00  0.00     0.124 C 
ATOM     10  C   UNL A   1      29.785  28.483  24.203  1.00  0.00     0.132 C 
ATOM     11  C   UNL A   1      30.873  28.298  22.374  1.00  0.00     0.133 C 
ATOM     12  C   UNL A   1      29.020  29.430  23.221  1.00  0.00     0.035 C 
ATOM     13  O   UNL A   1      30.097  27.457  23.219  1.00  0.00    -0.373 OA
ATOM     14  C   UNL A   1      29.869  29.376  21.964  1.00  0.00     0.036 C 
BRANCH   9  15
ATOM     15  C   UNL A   1      31.893  28.445  26.007  1.00  0.00     0.232 C 
ATOM     16  N   UNL A   1      32.067  27.121  26.481  1.00  0.00    -0.302 N 
ATOM     17  H   UNL A   1      32.478  27.125  27.375  1.00  0.00     0.172 HD
ATOM     18  O   UNL A   1      32.313  29.318  26.787  1.00  0.00    -0.274 OA
BRANCH  16  19
ATOM     19  C   UNL A   1      31.825  25.798  26.050  1.00  0.00     0.190 A 
ATOM     20  C   UNL A   1      31.995  23.540  25.453  1.00  0.00     0.086 A 
ATOM     21  N   UNL A   1      32.637  24.862  25.491  1.00  0.00    -0.220 NA
ATOM     22  C   UNL A   1      30.735  23.650  25.991  1.00  0.00     0.031 A 
ATOM     23  S   UNL A   1      30.326  25.234  26.391  1.00  0.00    -0.101 S 
ATOM     24  C   UNL A   1      29.870  22.580  26.451  1.00  0.00     0.059 C 
BRANCH  20  25
ATOM     25  C   UNL A   1      32.488  22.108  25.107  1.00  0.00     0.001 A 
ATOM     26  C   UNL A   1      32.803  17.802  23.920  1.00  0.00     0.044 C 
ATOM     27  C   UNL A   1      32.753  19.253  24.329  1.00  0.00    -0.051 A 
ATOM     28  C   UNL A   1      33.047  19.733  25.620  1.00  0.00     0.004 A 
ATOM     29  C   UNL A   1      32.305  20.195  23.432  1.00  0.00     0.004 A 
ATOM     30  C   UNL A   1      32.912  21.128  26.004  1.00  0.00     0.010 A 
ATOM     31  C   UNL A   1      32.204  21.552  23.832  1.00  0.00     0.010 A 
ENDBRANCH  20  25
ENDBRANCH  16  19
ENDBRANCH   9  15
ENDBRANCH   6   8
ENDBRANCH   5   6
ENDBRANCH   4   5
ENDBRANCH   3   4
ENDBRANCH   2   3
ENDBRANCH   1   2
BRANCH   1  32
ATOM     32  C   UNL A   1      36.346  22.139  24.638  1.00  0.00     0.188 C 
BRANCH  32  33
ATOM     33  O   UNL A   1      37.364  21.187  24.829  1.00  0.00    -0.376 OA
BRANCH  33  34
ATOM     34  C   UNL A   1      38.190  21.476  25.944  1.00  0.00     0.202 C 
BRANCH  34  35
ATOM     35  C   UNL A   1      39.034  22.827  26.030  1.00  0.00     0.261 C 
BRANCH  35  36
ATOM     36  O   UNL A   1      40.356  22.771  26.698  1.00  0.00    -0.460 OA
BRANCH  36  37
ATOM     37  C   UNL A   1      40.859  23.500  27.757  1.00  0.00     0.338 C 
ATOM     38  O   UNL A   1      41.558  23.074  28.658  1.00  0.00    -0.246 OA
BRANCH  37  39
ATOM     39  C   UNL A   1      40.494  25.000  27.523  1.00  0.00     0.060 A 
ATOM     40  C   UNL A   1      40.737  25.890  26.463  1.00  0.00     0.016 A 
ATOM     41  C   UNL A   1      39.888  25.620  28.573  1.00  0.00     0.016 A 
ATOM     42  C   UNL A   1      40.554  27.372  26.600  1.00  0.00     0.010 A 
ATOM     43  C   UNL A   1      39.876  27.026  28.727  1.00  0.00     0.010 A 
ATOM     44  C   UNL A   1      40.180  28.009  27.815  1.00  0.00    -0.014 A 
BRANCH  44  45
ATOM     45  C   UNL A   1      40.706  29.368  28.513  1.00  0.00     0.031 A 
ATOM     46  C   UNL A   1      39.925  30.419  29.613  1.00  0.00     0.074 A 
ATOM     47  C   UNL A   1      42.051  29.096  28.546  1.00  0.00     0.049 A 
ATOM     48  N   UNL A   1      40.355  31.567  30.146  1.00  0.00    -0.248 NA
ATOM     49  C   UNL A   1      38.535  30.271  30.088  1.00  0.00     0.031 C 
ATOM     50  C   UNL A   1      43.110  28.862  29.554  1.00  0.00     0.029 A 
ATOM     51  N   UNL A   1      42.794  28.953  27.390  1.00  0.00    -0.354 N 
ATOM     52  C   UNL A   1      39.564  31.957  31.296  1.00  0.00     0.074 A 
ATOM     53  C   UNL A   1      38.397  31.117  31.138  1.00  0.00     0.031 C 
ATOM     54  C   UNL A   1      44.337  28.966  29.059  1.00  0.00     0.029 A 
ATOM     55  C   UNL A   1      44.106  29.256  27.708  1.00  0.00     0.049 A 
ATOM     56  H   UNL A   1      42.454  28.687  26.505  1.00  0.00     0.167 HD
ATOM     57  C   UNL A   1      40.015  32.774  32.364  1.00  0.00     0.031 A 
ATOM     58  C   UNL A   1      45.010  29.866  26.962  1.00  0.00     0.031 A 
ATOM     59  C   UNL A   1      41.305  33.484  32.078  1.00  0.00     0.049 A 
ATOM     60  C   UNL A   1      44.713  31.423  27.238  1.00  0.00     0.074 A 
ATOM     61  C   UNL A   1      42.458  33.788  32.798  1.00  0.00     0.029 A 
ATOM     62  N   UNL A   1      41.598  33.901  30.781  1.00  0.00    -0.354 N 
ATOM     63  N   UNL A   1      44.373  32.007  28.408  1.00  0.00    -0.248 NA
ATOM     64  C   UNL A   1      44.786  32.453  26.210  1.00  0.00     0.031 C 
ATOM     65  C   UNL A   1      43.442  34.307  31.889  1.00  0.00     0.029 A 
ATOM     66  C   UNL A   1      42.994  34.084  30.581  1.00  0.00     0.049 A 
ATOM     67  H   UNL A   1      40.918  34.052  30.084  1.00  0.00     0.167 HD
ATOM     68  C   UNL A   1      44.053  33.394  28.277  1.00  0.00     0.074 A 
ATOM     69  C   UNL A   1      44.456  33.586  26.873  1.00  0.00     0.031 C 
ATOM     70  C   UNL A   1      43.454  34.339  29.172  1.00  0.00     0.031 A 
BRANCH  57  71
ATOM     71  C   UNL A   1      39.512  32.789  33.938  1.00  0.00    -0.014 A 
ATOM     72  C   UNL A   1      38.676  31.738  34.442  1.00  0.00     0.010 A 
ATOM     73  C   UNL A   1      39.664  33.838  34.880  1.00  0.00     0.010 A 
ATOM     74  C   UNL A   1      38.011  31.740  35.706  1.00  0.00     0.020 A 
ATOM     75  C   UNL A   1      39.045  33.830  36.189  1.00  0.00     0.020 A 
ATOM     76  C   UNL A   1      38.210  32.784  36.591  1.00  0.00     0.054 A 
BRANCH  76  77
ATOM     77  S   UNL A   1      37.458  32.685  38.268  1.00  0.00     0.124 S 
ATOM     78  O   UNL A   1      37.787  31.327  38.697  1.00  0.00    -0.237 OA
ATOM     79  O   UNL A   1      38.149  33.748  38.996  1.00  0.00    -0.237 OA
ATOM     80  O   UNL A   1      36.038  32.931  38.028  1.00  0.00    -0.744 OA
ENDBRANCH  76  77
ENDBRANCH  57  71
BRANCH  58  81
ATOM     81  C   UNL A   1      45.389  28.644  26.055  1.00  0.00    -0.014 A 
ATOM     82  C   UNL A   1      46.580  27.966  26.493  1.00  0.00     0.010 A 
ATOM     83  C   UNL A   1      44.418  27.726  25.511  1.00  0.00     0.010 A 
ATOM     84  C   UNL A   1      46.747  26.543  26.506  1.00  0.00     0.020 A 
ATOM     85  C   UNL A   1      44.567  26.291  25.555  1.00  0.00     0.020 A 
ATOM     86  C   UNL A   1      45.737  25.707  26.049  1.00  0.00     0.054 A 
BRANCH  86  87
ATOM     87  S   UNL A   1      45.883  23.883  26.233  1.00  0.00     0.124 S 
ATOM     88  O   UNL A   1      45.703  23.408  24.865  1.00  0.00    -0.237 OA
ATOM     89  O   UNL A   1      47.218  23.682  26.792  1.00  0.00    -0.237 OA
ATOM     90  O   UNL A   1      44.791  23.575  27.147  1.00  0.00    -0.744 OA
ENDBRANCH  86  87
ENDBRANCH  58  81
BRANCH  70  91
ATOM     91  C   UNL A   1      42.955  35.778  28.831  1.00  0.00    -0.014 A 
ATOM     92  C   UNL A   1      43.515  36.963  29.290  1.00  0.00     0.010 A 
ATOM     93  C   UNL A   1      41.996  35.934  27.766  1.00  0.00     0.010 A 
ATOM     94  C   UNL A   1      43.139  38.202  28.739  1.00  0.00     0.020 A 
ATOM     95  C   UNL A   1      41.707  37.132  27.132  1.00  0.00     0.020 A 
ATOM     96  C   UNL A   1      42.256  38.276  27.658  1.00  0.00     0.054 A 
BRANCH  96  97
ATOM     97  S   UNL A   1      41.817  39.869  26.945  1.00  0.00     0.124 S 
ATOM     98  O   UNL A   1      41.328  40.583  28.121  1.00  0.00    -0.237 OA
ATOM     99  O   UNL A   1      43.090  40.336  26.403  1.00  0.00    -0.237 OA
ATOM    100  O   UNL A   1      40.804  39.538  25.946  1.00  0.00    -0.744 OA
ENDBRANCH  96  97
ENDBRANCH  70  91
ENDBRANCH  44  45
ENDBRANCH  37  39
ENDBRANCH  36  37
ENDBRANCH  35  36
ENDBRANCH  34  35
ENDBRANCH  33  34
ENDBRANCH  32  33
ENDBRANCH   1  32
TORSDOF 23
ENDMDL
MODEL 3
REMARK VINA RESULT:     -10.2      1.505      2.193
REMARK SMILES Cc1ccc(-c2nc(NC(=O)[C@H]3[C@@H](C(=O)OCCOCCOCCOC(=O)c4ccc(-c5c6nc(c(-c7ccc(S(=O)(=O)[O-])cc7)c7ccc([nH]7)c(-c7ccc(S(=O)(=O)[O-])cc7)c7nc(c(-c8ccc(S(=O)(=O)[O-])cc8)c8ccc5[nH]8)C=C7)C=C6)cc4)[C@@H]4CC[C@H]3O4)sc2C)cc1
REMARK SMILES IDX 20 1 19 2 18 3 17 4 16 5 14 6 15 7 13 8 12 9 91 10 88 11
REMARK SMILES IDX 90 12 92 13 89 14 10 15 9 16 11 18 8 19 6 20 7 21 94 22
REMARK SMILES IDX 93 23 95 24 5 25 1 26 2 27 3 28 97 29 4 30 96 31 21 32 22 33
REMARK SMILES IDX 23 34 24 35 25 36 26 37 27 38 28 39 29 40 87 41 30 42 86 43
REMARK SMILES IDX 31 44 32 45 33 46 80 47 34 48 85 49 79 50 81 51 35 52 84 53
REMARK SMILES IDX 78 54 77 55 36 57 66 58 47 59 65 60 48 61 51 62 64 63 82 64
REMARK SMILES IDX 49 65 50 66 63 68 83 69 52 70 37 71 38 72 46 73 39 74 45 75
REMARK SMILES IDX 40 76 41 77 42 78 43 79 44 80 67 81 68 82 76 83 69 84 75 85
REMARK SMILES IDX 70 86 71 87 72 88 73 89 74 90 53 91 54 92 62 93 55 94 61 95
REMARK SMILES IDX 56 96 57 97 58 98 59 99 60 100
REMARK H PARENT 9 17 81 56 51 67
REMARK Flexibility Score: inf
ROOT
ATOM      1  C   UNL A   1      34.774  21.262  25.260  1.00  0.00     0.188 C 
ENDROOT
BRANCH   1   2
ATOM      2  O   UNL A   1      34.301  22.531  25.622  1.00  0.00    -0.376 OA
BRANCH   2   3
ATOM      3  C   UNL A   1      32.950  22.715  25.935  1.00  0.00     0.202 C 
BRANCH   3   4
ATOM      4  C   UNL A   1      31.799  23.142  25.004  1.00  0.00     0.261 C 
BRANCH   4   5
ATOM      5  O   UNL A   1      31.226  24.460  24.758  1.00  0.00    -0.463 OA
BRANCH   5   6
ATOM      6  C   UNL A   1      30.514  24.512  23.615  1.00  0.00     0.312 C 
ATOM      7  O   UNL A   1      30.413  23.540  22.940  1.00  0.00    -0.252 OA
BRANCH   6   8
ATOM      8  C   UNL A   1      29.892  25.740  23.031  1.00  0.00     0.143 C 
ATOM      9  C   UNL A   1      30.868  26.745  22.508  1.00  0.00     0.124 C 
ATOM     10  C   UNL A   1      30.394  27.950  23.463  1.00  0.00     0.132 C 
ATOM     11  C   UNL A   1      28.919  26.483  23.950  1.00  0.00     0.133 C 
ATOM     12  C   UNL A   1      29.048  28.623  23.036  1.00  0.00     0.035 C 
ATOM     13  O   UNL A   1      29.867  27.284  24.646  1.00  0.00    -0.373 OA
ATOM     14  C   UNL A   1      28.026  27.528  23.281  1.00  0.00     0.036 C 
BRANCH   9  15
ATOM     15  C   UNL A   1      32.408  26.293  22.516  1.00  0.00     0.232 C 
ATOM     16  N   UNL A   1      33.471  26.554  23.414  1.00  0.00    -0.302 N 
ATOM     17  H   UNL A   1      34.309  26.158  23.083  1.00  0.00     0.172 HD
ATOM     18  O   UNL A   1      32.737  25.607  21.531  1.00  0.00    -0.274 OA
BRANCH  16  19
ATOM     19  C   UNL A   1      33.685  27.214  24.645  1.00  0.00     0.190 A 
ATOM     20  C   UNL A   1      34.135  28.770  26.336  1.00  0.00     0.086 A 
ATOM     21  N   UNL A   1      34.434  28.300  24.975  1.00  0.00    -0.220 NA
ATOM     22  C   UNL A   1      33.180  27.947  26.884  1.00  0.00     0.031 A 
ATOM     23  S   UNL A   1      32.775  26.653  25.885  1.00  0.00    -0.101 S 
ATOM     24  C   UNL A   1      32.356  28.198  28.051  1.00  0.00     0.059 C 
BRANCH  20  25
ATOM     25  C   UNL A   1      34.532  30.028  27.157  1.00  0.00     0.001 A 
ATOM     26  C   UNL A   1      35.460  32.969  30.403  1.00  0.00     0.044 C 
ATOM     27  C   UNL A   1      35.158  32.019  29.271  1.00  0.00    -0.051 A 
ATOM     28  C   UNL A   1      34.083  32.159  28.371  1.00  0.00     0.004 A 
ATOM     29  C   UNL A   1      35.907  30.873  29.129  1.00  0.00     0.004 A 
ATOM     30  C   UNL A   1      33.772  31.183  27.341  1.00  0.00     0.010 A 
ATOM     31  C   UNL A   1      35.590  29.951  28.101  1.00  0.00     0.010 A 
ENDBRANCH  20  25
ENDBRANCH  16  19
ENDBRANCH   9  15
ENDBRANCH   6   8
ENDBRANCH   5   6
ENDBRANCH   4   5
ENDBRANCH   3   4
ENDBRANCH   2   3
ENDBRANCH   1   2
BRANCH   1  32
ATOM     32  C   UNL A   1      36.260  21.065  25.609  1.00  0.00     0.188 C 
BRANCH  32  33
ATOM     33  O   UNL A   1      37.180  21.727  24.776  1.00  0.00    -0.376 OA
BRANCH  33  34
ATOM     34  C   UNL A   1      38.292  22.246  25.484  1.00  0.00     0.202 C 
BRANCH  34  35
ATOM     35  C   UNL A   1      38.210  23.632  26.269  1.00  0.00     0.261 C 
BRANCH  35  36
ATOM     36  O   UNL A   1      39.482  24.341  26.550  1.00  0.00    -0.460 OA
BRANCH  36  37
ATOM     37  C   UNL A   1      40.075  24.680  27.749  1.00  0.00     0.338 C 
ATOM     38  O   UNL A   1      40.893  24.017  28.362  1.00  0.00    -0.246 OA
BRANCH  37  39
ATOM     39  C   UNL A   1      39.625  26.130  28.114  1.00  0.00     0.060 A 
ATOM     40  C   UNL A   1      39.052  27.171  27.365  1.00  0.00     0.016 A 
ATOM     41  C   UNL A   1      39.903  26.520  29.390  1.00  0.00     0.016 A 
ATOM     42  C   UNL A   1      38.990  28.582  27.867  1.00  0.00     0.010 A 
ATOM     43  C   UNL A   1      39.977  27.879  29.774  1.00  0.00     0.010 A 
ATOM     44  C   UNL A   1      39.550  29.002  29.105  1.00  0.00    -0.014 A 
BRANCH  44  45
ATOM     45  C   UNL A   1      40.389  30.324  29.504  1.00  0.00     0.031 A 
ATOM     46  C   UNL A   1      39.983  31.618  30.547  1.00  0.00     0.074 A 
ATOM     47  C   UNL A   1      41.662  29.830  29.365  1.00  0.00     0.049 A 
ATOM     48  N   UNL A   1      40.669  32.730  30.830  1.00  0.00    -0.248 NA
ATOM     49  C   UNL A   1      38.695  31.769  31.251  1.00  0.00     0.031 C 
ATOM     50  C   UNL A   1      42.838  29.539  30.218  1.00  0.00     0.029 A 
ATOM     51  N   UNL A   1      42.156  29.424  28.140  1.00  0.00    -0.354 N 
ATOM     52  C   UNL A   1      40.164  33.385  32.021  1.00  0.00     0.074 A 
ATOM     53  C   UNL A   1      38.875  32.746  32.173  1.00  0.00     0.031 C 
ATOM     54  C   UNL A   1      43.958  29.370  29.525  1.00  0.00     0.029 A 
ATOM     55  C   UNL A   1      43.534  29.532  28.200  1.00  0.00     0.049 A 
ATOM     56  H   UNL A   1      41.627  29.116  27.369  1.00  0.00     0.167 HD
ATOM     57  C   UNL A   1      40.916  34.234  32.871  1.00  0.00     0.031 A 
ATOM     58  C   UNL A   1      44.371  29.884  27.240  1.00  0.00     0.031 A 
ATOM     59  C   UNL A   1      42.225  34.672  32.286  1.00  0.00     0.049 A 
ATOM     60  C   UNL A   1      44.364  31.490  27.326  1.00  0.00     0.074 A 
ATOM     61  C   UNL A   1      43.521  34.856  32.762  1.00  0.00     0.029 A 
ATOM     62  N   UNL A   1      42.340  34.873  30.911  1.00  0.00    -0.354 N 
ATOM     63  N   UNL A   1      44.330  32.260  28.436  1.00  0.00    -0.248 NA
ATOM     64  C   UNL A   1      44.405  32.362  26.160  1.00  0.00     0.031 C 
ATOM     65  C   UNL A   1      44.392  35.086  31.644  1.00  0.00     0.029 A 
ATOM     66  C   UNL A   1      43.689  34.788  30.469  1.00  0.00     0.049 A 
ATOM     67  H   UNL A   1      41.577  35.055  30.316  1.00  0.00     0.167 HD
ATOM     68  C   UNL A   1      44.203  33.655  28.154  1.00  0.00     0.074 A 
ATOM     69  C   UNL A   1      44.372  33.605  26.692  1.00  0.00     0.031 C 
ATOM     70  C   UNL A   1      43.923  34.790  28.984  1.00  0.00     0.031 A 
BRANCH  57  71
ATOM     71  C   UNL A   1      40.711  34.524  34.486  1.00  0.00    -0.014 A 
ATOM     72  C   UNL A   1      40.087  33.542  35.325  1.00  0.00     0.010 A 
ATOM     73  C   UNL A   1      40.931  35.742  35.176  1.00  0.00     0.010 A 
ATOM     74  C   UNL A   1      39.668  33.749  36.674  1.00  0.00     0.020 A 
ATOM     75  C   UNL A   1      40.566  35.951  36.561  1.00  0.00     0.020 A 
ATOM     76  C   UNL A   1      39.924  34.955  37.302  1.00  0.00     0.054 A 
BRANCH  76  77
ATOM     77  S   UNL A   1      39.506  35.138  39.084  1.00  0.00     0.124 S 
ATOM     78  O   UNL A   1      38.936  36.482  39.154  1.00  0.00    -0.237 OA
ATOM     79  O   UNL A   1      38.554  34.050  39.306  1.00  0.00    -0.237 OA
ATOM     80  O   UNL A   1      40.789  34.974  39.762  1.00  0.00    -0.744 OA
ENDBRANCH  76  77
ENDBRANCH  57  71
BRANCH  58  81
ATOM     81  C   UNL A   1      44.394  28.515  26.474  1.00  0.00    -0.014 A 
ATOM     82  C   UNL A   1      45.723  27.995  26.290  1.00  0.00     0.010 A 
ATOM     83  C   UNL A   1      43.433  27.462  26.697  1.00  0.00     0.010 A 
ATOM     84  C   UNL A   1      46.084  26.616  26.429  1.00  0.00     0.020 A 
ATOM     85  C   UNL A   1      43.797  26.076  26.874  1.00  0.00     0.020 A 
ATOM     86  C   UNL A   1      45.124  25.660  26.732  1.00  0.00     0.054 A 
BRANCH  86  87
ATOM     87  S   UNL A   1      45.617  23.924  27.086  1.00  0.00     0.124 S 
ATOM     88  O   UNL A   1      46.821  23.762  26.278  1.00  0.00    -0.237 OA
ATOM     89  O   UNL A   1      45.828  23.896  28.532  1.00  0.00    -0.237 OA
ATOM     90  O   UNL A   1      44.456  23.172  26.628  1.00  0.00    -0.744 OA
ENDBRANCH  86  87
ENDBRANCH  58  81
BRANCH  70  91
ATOM     91  C   UNL A   1      43.591  36.241  28.517  1.00  0.00    -0.014 A 
ATOM     92  C   UNL A   1      44.492  37.145  27.970  1.00  0.00     0.010 A 
ATOM     93  C   UNL A   1      42.206  36.623  28.401  1.00  0.00     0.010 A 
ATOM     94  C   UNL A   1      44.048  38.336  27.368  1.00  0.00     0.020 A 
ATOM     95  C   UNL A   1      41.746  37.730  27.706  1.00  0.00     0.020 A 
ATOM     96  C   UNL A   1      42.684  38.610  27.225  1.00  0.00     0.054 A 
BRANCH  96  97
ATOM     97  S   UNL A   1      42.137  40.123  26.419  1.00  0.00     0.124 S 
ATOM     98  O   UNL A   1      40.961  39.651  25.693  1.00  0.00    -0.237 OA
ATOM     99  O   UNL A   1      41.870  41.008  27.550  1.00  0.00    -0.237 OA
ATOM    100  O   UNL A   1      43.275  40.509  25.588  1.00  0.00    -0.744 OA
ENDBRANCH  96  97
ENDBRANCH  70  91
ENDBRANCH  44  45
ENDBRANCH  37  39
ENDBRANCH  36  37
ENDBRANCH  35  36
ENDBRANCH  34  35
ENDBRANCH  33  34
ENDBRANCH  32  33
ENDBRANCH   1  32
TORSDOF 23
ENDMDL
