MODEL 1
REMARK VINA RESULT:      -9.9      0.000      0.000
REMARK SMILES CCOc1cnc(C(=O)c2[nH]c3cc(Cl)ccc3c2CC(=O)OCCOCCOCCOC(=O)c2ccc(-c3c4nc(c(-c5ccc(S(=O)(=O)[O-])cc5)c5ccc([nH]5)c(-c5ccc(S(=O)(=O)[O-])cc5)c5nc(c(-c6ccc(S(=O)(=O)[O-])cc6)c6ccc3[nH]6)C=C5)C=C4)cc2)cc1CC
REMARK SMILES IDX 27 1 26 2 25 3 24 4 23 5 21 6 22 7 20 8 19 9 10 10 11 11
REMARK SMILES IDX 12 12 18 14 13 15 17 16 14 17 16 18 15 19 8 20 9 21 7 22
REMARK SMILES IDX 4 23 5 24 96 25 6 26 95 27 3 28 2 29 1 30 97 31 98 32 28 33
REMARK SMILES IDX 29 34 30 35 31 36 32 37 33 38 34 39 35 40 36 41 94 42 37 43
REMARK SMILES IDX 93 44 38 45 39 46 40 47 87 48 41 49 92 50 86 51 88 52 42 53
REMARK SMILES IDX 91 54 85 55 84 56 43 58 73 59 54 60 72 61 55 62 58 63 71 64
REMARK SMILES IDX 89 65 56 66 57 67 70 69 90 70 59 71 44 72 45 73 53 74 46 75
REMARK SMILES IDX 52 76 47 77 48 78 49 79 50 80 51 81 74 82 75 83 83 84 76 85
REMARK SMILES IDX 82 86 77 87 78 88 79 89 80 90 81 91 60 92 61 93 69 94 62 95
REMARK SMILES IDX 68 96 63 97 64 98 65 99 66 100 67 101
REMARK H PARENT 11 13 88 57 58 68
REMARK Flexibility Score: inf
ROOT
ATOM      1  C   UNL A   1      33.452  28.650  24.738  1.00  0.00     0.188 C 
ENDROOT
BRANCH   1   2
ATOM      2  O   UNL A   1      32.755  27.705  23.936  1.00  0.00    -0.376 OA
BRANCH   2   3
ATOM      3  C   UNL A   1      31.848  26.828  24.588  1.00  0.00     0.202 C 
BRANCH   3   4
ATOM      4  C   UNL A   1      31.610  25.486  23.895  1.00  0.00     0.261 C 
BRANCH   4   5
ATOM      5  O   UNL A   1      30.634  24.664  24.582  1.00  0.00    -0.463 OA
BRANCH   5   6
ATOM      6  C   UNL A   1      31.055  23.415  24.904  1.00  0.00     0.310 C 
ATOM      7  O   UNL A   1      30.506  22.725  25.761  1.00  0.00    -0.252 OA
BRANCH   6   8
ATOM      8  C   UNL A   1      32.265  22.883  24.161  1.00  0.00     0.161 C 
BRANCH   8   9
ATOM      9  C   UNL A   1      33.082  21.729  24.702  1.00  0.00     0.000 A 
ATOM     10  C   UNL A   1      34.226  21.798  25.507  1.00  0.00     0.093 A 
ATOM     11  N   UNL A   1      34.612  20.504  25.773  1.00  0.00    -0.351 N 
ATOM     12  C   UNL A   1      34.020  19.648  24.881  1.00  0.00     0.048 A 
ATOM     13  H   UNL A   1      35.223  20.233  26.496  1.00  0.00     0.167 HD
ATOM     14  C   UNL A   1      33.029  20.374  24.223  1.00  0.00     0.004 A 
ATOM     15  C   UNL A   1      34.313  18.309  24.597  1.00  0.00     0.047 A 
ATOM     16  C   UNL A   1      32.283  19.721  23.219  1.00  0.00     0.012 A 
ATOM     17  C   UNL A   1      33.595  17.710  23.561  1.00  0.00     0.043 A 
ATOM     18  C   UNL A   1      32.594  18.397  22.881  1.00  0.00     0.021 A 
ATOM     19  Cl  UNL A   1      33.985  16.097  23.096  1.00  0.00    -0.084 Cl
BRANCH  10  20
ATOM     20  C   UNL A   1      34.905  22.974  26.022  1.00  0.00     0.227 C 
ATOM     21  O   UNL A   1      34.277  23.927  26.480  1.00  0.00    -0.285 OA
BRANCH  20  22
ATOM     22  C   UNL A   1      36.405  23.055  25.979  1.00  0.00     0.113 A 
ATOM     23  C   UNL A   1      39.127  22.853  26.202  1.00  0.00     0.140 A 
ATOM     24  C   UNL A   1      38.358  21.885  25.589  1.00  0.00     0.158 A 
ATOM     25  C   UNL A   1      38.514  24.056  26.552  1.00  0.00    -0.002 A 
ATOM     26  N   UNL A   1      37.018  21.975  25.452  1.00  0.00    -0.249 NA
ATOM     27  C   UNL A   1      37.112  24.135  26.495  1.00  0.00     0.040 A 
BRANCH  23  28
ATOM     28  O   UNL A   1      40.456  22.640  26.425  1.00  0.00    -0.492 OA
BRANCH  28  29
ATOM     29  C   UNL A   1      40.688  21.288  26.875  1.00  0.00     0.226 C 
ATOM     30  C   UNL A   1      41.855  21.239  27.848  1.00  0.00     0.049 C 
ENDBRANCH  28  29
ENDBRANCH  23  28
BRANCH  25  31
ATOM     31  C   UNL A   1      39.334  25.272  26.900  1.00  0.00     0.036 C 
ATOM     32  C   UNL A   1      39.701  25.248  28.378  1.00  0.00     0.009 C 
ENDBRANCH  25  31
ENDBRANCH  20  22
ENDBRANCH  10  20
ENDBRANCH   8   9
ENDBRANCH   6   8
ENDBRANCH   5   6
ENDBRANCH   4   5
ENDBRANCH   3   4
ENDBRANCH   2   3
ENDBRANCH   1   2
BRANCH   1  33
ATOM     33  C   UNL A   1      32.632  29.620  25.614  1.00  0.00     0.188 C 
BRANCH  33  34
ATOM     34  O   UNL A   1      33.245  30.208  26.756  1.00  0.00    -0.376 OA
BRANCH  34  35
ATOM     35  C   UNL A   1      34.499  29.674  27.163  1.00  0.00     0.202 C 
BRANCH  35  36
ATOM     36  C   UNL A   1      35.348  30.632  27.991  1.00  0.00     0.261 C 
BRANCH  36  37
ATOM     37  O   UNL A   1      36.750  30.430  27.730  1.00  0.00    -0.460 OA
BRANCH  37  38
ATOM     38  C   UNL A   1      37.444  29.946  28.786  1.00  0.00     0.338 C 
ATOM     39  O   UNL A   1      37.131  30.029  29.961  1.00  0.00    -0.246 OA
BRANCH  38  40
ATOM     40  C   UNL A   1      38.686  29.277  28.352  1.00  0.00     0.060 A 
ATOM     41  C   UNL A   1      39.631  28.883  29.291  1.00  0.00     0.016 A 
ATOM     42  C   UNL A   1      39.028  29.302  27.003  1.00  0.00     0.016 A 
ATOM     43  C   UNL A   1      40.961  28.695  28.909  1.00  0.00     0.010 A 
ATOM     44  C   UNL A   1      40.338  29.002  26.611  1.00  0.00     0.010 A 
ATOM     45  C   UNL A   1      41.346  28.780  27.565  1.00  0.00    -0.014 A 
BRANCH  45  46
ATOM     46  C   UNL A   1      42.787  28.735  27.165  1.00  0.00     0.031 A 
ATOM     47  C   UNL A   1      43.408  27.442  26.670  1.00  0.00     0.074 A 
ATOM     48  C   UNL A   1      43.550  29.847  27.210  1.00  0.00     0.049 A 
ATOM     49  N   UNL A   1      44.664  27.169  26.414  1.00  0.00    -0.248 NA
ATOM     50  C   UNL A   1      42.499  26.310  26.414  1.00  0.00     0.031 C 
ATOM     51  C   UNL A   1      43.083  31.190  27.568  1.00  0.00     0.029 A 
ATOM     52  N   UNL A   1      44.893  30.024  26.968  1.00  0.00    -0.354 N 
ATOM     53  C   UNL A   1      44.695  25.841  25.996  1.00  0.00     0.074 A 
ATOM     54  C   UNL A   1      43.336  25.355  26.035  1.00  0.00     0.031 C 
ATOM     55  C   UNL A   1      44.113  32.047  27.516  1.00  0.00     0.029 A 
ATOM     56  C   UNL A   1      45.332  31.301  27.233  1.00  0.00     0.049 A 
ATOM     57  H   UNL A   1      45.481  29.308  26.636  1.00  0.00     0.167 HD
ATOM     58  C   UNL A   1      45.758  25.086  25.625  1.00  0.00     0.031 A 
ATOM     59  C   UNL A   1      46.577  31.812  27.324  1.00  0.00     0.031 A 
ATOM     60  C   UNL A   1      47.121  25.549  25.643  1.00  0.00     0.049 A 
ATOM     61  C   UNL A   1      47.754  30.907  27.098  1.00  0.00     0.074 A 
ATOM     62  C   UNL A   1      48.273  24.845  25.337  1.00  0.00     0.029 A 
ATOM     63  N   UNL A   1      47.518  26.824  26.013  1.00  0.00    -0.354 N 
ATOM     64  N   UNL A   1      47.766  29.647  26.733  1.00  0.00    -0.248 NA
ATOM     65  C   UNL A   1      49.086  31.487  27.317  1.00  0.00     0.031 C 
ATOM     66  C   UNL A   1      49.370  25.671  25.598  1.00  0.00     0.029 A 
ATOM     67  C   UNL A   1      48.900  26.913  25.994  1.00  0.00     0.049 A 
ATOM     68  H   UNL A   1      46.908  27.558  26.256  1.00  0.00     0.167 HD
ATOM     69  C   UNL A   1      49.108  29.289  26.663  1.00  0.00     0.074 A 
ATOM     70  C   UNL A   1      49.876  30.469  27.005  1.00  0.00     0.031 C 
ATOM     71  C   UNL A   1      49.653  28.089  26.343  1.00  0.00     0.031 A 
BRANCH  58  72
ATOM     72  C   UNL A   1      45.506  23.650  25.243  1.00  0.00    -0.014 A 
ATOM     73  C   UNL A   1      45.020  23.301  23.970  1.00  0.00     0.010 A 
ATOM     74  C   UNL A   1      45.819  22.628  26.159  1.00  0.00     0.010 A 
ATOM     75  C   UNL A   1      44.831  21.956  23.630  1.00  0.00     0.020 A 
ATOM     76  C   UNL A   1      45.651  21.284  25.815  1.00  0.00     0.020 A 
ATOM     77  C   UNL A   1      45.146  20.957  24.556  1.00  0.00     0.054 A 
BRANCH  77  78
ATOM     78  S   UNL A   1      44.918  19.220  24.078  1.00  0.00     0.124 S 
ATOM     79  O   UNL A   1      46.233  18.654  24.367  1.00  0.00    -0.237 OA
ATOM     80  O   UNL A   1      43.840  18.784  24.961  1.00  0.00    -0.237 OA
ATOM     81  O   UNL A   1      44.571  19.292  22.661  1.00  0.00    -0.744 OA
ENDBRANCH  77  78
ENDBRANCH  58  72
BRANCH  59  82
ATOM     82  C   UNL A   1      46.767  33.225  27.761  1.00  0.00    -0.014 A 
ATOM     83  C   UNL A   1      46.891  34.266  26.826  1.00  0.00     0.010 A 
ATOM     84  C   UNL A   1      46.816  33.534  29.135  1.00  0.00     0.010 A 
ATOM     85  C   UNL A   1      47.069  35.585  27.256  1.00  0.00     0.020 A 
ATOM     86  C   UNL A   1      46.957  34.853  29.569  1.00  0.00     0.020 A 
ATOM     87  C   UNL A   1      47.096  35.870  28.625  1.00  0.00     0.054 A 
BRANCH  87  88
ATOM     88  S   UNL A   1      47.275  37.594  29.162  1.00  0.00     0.124 S 
ATOM     89  O   UNL A   1      48.669  37.871  28.832  1.00  0.00    -0.237 OA
ATOM     90  O   UNL A   1      46.281  38.285  28.344  1.00  0.00    -0.237 OA
ATOM     91  O   UNL A   1      46.967  37.541  30.589  1.00  0.00    -0.744 OA
ENDBRANCH  87  88
ENDBRANCH  59  82
BRANCH  71  92
ATOM     92  C   UNL A   1      51.154  28.000  26.312  1.00  0.00    -0.014 A 
ATOM     93  C   UNL A   1      51.887  27.606  27.445  1.00  0.00     0.010 A 
ATOM     94  C   UNL A   1      51.838  28.276  25.114  1.00  0.00     0.010 A 
ATOM     95  C   UNL A   1      53.281  27.523  27.389  1.00  0.00     0.020 A 
ATOM     96  C   UNL A   1      53.228  28.166  25.047  1.00  0.00     0.020 A 
ATOM     97  C   UNL A   1      53.942  27.805  26.190  1.00  0.00     0.054 A 
BRANCH  97  98
ATOM     98  S   UNL A   1      55.749  27.653  26.131  1.00  0.00     0.124 S 
ATOM     99  O   UNL A   1      55.978  26.453  26.930  1.00  0.00    -0.237 OA
ATOM    100  O   UNL A   1      56.013  27.518  24.702  1.00  0.00    -0.237 OA
ATOM    101  O   UNL A   1      56.219  28.900  26.731  1.00  0.00    -0.744 OA
ENDBRANCH  97  98
ENDBRANCH  71  92
ENDBRANCH  45  46
ENDBRANCH  38  40
ENDBRANCH  37  38
ENDBRANCH  36  37
ENDBRANCH  35  36
ENDBRANCH  34  35
ENDBRANCH  33  34
ENDBRANCH   1  33
TORSDOF 26
ENDMDL
MODEL 2
REMARK VINA RESULT:      -9.4      5.738      6.928
REMARK SMILES CCOc1cnc(C(=O)c2[nH]c3cc(Cl)ccc3c2CC(=O)OCCOCCOCCOC(=O)c2ccc(-c3c4nc(c(-c5ccc(S(=O)(=O)[O-])cc5)c5ccc([nH]5)c(-c5ccc(S(=O)(=O)[O-])cc5)c5nc(c(-c6ccc(S(=O)(=O)[O-])cc6)c6ccc3[nH]6)C=C5)C=C4)cc2)cc1CC
REMARK SMILES IDX 27 1 26 2 25 3 24 4 23 5 21 6 22 7 20 8 19 9 10 10 11 11
REMARK SMILES IDX 12 12 18 14 13 15 17 16 14 17 16 18 15 19 8 20 9 21 7 22
REMARK SMILES IDX 4 23 5 24 96 25 6 26 95 27 3 28 2 29 1 30 97 31 98 32 28 33
REMARK SMILES IDX 29 34 30 35 31 36 32 37 33 38 34 39 35 40 36 41 94 42 37 43
REMARK SMILES IDX 93 44 38 45 39 46 40 47 87 48 41 49 92 50 86 51 88 52 42 53
REMARK SMILES IDX 91 54 85 55 84 56 43 58 73 59 54 60 72 61 55 62 58 63 71 64
REMARK SMILES IDX 89 65 56 66 57 67 70 69 90 70 59 71 44 72 45 73 53 74 46 75
REMARK SMILES IDX 52 76 47 77 48 78 49 79 50 80 51 81 74 82 75 83 83 84 76 85
REMARK SMILES IDX 82 86 77 87 78 88 79 89 80 90 81 91 60 92 61 93 69 94 62 95
REMARK SMILES IDX 68 96 63 97 64 98 65 99 66 100 67 101
REMARK H PARENT 11 13 88 57 58 68
REMARK Flexibility Score: inf
ROOT
ATOM      1  C   UNL A   1      31.791  27.145  26.792  1.00  0.00     0.188 C 
ENDROOT
BRANCH   1   2
ATOM      2  O   UNL A   1      31.879  26.051  25.888  1.00  0.00    -0.376 OA
BRANCH   2   3
ATOM      3  C   UNL A   1      32.159  26.340  24.527  1.00  0.00     0.202 C 
BRANCH   3   4
ATOM      4  C   UNL A   1      31.233  25.681  23.504  1.00  0.00     0.261 C 
BRANCH   4   5
ATOM      5  O   UNL A   1      31.660  24.346  23.138  1.00  0.00    -0.463 OA
BRANCH   5   6
ATOM      6  C   UNL A   1      32.772  24.287  22.363  1.00  0.00     0.310 C 
ATOM      7  O   UNL A   1      33.009  25.101  21.472  1.00  0.00    -0.252 OA
BRANCH   6   8
ATOM      8  C   UNL A   1      33.737  23.148  22.629  1.00  0.00     0.161 C 
BRANCH   8   9
ATOM      9  C   UNL A   1      33.674  22.338  23.906  1.00  0.00     0.000 A 
ATOM     10  C   UNL A   1      34.371  22.572  25.099  1.00  0.00     0.093 A 
ATOM     11  N   UNL A   1      33.981  21.599  25.992  1.00  0.00    -0.351 N 
ATOM     12  C   UNL A   1      33.388  20.562  25.321  1.00  0.00     0.048 A 
ATOM     13  H   UNL A   1      34.110  21.642  26.967  1.00  0.00     0.167 HD
ATOM     14  C   UNL A   1      33.145  21.006  24.023  1.00  0.00     0.004 A 
ATOM     15  C   UNL A   1      33.083  19.269  25.763  1.00  0.00     0.047 A 
ATOM     16  C   UNL A   1      32.560  20.104  23.110  1.00  0.00     0.012 A 
ATOM     17  C   UNL A   1      32.558  18.384  24.821  1.00  0.00     0.043 A 
ATOM     18  C   UNL A   1      32.295  18.789  23.515  1.00  0.00     0.021 A 
ATOM     19  Cl  UNL A   1      32.262  16.749  25.279  1.00  0.00    -0.084 Cl
BRANCH  10  20
ATOM     20  C   UNL A   1      35.313  23.633  25.409  1.00  0.00     0.227 C 
ATOM     21  O   UNL A   1      34.956  24.808  25.470  1.00  0.00    -0.285 OA
BRANCH  20  22
ATOM     22  C   UNL A   1      36.761  23.309  25.638  1.00  0.00     0.113 A 
ATOM     23  C   UNL A   1      39.244  22.384  26.332  1.00  0.00     0.140 A 
ATOM     24  C   UNL A   1      38.375  21.659  25.544  1.00  0.00     0.158 A 
ATOM     25  C   UNL A   1      38.916  23.707  26.628  1.00  0.00    -0.002 A 
ATOM     26  N   UNL A   1      37.156  22.105  25.175  1.00  0.00    -0.249 NA
ATOM     27  C   UNL A   1      37.620  24.159  26.326  1.00  0.00     0.040 A 
BRANCH  23  28
ATOM     28  O   UNL A   1      40.405  21.822  26.777  1.00  0.00    -0.492 OA
BRANCH  28  29
ATOM     29  C   UNL A   1      40.349  20.383  26.672  1.00  0.00     0.226 C 
ATOM     30  C   UNL A   1      41.716  19.817  26.325  1.00  0.00     0.049 C 
ENDBRANCH  28  29
ENDBRANCH  23  28
BRANCH  25  31
ATOM     31  C   UNL A   1      39.948  24.658  27.178  1.00  0.00     0.036 C 
ATOM     32  C   UNL A   1      40.631  25.403  26.038  1.00  0.00     0.009 C 
ENDBRANCH  25  31
ENDBRANCH  20  22
ENDBRANCH  10  20
ENDBRANCH   8   9
ENDBRANCH   6   8
ENDBRANCH   5   6
ENDBRANCH   4   5
ENDBRANCH   3   4
ENDBRANCH   2   3
ENDBRANCH   1   2
BRANCH   1  33
ATOM     33  C   UNL A   1      31.732  28.574  26.215  1.00  0.00     0.188 C 
BRANCH  33  34
ATOM     34  O   UNL A   1      31.555  29.673  27.103  1.00  0.00    -0.376 OA
BRANCH  34  35
ATOM     35  C   UNL A   1      32.356  30.825  26.871  1.00  0.00     0.202 C 
BRANCH  35  36
ATOM     36  C   UNL A   1      33.799  30.688  27.344  1.00  0.00     0.261 C 
BRANCH  36  37
ATOM     37  O   UNL A   1      34.331  31.965  27.741  1.00  0.00    -0.460 OA
BRANCH  37  38
ATOM     38  C   UNL A   1      34.780  32.004  29.018  1.00  0.00     0.338 C 
ATOM     39  O   UNL A   1      34.211  32.506  29.973  1.00  0.00    -0.246 OA
BRANCH  38  40
ATOM     40  C   UNL A   1      36.096  31.350  29.146  1.00  0.00     0.060 A 
ATOM     41  C   UNL A   1      36.207  30.123  29.788  1.00  0.00     0.016 A 
ATOM     42  C   UNL A   1      37.244  32.090  28.879  1.00  0.00     0.016 A 
ATOM     43  C   UNL A   1      37.431  29.722  30.327  1.00  0.00     0.010 A 
ATOM     44  C   UNL A   1      38.490  31.630  29.324  1.00  0.00     0.010 A 
ATOM     45  C   UNL A   1      38.590  30.482  30.130  1.00  0.00    -0.014 A 
BRANCH  45  46
ATOM     46  C   UNL A   1      39.869  30.147  30.831  1.00  0.00     0.031 A 
ATOM     47  C   UNL A   1      40.790  29.076  30.278  1.00  0.00     0.074 A 
ATOM     48  C   UNL A   1      40.236  30.807  31.949  1.00  0.00     0.049 A 
ATOM     49  N   UNL A   1      41.863  28.546  30.813  1.00  0.00    -0.248 NA
ATOM     50  C   UNL A   1      40.477  28.539  28.941  1.00  0.00     0.031 C 
ATOM     51  C   UNL A   1      39.513  31.928  32.556  1.00  0.00     0.029 A 
ATOM     52  N   UNL A   1      41.310  30.619  32.790  1.00  0.00    -0.354 N 
ATOM     53  C   UNL A   1      42.330  27.607  29.897  1.00  0.00     0.074 A 
ATOM     54  C   UNL A   1      41.426  27.629  28.771  1.00  0.00     0.031 C 
ATOM     55  C   UNL A   1      40.161  32.330  33.658  1.00  0.00     0.029 A 
ATOM     56  C   UNL A   1      41.279  31.428  33.903  1.00  0.00     0.049 A 
ATOM     57  H   UNL A   1      42.029  29.970  32.611  1.00  0.00     0.167 HD
ATOM     58  C   UNL A   1      43.406  26.787  29.988  1.00  0.00     0.031 A 
ATOM     59  C   UNL A   1      42.008  31.406  35.037  1.00  0.00     0.031 A 
ATOM     60  C   UNL A   1      44.274  26.719  31.134  1.00  0.00     0.049 A 
ATOM     61  C   UNL A   1      43.074  30.360  35.198  1.00  0.00     0.074 A 
ATOM     62  C   UNL A   1      45.358  25.883  31.344  1.00  0.00     0.029 A 
ATOM     63  N   UNL A   1      44.140  27.493  32.274  1.00  0.00    -0.354 N 
ATOM     64  N   UNL A   1      43.483  29.461  34.335  1.00  0.00    -0.248 NA
ATOM     65  C   UNL A   1      43.763  30.312  36.495  1.00  0.00     0.031 C 
ATOM     66  C   UNL A   1      45.830  26.101  32.642  1.00  0.00     0.029 A 
ATOM     67  C   UNL A   1      45.088  27.122  33.212  1.00  0.00     0.049 A 
ATOM     68  H   UNL A   1      43.468  28.202  32.400  1.00  0.00     0.167 HD
ATOM     69  C   UNL A   1      44.489  28.750  34.981  1.00  0.00     0.074 A 
ATOM     70  C   UNL A   1      44.639  29.336  36.297  1.00  0.00     0.031 C 
ATOM     71  C   UNL A   1      45.222  27.707  34.522  1.00  0.00     0.031 A 
BRANCH  58  72
ATOM     72  C   UNL A   1      43.666  25.835  28.848  1.00  0.00    -0.014 A 
ATOM     73  C   UNL A   1      43.125  24.536  28.835  1.00  0.00     0.010 A 
ATOM     74  C   UNL A   1      44.420  26.272  27.742  1.00  0.00     0.010 A 
ATOM     75  C   UNL A   1      43.353  23.687  27.746  1.00  0.00     0.020 A 
ATOM     76  C   UNL A   1      44.631  25.434  26.644  1.00  0.00     0.020 A 
ATOM     77  C   UNL A   1      44.106  24.141  26.658  1.00  0.00     0.054 A 
BRANCH  77  78
ATOM     78  S   UNL A   1      44.361  23.028  25.246  1.00  0.00     0.124 S 
ATOM     79  O   UNL A   1      43.000  22.580  24.968  1.00  0.00    -0.237 OA
ATOM     80  O   UNL A   1      44.948  23.914  24.244  1.00  0.00    -0.237 OA
ATOM     81  O   UNL A   1      45.259  22.003  25.770  1.00  0.00    -0.744 OA
ENDBRANCH  77  78
ENDBRANCH  58  72
BRANCH  59  82
ATOM     82  C   UNL A   1      41.669  32.336  36.152  1.00  0.00    -0.014 A 
ATOM     83  C   UNL A   1      40.555  32.108  36.977  1.00  0.00     0.010 A 
ATOM     84  C   UNL A   1      42.478  33.464  36.396  1.00  0.00     0.010 A 
ATOM     85  C   UNL A   1      40.254  32.992  38.018  1.00  0.00     0.020 A 
ATOM     86  C   UNL A   1      42.202  34.329  37.456  1.00  0.00     0.020 A 
ATOM     87  C   UNL A   1      41.082  34.095  38.253  1.00  0.00     0.054 A 
BRANCH  87  88
ATOM     88  S   UNL A   1      40.703  35.201  39.640  1.00  0.00     0.124 S 
ATOM     89  O   UNL A   1      39.653  36.044  39.078  1.00  0.00    -0.237 OA
ATOM     90  O   UNL A   1      40.277  34.268  40.682  1.00  0.00    -0.237 OA
ATOM     91  O   UNL A   1      41.975  35.872  39.899  1.00  0.00    -0.744 OA
ENDBRANCH  87  88
ENDBRANCH  59  82
BRANCH  71  92
ATOM     92  C   UNL A   1      46.280  27.152  35.436  1.00  0.00    -0.014 A 
ATOM     93  C   UNL A   1      45.970  26.191  36.414  1.00  0.00     0.010 A 
ATOM     94  C   UNL A   1      47.614  27.572  35.283  1.00  0.00     0.010 A 
ATOM     95  C   UNL A   1      46.972  25.684  37.247  1.00  0.00     0.020 A 
ATOM     96  C   UNL A   1      48.622  27.045  36.094  1.00  0.00     0.020 A 
ATOM     97  C   UNL A   1      48.292  26.117  37.081  1.00  0.00     0.054 A 
BRANCH  97  98
ATOM     98  S   UNL A   1      49.581  25.417  38.149  1.00  0.00     0.124 S 
ATOM     99  O   UNL A   1      49.598  26.363  39.261  1.00  0.00    -0.237 OA
ATOM    100  O   UNL A   1      49.056  24.090  38.458  1.00  0.00    -0.237 OA
ATOM    101  O   UNL A   1      50.772  25.427  37.303  1.00  0.00    -0.744 OA
ENDBRANCH  97  98
ENDBRANCH  71  92
ENDBRANCH  45  46
ENDBRANCH  38  40
ENDBRANCH  37  38
ENDBRANCH  36  37
ENDBRANCH  35  36
ENDBRANCH  34  35
ENDBRANCH  33  34
ENDBRANCH   1  33
TORSDOF 26
ENDMDL
MODEL 3
REMARK VINA RESULT:      -9.4      2.724      5.547
REMARK SMILES CCOc1cnc(C(=O)c2[nH]c3cc(Cl)ccc3c2CC(=O)OCCOCCOCCOC(=O)c2ccc(-c3c4nc(c(-c5ccc(S(=O)(=O)[O-])cc5)c5ccc([nH]5)c(-c5ccc(S(=O)(=O)[O-])cc5)c5nc(c(-c6ccc(S(=O)(=O)[O-])cc6)c6ccc3[nH]6)C=C5)C=C4)cc2)cc1CC
REMARK SMILES IDX 27 1 26 2 25 3 24 4 23 5 21 6 22 7 20 8 19 9 10 10 11 11
REMARK SMILES IDX 12 12 18 14 13 15 17 16 14 17 16 18 15 19 8 20 9 21 7 22
REMARK SMILES IDX 4 23 5 24 96 25 6 26 95 27 3 28 2 29 1 30 97 31 98 32 28 33
REMARK SMILES IDX 29 34 30 35 31 36 32 37 33 38 34 39 35 40 36 41 94 42 37 43
REMARK SMILES IDX 93 44 38 45 39 46 40 47 87 48 41 49 92 50 86 51 88 52 42 53
REMARK SMILES IDX 91 54 85 55 84 56 43 58 73 59 54 60 72 61 55 62 58 63 71 64
REMARK SMILES IDX 89 65 56 66 57 67 70 69 90 70 59 71 44 72 45 73 53 74 46 75
REMARK SMILES IDX 52 76 47 77 48 78 49 79 50 80 51 81 74 82 75 83 83 84 76 85
REMARK SMILES IDX 82 86 77 87 78 88 79 89 80 90 81 91 60 92 61 93 69 94 62 95
REMARK SMILES IDX 68 96 63 97 64 98 65 99 66 100 67 101
REMARK H PARENT 11 13 88 57 58 68
REMARK Flexibility Score: inf
ROOT
ATOM      1  C   UNL A   1      34.158  32.558  28.084  1.00  0.00     0.188 C 
ENDROOT
BRANCH   1   2
ATOM      2  O   UNL A   1      34.861  31.400  27.651  1.00  0.00    -0.376 OA
BRANCH   2   3
ATOM      3  C   UNL A   1      34.150  30.172  27.613  1.00  0.00     0.202 C 
BRANCH   3   4
ATOM      4  C   UNL A   1      33.173  30.006  26.448  1.00  0.00     0.261 C 
BRANCH   4   5
ATOM      5  O   UNL A   1      31.942  29.348  26.836  1.00  0.00    -0.463 OA
BRANCH   5   6
ATOM      6  C   UNL A   1      31.993  27.992  26.853  1.00  0.00     0.310 C 
ATOM      7  O   UNL A   1      31.047  27.293  27.213  1.00  0.00    -0.252 OA
BRANCH   6   8
ATOM      8  C   UNL A   1      33.292  27.345  26.413  1.00  0.00     0.161 C 
BRANCH   8   9
ATOM      9  C   UNL A   1      33.353  26.435  25.205  1.00  0.00     0.000 A 
ATOM     10  C   UNL A   1      33.191  26.791  23.860  1.00  0.00     0.093 A 
ATOM     11  N   UNL A   1      33.354  25.645  23.115  1.00  0.00    -0.351 N 
ATOM     12  C   UNL A   1      33.224  24.544  23.921  1.00  0.00     0.048 A 
ATOM     13  H   UNL A   1      33.535  25.620  22.148  1.00  0.00     0.167 HD
ATOM     14  C   UNL A   1      33.262  25.000  25.237  1.00  0.00     0.004 A 
ATOM     15  C   UNL A   1      33.049  23.199  23.576  1.00  0.00     0.047 A 
ATOM     16  C   UNL A   1      33.116  24.054  26.273  1.00  0.00     0.012 A 
ATOM     17  C   UNL A   1      32.852  22.297  24.621  1.00  0.00     0.043 A 
ATOM     18  C   UNL A   1      32.887  22.710  25.950  1.00  0.00     0.021 A 
ATOM     19  Cl  UNL A   1      32.525  20.645  24.253  1.00  0.00    -0.084 Cl
BRANCH  10  20
ATOM     20  C   UNL A   1      32.931  28.103  23.292  1.00  0.00     0.227 C 
ATOM     21  O   UNL A   1      33.829  28.932  23.158  1.00  0.00    -0.285 OA
BRANCH  20  22
ATOM     22  C   UNL A   1      31.537  28.479  22.878  1.00  0.00     0.113 A 
ATOM     23  C   UNL A   1      29.087  29.571  22.326  1.00  0.00     0.140 A 
ATOM     24  C   UNL A   1      30.248  30.010  21.724  1.00  0.00     0.158 A 
ATOM     25  C   UNL A   1      29.143  28.412  23.099  1.00  0.00    -0.002 A 
ATOM     26  N   UNL A   1      31.462  29.472  21.968  1.00  0.00    -0.249 NA
ATOM     27  C   UNL A   1      30.406  27.890  23.432  1.00  0.00     0.040 A 
BRANCH  23  28
ATOM     28  O   UNL A   1      27.915  30.243  22.136  1.00  0.00    -0.492 OA
BRANCH  28  29
ATOM     29  C   UNL A   1      28.120  31.668  22.243  1.00  0.00     0.226 C 
ATOM     30  C   UNL A   1      27.837  32.354  20.916  1.00  0.00     0.049 C 
ENDBRANCH  28  29
ENDBRANCH  23  28
BRANCH  25  31
ATOM     31  C   UNL A   1      27.886  27.683  23.498  1.00  0.00     0.036 C 
ATOM     32  C   UNL A   1      28.238  26.334  24.112  1.00  0.00     0.009 C 
ENDBRANCH  25  31
ENDBRANCH  20  22
ENDBRANCH  10  20
ENDBRANCH   8   9
ENDBRANCH   6   8
ENDBRANCH   5   6
ENDBRANCH   4   5
ENDBRANCH   3   4
ENDBRANCH   2   3
ENDBRANCH   1   2
BRANCH   1  33
ATOM     33  C   UNL A   1      34.853  33.515  29.074  1.00  0.00     0.188 C 
BRANCH  33  34
ATOM     34  O   UNL A   1      35.616  32.968  30.145  1.00  0.00    -0.376 OA
BRANCH  34  35
ATOM     35  C   UNL A   1      34.948  32.794  31.389  1.00  0.00     0.202 C 
BRANCH  35  36
ATOM     36  C   UNL A   1      35.466  31.623  32.217  1.00  0.00     0.261 C 
BRANCH  36  37
ATOM     37  O   UNL A   1      36.905  31.573  32.188  1.00  0.00    -0.460 OA
BRANCH  37  38
ATOM     38  C   UNL A   1      37.408  30.409  31.716  1.00  0.00     0.338 C 
ATOM     39  O   UNL A   1      36.864  29.318  31.743  1.00  0.00    -0.246 OA
BRANCH  38  40
ATOM     40  C   UNL A   1      38.753  30.599  31.139  1.00  0.00     0.060 A 
ATOM     41  C   UNL A   1      38.896  30.943  29.801  1.00  0.00     0.016 A 
ATOM     42  C   UNL A   1      39.861  30.158  31.857  1.00  0.00     0.016 A 
ATOM     43  C   UNL A   1      40.092  30.673  29.133  1.00  0.00     0.010 A 
ATOM     44  C   UNL A   1      41.091  29.995  31.208  1.00  0.00     0.010 A 
ATOM     45  C   UNL A   1      41.204  30.166  29.817  1.00  0.00    -0.014 A 
BRANCH  45  46
ATOM     46  C   UNL A   1      42.434  29.728  29.087  1.00  0.00     0.031 A 
ATOM     47  C   UNL A   1      42.566  28.300  28.591  1.00  0.00     0.074 A 
ATOM     48  C   UNL A   1      43.432  30.600  28.832  1.00  0.00     0.049 A 
ATOM     49  N   UNL A   1      43.604  27.695  28.068  1.00  0.00    -0.248 NA
ATOM     50  C   UNL A   1      41.372  27.441  28.680  1.00  0.00     0.031 C 
ATOM     51  C   UNL A   1      43.420  32.030  29.154  1.00  0.00     0.029 A 
ATOM     52  N   UNL A   1      44.667  30.406  28.256  1.00  0.00    -0.354 N 
ATOM     53  C   UNL A   1      43.198  26.393  27.793  1.00  0.00     0.074 A 
ATOM     54  C   UNL A   1      41.819  26.284  28.209  1.00  0.00     0.031 C 
ATOM     55  C   UNL A   1      44.579  32.581  28.766  1.00  0.00     0.029 A 
ATOM     56  C   UNL A   1      45.460  31.530  28.275  1.00  0.00     0.049 A 
ATOM     57  H   UNL A   1      44.953  29.548  27.867  1.00  0.00     0.167 HD
ATOM     58  C   UNL A   1      43.908  25.371  27.256  1.00  0.00     0.031 A 
ATOM     59  C   UNL A   1      46.772  31.696  28.010  1.00  0.00     0.031 A 
ATOM     60  C   UNL A   1      45.299  25.457  26.896  1.00  0.00     0.049 A 
ATOM     61  C   UNL A   1      47.589  30.505  27.600  1.00  0.00     0.074 A 
ATOM     62  C   UNL A   1      46.121  24.462  26.394  1.00  0.00     0.029 A 
ATOM     63  N   UNL A   1      46.080  26.593  27.027  1.00  0.00    -0.354 N 
ATOM     64  N   UNL A   1      47.195  29.275  27.373  1.00  0.00    -0.248 NA
ATOM     65  C   UNL A   1      49.033  30.719  27.429  1.00  0.00     0.031 C 
ATOM     66  C   UNL A   1      47.418  24.978  26.297  1.00  0.00     0.029 A 
ATOM     67  C   UNL A   1      47.387  26.313  26.665  1.00  0.00     0.049 A 
ATOM     68  H   UNL A   1      45.755  27.471  27.334  1.00  0.00     0.167 HD
ATOM     69  C   UNL A   1      48.342  28.572  27.017  1.00  0.00     0.074 A 
ATOM     70  C   UNL A   1      49.438  29.518  27.041  1.00  0.00     0.031 C 
ATOM     71  C   UNL A   1      48.471  27.260  26.700  1.00  0.00     0.031 A 
BRANCH  58  72
ATOM     72  C   UNL A   1      43.219  24.040  27.094  1.00  0.00    -0.014 A 
ATOM     73  C   UNL A   1      43.011  23.180  28.188  1.00  0.00     0.010 A 
ATOM     74  C   UNL A   1      42.719  23.671  25.831  1.00  0.00     0.010 A 
ATOM     75  C   UNL A   1      42.335  21.967  28.014  1.00  0.00     0.020 A 
ATOM     76  C   UNL A   1      42.025  22.470  25.658  1.00  0.00     0.020 A 
ATOM     77  C   UNL A   1      41.848  21.619  26.750  1.00  0.00     0.054 A 
BRANCH  77  78
ATOM     78  S   UNL A   1      40.949  20.053  26.560  1.00  0.00     0.124 S 
ATOM     79  O   UNL A   1      41.838  19.302  25.678  1.00  0.00    -0.237 OA
ATOM     80  O   UNL A   1      40.867  19.563  27.933  1.00  0.00    -0.237 OA
ATOM     81  O   UNL A   1      39.676  20.453  25.965  1.00  0.00    -0.744 OA
ENDBRANCH  77  78
ENDBRANCH  58  72
BRANCH  59  82
ATOM     82  C   UNL A   1      47.411  33.024  28.241  1.00  0.00    -0.014 A 
ATOM     83  C   UNL A   1      47.414  34.014  27.244  1.00  0.00     0.010 A 
ATOM     84  C   UNL A   1      48.019  33.303  29.481  1.00  0.00     0.010 A 
ATOM     85  C   UNL A   1      48.019  35.253  27.481  1.00  0.00     0.020 A 
ATOM     86  C   UNL A   1      48.592  34.550  29.734  1.00  0.00     0.020 A 
ATOM     87  C   UNL A   1      48.601  35.514  28.726  1.00  0.00     0.054 A 
BRANCH  87  88
ATOM     88  S   UNL A   1      49.335  37.145  29.030  1.00  0.00     0.124 S 
ATOM     89  O   UNL A   1      50.333  37.231  27.970  1.00  0.00    -0.237 OA
ATOM     90  O   UNL A   1      48.187  38.039  28.893  1.00  0.00    -0.237 OA
ATOM     91  O   UNL A   1      49.868  37.032  30.386  1.00  0.00    -0.744 OA
ENDBRANCH  87  88
ENDBRANCH  59  82
BRANCH  71  92
ATOM     92  C   UNL A   1      49.843  26.776  26.316  1.00  0.00    -0.014 A 
ATOM     93  C   UNL A   1      50.702  26.189  27.261  1.00  0.00     0.010 A 
ATOM     94  C   UNL A   1      50.259  26.875  24.976  1.00  0.00     0.010 A 
ATOM     95  C   UNL A   1      51.968  25.739  26.878  1.00  0.00     0.020 A 
ATOM     96  C   UNL A   1      51.513  26.400  24.585  1.00  0.00     0.020 A 
ATOM     97  C   UNL A   1      52.366  25.849  25.542  1.00  0.00     0.054 A 
BRANCH  97  98
ATOM     98  S   UNL A   1      54.000  25.225  25.062  1.00  0.00     0.124 S 
ATOM     99  O   UNL A   1      54.272  25.990  23.848  1.00  0.00    -0.237 OA
ATOM    100  O   UNL A   1      54.825  25.562  26.218  1.00  0.00    -0.237 OA
ATOM    101  O   UNL A   1      53.777  23.795  24.859  1.00  0.00    -0.744 OA
ENDBRANCH  97  98
ENDBRANCH  71  92
ENDBRANCH  45  46
ENDBRANCH  38  40
ENDBRANCH  37  38
ENDBRANCH  36  37
ENDBRANCH  35  36
ENDBRANCH  34  35
ENDBRANCH  33  34
ENDBRANCH   1  33
TORSDOF 26
ENDMDL
