MODEL 1
REMARK VINA RESULT:     -10.0      0.000      0.000
REMARK SMILES CC(=O)Nc1cnc(N(C)CCc2cn[nH]c2)c(C(=O)OCCOCCOCCOC(=O)c2ccc(-c3c4nc(c(-c5ccc(S(=O)(=O)[O-])cc5)c5ccc([nH]5)c(-c5ccc(S(=O)(=O)[O-])cc5)c5nc(c(-c6ccc(S(=O)(=O)[O-])cc6)c6ccc3[nH]6)C=C5)C=C4)cc2)c1
REMARK SMILES IDX 25 1 24 2 23 3 22 4 21 5 19 6 20 7 18 8 5 9 6 10 93 11 7 12
REMARK SMILES IDX 8 13 4 14 1 15 2 16 3 17 9 19 10 20 11 21 12 22 13 23 14 24
REMARK SMILES IDX 17 25 15 26 16 27 26 29 27 30 28 31 29 32 30 33 31 34 32 35
REMARK SMILES IDX 33 36 34 37 92 38 35 39 91 40 36 41 37 42 38 43 85 44 39 45
REMARK SMILES IDX 90 46 84 47 86 48 40 49 89 50 83 51 82 52 41 54 71 55 52 56
REMARK SMILES IDX 70 57 53 58 56 59 69 60 87 61 54 62 55 63 68 65 88 66 57 67
REMARK SMILES IDX 42 68 43 69 51 70 44 71 50 72 45 73 46 74 47 75 48 76 49 77
REMARK SMILES IDX 72 78 73 79 81 80 74 81 80 82 75 83 76 84 77 85 78 86 79 87
REMARK SMILES IDX 58 88 59 89 67 90 60 91 66 92 61 93 62 94 63 95 64 96 65 97
REMARK H PARENT 4 18 16 28 86 53 56 64
REMARK Flexibility Score: inf
ROOT
ATOM      1  C   UNL A   1      34.803  31.856  27.835  1.00  0.00     0.188 C 
ENDROOT
BRANCH   1   2
ATOM      2  O   UNL A   1      35.262  30.519  27.941  1.00  0.00    -0.376 OA
BRANCH   2   3
ATOM      3  C   UNL A   1      34.345  29.494  27.614  1.00  0.00     0.202 C 
BRANCH   3   4
ATOM      4  C   UNL A   1      33.469  29.736  26.369  1.00  0.00     0.261 C 
BRANCH   4   5
ATOM      5  O   UNL A   1      33.215  28.623  25.483  1.00  0.00    -0.460 OA
BRANCH   5   6
ATOM      6  C   UNL A   1      31.933  28.176  25.470  1.00  0.00     0.342 C 
ATOM      7  O   UNL A   1      31.464  27.601  26.435  1.00  0.00    -0.246 OA
BRANCH   6   8
ATOM      8  C   UNL A   1      31.208  28.521  24.204  1.00  0.00     0.104 A 
ATOM      9  C   UNL A   1      29.942  30.211  22.968  1.00  0.00     0.060 A 
ATOM     10  C   UNL A   1      29.759  29.264  21.992  1.00  0.00     0.139 A 
ATOM     11  C   UNL A   1      30.576  29.790  24.130  1.00  0.00     0.047 A 
ATOM     12  N   UNL A   1      30.346  28.053  22.037  1.00  0.00    -0.236 NA
ATOM     13  C   UNL A   1      31.172  27.696  23.067  1.00  0.00     0.143 A 
BRANCH   9  14
ATOM     14  N   UNL A   1      29.536  31.532  22.724  1.00  0.00    -0.325 N 
ATOM     15  C   UNL A   1      27.296  31.317  23.782  1.00  0.00     0.114 C 
ATOM     16  C   UNL A   1      28.330  32.111  23.026  1.00  0.00     0.221 C 
ATOM     17  O   UNL A   1      28.145  33.301  22.767  1.00  0.00    -0.275 OA
ATOM     18  H   UNL A   1      30.197  32.114  22.285  1.00  0.00     0.169 HD
ENDBRANCH   9  14
BRANCH  13  19
ATOM     19  N   UNL A   1      31.924  26.577  22.785  1.00  0.00    -0.359 N 
ATOM     20  C   UNL A   1      33.221  26.846  22.138  1.00  0.00     0.145 C 
BRANCH  19  21
ATOM     21  C   UNL A   1      31.550  25.152  22.891  1.00  0.00     0.122 C 
BRANCH  21  22
ATOM     22  C   UNL A   1      30.664  24.697  24.077  1.00  0.00     0.060 C 
BRANCH  22  23
ATOM     23  C   UNL A   1      31.211  24.155  25.373  1.00  0.00    -0.008 A 
ATOM     24  C   UNL A   1      30.466  23.652  26.476  1.00  0.00     0.138 A 
ATOM     25  C   UNL A   1      32.510  23.873  25.748  1.00  0.00     0.108 A 
ATOM     26  N   UNL A   1      31.231  23.253  27.497  1.00  0.00    -0.184 NA
ATOM     27  N   UNL A   1      32.474  23.459  27.047  1.00  0.00    -0.285 N 
ATOM     28  H   UNL A   1      33.280  23.325  27.597  1.00  0.00     0.189 HD
ENDBRANCH  22  23
ENDBRANCH  21  22
ENDBRANCH  19  21
ENDBRANCH  13  19
ENDBRANCH   6   8
ENDBRANCH   5   6
ENDBRANCH   4   5
ENDBRANCH   3   4
ENDBRANCH   2   3
ENDBRANCH   1   2
BRANCH   1  29
ATOM     29  C   UNL A   1      34.697  32.565  29.201  1.00  0.00     0.188 C 
BRANCH  29  30
ATOM     30  O   UNL A   1      35.032  33.943  29.296  1.00  0.00    -0.376 OA
BRANCH  30  31
ATOM     31  C   UNL A   1      34.317  34.857  28.478  1.00  0.00     0.202 C 
BRANCH  31  32
ATOM     32  C   UNL A   1      33.072  35.561  29.055  1.00  0.00     0.261 C 
BRANCH  32  33
ATOM     33  O   UNL A   1      32.533  35.022  30.284  1.00  0.00    -0.460 OA
BRANCH  33  34
ATOM     34  C   UNL A   1      32.828  35.690  31.433  1.00  0.00     0.338 C 
ATOM     35  O   UNL A   1      32.209  36.636  31.895  1.00  0.00    -0.246 OA
BRANCH  34  36
ATOM     36  C   UNL A   1      33.896  34.982  32.198  1.00  0.00     0.060 A 
ATOM     37  C   UNL A   1      35.204  35.504  32.190  1.00  0.00     0.016 A 
ATOM     38  C   UNL A   1      33.645  33.788  32.872  1.00  0.00     0.016 A 
ATOM     39  C   UNL A   1      36.254  34.835  32.834  1.00  0.00     0.010 A 
ATOM     40  C   UNL A   1      34.708  33.097  33.480  1.00  0.00     0.010 A 
ATOM     41  C   UNL A   1      36.024  33.598  33.445  1.00  0.00    -0.014 A 
BRANCH  41  42
ATOM     42  C   UNL A   1      37.160  32.719  33.850  1.00  0.00     0.031 A 
ATOM     43  C   UNL A   1      37.888  33.044  35.132  1.00  0.00     0.074 A 
ATOM     44  C   UNL A   1      37.570  31.669  33.112  1.00  0.00     0.049 A 
ATOM     45  N   UNL A   1      39.009  32.557  35.601  1.00  0.00    -0.248 NA
ATOM     46  C   UNL A   1      37.264  34.060  35.997  1.00  0.00     0.031 C 
ATOM     47  C   UNL A   1      36.925  31.175  31.897  1.00  0.00     0.029 A 
ATOM     48  N   UNL A   1      38.657  30.838  33.274  1.00  0.00    -0.354 N 
ATOM     49  C   UNL A   1      39.232  33.213  36.808  1.00  0.00     0.074 A 
ATOM     50  C   UNL A   1      38.141  34.146  36.988  1.00  0.00     0.031 C 
ATOM     51  C   UNL A   1      37.644  30.147  31.407  1.00  0.00     0.029 A 
ATOM     52  C   UNL A   1      38.830  29.942  32.242  1.00  0.00     0.049 A 
ATOM     53  H   UNL A   1      39.255  30.879  34.055  1.00  0.00     0.167 HD
ATOM     54  C   UNL A   1      40.249  33.059  37.688  1.00  0.00     0.031 A 
ATOM     55  C   UNL A   1      39.846  29.092  31.975  1.00  0.00     0.031 A 
ATOM     56  C   UNL A   1      41.354  32.154  37.506  1.00  0.00     0.049 A 
ATOM     57  C   UNL A   1      41.041  29.034  32.904  1.00  0.00     0.074 A 
ATOM     58  C   UNL A   1      42.446  31.955  38.332  1.00  0.00     0.029 A 
ATOM     59  N   UNL A   1      41.507  31.299  36.428  1.00  0.00    -0.354 N 
ATOM     60  N   UNL A   1      41.246  29.671  34.031  1.00  0.00    -0.248 NA
ATOM     61  C   UNL A   1      42.146  28.142  32.514  1.00  0.00     0.031 C 
ATOM     62  C   UNL A   1      43.289  31.019  37.726  1.00  0.00     0.029 A 
ATOM     63  C   UNL A   1      42.687  30.585  36.557  1.00  0.00     0.049 A 
ATOM     64  H   UNL A   1      40.873  31.211  35.680  1.00  0.00     0.167 HD
ATOM     65  C   UNL A   1      42.484  29.230  34.499  1.00  0.00     0.074 A 
ATOM     66  C   UNL A   1      42.971  28.258  33.546  1.00  0.00     0.031 C 
ATOM     67  C   UNL A   1      43.159  29.602  35.615  1.00  0.00     0.031 A 
BRANCH  54  68
ATOM     68  C   UNL A   1      40.234  33.912  38.930  1.00  0.00    -0.014 A 
ATOM     69  C   UNL A   1      40.917  35.141  38.970  1.00  0.00     0.010 A 
ATOM     70  C   UNL A   1      39.476  33.513  40.046  1.00  0.00     0.010 A 
ATOM     71  C   UNL A   1      40.862  35.943  40.113  1.00  0.00     0.020 A 
ATOM     72  C   UNL A   1      39.393  34.326  41.179  1.00  0.00     0.020 A 
ATOM     73  C   UNL A   1      40.097  35.532  41.208  1.00  0.00     0.054 A 
BRANCH  73  74
ATOM     74  S   UNL A   1      40.007  36.620  42.657  1.00  0.00     0.124 S 
ATOM     75  O   UNL A   1      39.651  37.901  42.050  1.00  0.00    -0.237 OA
ATOM     76  O   UNL A   1      38.961  35.994  43.461  1.00  0.00    -0.237 OA
ATOM     77  O   UNL A   1      41.351  36.554  43.226  1.00  0.00    -0.744 OA
ENDBRANCH  73  74
ENDBRANCH  54  68
BRANCH  55  78
ATOM     78  C   UNL A   1      39.839  28.257  30.735  1.00  0.00    -0.014 A 
ATOM     79  C   UNL A   1      39.064  27.085  30.659  1.00  0.00     0.010 A 
ATOM     80  C   UNL A   1      40.675  28.587  29.651  1.00  0.00     0.010 A 
ATOM     81  C   UNL A   1      39.156  26.241  29.547  1.00  0.00     0.020 A 
ATOM     82  C   UNL A   1      40.741  27.766  28.522  1.00  0.00     0.020 A 
ATOM     83  C   UNL A   1      39.996  26.586  28.486  1.00  0.00     0.054 A 
BRANCH  83  84
ATOM     84  S   UNL A   1      40.092  25.482  27.048  1.00  0.00     0.124 S 
ATOM     85  O   UNL A   1      40.753  26.329  26.060  1.00  0.00    -0.237 OA
ATOM     86  O   UNL A   1      40.883  24.368  27.562  1.00  0.00    -0.237 OA
ATOM     87  O   UNL A   1      38.693  25.166  26.767  1.00  0.00    -0.744 OA
ENDBRANCH  83  84
ENDBRANCH  55  78
BRANCH  67  88
ATOM     88  C   UNL A   1      44.476  28.923  35.908  1.00  0.00    -0.014 A 
ATOM     89  C   UNL A   1      45.697  29.474  35.482  1.00  0.00     0.010 A 
ATOM     90  C   UNL A   1      44.492  27.748  36.684  1.00  0.00     0.010 A 
ATOM     91  C   UNL A   1      46.907  28.849  35.801  1.00  0.00     0.020 A 
ATOM     92  C   UNL A   1      45.701  27.137  37.032  1.00  0.00     0.020 A 
ATOM     93  C   UNL A   1      46.901  27.686  36.578  1.00  0.00     0.054 A 
BRANCH  93  94
ATOM     94  S   UNL A   1      48.488  26.926  37.023  1.00  0.00     0.124 S 
ATOM     95  O   UNL A   1      48.103  26.024  38.105  1.00  0.00    -0.237 OA
ATOM     96  O   UNL A   1      48.892  26.278  35.778  1.00  0.00    -0.237 OA
ATOM     97  O   UNL A   1      49.316  28.061  37.425  1.00  0.00    -0.744 OA
ENDBRANCH  93  94
ENDBRANCH  67  88
ENDBRANCH  41  42
ENDBRANCH  34  36
ENDBRANCH  33  34
ENDBRANCH  32  33
ENDBRANCH  31  32
ENDBRANCH  30  31
ENDBRANCH  29  30
ENDBRANCH   1  29
TORSDOF 25
ENDMDL
MODEL 2
REMARK VINA RESULT:      -9.1      1.588      2.201
REMARK SMILES CC(=O)Nc1cnc(N(C)CCc2cn[nH]c2)c(C(=O)OCCOCCOCCOC(=O)c2ccc(-c3c4nc(c(-c5ccc(S(=O)(=O)[O-])cc5)c5ccc([nH]5)c(-c5ccc(S(=O)(=O)[O-])cc5)c5nc(c(-c6ccc(S(=O)(=O)[O-])cc6)c6ccc3[nH]6)C=C5)C=C4)cc2)c1
REMARK SMILES IDX 25 1 24 2 23 3 22 4 21 5 19 6 20 7 18 8 5 9 6 10 93 11 7 12
REMARK SMILES IDX 8 13 4 14 1 15 2 16 3 17 9 19 10 20 11 21 12 22 13 23 14 24
REMARK SMILES IDX 17 25 15 26 16 27 26 29 27 30 28 31 29 32 30 33 31 34 32 35
REMARK SMILES IDX 33 36 34 37 92 38 35 39 91 40 36 41 37 42 38 43 85 44 39 45
REMARK SMILES IDX 90 46 84 47 86 48 40 49 89 50 83 51 82 52 41 54 71 55 52 56
REMARK SMILES IDX 70 57 53 58 56 59 69 60 87 61 54 62 55 63 68 65 88 66 57 67
REMARK SMILES IDX 42 68 43 69 51 70 44 71 50 72 45 73 46 74 47 75 48 76 49 77
REMARK SMILES IDX 72 78 73 79 81 80 74 81 80 82 75 83 76 84 77 85 78 86 79 87
REMARK SMILES IDX 58 88 59 89 67 90 60 91 66 92 61 93 62 94 63 95 64 96 65 97
REMARK H PARENT 4 18 16 28 86 53 56 64
REMARK Flexibility Score: inf
ROOT
ATOM      1  C   UNL A   1      34.386  31.623  27.661  1.00  0.00     0.188 C 
ENDROOT
BRANCH   1   2
ATOM      2  O   UNL A   1      34.926  30.412  28.163  1.00  0.00    -0.376 OA
BRANCH   2   3
ATOM      3  C   UNL A   1      35.163  29.377  27.230  1.00  0.00     0.202 C 
BRANCH   3   4
ATOM      4  C   UNL A   1      34.055  29.132  26.187  1.00  0.00     0.261 C 
BRANCH   4   5
ATOM      5  O   UNL A   1      33.303  27.900  26.262  1.00  0.00    -0.460 OA
BRANCH   5   6
ATOM      6  C   UNL A   1      31.954  28.045  26.236  1.00  0.00     0.342 C 
ATOM      7  O   UNL A   1      31.323  28.196  27.267  1.00  0.00    -0.246 OA
BRANCH   6   8
ATOM      8  C   UNL A   1      31.395  28.052  24.845  1.00  0.00     0.104 A 
ATOM      9  C   UNL A   1      30.377  29.375  23.056  1.00  0.00     0.060 A 
ATOM     10  C   UNL A   1      30.246  28.203  22.355  1.00  0.00     0.139 A 
ATOM     11  C   UNL A   1      30.852  29.270  24.358  1.00  0.00     0.047 A 
ATOM     12  N   UNL A   1      30.751  27.035  22.794  1.00  0.00    -0.236 NA
ATOM     13  C   UNL A   1      31.435  26.949  23.975  1.00  0.00     0.143 A 
BRANCH   9  14
ATOM     14  N   UNL A   1      30.080  30.590  22.420  1.00  0.00    -0.325 N 
ATOM     15  C   UNL A   1      27.737  30.749  23.236  1.00  0.00     0.114 C 
ATOM     16  C   UNL A   1      28.889  31.269  22.416  1.00  0.00     0.221 C 
ATOM     17  O   UNL A   1      28.805  32.347  21.825  1.00  0.00    -0.275 OA
ATOM     18  H   UNL A   1      30.817  31.007  21.918  1.00  0.00     0.169 HD
ENDBRANCH   9  14
BRANCH  13  19
ATOM     19  N   UNL A   1      32.145  25.775  24.098  1.00  0.00    -0.359 N 
ATOM     20  C   UNL A   1      33.300  25.649  23.190  1.00  0.00     0.145 C 
BRANCH  19  21
ATOM     21  C   UNL A   1      31.822  24.569  24.885  1.00  0.00     0.122 C 
BRANCH  21  22
ATOM     22  C   UNL A   1      32.531  23.236  24.537  1.00  0.00     0.060 C 
BRANCH  22  23
ATOM     23  C   UNL A   1      32.999  22.241  25.568  1.00  0.00    -0.008 A 
ATOM     24  C   UNL A   1      33.584  22.527  26.833  1.00  0.00     0.138 A 
ATOM     25  C   UNL A   1      32.847  20.870  25.623  1.00  0.00     0.108 A 
ATOM     26  N   UNL A   1      33.912  21.432  27.527  1.00  0.00    -0.184 NA
ATOM     27  N   UNL A   1      33.506  20.434  26.735  1.00  0.00    -0.285 N 
ATOM     28  H   UNL A   1      33.667  19.482  26.933  1.00  0.00     0.189 HD
ENDBRANCH  22  23
ENDBRANCH  21  22
ENDBRANCH  19  21
ENDBRANCH  13  19
ENDBRANCH   6   8
ENDBRANCH   5   6
ENDBRANCH   4   5
ENDBRANCH   3   4
ENDBRANCH   2   3
ENDBRANCH   1   2
BRANCH   1  29
ATOM     29  C   UNL A   1      35.246  32.855  28.012  1.00  0.00     0.188 C 
BRANCH  29  30
ATOM     30  O   UNL A   1      34.649  34.145  28.000  1.00  0.00    -0.376 OA
BRANCH  30  31
ATOM     31  C   UNL A   1      33.293  34.252  28.407  1.00  0.00     0.202 C 
BRANCH  31  32
ATOM     32  C   UNL A   1      32.781  35.600  28.956  1.00  0.00     0.261 C 
BRANCH  32  33
ATOM     33  O   UNL A   1      33.378  36.068  30.187  1.00  0.00    -0.460 OA
BRANCH  33  34
ATOM     34  C   UNL A   1      33.281  35.250  31.271  1.00  0.00     0.338 C 
ATOM     35  O   UNL A   1      32.275  35.048  31.932  1.00  0.00    -0.246 OA
BRANCH  34  36
ATOM     36  C   UNL A   1      34.524  34.440  31.437  1.00  0.00     0.060 A 
ATOM     37  C   UNL A   1      34.420  33.110  31.887  1.00  0.00     0.016 A 
ATOM     38  C   UNL A   1      35.788  34.985  31.212  1.00  0.00     0.016 A 
ATOM     39  C   UNL A   1      35.564  32.336  32.126  1.00  0.00     0.010 A 
ATOM     40  C   UNL A   1      36.934  34.222  31.494  1.00  0.00     0.010 A 
ATOM     41  C   UNL A   1      36.835  32.902  31.977  1.00  0.00    -0.014 A 
BRANCH  41  42
ATOM     42  C   UNL A   1      38.046  32.222  32.524  1.00  0.00     0.031 A 
ATOM     43  C   UNL A   1      38.436  32.506  33.954  1.00  0.00     0.074 A 
ATOM     44  C   UNL A   1      38.810  31.390  31.788  1.00  0.00     0.049 A 
ATOM     45  N   UNL A   1      39.534  32.193  34.596  1.00  0.00    -0.248 NA
ATOM     46  C   UNL A   1      37.453  33.244  34.764  1.00  0.00     0.031 C 
ATOM     47  C   UNL A   1      38.524  30.950  30.424  1.00  0.00     0.029 A 
ATOM     48  N   UNL A   1      40.007  30.780  32.092  1.00  0.00    -0.354 N 
ATOM     49  C   UNL A   1      39.379  32.707  35.881  1.00  0.00     0.074 A 
ATOM     50  C   UNL A   1      38.092  33.366  35.919  1.00  0.00     0.031 C 
ATOM     51  C   UNL A   1      39.533  30.166  29.998  1.00  0.00     0.029 A 
ATOM     52  C   UNL A   1      40.562  30.090  31.036  1.00  0.00     0.049 A 
ATOM     53  H   UNL A   1      40.428  30.832  32.980  1.00  0.00     0.167 HD
ATOM     54  C   UNL A   1      40.228  32.640  36.934  1.00  0.00     0.031 A 
ATOM     55  C   UNL A   1      41.775  29.508  30.906  1.00  0.00     0.031 A 
ATOM     56  C   UNL A   1      41.522  32.011  36.899  1.00  0.00     0.049 A 
ATOM     57  C   UNL A   1      42.763  29.563  32.052  1.00  0.00     0.074 A 
ATOM     58  C   UNL A   1      42.462  31.922  37.910  1.00  0.00     0.029 A 
ATOM     59  N   UNL A   1      42.058  31.362  35.799  1.00  0.00    -0.354 N 
ATOM     60  N   UNL A   1      42.610  30.065  33.254  1.00  0.00    -0.248 NA
ATOM     61  C   UNL A   1      44.092  28.975  31.817  1.00  0.00     0.031 C 
ATOM     62  C   UNL A   1      43.590  31.269  37.405  1.00  0.00     0.029 A 
ATOM     63  C   UNL A   1      43.324  30.890  36.100  1.00  0.00     0.049 A 
ATOM     64  H   UNL A   1      41.606  31.253  34.931  1.00  0.00     0.167 HD
ATOM     65  C   UNL A   1      43.809  29.822  33.924  1.00  0.00     0.074 A 
ATOM     66  C   UNL A   1      44.667  29.111  33.004  1.00  0.00     0.031 C 
ATOM     67  C   UNL A   1      44.169  30.164  35.186  1.00  0.00     0.031 A 
BRANCH  54  68
ATOM     68  C   UNL A   1      39.796  33.291  38.222  1.00  0.00    -0.014 A 
ATOM     69  C   UNL A   1      39.464  32.515  39.347  1.00  0.00     0.010 A 
ATOM     70  C   UNL A   1      39.784  34.694  38.329  1.00  0.00     0.010 A 
ATOM     71  C   UNL A   1      39.105  33.131  40.549  1.00  0.00     0.020 A 
ATOM     72  C   UNL A   1      39.454  35.314  39.537  1.00  0.00     0.020 A 
ATOM     73  C   UNL A   1      39.105  34.527  40.637  1.00  0.00     0.054 A 
BRANCH  73  74
ATOM     74  S   UNL A   1      38.681  35.293  42.225  1.00  0.00     0.124 S 
ATOM     75  O   UNL A   1      39.433  34.468  43.168  1.00  0.00    -0.237 OA
ATOM     76  O   UNL A   1      39.169  36.660  42.059  1.00  0.00    -0.237 OA
ATOM     77  O   UNL A   1      37.229  35.157  42.301  1.00  0.00    -0.744 OA
ENDBRANCH  73  74
ENDBRANCH  54  68
BRANCH  55  78
ATOM     78  C   UNL A   1      42.182  28.870  29.617  1.00  0.00    -0.014 A 
ATOM     79  C   UNL A   1      42.839  29.615  28.620  1.00  0.00     0.010 A 
ATOM     80  C   UNL A   1      41.837  27.532  29.345  1.00  0.00     0.010 A 
ATOM     81  C   UNL A   1      43.106  29.049  27.368  1.00  0.00     0.020 A 
ATOM     82  C   UNL A   1      42.136  26.952  28.109  1.00  0.00     0.020 A 
ATOM     83  C   UNL A   1      42.751  27.722  27.120  1.00  0.00     0.054 A 
BRANCH  83  84
ATOM     84  S   UNL A   1      43.115  27.005  25.492  1.00  0.00     0.124 S 
ATOM     85  O   UNL A   1      42.480  27.961  24.591  1.00  0.00    -0.237 OA
ATOM     86  O   UNL A   1      44.575  26.991  25.477  1.00  0.00    -0.237 OA
ATOM     87  O   UNL A   1      42.487  25.687  25.552  1.00  0.00    -0.744 OA
ENDBRANCH  83  84
ENDBRANCH  55  78
BRANCH  67  88
ATOM     88  C   UNL A   1      45.528  29.730  35.680  1.00  0.00    -0.014 A 
ATOM     89  C   UNL A   1      46.640  30.589  35.622  1.00  0.00     0.010 A 
ATOM     90  C   UNL A   1      45.678  28.463  36.275  1.00  0.00     0.010 A 
ATOM     91  C   UNL A   1      47.880  30.180  36.123  1.00  0.00     0.020 A 
ATOM     92  C   UNL A   1      46.909  28.062  36.806  1.00  0.00     0.020 A 
ATOM     93  C   UNL A   1      48.005  28.920  36.715  1.00  0.00     0.054 A 
BRANCH  93  94
ATOM     94  S   UNL A   1      49.612  28.436  37.406  1.00  0.00     0.124 S 
ATOM     95  O   UNL A   1      50.500  29.460  36.862  1.00  0.00    -0.237 OA
ATOM     96  O   UNL A   1      49.376  28.510  38.846  1.00  0.00    -0.237 OA
ATOM     97  O   UNL A   1      49.824  27.088  36.883  1.00  0.00    -0.744 OA
ENDBRANCH  93  94
ENDBRANCH  67  88
ENDBRANCH  41  42
ENDBRANCH  34  36
ENDBRANCH  33  34
ENDBRANCH  32  33
ENDBRANCH  31  32
ENDBRANCH  30  31
ENDBRANCH  29  30
ENDBRANCH   1  29
TORSDOF 25
ENDMDL
MODEL 3
REMARK VINA RESULT:      -8.8      1.622      2.180
REMARK SMILES CC(=O)Nc1cnc(N(C)CCc2cn[nH]c2)c(C(=O)OCCOCCOCCOC(=O)c2ccc(-c3c4nc(c(-c5ccc(S(=O)(=O)[O-])cc5)c5ccc([nH]5)c(-c5ccc(S(=O)(=O)[O-])cc5)c5nc(c(-c6ccc(S(=O)(=O)[O-])cc6)c6ccc3[nH]6)C=C5)C=C4)cc2)c1
REMARK SMILES IDX 25 1 24 2 23 3 22 4 21 5 19 6 20 7 18 8 5 9 6 10 93 11 7 12
REMARK SMILES IDX 8 13 4 14 1 15 2 16 3 17 9 19 10 20 11 21 12 22 13 23 14 24
REMARK SMILES IDX 17 25 15 26 16 27 26 29 27 30 28 31 29 32 30 33 31 34 32 35
REMARK SMILES IDX 33 36 34 37 92 38 35 39 91 40 36 41 37 42 38 43 85 44 39 45
REMARK SMILES IDX 90 46 84 47 86 48 40 49 89 50 83 51 82 52 41 54 71 55 52 56
REMARK SMILES IDX 70 57 53 58 56 59 69 60 87 61 54 62 55 63 68 65 88 66 57 67
REMARK SMILES IDX 42 68 43 69 51 70 44 71 50 72 45 73 46 74 47 75 48 76 49 77
REMARK SMILES IDX 72 78 73 79 81 80 74 81 80 82 75 83 76 84 77 85 78 86 79 87
REMARK SMILES IDX 58 88 59 89 67 90 60 91 66 92 61 93 62 94 63 95 64 96 65 97
REMARK H PARENT 4 18 16 28 86 53 56 64
REMARK Flexibility Score: inf
ROOT
ATOM      1  C   UNL A   1      34.930  31.482  27.666  1.00  0.00     0.188 C 
ENDROOT
BRANCH   1   2
ATOM      2  O   UNL A   1      35.411  30.152  27.569  1.00  0.00    -0.376 OA
BRANCH   2   3
ATOM      3  C   UNL A   1      34.448  29.127  27.432  1.00  0.00     0.202 C 
BRANCH   3   4
ATOM      4  C   UNL A   1      33.606  29.150  26.141  1.00  0.00     0.261 C 
BRANCH   4   5
ATOM      5  O   UNL A   1      33.095  27.898  25.632  1.00  0.00    -0.460 OA
BRANCH   5   6
ATOM      6  C   UNL A   1      31.743  27.782  25.631  1.00  0.00     0.342 C 
ATOM      7  O   UNL A   1      31.151  27.377  26.616  1.00  0.00    -0.246 OA
BRANCH   6   8
ATOM      8  C   UNL A   1      31.119  28.252  24.352  1.00  0.00     0.104 A 
ATOM      9  C   UNL A   1      30.018  30.087  23.165  1.00  0.00     0.060 A 
ATOM     10  C   UNL A   1      29.853  29.220  22.114  1.00  0.00     0.139 A 
ATOM     11  C   UNL A   1      30.554  29.554  24.331  1.00  0.00     0.047 A 
ATOM     12  N   UNL A   1      30.378  27.980  22.108  1.00  0.00    -0.236 NA
ATOM     13  C   UNL A   1      31.117  27.509  23.158  1.00  0.00     0.143 A 
BRANCH   9  14
ATOM     14  N   UNL A   1      29.692  31.440  22.993  1.00  0.00    -0.325 N 
ATOM     15  C   UNL A   1      27.311  31.227  23.678  1.00  0.00     0.114 C 
ATOM     16  C   UNL A   1      28.472  32.041  23.165  1.00  0.00     0.221 C 
ATOM     17  O   UNL A   1      28.364  33.257  22.998  1.00  0.00    -0.275 OA
ATOM     18  H   UNL A   1      30.430  32.031  22.716  1.00  0.00     0.169 HD
ENDBRANCH   9  14
BRANCH  13  19
ATOM     19  N   UNL A   1      31.831  26.374  22.844  1.00  0.00    -0.359 N 
ATOM     20  C   UNL A   1      33.212  26.616  22.387  1.00  0.00     0.145 C 
BRANCH  19  21
ATOM     21  C   UNL A   1      31.364  24.978  22.744  1.00  0.00     0.122 C 
BRANCH  21  22
ATOM     22  C   UNL A   1      30.644  24.341  23.960  1.00  0.00     0.060 C 
BRANCH  22  23
ATOM     23  C   UNL A   1      31.339  23.969  25.245  1.00  0.00    -0.008 A 
ATOM     24  C   UNL A   1      30.798  23.219  26.326  1.00  0.00     0.138 A 
ATOM     25  C   UNL A   1      32.659  24.112  25.623  1.00  0.00     0.108 A 
ATOM     26  N   UNL A   1      31.652  23.060  27.343  1.00  0.00    -0.184 NA
ATOM     27  N   UNL A   1      32.761  23.671  26.910  1.00  0.00    -0.285 N 
ATOM     28  H   UNL A   1      33.567  23.790  27.463  1.00  0.00     0.189 HD
ENDBRANCH  22  23
ENDBRANCH  21  22
ENDBRANCH  19  21
ENDBRANCH  13  19
ENDBRANCH   6   8
ENDBRANCH   5   6
ENDBRANCH   4   5
ENDBRANCH   3   4
ENDBRANCH   2   3
ENDBRANCH   1   2
BRANCH   1  29
ATOM     29  C   UNL A   1      35.105  32.082  29.077  1.00  0.00     0.188 C 
BRANCH  29  30
ATOM     30  O   UNL A   1      35.407  33.464  29.211  1.00  0.00    -0.376 OA
BRANCH  30  31
ATOM     31  C   UNL A   1      34.419  34.401  28.807  1.00  0.00     0.202 C 
BRANCH  31  32
ATOM     32  C   UNL A   1      33.390  34.896  29.843  1.00  0.00     0.261 C 
BRANCH  32  33
ATOM     33  O   UNL A   1      33.424  34.265  31.144  1.00  0.00    -0.460 OA
BRANCH  33  34
ATOM     34  C   UNL A   1      33.906  35.008  32.178  1.00  0.00     0.338 C 
ATOM     35  O   UNL A   1      33.339  35.944  32.718  1.00  0.00    -0.246 OA
BRANCH  34  36
ATOM     36  C   UNL A   1      35.150  34.398  32.734  1.00  0.00     0.060 A 
ATOM     37  C   UNL A   1      36.377  35.067  32.562  1.00  0.00     0.016 A 
ATOM     38  C   UNL A   1      35.136  33.156  33.368  1.00  0.00     0.016 A 
ATOM     39  C   UNL A   1      37.579  34.498  33.004  1.00  0.00     0.010 A 
ATOM     40  C   UNL A   1      36.347  32.568  33.771  1.00  0.00     0.010 A 
ATOM     41  C   UNL A   1      37.581  33.219  33.570  1.00  0.00    -0.014 A 
BRANCH  41  42
ATOM     42  C   UNL A   1      38.854  32.461  33.751  1.00  0.00     0.031 A 
ATOM     43  C   UNL A   1      39.620  32.657  35.037  1.00  0.00     0.074 A 
ATOM     44  C   UNL A   1      39.351  31.633  32.811  1.00  0.00     0.049 A 
ATOM     45  N   UNL A   1      40.829  32.266  35.354  1.00  0.00    -0.248 NA
ATOM     46  C   UNL A   1      38.926  33.396  36.104  1.00  0.00     0.031 C 
ATOM     47  C   UNL A   1      38.694  31.273  31.556  1.00  0.00     0.029 A 
ATOM     48  N   UNL A   1      40.551  30.958  32.765  1.00  0.00    -0.354 N 
ATOM     49  C   UNL A   1      41.045  32.722  36.651  1.00  0.00     0.074 A 
ATOM     50  C   UNL A   1      39.852  33.434  37.053  1.00  0.00     0.031 C 
ATOM     51  C   UNL A   1      39.511  30.469  30.850  1.00  0.00     0.029 A 
ATOM     52  C   UNL A   1      40.771  30.298  31.576  1.00  0.00     0.049 A 
ATOM     53  H   UNL A   1      41.192  30.948  33.511  1.00  0.00     0.167 HD
ATOM     54  C   UNL A   1      42.136  32.566  37.439  1.00  0.00     0.031 A 
ATOM     55  C   UNL A   1      41.873  29.670  31.108  1.00  0.00     0.031 A 
ATOM     56  C   UNL A   1      43.338  31.884  37.041  1.00  0.00     0.049 A 
ATOM     57  C   UNL A   1      43.128  29.626  31.954  1.00  0.00     0.074 A 
ATOM     58  C   UNL A   1      44.505  31.705  37.764  1.00  0.00     0.029 A 
ATOM     59  N   UNL A   1      43.531  31.267  35.816  1.00  0.00    -0.354 N 
ATOM     60  N   UNL A   1      43.325  30.074  33.171  1.00  0.00    -0.248 NA
ATOM     61  C   UNL A   1      44.315  28.993  31.355  1.00  0.00     0.031 C 
ATOM     62  C   UNL A   1      45.423  31.030  36.956  1.00  0.00     0.029 A 
ATOM     63  C   UNL A   1      44.804  30.727  35.755  1.00  0.00     0.049 A 
ATOM     64  H   UNL A   1      42.862  31.221  35.095  1.00  0.00     0.167 HD
ATOM     65  C   UNL A   1      44.642  29.747  33.490  1.00  0.00     0.074 A 
ATOM     66  C   UNL A   1      45.188  29.045  32.351  1.00  0.00     0.031 C 
ATOM     67  C   UNL A   1      45.338  30.010  34.624  1.00  0.00     0.031 A 
BRANCH  54  68
ATOM     68  C   UNL A   1      42.093  33.171  38.819  1.00  0.00    -0.014 A 
ATOM     69  C   UNL A   1      42.499  34.500  39.037  1.00  0.00     0.010 A 
ATOM     70  C   UNL A   1      41.579  32.426  39.896  1.00  0.00     0.010 A 
ATOM     71  C   UNL A   1      42.415  35.064  40.313  1.00  0.00     0.020 A 
ATOM     72  C   UNL A   1      41.466  32.996  41.167  1.00  0.00     0.020 A 
ATOM     73  C   UNL A   1      41.896  34.309  41.369  1.00  0.00     0.054 A 
BRANCH  73  74
ATOM     74  S   UNL A   1      41.756  35.087  43.001  1.00  0.00     0.124 S 
ATOM     75  O   UNL A   1      41.471  33.938  43.858  1.00  0.00    -0.237 OA
ATOM     76  O   UNL A   1      43.072  35.692  43.180  1.00  0.00    -0.237 OA
ATOM     77  O   UNL A   1      40.653  36.032  42.843  1.00  0.00    -0.744 OA
ENDBRANCH  73  74
ENDBRANCH  54  68
BRANCH  55  78
ATOM     78  C   UNL A   1      41.892  29.079  29.735  1.00  0.00    -0.014 A 
ATOM     79  C   UNL A   1      41.398  27.782  29.502  1.00  0.00     0.010 A 
ATOM     80  C   UNL A   1      42.482  29.781  28.667  1.00  0.00     0.010 A 
ATOM     81  C   UNL A   1      41.531  27.185  28.243  1.00  0.00     0.020 A 
ATOM     82  C   UNL A   1      42.583  29.203  27.399  1.00  0.00     0.020 A 
ATOM     83  C   UNL A   1      42.125  27.899  27.200  1.00  0.00     0.054 A 
BRANCH  83  84
ATOM     84  S   UNL A   1      42.278  27.109  25.573  1.00  0.00     0.124 S 
ATOM     85  O   UNL A   1      43.494  26.319  25.733  1.00  0.00    -0.237 OA
ATOM     86  O   UNL A   1      41.035  26.350  25.475  1.00  0.00    -0.237 OA
ATOM     87  O   UNL A   1      42.382  28.241  24.654  1.00  0.00    -0.744 OA
ENDBRANCH  83  84
ENDBRANCH  55  78
BRANCH  67  88
ATOM     88  C   UNL A   1      46.754  29.494  34.725  1.00  0.00    -0.014 A 
ATOM     89  C   UNL A   1      47.031  28.194  35.183  1.00  0.00     0.010 A 
ATOM     90  C   UNL A   1      47.820  30.304  34.286  1.00  0.00     0.010 A 
ATOM     91  C   UNL A   1      48.348  27.724  35.228  1.00  0.00     0.020 A 
ATOM     92  C   UNL A   1      49.134  29.826  34.300  1.00  0.00     0.020 A 
ATOM     93  C   UNL A   1      49.390  28.542  34.782  1.00  0.00     0.054 A 
BRANCH  93  94
ATOM     94  S   UNL A   1      51.083  27.887  34.801  1.00  0.00     0.124 S 
ATOM     95  O   UNL A   1      51.062  26.952  33.679  1.00  0.00    -0.237 OA
ATOM     96  O   UNL A   1      51.892  29.086  34.605  1.00  0.00    -0.237 OA
ATOM     97  O   UNL A   1      51.202  27.270  36.121  1.00  0.00    -0.744 OA
ENDBRANCH  93  94
ENDBRANCH  67  88
ENDBRANCH  41  42
ENDBRANCH  34  36
ENDBRANCH  33  34
ENDBRANCH  32  33
ENDBRANCH  31  32
ENDBRANCH  30  31
ENDBRANCH  29  30
ENDBRANCH   1  29
TORSDOF 25
ENDMDL
