MODEL 1
REMARK VINA RESULT:      -6.0      0.000      0.000
REMARK SMILES COC(=O)C[C@@H](NC(=O)c1ccccc1C(=O)OCCOCCOCCOC(=O)c1ccc(-c2c3nc(c(-c4ccc(S(=O)(=O)[O-])cc4)c4ccc([nH]4)c(-c4ccc(S(=O)(=O)[O-])cc4)c4nc(c(-c5ccc(S(=O)(=O)[O-])cc5)c5ccc2[nH]5)C=C4)C=C3)cc1)c1cccc(C)c1C
REMARK SMILES IDX 22 1 21 2 20 3 19 4 18 5 16 6 17 7 15 8 10 9 11 10 12 11
REMARK SMILES IDX 14 12 13 13 8 14 7 15 9 17 6 18 5 19 3 20 4 21 2 22 1 23
REMARK SMILES IDX 90 24 91 25 96 26 92 27 94 28 97 29 93 30 95 31 23 32 24 33
REMARK SMILES IDX 25 34 26 35 27 36 28 37 29 38 30 39 31 40 89 41 32 42 88 43
REMARK SMILES IDX 33 44 34 45 35 46 82 47 36 48 87 49 81 50 83 51 37 52 86 53
REMARK SMILES IDX 80 54 79 55 38 57 68 58 49 59 67 60 50 61 53 62 66 63 84 64
REMARK SMILES IDX 51 65 52 66 65 68 85 69 54 70 39 71 40 72 48 73 41 74 47 75
REMARK SMILES IDX 42 76 43 77 44 78 45 79 46 80 69 81 70 82 78 83 71 84 77 85
REMARK SMILES IDX 72 86 73 87 74 88 75 89 76 90 55 91 56 92 64 93 57 94 63 95
REMARK SMILES IDX 58 96 59 97 60 98 61 99 62 100
REMARK H PARENT 7 16 83 56 53 67
REMARK Flexibility Score: inf
ROOT
ATOM      1  C   UNL A   1      52.703  25.870  27.221  1.00  0.00     0.188 C 
ENDROOT
BRANCH   1   2
ATOM      2  O   UNL A   1      51.691  25.003  26.752  1.00  0.00    -0.376 OA
BRANCH   2   3
ATOM      3  C   UNL A   1      50.394  25.498  26.475  1.00  0.00     0.202 C 
BRANCH   3   4
ATOM      4  C   UNL A   1      49.793  26.669  27.249  1.00  0.00     0.261 C 
BRANCH   4   5
ATOM      5  O   UNL A   1      48.486  27.098  26.832  1.00  0.00    -0.460 OA
BRANCH   5   6
ATOM      6  C   UNL A   1      47.472  26.692  27.641  1.00  0.00     0.339 C 
ATOM      7  O   UNL A   1      47.244  27.139  28.755  1.00  0.00    -0.246 OA
BRANCH   6   8
ATOM      8  C   UNL A   1      46.543  25.747  26.982  1.00  0.00     0.072 A 
ATOM      9  C   UNL A   1      45.600  26.077  26.008  1.00  0.00     0.054 A 
ATOM     10  C   UNL A   1      44.786  25.053  25.469  1.00  0.00     0.015 A 
ATOM     11  C   UNL A   1      44.924  23.725  25.871  1.00  0.00     0.001 A 
ATOM     12  C   UNL A   1      46.661  24.401  27.391  1.00  0.00     0.016 A 
ATOM     13  C   UNL A   1      45.862  23.398  26.839  1.00  0.00     0.001 A 
BRANCH   9  14
ATOM     14  C   UNL A   1      45.334  27.408  25.433  1.00  0.00     0.252 C 
ATOM     15  N   UNL A   1      44.691  28.422  26.090  1.00  0.00    -0.345 N 
ATOM     16  H   UNL A   1      45.038  29.307  25.833  1.00  0.00     0.164 HD
ATOM     17  O   UNL A   1      45.890  27.697  24.372  1.00  0.00    -0.269 OA
BRANCH  15  18
ATOM     18  C   UNL A   1      43.604  28.518  27.087  1.00  0.00     0.124 C 
BRANCH  18  19
ATOM     19  C   UNL A   1      43.748  29.832  27.861  1.00  0.00     0.152 C 
BRANCH  19  20
ATOM     20  C   UNL A   1      43.588  30.975  26.882  1.00  0.00     0.307 C 
ATOM     21  O   UNL A   1      43.026  30.883  25.799  1.00  0.00    -0.252 OA
BRANCH  20  22
ATOM     22  O   UNL A   1      44.222  32.090  27.345  1.00  0.00    -0.469 OA
ATOM     23  C   UNL A   1      44.732  32.959  26.327  1.00  0.00     0.282 C 
ENDBRANCH  20  22
ENDBRANCH  19  20
ENDBRANCH  18  19
BRANCH  18  24
ATOM     24  C   UNL A   1      43.358  27.304  27.981  1.00  0.00    -0.022 A 
ATOM     25  C   UNL A   1      44.125  27.113  29.140  1.00  0.00     0.006 A 
ATOM     26  C   UNL A   1      42.475  26.257  27.568  1.00  0.00    -0.043 A 
ATOM     27  C   UNL A   1      44.197  25.862  29.752  1.00  0.00     0.001 A 
ATOM     28  C   UNL A   1      42.505  25.010  28.243  1.00  0.00    -0.048 A 
ATOM     29  C   UNL A   1      41.490  26.439  26.433  1.00  0.00     0.045 C 
ATOM     30  C   UNL A   1      43.421  24.810  29.283  1.00  0.00     0.004 A 
ATOM     31  C   UNL A   1      41.675  23.825  27.808  1.00  0.00     0.044 C 
ENDBRANCH  18  24
ENDBRANCH  15  18
ENDBRANCH   9  14
ENDBRANCH   6   8
ENDBRANCH   5   6
ENDBRANCH   4   5
ENDBRANCH   3   4
ENDBRANCH   2   3
ENDBRANCH   1   2
BRANCH   1  32
ATOM     32  C   UNL A   1      54.183  25.567  26.895  1.00  0.00     0.188 C 
BRANCH  32  33
ATOM     33  O   UNL A   1      55.138  26.607  26.861  1.00  0.00    -0.376 OA
BRANCH  33  34
ATOM     34  C   UNL A   1      56.373  26.396  27.523  1.00  0.00     0.202 C 
BRANCH  34  35
ATOM     35  C   UNL A   1      56.393  25.748  28.917  1.00  0.00     0.261 C 
BRANCH  35  36
ATOM     36  O   UNL A   1      56.224  26.664  30.016  1.00  0.00    -0.460 OA
BRANCH  36  37
ATOM     37  C   UNL A   1      56.062  26.094  31.240  1.00  0.00     0.338 C 
ATOM     38  O   UNL A   1      56.948  25.743  32.005  1.00  0.00    -0.246 OA
BRANCH  37  39
ATOM     39  C   UNL A   1      54.640  26.179  31.654  1.00  0.00     0.060 A 
ATOM     40  C   UNL A   1      53.670  25.582  30.831  1.00  0.00     0.016 A 
ATOM     41  C   UNL A   1      54.256  26.845  32.818  1.00  0.00     0.016 A 
ATOM     42  C   UNL A   1      52.314  25.677  31.147  1.00  0.00     0.010 A 
ATOM     43  C   UNL A   1      52.892  26.973  33.114  1.00  0.00     0.010 A 
ATOM     44  C   UNL A   1      51.914  26.425  32.259  1.00  0.00    -0.014 A 
BRANCH  44  45
ATOM     45  C   UNL A   1      50.502  26.873  32.369  1.00  0.00     0.031 A 
ATOM     46  C   UNL A   1      49.564  26.026  33.191  1.00  0.00     0.074 A 
ATOM     47  C   UNL A   1      50.048  27.992  31.778  1.00  0.00     0.049 A 
ATOM     48  N   UNL A   1      48.277  26.151  33.380  1.00  0.00    -0.248 NA
ATOM     49  C   UNL A   1      50.168  24.878  33.889  1.00  0.00     0.031 C 
ATOM     50  C   UNL A   1      50.853  28.932  31.003  1.00  0.00     0.029 A 
ATOM     51  N   UNL A   1      48.777  28.513  31.729  1.00  0.00    -0.354 N 
ATOM     52  C   UNL A   1      47.913  25.091  34.203  1.00  0.00     0.074 A 
ATOM     53  C   UNL A   1      49.110  24.320  34.456  1.00  0.00     0.031 C 
ATOM     54  C   UNL A   1      50.049  29.901  30.528  1.00  0.00     0.029 A 
ATOM     55  C   UNL A   1      48.670  29.631  30.936  1.00  0.00     0.049 A 
ATOM     56  H   UNL A   1      48.014  28.123  32.215  1.00  0.00     0.167 HD
ATOM     57  C   UNL A   1      46.694  24.780  34.705  1.00  0.00     0.031 A 
ATOM     58  C   UNL A   1      47.583  30.335  30.556  1.00  0.00     0.031 A 
ATOM     59  C   UNL A   1      45.497  25.526  34.431  1.00  0.00     0.049 A 
ATOM     60  C   UNL A   1      46.218  29.929  31.058  1.00  0.00     0.074 A 
ATOM     61  C   UNL A   1      44.214  25.295  34.896  1.00  0.00     0.029 A 
ATOM     62  N   UNL A   1      45.429  26.638  33.605  1.00  0.00    -0.354 N 
ATOM     63  N   UNL A   1      45.891  28.939  31.855  1.00  0.00    -0.248 NA
ATOM     64  C   UNL A   1      45.076  30.744  30.616  1.00  0.00     0.031 C 
ATOM     65  C   UNL A   1      43.360  26.230  34.301  1.00  0.00     0.029 A 
ATOM     66  C   UNL A   1      44.122  27.087  33.523  1.00  0.00     0.049 A 
ATOM     67  H   UNL A   1      46.198  27.048  33.145  1.00  0.00     0.167 HD
ATOM     68  C   UNL A   1      44.511  29.026  32.027  1.00  0.00     0.074 A 
ATOM     69  C   UNL A   1      44.068  30.174  31.264  1.00  0.00     0.031 C 
ATOM     70  C   UNL A   1      43.688  28.229  32.754  1.00  0.00     0.031 A 
BRANCH  57  71
ATOM     71  C   UNL A   1      46.602  23.542  35.556  1.00  0.00    -0.014 A 
ATOM     72  C   UNL A   1      46.762  23.597  36.953  1.00  0.00     0.010 A 
ATOM     73  C   UNL A   1      46.360  22.298  34.945  1.00  0.00     0.010 A 
ATOM     74  C   UNL A   1      46.743  22.426  37.714  1.00  0.00     0.020 A 
ATOM     75  C   UNL A   1      46.308  21.127  35.706  1.00  0.00     0.020 A 
ATOM     76  C   UNL A   1      46.524  21.197  37.084  1.00  0.00     0.054 A 
BRANCH  76  77
ATOM     77  S   UNL A   1      46.516  19.690  38.093  1.00  0.00     0.124 S 
ATOM     78  O   UNL A   1      45.585  18.840  37.356  1.00  0.00    -0.237 OA
ATOM     79  O   UNL A   1      47.915  19.271  38.052  1.00  0.00    -0.237 OA
ATOM     80  O   UNL A   1      46.044  20.148  39.397  1.00  0.00    -0.744 OA
ENDBRANCH  76  77
ENDBRANCH  57  71
BRANCH  58  81
ATOM     81  C   UNL A   1      47.737  31.480  29.615  1.00  0.00    -0.014 A 
ATOM     82  C   UNL A   1      47.753  32.805  30.081  1.00  0.00     0.010 A 
ATOM     83  C   UNL A   1      47.884  31.241  28.235  1.00  0.00     0.010 A 
ATOM     84  C   UNL A   1      47.915  33.870  29.188  1.00  0.00     0.020 A 
ATOM     85  C   UNL A   1      48.074  32.300  27.342  1.00  0.00     0.020 A 
ATOM     86  C   UNL A   1      48.083  33.610  27.824  1.00  0.00     0.054 A 
BRANCH  86  87
ATOM     87  S   UNL A   1      48.379  35.001  26.697  1.00  0.00     0.124 S 
ATOM     88  O   UNL A   1      47.830  34.499  25.442  1.00  0.00    -0.237 OA
ATOM     89  O   UNL A   1      47.627  36.083  27.330  1.00  0.00    -0.237 OA
ATOM     90  O   UNL A   1      49.830  35.163  26.726  1.00  0.00    -0.744 OA
ENDBRANCH  86  87
ENDBRANCH  58  81
BRANCH  70  91
ATOM     91  C   UNL A   1      42.223  28.582  32.796  1.00  0.00    -0.014 A 
ATOM     92  C   UNL A   1      41.673  29.312  33.864  1.00  0.00     0.010 A 
ATOM     93  C   UNL A   1      41.396  28.235  31.710  1.00  0.00     0.010 A 
ATOM     94  C   UNL A   1      40.319  29.663  33.860  1.00  0.00     0.020 A 
ATOM     95  C   UNL A   1      40.050  28.608  31.688  1.00  0.00     0.020 A 
ATOM     96  C   UNL A   1      39.516  29.308  32.771  1.00  0.00     0.054 A 
BRANCH  96  97
ATOM     97  S   UNL A   1      37.773  29.813  32.769  1.00  0.00     0.124 S 
ATOM     98  O   UNL A   1      37.760  30.866  33.781  1.00  0.00    -0.237 OA
ATOM     99  O   UNL A   1      37.570  30.261  31.393  1.00  0.00    -0.237 OA
ATOM    100  O   UNL A   1      37.057  28.592  33.132  1.00  0.00    -0.744 OA
ENDBRANCH  96  97
ENDBRANCH  70  91
ENDBRANCH  44  45
ENDBRANCH  37  39
ENDBRANCH  36  37
ENDBRANCH  35  36
ENDBRANCH  34  35
ENDBRANCH  33  34
ENDBRANCH  32  33
ENDBRANCH   1  32
TORSDOF 26
ENDMDL
MODEL 2
REMARK VINA RESULT:      -5.8      5.251     14.008
REMARK SMILES COC(=O)C[C@@H](NC(=O)c1ccccc1C(=O)OCCOCCOCCOC(=O)c1ccc(-c2c3nc(c(-c4ccc(S(=O)(=O)[O-])cc4)c4ccc([nH]4)c(-c4ccc(S(=O)(=O)[O-])cc4)c4nc(c(-c5ccc(S(=O)(=O)[O-])cc5)c5ccc2[nH]5)C=C4)C=C3)cc1)c1cccc(C)c1C
REMARK SMILES IDX 22 1 21 2 20 3 19 4 18 5 16 6 17 7 15 8 10 9 11 10 12 11
REMARK SMILES IDX 14 12 13 13 8 14 7 15 9 17 6 18 5 19 3 20 4 21 2 22 1 23
REMARK SMILES IDX 90 24 91 25 96 26 92 27 94 28 97 29 93 30 95 31 23 32 24 33
REMARK SMILES IDX 25 34 26 35 27 36 28 37 29 38 30 39 31 40 89 41 32 42 88 43
REMARK SMILES IDX 33 44 34 45 35 46 82 47 36 48 87 49 81 50 83 51 37 52 86 53
REMARK SMILES IDX 80 54 79 55 38 57 68 58 49 59 67 60 50 61 53 62 66 63 84 64
REMARK SMILES IDX 51 65 52 66 65 68 85 69 54 70 39 71 40 72 48 73 41 74 47 75
REMARK SMILES IDX 42 76 43 77 44 78 45 79 46 80 69 81 70 82 78 83 71 84 77 85
REMARK SMILES IDX 72 86 73 87 74 88 75 89 76 90 55 91 56 92 64 93 57 94 63 95
REMARK SMILES IDX 58 96 59 97 60 98 61 99 62 100
REMARK H PARENT 7 16 83 56 53 67
REMARK Flexibility Score: inf
ROOT
ATOM      1  C   UNL A   1      38.705  34.491  29.428  1.00  0.00     0.188 C 
ENDROOT
BRANCH   1   2
ATOM      2  O   UNL A   1      39.926  34.748  30.091  1.00  0.00    -0.376 OA
BRANCH   2   3
ATOM      3  C   UNL A   1      40.711  33.680  30.588  1.00  0.00     0.202 C 
BRANCH   3   4
ATOM      4  C   UNL A   1      41.131  33.600  32.054  1.00  0.00     0.261 C 
BRANCH   4   5
ATOM      5  O   UNL A   1      40.075  33.722  33.022  1.00  0.00    -0.460 OA
BRANCH   5   6
ATOM      6  C   UNL A   1      40.495  33.972  34.290  1.00  0.00     0.339 C 
ATOM      7  O   UNL A   1      41.478  34.635  34.583  1.00  0.00    -0.246 OA
BRANCH   6   8
ATOM      8  C   UNL A   1      39.548  33.494  35.322  1.00  0.00     0.072 A 
ATOM      9  C   UNL A   1      39.780  32.452  36.221  1.00  0.00     0.054 A 
ATOM     10  C   UNL A   1      38.771  32.118  37.155  1.00  0.00     0.015 A 
ATOM     11  C   UNL A   1      37.567  32.819  37.210  1.00  0.00     0.001 A 
ATOM     12  C   UNL A   1      38.318  34.186  35.378  1.00  0.00     0.016 A 
ATOM     13  C   UNL A   1      37.338  33.854  36.316  1.00  0.00     0.001 A 
BRANCH   9  14
ATOM     14  C   UNL A   1      40.994  31.625  36.340  1.00  0.00     0.252 C 
ATOM     15  N   UNL A   1      41.860  31.665  37.399  1.00  0.00    -0.345 N 
ATOM     16  H   UNL A   1      42.256  30.784  37.586  1.00  0.00     0.164 HD
ATOM     17  O   UNL A   1      41.141  30.702  35.536  1.00  0.00    -0.269 OA
BRANCH  15  18
ATOM     18  C   UNL A   1      42.348  32.705  38.330  1.00  0.00     0.124 C 
BRANCH  18  19
ATOM     19  C   UNL A   1      43.454  32.112  39.208  1.00  0.00     0.152 C 
BRANCH  19  20
ATOM     20  C   UNL A   1      44.759  32.785  38.839  1.00  0.00     0.307 C 
ATOM     21  O   UNL A   1      45.782  32.720  39.508  1.00  0.00    -0.252 OA
BRANCH  20  22
ATOM     22  O   UNL A   1      44.608  33.527  37.705  1.00  0.00    -0.469 OA
ATOM     23  C   UNL A   1      45.675  34.446  37.442  1.00  0.00     0.282 C 
ENDBRANCH  20  22
ENDBRANCH  19  20
ENDBRANCH  18  19
BRANCH  18  24
ATOM     24  C   UNL A   1      41.303  33.499  39.112  1.00  0.00    -0.022 A 
ATOM     25  C   UNL A   1      40.576  32.884  40.144  1.00  0.00     0.006 A 
ATOM     26  C   UNL A   1      40.921  34.813  38.699  1.00  0.00    -0.043 A 
ATOM     27  C   UNL A   1      39.383  33.438  40.606  1.00  0.00     0.001 A 
ATOM     28  C   UNL A   1      39.742  35.398  39.228  1.00  0.00    -0.048 A 
ATOM     29  C   UNL A   1      41.745  35.617  37.717  1.00  0.00     0.045 C 
ATOM     30  C   UNL A   1      38.951  34.668  40.123  1.00  0.00     0.004 A 
ATOM     31  C   UNL A   1      39.220  36.740  38.773  1.00  0.00     0.044 C 
ENDBRANCH  18  24
ENDBRANCH  15  18
ENDBRANCH   9  14
ENDBRANCH   6   8
ENDBRANCH   5   6
ENDBRANCH   4   5
ENDBRANCH   3   4
ENDBRANCH   2   3
ENDBRANCH   1   2
BRANCH   1  32
ATOM     32  C   UNL A   1      37.585  33.715  30.158  1.00  0.00     0.188 C 
BRANCH  32  33
ATOM     33  O   UNL A   1      36.227  34.001  29.899  1.00  0.00    -0.376 OA
BRANCH  33  34
ATOM     34  C   UNL A   1      35.447  33.001  29.267  1.00  0.00     0.202 C 
BRANCH  34  35
ATOM     35  C   UNL A   1      36.138  31.861  28.502  1.00  0.00     0.261 C 
BRANCH  35  36
ATOM     36  O   UNL A   1      35.753  30.535  28.911  1.00  0.00    -0.460 OA
BRANCH  36  37
ATOM     37  C   UNL A   1      36.469  30.003  29.937  1.00  0.00     0.338 C 
ATOM     38  O   UNL A   1      36.021  29.468  30.941  1.00  0.00    -0.246 OA
BRANCH  37  39
ATOM     39  C   UNL A   1      37.903  29.923  29.566  1.00  0.00     0.060 A 
ATOM     40  C   UNL A   1      38.233  29.496  28.268  1.00  0.00     0.016 A 
ATOM     41  C   UNL A   1      38.912  30.245  30.474  1.00  0.00     0.016 A 
ATOM     42  C   UNL A   1      39.567  29.355  27.885  1.00  0.00     0.010 A 
ATOM     43  C   UNL A   1      40.251  30.065  30.100  1.00  0.00     0.010 A 
ATOM     44  C   UNL A   1      40.583  29.582  28.819  1.00  0.00    -0.014 A 
BRANCH  44  45
ATOM     45  C   UNL A   1      41.946  29.048  28.561  1.00  0.00     0.031 A 
ATOM     46  C   UNL A   1      43.091  30.028  28.569  1.00  0.00     0.074 A 
ATOM     47  C   UNL A   1      42.183  27.744  28.334  1.00  0.00     0.049 A 
ATOM     48  N   UNL A   1      44.355  29.835  28.297  1.00  0.00    -0.248 NA
ATOM     49  C   UNL A   1      42.756  31.416  28.930  1.00  0.00     0.031 C 
ATOM     50  C   UNL A   1      41.183  26.681  28.353  1.00  0.00     0.029 A 
ATOM     51  N   UNL A   1      43.357  27.099  28.024  1.00  0.00    -0.354 N 
ATOM     52  C   UNL A   1      44.963  31.078  28.437  1.00  0.00     0.074 A 
ATOM     53  C   UNL A   1      43.925  32.021  28.792  1.00  0.00     0.031 C 
ATOM     54  C   UNL A   1      41.780  25.518  28.035  1.00  0.00     0.029 A 
ATOM     55  C   UNL A   1      43.196  25.760  27.757  1.00  0.00     0.049 A 
ATOM     56  H   UNL A   1      44.230  27.553  27.995  1.00  0.00     0.167 HD
ATOM     57  C   UNL A   1      46.266  31.412  28.282  1.00  0.00     0.031 A 
ATOM     58  C   UNL A   1      44.081  24.844  27.310  1.00  0.00     0.031 A 
ATOM     59  C   UNL A   1      47.295  30.484  27.898  1.00  0.00     0.049 A 
ATOM     60  C   UNL A   1      45.514  25.249  27.064  1.00  0.00     0.074 A 
ATOM     61  C   UNL A   1      48.646  30.724  27.720  1.00  0.00     0.029 A 
ATOM     62  N   UNL A   1      47.085  29.143  27.616  1.00  0.00    -0.354 N 
ATOM     63  N   UNL A   1      46.081  26.422  27.222  1.00  0.00    -0.248 NA
ATOM     64  C   UNL A   1      46.430  24.201  26.586  1.00  0.00     0.031 C 
ATOM     65  C   UNL A   1      49.242  29.542  27.270  1.00  0.00     0.029 A 
ATOM     66  C   UNL A   1      48.276  28.548  27.236  1.00  0.00     0.049 A 
ATOM     67  H   UNL A   1      46.217  28.682  27.677  1.00  0.00     0.167 HD
ATOM     68  C   UNL A   1      47.422  26.247  26.886  1.00  0.00     0.074 A 
ATOM     69  C   UNL A   1      47.584  24.853  26.531  1.00  0.00     0.031 C 
ATOM     70  C   UNL A   1      48.427  27.158  26.877  1.00  0.00     0.031 A 
BRANCH  57  71
ATOM     71  C   UNL A   1      46.628  32.861  28.475  1.00  0.00    -0.014 A 
ATOM     72  C   UNL A   1      46.702  33.433  29.759  1.00  0.00     0.010 A 
ATOM     73  C   UNL A   1      46.887  33.666  27.352  1.00  0.00     0.010 A 
ATOM     74  C   UNL A   1      46.969  34.796  29.911  1.00  0.00     0.020 A 
ATOM     75  C   UNL A   1      47.187  35.023  27.500  1.00  0.00     0.020 A 
ATOM     76  C   UNL A   1      47.201  35.584  28.779  1.00  0.00     0.054 A 
BRANCH  76  77
ATOM     77  S   UNL A   1      47.534  37.352  29.002  1.00  0.00     0.124 S 
ATOM     78  O   UNL A   1      46.985  37.595  30.333  1.00  0.00    -0.237 OA
ATOM     79  O   UNL A   1      48.990  37.419  28.903  1.00  0.00    -0.237 OA
ATOM     80  O   UNL A   1      46.809  37.984  27.904  1.00  0.00    -0.744 OA
ENDBRANCH  76  77
ENDBRANCH  57  71
BRANCH  58  81
ATOM     81  C   UNL A   1      43.624  23.454  27.026  1.00  0.00    -0.014 A 
ATOM     82  C   UNL A   1      43.297  22.572  28.069  1.00  0.00     0.010 A 
ATOM     83  C   UNL A   1      43.500  23.013  25.695  1.00  0.00     0.010 A 
ATOM     84  C   UNL A   1      42.853  21.275  27.787  1.00  0.00     0.020 A 
ATOM     85  C   UNL A   1      43.030  21.727  25.409  1.00  0.00     0.020 A 
ATOM     86  C   UNL A   1      42.714  20.864  26.459  1.00  0.00     0.054 A 
BRANCH  86  87
ATOM     87  S   UNL A   1      42.054  19.208  26.118  1.00  0.00     0.124 S 
ATOM     88  O   UNL A   1      40.646  19.487  25.859  1.00  0.00    -0.237 OA
ATOM     89  O   UNL A   1      42.840  18.789  24.960  1.00  0.00    -0.237 OA
ATOM     90  O   UNL A   1      42.331  18.469  27.347  1.00  0.00    -0.744 OA
ENDBRANCH  86  87
ENDBRANCH  58  81
BRANCH  70  91
ATOM     91  C   UNL A   1      49.808  26.681  26.504  1.00  0.00    -0.014 A 
ATOM     92  C   UNL A   1      50.676  26.125  27.460  1.00  0.00     0.010 A 
ATOM     93  C   UNL A   1      50.215  26.724  25.157  1.00  0.00     0.010 A 
ATOM     94  C   UNL A   1      51.937  25.651  27.082  1.00  0.00     0.020 A 
ATOM     95  C   UNL A   1      51.462  26.225  24.771  1.00  0.00     0.020 A 
ATOM     96  C   UNL A   1      52.321  25.704  25.739  1.00  0.00     0.054 A 
BRANCH  96  97
ATOM     97  S   UNL A   1      53.943  25.042  25.267  1.00  0.00     0.124 S 
ATOM     98  O   UNL A   1      54.689  25.142  26.519  1.00  0.00    -0.237 OA
ATOM     99  O   UNL A   1      53.623  23.685  24.833  1.00  0.00    -0.237 OA
ATOM    100  O   UNL A   1      54.389  25.941  24.204  1.00  0.00    -0.744 OA
ENDBRANCH  96  97
ENDBRANCH  70  91
ENDBRANCH  44  45
ENDBRANCH  37  39
ENDBRANCH  36  37
ENDBRANCH  35  36
ENDBRANCH  34  35
ENDBRANCH  33  34
ENDBRANCH  32  33
ENDBRANCH   1  32
TORSDOF 26
ENDMDL
MODEL 3
REMARK VINA RESULT:      -5.7      4.783     13.436
REMARK SMILES COC(=O)C[C@@H](NC(=O)c1ccccc1C(=O)OCCOCCOCCOC(=O)c1ccc(-c2c3nc(c(-c4ccc(S(=O)(=O)[O-])cc4)c4ccc([nH]4)c(-c4ccc(S(=O)(=O)[O-])cc4)c4nc(c(-c5ccc(S(=O)(=O)[O-])cc5)c5ccc2[nH]5)C=C4)C=C3)cc1)c1cccc(C)c1C
REMARK SMILES IDX 22 1 21 2 20 3 19 4 18 5 16 6 17 7 15 8 10 9 11 10 12 11
REMARK SMILES IDX 14 12 13 13 8 14 7 15 9 17 6 18 5 19 3 20 4 21 2 22 1 23
REMARK SMILES IDX 90 24 91 25 96 26 92 27 94 28 97 29 93 30 95 31 23 32 24 33
REMARK SMILES IDX 25 34 26 35 27 36 28 37 29 38 30 39 31 40 89 41 32 42 88 43
REMARK SMILES IDX 33 44 34 45 35 46 82 47 36 48 87 49 81 50 83 51 37 52 86 53
REMARK SMILES IDX 80 54 79 55 38 57 68 58 49 59 67 60 50 61 53 62 66 63 84 64
REMARK SMILES IDX 51 65 52 66 65 68 85 69 54 70 39 71 40 72 48 73 41 74 47 75
REMARK SMILES IDX 42 76 43 77 44 78 45 79 46 80 69 81 70 82 78 83 71 84 77 85
REMARK SMILES IDX 72 86 73 87 74 88 75 89 76 90 55 91 56 92 64 93 57 94 63 95
REMARK SMILES IDX 58 96 59 97 60 98 61 99 62 100
REMARK H PARENT 7 16 83 56 53 67
REMARK Flexibility Score: inf
ROOT
ATOM      1  C   UNL A   1      38.063  34.472  29.508  1.00  0.00     0.188 C 
ENDROOT
BRANCH   1   2
ATOM      2  O   UNL A   1      39.241  34.954  30.121  1.00  0.00    -0.376 OA
BRANCH   2   3
ATOM      3  C   UNL A   1      40.418  34.167  30.130  1.00  0.00     0.202 C 
BRANCH   3   4
ATOM      4  C   UNL A   1      40.951  33.524  31.407  1.00  0.00     0.261 C 
BRANCH   4   5
ATOM      5  O   UNL A   1      40.043  32.651  32.102  1.00  0.00    -0.460 OA
BRANCH   5   6
ATOM      6  C   UNL A   1      40.575  32.027  33.186  1.00  0.00     0.339 C 
ATOM      7  O   UNL A   1      39.946  31.336  33.973  1.00  0.00    -0.246 OA
BRANCH   6   8
ATOM      8  C   UNL A   1      42.050  32.127  33.250  1.00  0.00     0.072 A 
ATOM      9  C   UNL A   1      42.773  33.035  34.024  1.00  0.00     0.054 A 
ATOM     10  C   UNL A   1      44.187  32.999  33.979  1.00  0.00     0.015 A 
ATOM     11  C   UNL A   1      44.868  32.065  33.198  1.00  0.00     0.001 A 
ATOM     12  C   UNL A   1      42.752  31.197  32.452  1.00  0.00     0.016 A 
ATOM     13  C   UNL A   1      44.148  31.164  32.429  1.00  0.00     0.001 A 
BRANCH   9  14
ATOM     14  C   UNL A   1      42.236  34.064  34.933  1.00  0.00     0.252 C 
ATOM     15  N   UNL A   1      42.345  34.029  36.296  1.00  0.00    -0.345 N 
ATOM     16  H   UNL A   1      42.432  34.929  36.683  1.00  0.00     0.164 HD
ATOM     17  O   UNL A   1      41.836  35.118  34.433  1.00  0.00    -0.269 OA
BRANCH  15  18
ATOM     18  C   UNL A   1      42.363  32.973  37.331  1.00  0.00     0.124 C 
BRANCH  18  19
ATOM     19  C   UNL A   1      42.054  33.601  38.693  1.00  0.00     0.152 C 
BRANCH  19  20
ATOM     20  C   UNL A   1      40.598  33.342  39.013  1.00  0.00     0.307 C 
ATOM     21  O   UNL A   1      40.201  32.446  39.746  1.00  0.00    -0.252 OA
BRANCH  20  22
ATOM     22  O   UNL A   1      39.798  34.196  38.313  1.00  0.00    -0.469 OA
ATOM     23  C   UNL A   1      40.010  35.584  38.594  1.00  0.00     0.282 C 
ENDBRANCH  20  22
ENDBRANCH  19  20
ENDBRANCH  18  19
BRANCH  18  24
ATOM     24  C   UNL A   1      43.559  32.023  37.350  1.00  0.00    -0.022 A 
ATOM     25  C   UNL A   1      44.806  32.468  37.814  1.00  0.00     0.006 A 
ATOM     26  C   UNL A   1      43.480  30.734  36.736  1.00  0.00    -0.043 A 
ATOM     27  C   UNL A   1      45.975  31.778  37.495  1.00  0.00     0.001 A 
ATOM     28  C   UNL A   1      44.671  30.007  36.480  1.00  0.00    -0.048 A 
ATOM     29  C   UNL A   1      42.157  30.103  36.360  1.00  0.00     0.045 C 
ATOM     30  C   UNL A   1      45.909  30.576  36.801  1.00  0.00     0.004 A 
ATOM     31  C   UNL A   1      44.681  28.684  35.752  1.00  0.00     0.044 C 
ENDBRANCH  18  24
ENDBRANCH  15  18
ENDBRANCH   9  14
ENDBRANCH   6   8
ENDBRANCH   5   6
ENDBRANCH   4   5
ENDBRANCH   3   4
ENDBRANCH   2   3
ENDBRANCH   1   2
BRANCH   1  32
ATOM     32  C   UNL A   1      37.171  33.456  30.257  1.00  0.00     0.188 C 
BRANCH  32  33
ATOM     33  O   UNL A   1      35.764  33.576  30.228  1.00  0.00    -0.376 OA
BRANCH  33  34
ATOM     34  C   UNL A   1      35.028  32.594  29.521  1.00  0.00     0.202 C 
BRANCH  34  35
ATOM     35  C   UNL A   1      35.729  31.727  28.462  1.00  0.00     0.261 C 
BRANCH  35  36
ATOM     36  O   UNL A   1      35.707  30.311  28.725  1.00  0.00    -0.460 OA
BRANCH  36  37
ATOM     37  C   UNL A   1      36.404  29.903  29.820  1.00  0.00     0.338 C 
ATOM     38  O   UNL A   1      35.938  29.462  30.859  1.00  0.00    -0.246 OA
BRANCH  37  39
ATOM     39  C   UNL A   1      37.850  29.823  29.498  1.00  0.00     0.060 A 
ATOM     40  C   UNL A   1      38.223  29.513  28.179  1.00  0.00     0.016 A 
ATOM     41  C   UNL A   1      38.828  30.031  30.471  1.00  0.00     0.016 A 
ATOM     42  C   UNL A   1      39.568  29.375  27.835  1.00  0.00     0.010 A 
ATOM     43  C   UNL A   1      40.177  29.854  30.133  1.00  0.00     0.010 A 
ATOM     44  C   UNL A   1      40.550  29.486  28.825  1.00  0.00    -0.014 A 
BRANCH  44  45
ATOM     45  C   UNL A   1      41.910  28.945  28.569  1.00  0.00     0.031 A 
ATOM     46  C   UNL A   1      43.065  29.913  28.612  1.00  0.00     0.074 A 
ATOM     47  C   UNL A   1      42.138  27.644  28.316  1.00  0.00     0.049 A 
ATOM     48  N   UNL A   1      44.330  29.714  28.350  1.00  0.00    -0.248 NA
ATOM     49  C   UNL A   1      42.739  31.296  29.001  1.00  0.00     0.031 C 
ATOM     50  C   UNL A   1      41.126  26.591  28.299  1.00  0.00     0.029 A 
ATOM     51  N   UNL A   1      43.308  26.995  28.003  1.00  0.00    -0.354 N 
ATOM     52  C   UNL A   1      44.948  30.947  28.524  1.00  0.00     0.074 A 
ATOM     53  C   UNL A   1      43.916  31.892  28.890  1.00  0.00     0.031 C 
ATOM     54  C   UNL A   1      41.716  25.430  27.961  1.00  0.00     0.029 A 
ATOM     55  C   UNL A   1      43.137  25.664  27.704  1.00  0.00     0.049 A 
ATOM     56  H   UNL A   1      44.186  27.441  27.994  1.00  0.00     0.167 HD
ATOM     57  C   UNL A   1      46.256  31.271  28.391  1.00  0.00     0.031 A 
ATOM     58  C   UNL A   1      44.018  24.750  27.245  1.00  0.00     0.031 A 
ATOM     59  C   UNL A   1      47.280  30.343  27.997  1.00  0.00     0.049 A 
ATOM     60  C   UNL A   1      45.458  25.145  27.024  1.00  0.00     0.074 A 
ATOM     61  C   UNL A   1      48.635  30.573  27.839  1.00  0.00     0.029 A 
ATOM     62  N   UNL A   1      47.060  29.010  27.682  1.00  0.00    -0.354 N 
ATOM     63  N   UNL A   1      46.034  26.309  27.215  1.00  0.00    -0.248 NA
ATOM     64  C   UNL A   1      46.368  24.100  26.532  1.00  0.00     0.031 C 
ATOM     65  C   UNL A   1      49.225  29.395  27.368  1.00  0.00     0.029 A 
ATOM     66  C   UNL A   1      48.249  28.412  27.302  1.00  0.00     0.049 A 
ATOM     67  H   UNL A   1      46.187  28.557  27.723  1.00  0.00     0.167 HD
ATOM     68  C   UNL A   1      47.377  26.129  26.890  1.00  0.00     0.074 A 
ATOM     69  C   UNL A   1      47.530  24.741  26.504  1.00  0.00     0.031 C 
ATOM     70  C   UNL A   1      48.391  27.030  26.912  1.00  0.00     0.031 A 
BRANCH  57  71
ATOM     71  C   UNL A   1      46.629  32.712  28.622  1.00  0.00    -0.014 A 
ATOM     72  C   UNL A   1      46.879  33.585  27.547  1.00  0.00     0.010 A 
ATOM     73  C   UNL A   1      46.743  33.196  29.937  1.00  0.00     0.010 A 
ATOM     74  C   UNL A   1      47.294  34.898  27.785  1.00  0.00     0.020 A 
ATOM     75  C   UNL A   1      47.126  34.518  30.180  1.00  0.00     0.020 A 
ATOM     76  C   UNL A   1      47.422  35.354  29.101  1.00  0.00     0.054 A 
BRANCH  76  77
ATOM     77  S   UNL A   1      47.973  37.058  29.383  1.00  0.00     0.124 S 
ATOM     78  O   UNL A   1      48.358  37.475  28.038  1.00  0.00    -0.237 OA
ATOM     79  O   UNL A   1      46.774  37.697  29.920  1.00  0.00    -0.237 OA
ATOM     80  O   UNL A   1      49.075  36.915  30.330  1.00  0.00    -0.744 OA
ENDBRANCH  76  77
ENDBRANCH  57  71
BRANCH  58  81
ATOM     81  C   UNL A   1      43.550  23.371  26.924  1.00  0.00    -0.014 A 
ATOM     82  C   UNL A   1      43.890  22.755  25.709  1.00  0.00     0.010 A 
ATOM     83  C   UNL A   1      42.768  22.660  27.854  1.00  0.00     0.010 A 
ATOM     84  C   UNL A   1      43.458  21.454  25.428  1.00  0.00     0.020 A 
ATOM     85  C   UNL A   1      42.357  21.350  27.589  1.00  0.00     0.020 A 
ATOM     86  C   UNL A   1      42.701  20.756  26.374  1.00  0.00     0.054 A 
BRANCH  86  87
ATOM     87  S   UNL A   1      42.226  19.040  26.024  1.00  0.00     0.124 S 
ATOM     88  O   UNL A   1      42.989  18.753  24.813  1.00  0.00    -0.237 OA
ATOM     89  O   UNL A   1      42.665  18.341  27.229  1.00  0.00    -0.237 OA
ATOM     90  O   UNL A   1      40.778  19.114  25.850  1.00  0.00    -0.744 OA
ENDBRANCH  86  87
ENDBRANCH  58  81
BRANCH  70  91
ATOM     91  C   UNL A   1      49.771  26.547  26.543  1.00  0.00    -0.014 A 
ATOM     92  C   UNL A   1      50.603  25.914  27.483  1.00  0.00     0.010 A 
ATOM     93  C   UNL A   1      50.213  26.667  25.212  1.00  0.00     0.010 A 
ATOM     94  C   UNL A   1      51.863  25.437  27.106  1.00  0.00     0.020 A 
ATOM     95  C   UNL A   1      51.459  26.166  24.825  1.00  0.00     0.020 A 
ATOM     96  C   UNL A   1      52.283  25.567  25.779  1.00  0.00     0.054 A 
BRANCH  96  97
ATOM     97  S   UNL A   1      53.903  24.902  25.305  1.00  0.00     0.124 S 
ATOM     98  O   UNL A   1      53.604  23.485  25.109  1.00  0.00    -0.237 OA
ATOM     99  O   UNL A   1      54.216  25.651  24.091  1.00  0.00    -0.237 OA
ATOM    100  O   UNL A   1      54.753  25.204  26.454  1.00  0.00    -0.744 OA
ENDBRANCH  96  97
ENDBRANCH  70  91
ENDBRANCH  44  45
ENDBRANCH  37  39
ENDBRANCH  36  37
ENDBRANCH  35  36
ENDBRANCH  34  35
ENDBRANCH  33  34
ENDBRANCH  32  33
ENDBRANCH   1  32
TORSDOF 26
ENDMDL
