MODEL 1
REMARK VINA RESULT:     -10.7      0.000      0.000
REMARK SMILES CCc1cc(S(F)(F)(F)(F)F)cc2c1O[C@@H](C(F)(F)F)C(C(=O)OCCOCCOCCOC(=O)c1ccc(-c3c4nc(c(-c5ccc(S(=O)(=O)[O-])cc5)c5ccc([nH]5)c(-c5ccc(S(=O)(=O)[O-])cc5)c5nc(c(-c6ccc(S(=O)(=O)[O-])cc6)c6ccc3[nH]6)C=C5)C=C4)cc1)=C2
REMARK SMILES IDX 29 1 28 2 27 3 26 4 25 5 24 6 22 7 23 8 21 9 3 10 4 11 14 12
REMARK SMILES IDX 5 13 13 14 15 15 12 16 96 17 16 18 2 19 1 20 6 21 7 22 8 23
REMARK SMILES IDX 9 24 10 25 11 26 17 27 18 28 19 29 20 30 30 31 31 32 32 33
REMARK SMILES IDX 33 34 34 35 35 36 36 37 37 38 95 39 38 40 94 41 39 42 40 43
REMARK SMILES IDX 41 44 88 45 42 46 93 47 87 48 89 49 43 50 92 51 86 52 85 53
REMARK SMILES IDX 44 55 74 56 55 57 73 58 56 59 59 60 72 61 90 62 57 63 58 64
REMARK SMILES IDX 71 66 91 67 60 68 45 69 46 70 54 71 47 72 53 73 48 74 49 75
REMARK SMILES IDX 50 76 51 77 52 78 75 79 76 80 84 81 77 82 83 83 78 84 79 85
REMARK SMILES IDX 80 86 81 87 82 88 61 89 62 90 70 91 63 92 69 93 64 94 65 95
REMARK SMILES IDX 66 96 67 97 68 98
REMARK H PARENT 89 54 59 65
REMARK Flexibility Score: inf
ROOT
ATOM      1  C   UNL A   1      35.559  19.820  25.020  1.00  0.00     0.188 C 
ENDROOT
BRANCH   1   2
ATOM      2  C   UNL A   1      34.257  20.520  25.374  1.00  0.00     0.188 C 
BRANCH   2   3
ATOM      3  O   UNL A   1      33.847  21.336  24.286  1.00  0.00    -0.376 OA
BRANCH   3   4
ATOM      4  C   UNL A   1      32.491  21.059  23.973  1.00  0.00     0.202 C 
BRANCH   4   5
ATOM      5  C   UNL A   1      32.134  21.706  22.644  1.00  0.00     0.261 C 
BRANCH   5   6
ATOM      6  O   UNL A   1      31.737  23.051  22.865  1.00  0.00    -0.460 OA
BRANCH   6   7
ATOM      7  C   UNL A   1      32.493  24.116  22.305  1.00  0.00     0.338 C 
ATOM      8  O   UNL A   1      33.314  23.885  21.362  1.00  0.00    -0.246 OA
BRANCH   7   9
ATOM      9  C   UNL A   1      32.321  25.531  22.832  1.00  0.00     0.087 C 
ATOM     10  C   UNL A   1      31.698  29.202  24.724  1.00  0.00    -0.004 A 
ATOM     11  C   UNL A   1      30.675  30.031  24.302  1.00  0.00     0.032 A 
ATOM     12  C   UNL A   1      31.847  27.977  24.119  1.00  0.00     0.131 A 
ATOM     13  C   UNL A   1      29.820  29.643  23.303  1.00  0.00     0.108 A 
ATOM     14  C   UNL A   1      31.014  27.560  23.097  1.00  0.00     0.019 A 
ATOM     15  O   UNL A   1      32.794  27.121  24.625  1.00  0.00    -0.475 OA
ATOM     16  C   UNL A   1      29.994  28.415  22.700  1.00  0.00     0.036 A 
ATOM     17  C   UNL A   1      31.229  26.231  22.549  1.00  0.00     0.027 C 
ATOM     18  C   UNL A   1      33.395  26.175  23.697  1.00  0.00     0.316 C 
BRANCH  10  19
ATOM     19  C   UNL A   1      32.608  29.495  25.905  1.00  0.00     0.036 C 
ATOM     20  C   UNL A   1      31.836  30.266  26.963  1.00  0.00     0.009 C 
ENDBRANCH  10  19
BRANCH  13  21
ATOM     21  S   UNL A   1      28.472  30.734  22.782  1.00  0.00     0.310 S 
ATOM     22  F   UNL A   1      28.048  29.751  21.611  1.00  0.00    -0.094 F 
ATOM     23  F   UNL A   1      29.458  31.416  21.760  1.00  0.00    -0.094 F 
ATOM     24  F   UNL A   1      27.315  31.670  22.334  1.00  0.00    -0.094 F 
ATOM     25  F   UNL A   1      27.465  29.945  23.709  1.00  0.00    -0.094 F 
ATOM     26  F   UNL A   1      29.608  29.703  23.165  1.00  0.00    -0.094 F 
ENDBRANCH  13  21
BRANCH  18  27
ATOM     27  C   UNL A   1      34.112  25.092  24.487  1.00  0.00     0.430 C 
ATOM     28  F   UNL A   1      34.936  24.427  23.682  1.00  0.00    -0.167 F 
ATOM     29  F   UNL A   1      34.809  25.649  25.473  1.00  0.00    -0.167 F 
ATOM     30  F   UNL A   1      33.217  24.250  24.998  1.00  0.00    -0.167 F 
ENDBRANCH  18  27
ENDBRANCH   7   9
ENDBRANCH   6   7
ENDBRANCH   5   6
ENDBRANCH   4   5
ENDBRANCH   3   4
ENDBRANCH   2   3
ENDBRANCH   1   2
BRANCH   1  31
ATOM     31  O   UNL A   1      36.649  20.696  25.262  1.00  0.00    -0.376 OA
BRANCH  31  32
ATOM     32  C   UNL A   1      37.870  19.999  25.066  1.00  0.00     0.202 C 
BRANCH  32  33
ATOM     33  C   UNL A   1      39.034  20.900  25.447  1.00  0.00     0.261 C 
BRANCH  33  34
ATOM     34  O   UNL A   1      38.578  21.916  26.328  1.00  0.00    -0.460 OA
BRANCH  34  35
ATOM     35  C   UNL A   1      38.369  23.234  25.843  1.00  0.00     0.338 C 
ATOM     36  O   UNL A   1      37.666  23.425  24.802  1.00  0.00    -0.246 OA
BRANCH  35  37
ATOM     37  C   UNL A   1      38.986  24.418  26.571  1.00  0.00     0.060 A 
ATOM     38  C   UNL A   1      39.845  25.314  25.957  1.00  0.00     0.016 A 
ATOM     39  C   UNL A   1      38.577  24.603  27.821  1.00  0.00     0.016 A 
ATOM     40  C   UNL A   1      40.452  26.230  26.848  1.00  0.00     0.010 A 
ATOM     41  C   UNL A   1      39.115  25.604  28.592  1.00  0.00     0.010 A 
ATOM     42  C   UNL A   1      40.015  26.490  28.067  1.00  0.00    -0.014 A 
BRANCH  42  43
ATOM     43  C   UNL A   1      40.486  27.708  28.844  1.00  0.00     0.031 A 
ATOM     44  C   UNL A   1      41.715  27.573  29.492  1.00  0.00     0.074 A 
ATOM     45  C   UNL A   1      39.646  28.797  28.997  1.00  0.00     0.049 A 
ATOM     46  N   UNL A   1      42.300  28.443  30.317  1.00  0.00    -0.248 NA
ATOM     47  C   UNL A   1      42.594  26.401  29.358  1.00  0.00     0.031 C 
ATOM     48  C   UNL A   1      38.410  28.945  28.339  1.00  0.00     0.029 A 
ATOM     49  N   UNL A   1      39.839  29.908  29.788  1.00  0.00    -0.354 N 
ATOM     50  C   UNL A   1      43.480  27.971  30.725  1.00  0.00     0.074 A 
ATOM     51  C   UNL A   1      43.683  26.648  30.119  1.00  0.00     0.031 C 
ATOM     52  C   UNL A   1      37.859  30.122  28.736  1.00  0.00     0.029 A 
ATOM     53  C   UNL A   1      38.742  30.730  29.648  1.00  0.00     0.049 A 
ATOM     54  H   UNL A   1      40.623  30.085  30.355  1.00  0.00     0.167 HD
ATOM     55  C   UNL A   1      44.394  28.592  31.577  1.00  0.00     0.031 A 
ATOM     56  C   UNL A   1      38.506  31.944  30.274  1.00  0.00     0.031 A 
ATOM     57  C   UNL A   1      44.178  29.826  32.169  1.00  0.00     0.049 A 
ATOM     58  C   UNL A   1      39.395  32.538  31.172  1.00  0.00     0.074 A 
ATOM     59  C   UNL A   1      45.093  30.470  33.024  1.00  0.00     0.029 A 
ATOM     60  N   UNL A   1      43.071  30.636  32.049  1.00  0.00    -0.354 N 
ATOM     61  N   UNL A   1      40.592  32.084  31.548  1.00  0.00    -0.248 NA
ATOM     62  C   UNL A   1      39.142  33.809  31.866  1.00  0.00     0.031 C 
ATOM     63  C   UNL A   1      44.541  31.647  33.421  1.00  0.00     0.029 A 
ATOM     64  C   UNL A   1      43.273  31.758  32.821  1.00  0.00     0.049 A 
ATOM     65  H   UNL A   1      42.272  30.447  31.505  1.00  0.00     0.167 HD
ATOM     66  C   UNL A   1      41.157  32.937  32.406  1.00  0.00     0.074 A 
ATOM     67  C   UNL A   1      40.230  34.054  32.628  1.00  0.00     0.031 C 
ATOM     68  C   UNL A   1      42.412  32.828  33.009  1.00  0.00     0.031 A 
BRANCH  55  69
ATOM     69  C   UNL A   1      45.701  27.875  31.872  1.00  0.00    -0.014 A 
ATOM     70  C   UNL A   1      46.829  28.183  31.129  1.00  0.00     0.010 A 
ATOM     71  C   UNL A   1      45.741  26.964  32.838  1.00  0.00     0.010 A 
ATOM     72  C   UNL A   1      47.892  27.262  31.288  1.00  0.00     0.020 A 
ATOM     73  C   UNL A   1      46.863  26.192  33.026  1.00  0.00     0.020 A 
ATOM     74  C   UNL A   1      47.993  26.403  32.287  1.00  0.00     0.054 A 
BRANCH  74  75
ATOM     75  S   UNL A   1      49.546  25.549  32.655  1.00  0.00     0.124 S 
ATOM     76  O   UNL A   1      49.314  24.527  33.771  1.00  0.00    -0.237 OA
ATOM     77  O   UNL A   1      50.042  24.829  31.399  1.00  0.00    -0.237 OA
ATOM     78  O   UNL A   1      50.717  26.688  33.159  1.00  0.00    -0.744 OA
ENDBRANCH  74  75
ENDBRANCH  55  69
BRANCH  56  79
ATOM     79  C   UNL A   1      37.206  32.669  29.966  1.00  0.00    -0.014 A 
ATOM     80  C   UNL A   1      37.128  33.480  28.846  1.00  0.00     0.010 A 
ATOM     81  C   UNL A   1      36.166  32.514  30.777  1.00  0.00     0.010 A 
ATOM     82  C   UNL A   1      35.990  34.320  28.823  1.00  0.00     0.020 A 
ATOM     83  C   UNL A   1      35.032  33.273  30.614  1.00  0.00     0.020 A 
ATOM     84  C   UNL A   1      34.911  34.138  29.562  1.00  0.00     0.054 A 
BRANCH  84  85
ATOM     85  S   UNL A   1      33.355  34.990  29.203  1.00  0.00     0.124 S 
ATOM     86  O   UNL A   1      32.511  35.071  30.476  1.00  0.00    -0.237 OA
ATOM     87  O   UNL A   1      33.653  36.404  28.697  1.00  0.00    -0.237 OA
ATOM     88  O   UNL A   1      32.496  34.126  28.004  1.00  0.00    -0.744 OA
ENDBRANCH  84  85
ENDBRANCH  56  79
BRANCH  68  89
ATOM     89  C   UNL A   1      42.861  33.954  33.927  1.00  0.00    -0.014 A 
ATOM     90  C   UNL A   1      42.707  33.902  35.303  1.00  0.00     0.010 A 
ATOM     91  C   UNL A   1      43.534  34.940  33.347  1.00  0.00     0.010 A 
ATOM     92  C   UNL A   1      43.059  35.102  35.965  1.00  0.00     0.020 A 
ATOM     93  C   UNL A   1      43.967  36.019  34.079  1.00  0.00     0.020 A 
ATOM     94  C   UNL A   1      43.796  36.061  35.435  1.00  0.00     0.054 A 
BRANCH  94  95
ATOM     95  S   UNL A   1      44.539  37.363  36.449  1.00  0.00     0.124 S 
ATOM     96  O   UNL A   1      44.362  38.716  35.754  1.00  0.00    -0.237 OA
ATOM     97  O   UNL A   1      43.853  37.399  37.817  1.00  0.00    -0.237 OA
ATOM     98  O   UNL A   1      46.207  37.043  36.655  1.00  0.00    -0.744 OA
ENDBRANCH  94  95
ENDBRANCH  68  89
ENDBRANCH  42  43
ENDBRANCH  35  37
ENDBRANCH  34  35
ENDBRANCH  33  34
ENDBRANCH  32  33
ENDBRANCH  31  32
ENDBRANCH   1  31
TORSDOF 23
ENDMDL
MODEL 2
REMARK VINA RESULT:     -10.2      0.816      7.808
REMARK SMILES CCc1cc(S(F)(F)(F)(F)F)cc2c1O[C@@H](C(F)(F)F)C(C(=O)OCCOCCOCCOC(=O)c1ccc(-c3c4nc(c(-c5ccc(S(=O)(=O)[O-])cc5)c5ccc([nH]5)c(-c5ccc(S(=O)(=O)[O-])cc5)c5nc(c(-c6ccc(S(=O)(=O)[O-])cc6)c6ccc3[nH]6)C=C5)C=C4)cc1)=C2
REMARK SMILES IDX 29 1 28 2 27 3 26 4 25 5 24 6 22 7 23 8 21 9 3 10 4 11 14 12
REMARK SMILES IDX 5 13 13 14 15 15 12 16 96 17 16 18 2 19 1 20 6 21 7 22 8 23
REMARK SMILES IDX 9 24 10 25 11 26 17 27 18 28 19 29 20 30 30 31 31 32 32 33
REMARK SMILES IDX 33 34 34 35 35 36 36 37 37 38 95 39 38 40 94 41 39 42 40 43
REMARK SMILES IDX 41 44 88 45 42 46 93 47 87 48 89 49 43 50 92 51 86 52 85 53
REMARK SMILES IDX 44 55 74 56 55 57 73 58 56 59 59 60 72 61 90 62 57 63 58 64
REMARK SMILES IDX 71 66 91 67 60 68 45 69 46 70 54 71 47 72 53 73 48 74 49 75
REMARK SMILES IDX 50 76 51 77 52 78 75 79 76 80 84 81 77 82 83 83 78 84 79 85
REMARK SMILES IDX 80 86 81 87 82 88 61 89 62 90 70 91 63 92 69 93 64 94 65 95
REMARK SMILES IDX 66 96 67 97 68 98
REMARK H PARENT 89 54 59 65
REMARK Flexibility Score: inf
ROOT
ATOM      1  C   UNL A   1      35.562  19.847  24.918  1.00  0.00     0.188 C 
ENDROOT
BRANCH   1   2
ATOM      2  C   UNL A   1      34.236  20.522  25.226  1.00  0.00     0.188 C 
BRANCH   2   3
ATOM      3  O   UNL A   1      33.907  21.421  24.176  1.00  0.00    -0.376 OA
BRANCH   3   4
ATOM      4  C   UNL A   1      32.582  21.167  23.734  1.00  0.00     0.202 C 
BRANCH   4   5
ATOM      5  C   UNL A   1      32.322  21.930  22.445  1.00  0.00     0.261 C 
BRANCH   5   6
ATOM      6  O   UNL A   1      31.864  23.238  22.754  1.00  0.00    -0.460 OA
BRANCH   6   7
ATOM      7  C   UNL A   1      32.602  24.371  22.317  1.00  0.00     0.338 C 
ATOM      8  O   UNL A   1      33.419  24.262  21.349  1.00  0.00    -0.246 OA
BRANCH   7   9
ATOM      9  C   UNL A   1      32.415  25.712  23.006  1.00  0.00     0.087 C 
ATOM     10  C   UNL A   1      31.719  29.132  25.302  1.00  0.00    -0.004 A 
ATOM     11  C   UNL A   1      30.742  30.032  24.920  1.00  0.00     0.032 A 
ATOM     12  C   UNL A   1      31.891  27.989  24.558  1.00  0.00     0.131 A 
ATOM     13  C   UNL A   1      29.953  29.793  23.824  1.00  0.00     0.108 A 
ATOM     14  C   UNL A   1      31.126  27.724  23.437  1.00  0.00     0.019 A 
ATOM     15  O   UNL A   1      32.787  27.053  25.014  1.00  0.00    -0.475 OA
ATOM     16  C   UNL A   1      30.149  28.647  23.083  1.00  0.00     0.036 A 
ATOM     17  C   UNL A   1      31.357  26.469  22.741  1.00  0.00     0.027 C 
ATOM     18  C   UNL A   1      33.437  26.217  24.017  1.00  0.00     0.316 C 
BRANCH  10  19
ATOM     19  C   UNL A   1      32.549  29.252  26.569  1.00  0.00     0.036 C 
ATOM     20  C   UNL A   1      33.114  30.659  26.674  1.00  0.00     0.009 C 
ENDBRANCH  10  19
BRANCH  13  21
ATOM     21  S   UNL A   1      28.663  30.973  23.355  1.00  0.00     0.310 S 
ATOM     22  F   UNL A   1      29.467  31.436  22.069  1.00  0.00    -0.094 F 
ATOM     23  F   UNL A   1      29.433  32.090  24.155  1.00  0.00    -0.094 F 
ATOM     24  F   UNL A   1      27.555  31.987  22.952  1.00  0.00    -0.094 F 
ATOM     25  F   UNL A   1      27.980  29.877  22.445  1.00  0.00    -0.094 F 
ATOM     26  F   UNL A   1      29.839  29.963  23.664  1.00  0.00    -0.094 F 
ENDBRANCH  13  21
BRANCH  18  27
ATOM     27  C   UNL A   1      34.079  25.026  24.710  1.00  0.00     0.430 C 
ATOM     28  F   UNL A   1      33.129  24.218  25.174  1.00  0.00    -0.167 F 
ATOM     29  F   UNL A   1      34.839  24.364  23.843  1.00  0.00    -0.167 F 
ATOM     30  F   UNL A   1      34.830  25.454  25.722  1.00  0.00    -0.167 F 
ENDBRANCH  18  27
ENDBRANCH   7   9
ENDBRANCH   6   7
ENDBRANCH   5   6
ENDBRANCH   4   5
ENDBRANCH   3   4
ENDBRANCH   2   3
ENDBRANCH   1   2
BRANCH   1  31
ATOM     31  O   UNL A   1      36.626  20.650  25.405  1.00  0.00    -0.376 OA
BRANCH  31  32
ATOM     32  C   UNL A   1      37.862  20.138  24.930  1.00  0.00     0.202 C 
BRANCH  32  33
ATOM     33  C   UNL A   1      39.000  21.010  25.437  1.00  0.00     0.261 C 
BRANCH  33  34
ATOM     34  O   UNL A   1      38.484  21.996  26.320  1.00  0.00    -0.460 OA
BRANCH  34  35
ATOM     35  C   UNL A   1      38.358  23.341  25.886  1.00  0.00     0.338 C 
ATOM     36  O   UNL A   1      37.670  23.614  24.852  1.00  0.00    -0.246 OA
BRANCH  35  37
ATOM     37  C   UNL A   1      39.043  24.457  26.658  1.00  0.00     0.060 A 
ATOM     38  C   UNL A   1      39.970  25.310  26.083  1.00  0.00     0.016 A 
ATOM     39  C   UNL A   1      38.629  24.630  27.908  1.00  0.00     0.016 A 
ATOM     40  C   UNL A   1      40.625  26.154  27.010  1.00  0.00     0.010 A 
ATOM     41  C   UNL A   1      39.223  25.568  28.717  1.00  0.00     0.010 A 
ATOM     42  C   UNL A   1      40.189  26.406  28.231  1.00  0.00    -0.014 A 
BRANCH  42  43
ATOM     43  C   UNL A   1      40.732  27.565  29.052  1.00  0.00     0.031 A 
ATOM     44  C   UNL A   1      39.899  28.681  29.146  1.00  0.00     0.074 A 
ATOM     45  C   UNL A   1      42.032  27.528  29.522  1.00  0.00     0.049 A 
ATOM     46  N   UNL A   1      40.175  29.857  29.711  1.00  0.00    -0.248 NA
ATOM     47  C   UNL A   1      38.528  28.734  28.616  1.00  0.00     0.031 C 
ATOM     48  C   UNL A   1      42.876  26.403  29.440  1.00  0.00     0.029 A 
ATOM     49  N   UNL A   1      42.737  28.538  30.140  1.00  0.00    -0.354 N 
ATOM     50  C   UNL A   1      39.122  30.672  29.622  1.00  0.00     0.074 A 
ATOM     51  C   UNL A   1      38.049  29.963  28.910  1.00  0.00     0.031 C 
ATOM     52  C   UNL A   1      44.074  26.733  29.988  1.00  0.00     0.029 A 
ATOM     53  C   UNL A   1      44.001  28.069  30.423  1.00  0.00     0.049 A 
ATOM     54  H   UNL A   1      42.397  29.439  30.343  1.00  0.00     0.167 HD
ATOM     55  C   UNL A   1      39.013  31.975  30.107  1.00  0.00     0.031 A 
ATOM     56  C   UNL A   1      45.045  28.754  31.026  1.00  0.00     0.031 A 
ATOM     57  C   UNL A   1      40.042  32.645  30.748  1.00  0.00     0.049 A 
ATOM     58  C   UNL A   1      44.955  30.079  31.458  1.00  0.00     0.074 A 
ATOM     59  C   UNL A   1      39.946  33.957  31.250  1.00  0.00     0.029 A 
ATOM     60  N   UNL A   1      41.314  32.185  31.010  1.00  0.00    -0.354 N 
ATOM     61  N   UNL A   1      43.888  30.878  31.405  1.00  0.00    -0.248 NA
ATOM     62  C   UNL A   1      46.064  30.825  32.069  1.00  0.00     0.031 C 
ATOM     63  C   UNL A   1      41.146  34.287  31.799  1.00  0.00     0.029 A 
ATOM     64  C   UNL A   1      42.011  33.187  31.648  1.00  0.00     0.049 A 
ATOM     65  H   UNL A   1      41.664  31.295  30.781  1.00  0.00     0.167 HD
ATOM     66  C   UNL A   1      44.180  32.069  31.934  1.00  0.00     0.074 A 
ATOM     67  C   UNL A   1      45.585  32.054  32.362  1.00  0.00     0.031 C 
ATOM     68  C   UNL A   1      43.328  33.165  32.079  1.00  0.00     0.031 A 
BRANCH  55  69
ATOM     69  C   UNL A   1      37.690  32.701  29.922  1.00  0.00    -0.014 A 
ATOM     70  C   UNL A   1      36.631  32.410  30.766  1.00  0.00     0.010 A 
ATOM     71  C   UNL A   1      37.572  33.603  28.955  1.00  0.00     0.010 A 
ATOM     72  C   UNL A   1      35.387  32.920  30.324  1.00  0.00     0.020 A 
ATOM     73  C   UNL A   1      36.351  34.163  28.666  1.00  0.00     0.020 A 
ATOM     74  C   UNL A   1      35.249  33.875  29.421  1.00  0.00     0.054 A 
BRANCH  74  75
ATOM     75  S   UNL A   1      33.682  34.754  29.197  1.00  0.00     0.124 S 
ATOM     76  O   UNL A   1      33.949  36.112  28.542  1.00  0.00    -0.237 OA
ATOM     77  O   UNL A   1      32.758  33.928  28.300  1.00  0.00    -0.237 OA
ATOM     78  O   UNL A   1      32.939  34.991  30.719  1.00  0.00    -0.744 OA
ENDBRANCH  74  75
ENDBRANCH  55  69
BRANCH  56  79
ATOM     79  C   UNL A   1      46.362  28.022  31.225  1.00  0.00    -0.014 A 
ATOM     80  C   UNL A   1      47.372  28.174  30.290  1.00  0.00     0.010 A 
ATOM     81  C   UNL A   1      46.523  27.249  32.292  1.00  0.00     0.010 A 
ATOM     82  C   UNL A   1      48.421  27.233  30.419  1.00  0.00     0.020 A 
ATOM     83  C   UNL A   1      47.637  26.456  32.420  1.00  0.00     0.020 A 
ATOM     84  C   UNL A   1      48.648  26.511  31.502  1.00  0.00     0.054 A 
BRANCH  84  85
ATOM     85  S   UNL A   1      50.215  25.639  31.754  1.00  0.00     0.124 S 
ATOM     86  O   UNL A   1      50.255  25.062  33.171  1.00  0.00    -0.237 OA
ATOM     87  O   UNL A   1      50.335  24.502  30.737  1.00  0.00    -0.237 OA
ATOM     88  O   UNL A   1      51.514  26.730  31.546  1.00  0.00    -0.744 OA
ENDBRANCH  84  85
ENDBRANCH  56  79
BRANCH  68  89
ATOM     89  C   UNL A   1      43.879  34.411  32.754  1.00  0.00    -0.014 A 
ATOM     90  C   UNL A   1      44.430  35.465  32.043  1.00  0.00     0.010 A 
ATOM     91  C   UNL A   1      43.683  34.494  34.065  1.00  0.00     0.010 A 
ATOM     92  C   UNL A   1      45.012  36.465  32.857  1.00  0.00     0.020 A 
ATOM     93  C   UNL A   1      44.161  35.566  34.778  1.00  0.00     0.020 A 
ATOM     94  C   UNL A   1      44.768  36.616  34.146  1.00  0.00     0.054 A 
BRANCH  94  95
ATOM     95  S   UNL A   1      45.215  38.131  35.030  1.00  0.00     0.124 S 
ATOM     96  O   UNL A   1      46.024  39.043  34.103  1.00  0.00    -0.237 OA
ATOM     97  O   UNL A   1      43.943  38.856  35.475  1.00  0.00    -0.237 OA
ATOM     98  O   UNL A   1      46.156  37.734  36.402  1.00  0.00    -0.744 OA
ENDBRANCH  94  95
ENDBRANCH  68  89
ENDBRANCH  42  43
ENDBRANCH  35  37
ENDBRANCH  34  35
ENDBRANCH  33  34
ENDBRANCH  32  33
ENDBRANCH  31  32
ENDBRANCH   1  31
TORSDOF 23
ENDMDL
MODEL 3
REMARK VINA RESULT:     -10.1      6.567     11.892
REMARK SMILES CCc1cc(S(F)(F)(F)(F)F)cc2c1O[C@@H](C(F)(F)F)C(C(=O)OCCOCCOCCOC(=O)c1ccc(-c3c4nc(c(-c5ccc(S(=O)(=O)[O-])cc5)c5ccc([nH]5)c(-c5ccc(S(=O)(=O)[O-])cc5)c5nc(c(-c6ccc(S(=O)(=O)[O-])cc6)c6ccc3[nH]6)C=C5)C=C4)cc1)=C2
REMARK SMILES IDX 29 1 28 2 27 3 26 4 25 5 24 6 22 7 23 8 21 9 3 10 4 11 14 12
REMARK SMILES IDX 5 13 13 14 15 15 12 16 96 17 16 18 2 19 1 20 6 21 7 22 8 23
REMARK SMILES IDX 9 24 10 25 11 26 17 27 18 28 19 29 20 30 30 31 31 32 32 33
REMARK SMILES IDX 33 34 34 35 35 36 36 37 37 38 95 39 38 40 94 41 39 42 40 43
REMARK SMILES IDX 41 44 88 45 42 46 93 47 87 48 89 49 43 50 92 51 86 52 85 53
REMARK SMILES IDX 44 55 74 56 55 57 73 58 56 59 59 60 72 61 90 62 57 63 58 64
REMARK SMILES IDX 71 66 91 67 60 68 45 69 46 70 54 71 47 72 53 73 48 74 49 75
REMARK SMILES IDX 50 76 51 77 52 78 75 79 76 80 84 81 77 82 83 83 78 84 79 85
REMARK SMILES IDX 80 86 81 87 82 88 61 89 62 90 70 91 63 92 69 93 64 94 65 95
REMARK SMILES IDX 66 96 67 97 68 98
REMARK H PARENT 89 54 59 65
REMARK Flexibility Score: inf
ROOT
ATOM      1  C   UNL A   1      40.266  20.463  26.296  1.00  0.00     0.188 C 
ENDROOT
BRANCH   1   2
ATOM      2  C   UNL A   1      41.140  20.274  27.524  1.00  0.00     0.188 C 
BRANCH   2   3
ATOM      3  O   UNL A   1      42.372  19.680  27.142  1.00  0.00    -0.376 OA
BRANCH   3   4
ATOM      4  C   UNL A   1      42.342  19.380  25.754  1.00  0.00     0.202 C 
BRANCH   4   5
ATOM      5  C   UNL A   1      43.591  19.933  25.088  1.00  0.00     0.261 C 
BRANCH   5   6
ATOM      6  O   UNL A   1      44.163  20.938  25.914  1.00  0.00    -0.460 OA
BRANCH   6   7
ATOM      7  C   UNL A   1      43.593  22.239  25.947  1.00  0.00     0.338 C 
ATOM      8  O   UNL A   1      42.784  22.601  25.036  1.00  0.00    -0.246 OA
BRANCH   7   9
ATOM      9  C   UNL A   1      43.951  23.197  27.071  1.00  0.00     0.087 C 
ATOM     10  C   UNL A   1      45.423  25.695  30.078  1.00  0.00    -0.004 A 
ATOM     11  C   UNL A   1      45.134  25.425  31.402  1.00  0.00     0.032 A 
ATOM     12  C   UNL A   1      44.970  24.828  29.113  1.00  0.00     0.131 A 
ATOM     13  C   UNL A   1      44.414  24.312  31.754  1.00  0.00     0.108 A 
ATOM     14  C   UNL A   1      44.227  23.705  29.429  1.00  0.00     0.019 A 
ATOM     15  O   UNL A   1      45.361  25.048  27.815  1.00  0.00    -0.475 OA
ATOM     16  C   UNL A   1      43.958  23.460  30.770  1.00  0.00     0.036 A 
ATOM     17  C   UNL A   1      43.829  22.828  28.340  1.00  0.00     0.027 C 
ATOM     18  C   UNL A   1      44.458  24.600  26.766  1.00  0.00     0.316 C 
BRANCH  10  19
ATOM     19  C   UNL A   1      46.319  26.830  29.609  1.00  0.00     0.036 C 
ATOM     20  C   UNL A   1      46.160  28.020  30.541  1.00  0.00     0.009 C 
ENDBRANCH  10  19
BRANCH  13  21
ATOM     21  S   UNL A   1      44.067  23.964  33.496  1.00  0.00     0.310 S 
ATOM     22  F   UNL A   1      45.334  23.018  33.623  1.00  0.00    -0.094 F 
ATOM     23  F   UNL A   1      43.249  22.694  33.050  1.00  0.00    -0.094 F 
ATOM     24  F   UNL A   1      43.769  23.664  34.992  1.00  0.00    -0.094 F 
ATOM     25  F   UNL A   1      45.005  25.158  33.930  1.00  0.00    -0.094 F 
ATOM     26  F   UNL A   1      44.470  24.214  31.988  1.00  0.00    -0.094 F 
ENDBRANCH  13  21
BRANCH  18  27
ATOM     27  C   UNL A   1      45.205  24.581  25.442  1.00  0.00     0.430 C 
ATOM     28  F   UNL A   1      46.084  25.580  25.415  1.00  0.00    -0.167 F 
ATOM     29  F   UNL A   1      45.846  23.423  25.311  1.00  0.00    -0.167 F 
ATOM     30  F   UNL A   1      44.339  24.725  24.442  1.00  0.00    -0.167 F 
ENDBRANCH  18  27
ENDBRANCH   7   9
ENDBRANCH   6   7
ENDBRANCH   5   6
ENDBRANCH   4   5
ENDBRANCH   3   4
ENDBRANCH   2   3
ENDBRANCH   1   2
BRANCH   1  31
ATOM     31  O   UNL A   1      39.398  21.568  26.498  1.00  0.00    -0.376 OA
BRANCH  31  32
ATOM     32  C   UNL A   1      40.073  22.571  27.242  1.00  0.00     0.202 C 
BRANCH  32  33
ATOM     33  C   UNL A   1      39.765  23.936  26.649  1.00  0.00     0.261 C 
BRANCH  33  34
ATOM     34  O   UNL A   1      40.916  24.763  26.742  1.00  0.00    -0.460 OA
BRANCH  34  35
ATOM     35  C   UNL A   1      40.775  26.176  26.768  1.00  0.00     0.338 C 
ATOM     36  O   UNL A   1      40.792  26.836  25.683  1.00  0.00    -0.246 OA
BRANCH  35  37
ATOM     37  C   UNL A   1      40.603  26.898  28.095  1.00  0.00     0.060 A 
ATOM     38  C   UNL A   1      39.698  26.491  29.061  1.00  0.00     0.016 A 
ATOM     39  C   UNL A   1      41.444  27.901  28.318  1.00  0.00     0.016 A 
ATOM     40  C   UNL A   1      39.560  27.400  30.136  1.00  0.00     0.010 A 
ATOM     41  C   UNL A   1      41.338  28.663  29.456  1.00  0.00     0.010 A 
ATOM     42  C   UNL A   1      40.426  28.354  30.427  1.00  0.00    -0.014 A 
BRANCH  42  43
ATOM     43  C   UNL A   1      40.409  29.070  31.768  1.00  0.00     0.031 A 
ATOM     44  C   UNL A   1      39.434  30.057  31.914  1.00  0.00     0.074 A 
ATOM     45  C   UNL A   1      41.414  28.832  32.689  1.00  0.00     0.049 A 
ATOM     46  N   UNL A   1      39.271  30.895  32.939  1.00  0.00    -0.248 NA
ATOM     47  C   UNL A   1      38.386  30.334  30.920  1.00  0.00     0.031 C 
ATOM     48  C   UNL A   1      42.396  27.832  32.553  1.00  0.00     0.029 A 
ATOM     49  N   UNL A   1      41.648  29.494  33.874  1.00  0.00    -0.354 N 
ATOM     50  C   UNL A   1      38.216  31.684  32.728  1.00  0.00     0.074 A 
ATOM     51  C   UNL A   1      37.635  31.339  31.423  1.00  0.00     0.031 C 
ATOM     52  C   UNL A   1      43.218  27.897  33.634  1.00  0.00     0.029 A 
ATOM     53  C   UNL A   1      42.762  28.939  34.464  1.00  0.00     0.049 A 
ATOM     54  H   UNL A   1      41.112  30.235  34.237  1.00  0.00     0.167 HD
ATOM     55  C   UNL A   1      37.714  32.675  33.572  1.00  0.00     0.031 A 
ATOM     56  C   UNL A   1      43.363  29.307  35.658  1.00  0.00     0.031 A 
ATOM     57  C   UNL A   1      38.290  33.015  34.786  1.00  0.00     0.049 A 
ATOM     58  C   UNL A   1      42.896  30.339  36.474  1.00  0.00     0.074 A 
ATOM     59  C   UNL A   1      37.792  34.007  35.652  1.00  0.00     0.029 A 
ATOM     60  N   UNL A   1      39.418  32.476  35.364  1.00  0.00    -0.354 N 
ATOM     61  N   UNL A   1      41.817  31.100  36.282  1.00  0.00    -0.248 NA
ATOM     62  C   UNL A   1      43.542  30.760  37.725  1.00  0.00     0.031 C 
ATOM     63  C   UNL A   1      38.614  34.072  36.734  1.00  0.00     0.029 A 
ATOM     64  C   UNL A   1      39.639  33.123  36.560  1.00  0.00     0.049 A 
ATOM     65  H   UNL A   1      39.972  31.755  34.988  1.00  0.00     0.167 HD
ATOM     66  C   UNL A   1      41.680  31.966  37.288  1.00  0.00     0.074 A 
ATOM     67  C   UNL A   1      42.792  31.764  38.227  1.00  0.00     0.031 C 
ATOM     68  C   UNL A   1      40.670  32.914  37.462  1.00  0.00     0.031 A 
BRANCH  55  69
ATOM     69  C   UNL A   1      36.466  33.425  33.136  1.00  0.00    -0.014 A 
ATOM     70  C   UNL A   1      36.586  34.509  32.282  1.00  0.00     0.010 A 
ATOM     71  C   UNL A   1      35.279  33.027  33.580  1.00  0.00     0.010 A 
ATOM     72  C   UNL A   1      35.414  35.294  32.181  1.00  0.00     0.020 A 
ATOM     73  C   UNL A   1      34.152  33.773  33.329  1.00  0.00     0.020 A 
ATOM     74  C   UNL A   1      34.209  34.889  32.542  1.00  0.00     0.054 A 
BRANCH  74  75
ATOM     75  S   UNL A   1      32.713  35.766  32.022  1.00  0.00     0.124 S 
ATOM     76  O   UNL A   1      32.670  35.837  30.493  1.00  0.00    -0.237 OA
ATOM     77  O   UNL A   1      31.480  35.018  32.533  1.00  0.00    -0.237 OA
ATOM     78  O   UNL A   1      32.728  37.349  32.666  1.00  0.00    -0.744 OA
ENDBRANCH  74  75
ENDBRANCH  55  69
BRANCH  56  79
ATOM     79  C   UNL A   1      44.602  28.546  36.102  1.00  0.00    -0.014 A 
ATOM     80  C   UNL A   1      44.459  27.412  36.884  1.00  0.00     0.010 A 
ATOM     81  C   UNL A   1      45.801  28.982  35.733  1.00  0.00     0.010 A 
ATOM     82  C   UNL A   1      45.665  26.966  37.473  1.00  0.00     0.020 A 
ATOM     83  C   UNL A   1      46.940  28.410  36.244  1.00  0.00     0.020 A 
ATOM     84  C   UNL A   1      46.872  27.322  37.070  1.00  0.00     0.054 A 
BRANCH  84  85
ATOM     85  S   UNL A   1      48.354  26.421  37.586  1.00  0.00     0.124 S 
ATOM     86  O   UNL A   1      48.324  25.009  36.997  1.00  0.00    -0.237 OA
ATOM     87  O   UNL A   1      49.599  27.157  37.083  1.00  0.00    -0.237 OA
ATOM     88  O   UNL A   1      48.399  26.327  39.292  1.00  0.00    -0.744 OA
ENDBRANCH  84  85
ENDBRANCH  56  79
BRANCH  68  89
ATOM     89  C   UNL A   1      40.704  33.769  38.719  1.00  0.00    -0.014 A 
ATOM     90  C   UNL A   1      41.414  34.956  38.796  1.00  0.00     0.010 A 
ATOM     91  C   UNL A   1      39.902  33.381  39.703  1.00  0.00     0.010 A 
ATOM     92  C   UNL A   1      41.434  35.529  40.089  1.00  0.00     0.020 A 
ATOM     93  C   UNL A   1      39.871  34.068  40.893  1.00  0.00     0.020 A 
ATOM     94  C   UNL A   1      40.594  35.217  41.060  1.00  0.00     0.054 A 
BRANCH  94  95
ATOM     95  S   UNL A   1      40.409  36.254  42.532  1.00  0.00     0.124 S 
ATOM     96  O   UNL A   1      39.024  36.030  43.144  1.00  0.00    -0.237 OA
ATOM     97  O   UNL A   1      41.485  35.882  43.555  1.00  0.00    -0.237 OA
ATOM     98  O   UNL A   1      40.581  37.899  42.095  1.00  0.00    -0.744 OA
ENDBRANCH  94  95
ENDBRANCH  68  89
ENDBRANCH  42  43
ENDBRANCH  35  37
ENDBRANCH  34  35
ENDBRANCH  33  34
ENDBRANCH  32  33
ENDBRANCH  31  32
ENDBRANCH   1  31
TORSDOF 23
ENDMDL
