MODEL 1
REMARK VINA RESULT:     -10.2      0.000      0.000
REMARK SMILES Cc1ccccc1/[NH+]=C1\S[C@@H](CC(=O)Nc2ccc(C(=O)OCCOCCOCCOC(=O)c3ccc(-c4c5nc(c(-c6ccc(S(=O)(=O)[O-])cc6)c6ccc([nH]6)c(-c6ccc(S(=O)(=O)[O-])cc6)c6nc(c(-c7ccc(S(=O)(=O)[O-])cc7)c7ccc4[nH]7)C=C6)C=C5)cc3)cc2)C(=O)N1C
REMARK SMILES IDX 26 1 25 2 24 3 23 4 22 5 20 6 21 7 19 8 16 9 17 10 95 11
REMARK SMILES IDX 18 12 94 13 15 14 13 15 14 16 12 18 11 19 8 20 9 21 10 23
REMARK SMILES IDX 98 24 96 25 99 26 97 27 7 28 1 29 2 30 3 31 4 32 6 33 5 34
REMARK SMILES IDX 27 35 28 36 29 37 30 38 31 39 32 40 33 41 34 42 35 43 93 44
REMARK SMILES IDX 36 45 92 46 37 47 38 48 39 49 86 50 40 51 91 52 85 53 87 54
REMARK SMILES IDX 41 55 90 56 84 57 83 58 42 60 72 61 53 62 71 63 54 64 57 65
REMARK SMILES IDX 70 66 88 67 55 68 56 69 69 71 89 72 58 73 43 74 44 75 52 76
REMARK SMILES IDX 45 77 51 78 46 79 47 80 48 81 49 82 50 83 73 84 74 85 82 86
REMARK SMILES IDX 75 87 81 88 76 89 77 90 78 91 79 92 80 93 59 94 60 95 68 96
REMARK SMILES IDX 61 97 67 98 62 99 63 100 64 101 65 102 66 103
REMARK H PARENT 15 17 8 22 87 59 57 70
REMARK Flexibility Score: inf
ROOT
ATOM      1  C   UNL A   1      40.208  27.774  27.407  1.00  0.00     0.188 C 
ENDROOT
BRANCH   1   2
ATOM      2  O   UNL A   1      39.406  28.972  27.243  1.00  0.00    -0.376 OA
BRANCH   2   3
ATOM      3  C   UNL A   1      38.662  29.594  28.294  1.00  0.00     0.202 C 
BRANCH   3   4
ATOM      4  C   UNL A   1      37.006  29.387  28.494  1.00  0.00     0.261 C 
BRANCH   4   5
ATOM      5  O   UNL A   1      35.841  30.271  27.725  1.00  0.00    -0.460 OA
BRANCH   5   6
ATOM      6  C   UNL A   1      34.485  30.420  27.448  1.00  0.00     0.338 C 
ATOM      7  O   UNL A   1      33.751  31.282  27.919  1.00  0.00    -0.246 OA
BRANCH   6   8
ATOM      8  C   UNL A   1      33.768  29.452  26.496  1.00  0.00     0.060 A 
ATOM      9  C   UNL A   1      31.836  27.665  25.484  1.00  0.00     0.041 A 
ATOM     10  C   UNL A   1      32.908  27.188  26.236  1.00  0.00     0.027 A 
ATOM     11  C   UNL A   1      31.867  28.966  24.999  1.00  0.00     0.027 A 
ATOM     12  C   UNL A   1      33.854  28.085  26.758  1.00  0.00     0.018 A 
ATOM     13  C   UNL A   1      32.804  29.871  25.538  1.00  0.00     0.018 A 
BRANCH   9  14
ATOM     14  N   UNL A   1      30.644  26.913  25.514  1.00  0.00    -0.326 N 
ATOM     15  C   UNL A   1      29.979  26.506  24.371  1.00  0.00     0.226 C 
ATOM     16  O   UNL A   1      28.779  26.223  24.431  1.00  0.00    -0.275 OA
ATOM     17  H   UNL A   1      30.267  26.667  26.389  1.00  0.00     0.169 HD
BRANCH  15  18
ATOM     18  C   UNL A   1      30.714  26.424  23.046  1.00  0.00     0.128 C 
BRANCH  18  19
ATOM     19  C   UNL A   1      31.708  25.280  22.913  1.00  0.00     0.183 C 
ATOM     20  N   UNL A   1      33.324  22.143  24.192  1.00  0.00    -0.234 N 
ATOM     21  C   UNL A   1      32.812  23.315  24.095  1.00  0.00     0.319 C 
ATOM     22  H   UNL A   1      34.301  22.166  24.315  1.00  0.00     0.313 HD
ATOM     23  S   UNL A   1      31.185  23.875  23.945  1.00  0.00    -0.022 SA
ATOM     24  N   UNL A   1      33.651  24.398  24.006  1.00  0.00    -0.193 N 
ATOM     25  C   UNL A   1      33.171  25.474  23.287  1.00  0.00     0.324 C 
ATOM     26  C   UNL A   1      35.013  24.335  24.500  1.00  0.00     0.301 C 
ATOM     27  O   UNL A   1      33.874  26.378  22.843  1.00  0.00    -0.245 OA
BRANCH  20  28
ATOM     28  C   UNL A   1      32.818  20.839  24.165  1.00  0.00     0.128 A 
ATOM     29  C   UNL A   1      31.914  20.611  21.746  1.00  0.00     0.049 C 
ATOM     30  C   UNL A   1      32.299  20.083  23.093  1.00  0.00    -0.004 A 
ATOM     31  C   UNL A   1      32.084  18.696  23.265  1.00  0.00     0.008 A 
ATOM     32  C   UNL A   1      32.399  18.045  24.451  1.00  0.00     0.001 A 
ATOM     33  C   UNL A   1      33.096  20.149  25.365  1.00  0.00     0.052 A 
ATOM     34  C   UNL A   1      32.901  18.776  25.511  1.00  0.00     0.004 A 
ENDBRANCH  20  28
ENDBRANCH  18  19
ENDBRANCH  15  18
ENDBRANCH   9  14
ENDBRANCH   6   8
ENDBRANCH   5   6
ENDBRANCH   4   5
ENDBRANCH   3   4
ENDBRANCH   2   3
ENDBRANCH   1   2
BRANCH   1  35
ATOM     35  C   UNL A   1      39.647  26.469  27.991  1.00  0.00     0.188 C 
BRANCH  35  36
ATOM     36  O   UNL A   1      39.489  25.501  26.970  1.00  0.00    -0.376 OA
BRANCH  36  37
ATOM     37  C   UNL A   1      38.645  24.405  27.263  1.00  0.00     0.202 C 
BRANCH  37  38
ATOM     38  C   UNL A   1      39.039  23.119  26.516  1.00  0.00     0.261 C 
BRANCH  38  39
ATOM     39  O   UNL A   1      40.464  22.859  26.584  1.00  0.00    -0.460 OA
BRANCH  39  40
ATOM     40  C   UNL A   1      40.946  22.127  27.668  1.00  0.00     0.338 C 
ATOM     41  O   UNL A   1      40.597  21.010  27.889  1.00  0.00    -0.246 OA
BRANCH  40  42
ATOM     42  C   UNL A   1      42.088  22.869  28.336  1.00  0.00     0.060 A 
ATOM     43  C   UNL A   1      42.729  22.629  29.559  1.00  0.00     0.016 A 
ATOM     44  C   UNL A   1      42.450  24.021  27.746  1.00  0.00     0.016 A 
ATOM     45  C   UNL A   1      43.625  23.619  30.203  1.00  0.00     0.010 A 
ATOM     46  C   UNL A   1      43.053  24.982  28.558  1.00  0.00     0.010 A 
ATOM     47  C   UNL A   1      43.822  24.918  29.720  1.00  0.00    -0.014 A 
BRANCH  47  48
ATOM     48  C   UNL A   1      44.516  26.206  30.452  1.00  0.00     0.031 A 
ATOM     49  C   UNL A   1      44.047  27.353  31.549  1.00  0.00     0.074 A 
ATOM     50  C   UNL A   1      45.754  26.528  30.006  1.00  0.00     0.049 A 
ATOM     51  N   UNL A   1      44.167  28.666  31.365  1.00  0.00    -0.248 NA
ATOM     52  C   UNL A   1      43.571  27.181  32.935  1.00  0.00     0.031 C 
ATOM     53  C   UNL A   1      46.670  27.541  30.531  1.00  0.00     0.029 A 
ATOM     54  N   UNL A   1      46.373  26.092  28.846  1.00  0.00    -0.354 N 
ATOM     55  C   UNL A   1      43.848  29.343  32.567  1.00  0.00     0.074 A 
ATOM     56  C   UNL A   1      43.393  28.373  33.474  1.00  0.00     0.031 C 
ATOM     57  C   UNL A   1      47.571  27.836  29.582  1.00  0.00     0.029 A 
ATOM     58  C   UNL A   1      47.230  27.087  28.387  1.00  0.00     0.049 A 
ATOM     59  H   UNL A   1      46.230  25.219  28.415  1.00  0.00     0.167 HD
ATOM     60  C   UNL A   1      44.099  30.628  32.944  1.00  0.00     0.031 A 
ATOM     61  C   UNL A   1      47.115  27.577  27.123  1.00  0.00     0.031 A 
ATOM     62  C   UNL A   1      45.073  31.221  32.087  1.00  0.00     0.049 A 
ATOM     63  C   UNL A   1      46.789  29.052  27.083  1.00  0.00     0.074 A 
ATOM     64  C   UNL A   1      46.447  31.331  32.186  1.00  0.00     0.029 A 
ATOM     65  N   UNL A   1      44.726  31.462  30.778  1.00  0.00    -0.354 N 
ATOM     66  N   UNL A   1      46.514  29.778  28.133  1.00  0.00    -0.248 NA
ATOM     67  C   UNL A   1      46.711  29.825  25.847  1.00  0.00     0.031 C 
ATOM     68  C   UNL A   1      46.945  31.546  30.877  1.00  0.00     0.029 A 
ATOM     69  C   UNL A   1      45.861  31.645  30.023  1.00  0.00     0.049 A 
ATOM     70  H   UNL A   1      43.805  31.499  30.434  1.00  0.00     0.167 HD
ATOM     71  C   UNL A   1      46.158  31.043  27.739  1.00  0.00     0.074 A 
ATOM     72  C   UNL A   1      46.339  31.034  26.302  1.00  0.00     0.031 C 
ATOM     73  C   UNL A   1      45.714  31.983  28.623  1.00  0.00     0.031 A 
BRANCH  60  74
ATOM     74  C   UNL A   1      43.667  31.146  34.319  1.00  0.00    -0.014 A 
ATOM     75  C   UNL A   1      42.316  31.361  34.652  1.00  0.00     0.010 A 
ATOM     76  C   UNL A   1      44.622  31.528  35.295  1.00  0.00     0.010 A 
ATOM     77  C   UNL A   1      41.943  32.032  35.837  1.00  0.00     0.020 A 
ATOM     78  C   UNL A   1      44.261  32.225  36.467  1.00  0.00     0.020 A 
ATOM     79  C   UNL A   1      42.919  32.493  36.724  1.00  0.00     0.054 A 
BRANCH  79  80
ATOM     80  S   UNL A   1      42.419  33.527  38.141  1.00  0.00     0.124 S 
ATOM     81  O   UNL A   1      42.506  34.882  37.597  1.00  0.00    -0.237 OA
ATOM     82  O   UNL A   1      41.067  33.054  38.422  1.00  0.00    -0.237 OA
ATOM     83  O   UNL A   1      43.408  33.229  39.176  1.00  0.00    -0.744 OA
ENDBRANCH  79  80
ENDBRANCH  60  74
BRANCH  61  84
ATOM     84  C   UNL A   1      46.750  26.541  26.107  1.00  0.00    -0.014 A 
ATOM     85  C   UNL A   1      47.655  25.464  25.955  1.00  0.00     0.010 A 
ATOM     86  C   UNL A   1      45.449  26.393  25.597  1.00  0.00     0.010 A 
ATOM     87  C   UNL A   1      47.235  24.227  25.460  1.00  0.00     0.020 A 
ATOM     88  C   UNL A   1      45.026  25.151  25.077  1.00  0.00     0.020 A 
ATOM     89  C   UNL A   1      45.908  24.063  25.071  1.00  0.00     0.054 A 
BRANCH  89  90
ATOM     90  S   UNL A   1      45.334  22.363  24.758  1.00  0.00     0.124 S 
ATOM     91  O   UNL A   1      44.457  22.534  23.604  1.00  0.00    -0.237 OA
ATOM     92  O   UNL A   1      46.597  21.673  24.491  1.00  0.00    -0.237 OA
ATOM     93  O   UNL A   1      44.669  21.997  26.004  1.00  0.00    -0.744 OA
ENDBRANCH  89  90
ENDBRANCH  61  84
BRANCH  73  94
ATOM     94  C   UNL A   1      45.114  33.336  28.314  1.00  0.00    -0.014 A 
ATOM     95  C   UNL A   1      44.070  33.553  27.408  1.00  0.00     0.010 A 
ATOM     96  C   UNL A   1      45.535  34.455  29.083  1.00  0.00     0.010 A 
ATOM     97  C   UNL A   1      43.518  34.831  27.231  1.00  0.00     0.020 A 
ATOM     98  C   UNL A   1      44.957  35.717  28.956  1.00  0.00     0.020 A 
ATOM     99  C   UNL A   1      43.968  35.905  28.002  1.00  0.00     0.054 A 
BRANCH  99 100
ATOM    100  S   UNL A   1      43.225  37.543  27.806  1.00  0.00     0.124 S 
ATOM    101  O   UNL A   1      44.319  38.296  27.198  1.00  0.00    -0.237 OA
ATOM    102  O   UNL A   1      42.082  37.286  26.934  1.00  0.00    -0.237 OA
ATOM    103  O   UNL A   1      42.883  37.925  29.174  1.00  0.00    -0.744 OA
ENDBRANCH  99 100
ENDBRANCH  73  94
ENDBRANCH  47  48
ENDBRANCH  40  42
ENDBRANCH  39  40
ENDBRANCH  38  39
ENDBRANCH  37  38
ENDBRANCH  36  37
ENDBRANCH  35  36
ENDBRANCH   1  35
TORSDOF 24
ENDMDL
MODEL 2
REMARK VINA RESULT:      -9.7      2.166      3.155
REMARK SMILES Cc1ccccc1/[NH+]=C1\S[C@@H](CC(=O)Nc2ccc(C(=O)OCCOCCOCCOC(=O)c3ccc(-c4c5nc(c(-c6ccc(S(=O)(=O)[O-])cc6)c6ccc([nH]6)c(-c6ccc(S(=O)(=O)[O-])cc6)c6nc(c(-c7ccc(S(=O)(=O)[O-])cc7)c7ccc4[nH]7)C=C6)C=C5)cc3)cc2)C(=O)N1C
REMARK SMILES IDX 26 1 25 2 24 3 23 4 22 5 20 6 21 7 19 8 16 9 17 10 95 11
REMARK SMILES IDX 18 12 94 13 15 14 13 15 14 16 12 18 11 19 8 20 9 21 10 23
REMARK SMILES IDX 98 24 96 25 99 26 97 27 7 28 1 29 2 30 3 31 4 32 6 33 5 34
REMARK SMILES IDX 27 35 28 36 29 37 30 38 31 39 32 40 33 41 34 42 35 43 93 44
REMARK SMILES IDX 36 45 92 46 37 47 38 48 39 49 86 50 40 51 91 52 85 53 87 54
REMARK SMILES IDX 41 55 90 56 84 57 83 58 42 60 72 61 53 62 71 63 54 64 57 65
REMARK SMILES IDX 70 66 88 67 55 68 56 69 69 71 89 72 58 73 43 74 44 75 52 76
REMARK SMILES IDX 45 77 51 78 46 79 47 80 48 81 49 82 50 83 73 84 74 85 82 86
REMARK SMILES IDX 75 87 81 88 76 89 77 90 78 91 79 92 80 93 59 94 60 95 68 96
REMARK SMILES IDX 61 97 67 98 62 99 63 100 64 101 65 102 66 103
REMARK H PARENT 15 17 8 22 87 59 57 70
REMARK Flexibility Score: inf
ROOT
ATOM      1  C   UNL A   1      40.095  28.907  27.795  1.00  0.00     0.188 C 
ENDROOT
BRANCH   1   2
ATOM      2  O   UNL A   1      39.031  29.860  28.046  1.00  0.00    -0.376 OA
BRANCH   2   3
ATOM      3  C   UNL A   1      38.123  29.782  29.149  1.00  0.00     0.202 C 
BRANCH   3   4
ATOM      4  C   UNL A   1      36.452  29.804  28.968  1.00  0.00     0.261 C 
BRANCH   4   5
ATOM      5  O   UNL A   1      35.590  31.038  28.290  1.00  0.00    -0.460 OA
BRANCH   5   6
ATOM      6  C   UNL A   1      34.360  31.468  27.797  1.00  0.00     0.338 C 
ATOM      7  O   UNL A   1      33.894  32.594  27.925  1.00  0.00    -0.246 OA
BRANCH   6   8
ATOM      8  C   UNL A   1      33.441  30.502  27.034  1.00  0.00     0.060 A 
ATOM      9  C   UNL A   1      31.967  29.344  24.928  1.00  0.00     0.041 A 
ATOM     10  C   UNL A   1      31.385  30.314  25.742  1.00  0.00     0.027 A 
ATOM     11  C   UNL A   1      33.160  28.750  25.319  1.00  0.00     0.027 A 
ATOM     12  C   UNL A   1      32.132  30.904  26.775  1.00  0.00     0.018 A 
ATOM     13  C   UNL A   1      33.919  29.355  26.342  1.00  0.00     0.018 A 
BRANCH   9  14
ATOM     14  N   UNL A   1      31.484  29.237  23.608  1.00  0.00    -0.326 N 
ATOM     15  C   UNL A   1      30.718  28.172  23.168  1.00  0.00     0.226 C 
ATOM     16  O   UNL A   1      30.665  27.916  21.961  1.00  0.00    -0.275 OA
ATOM     17  H   UNL A   1      31.702  29.955  22.970  1.00  0.00     0.169 HD
BRANCH  15  18
ATOM     18  C   UNL A   1      29.961  27.311  24.162  1.00  0.00     0.128 C 
BRANCH  18  19
ATOM     19  C   UNL A   1      30.812  26.370  25.001  1.00  0.00     0.183 C 
ATOM     20  N   UNL A   1      32.978  23.329  25.384  1.00  0.00    -0.234 N 
ATOM     21  C   UNL A   1      32.043  24.144  25.056  1.00  0.00     0.319 C 
ATOM     22  H   UNL A   1      32.679  22.651  26.032  1.00  0.00     0.313 HD
ATOM     23  S   UNL A   1      31.969  25.455  23.935  1.00  0.00    -0.022 SA
ATOM     24  N   UNL A   1      30.851  24.088  25.735  1.00  0.00    -0.193 N 
ATOM     25  C   UNL A   1      30.165  25.282  25.846  1.00  0.00     0.324 C 
ATOM     26  C   UNL A   1      30.435  22.883  26.426  1.00  0.00     0.301 C 
ATOM     27  O   UNL A   1      29.270  25.492  26.660  1.00  0.00    -0.245 OA
BRANCH  20  28
ATOM     28  C   UNL A   1      34.324  23.178  25.032  1.00  0.00     0.128 A 
ATOM     29  C   UNL A   1      34.236  22.967  22.451  1.00  0.00     0.049 C 
ATOM     30  C   UNL A   1      34.937  23.134  23.764  1.00  0.00    -0.004 A 
ATOM     31  C   UNL A   1      36.345  23.229  23.671  1.00  0.00     0.008 A 
ATOM     32  C   UNL A   1      37.145  23.399  24.794  1.00  0.00     0.001 A 
ATOM     33  C   UNL A   1      35.171  23.319  26.153  1.00  0.00     0.052 A 
ATOM     34  C   UNL A   1      36.556  23.436  26.044  1.00  0.00     0.004 A 
ENDBRANCH  20  28
ENDBRANCH  18  19
ENDBRANCH  15  18
ENDBRANCH   9  14
ENDBRANCH   6   8
ENDBRANCH   5   6
ENDBRANCH   4   5
ENDBRANCH   3   4
ENDBRANCH   2   3
ENDBRANCH   1   2
BRANCH   1  35
ATOM     35  C   UNL A   1      40.004  27.428  28.200  1.00  0.00     0.188 C 
BRANCH  35  36
ATOM     36  O   UNL A   1      39.963  26.604  27.050  1.00  0.00    -0.376 OA
BRANCH  36  37
ATOM     37  C   UNL A   1      39.498  25.281  27.235  1.00  0.00     0.202 C 
BRANCH  37  38
ATOM     38  C   UNL A   1      40.523  24.213  26.816  1.00  0.00     0.261 C 
BRANCH  38  39
ATOM     39  O   UNL A   1      41.875  24.567  27.201  1.00  0.00    -0.460 OA
BRANCH  39  40
ATOM     40  C   UNL A   1      42.338  24.136  28.443  1.00  0.00     0.338 C 
ATOM     41  O   UNL A   1      42.160  23.026  28.839  1.00  0.00    -0.246 OA
BRANCH  40  42
ATOM     42  C   UNL A   1      43.244  25.184  29.059  1.00  0.00     0.060 A 
ATOM     43  C   UNL A   1      43.911  25.191  30.291  1.00  0.00     0.016 A 
ATOM     44  C   UNL A   1      43.305  26.353  28.397  1.00  0.00     0.016 A 
ATOM     45  C   UNL A   1      44.517  26.414  30.869  1.00  0.00     0.010 A 
ATOM     46  C   UNL A   1      43.634  27.483  29.147  1.00  0.00     0.010 A 
ATOM     47  C   UNL A   1      44.381  27.689  30.306  1.00  0.00    -0.014 A 
BRANCH  47  48
ATOM     48  C   UNL A   1      44.714  29.153  30.955  1.00  0.00     0.031 A 
ATOM     49  C   UNL A   1      43.900  30.270  31.866  1.00  0.00     0.074 A 
ATOM     50  C   UNL A   1      45.907  29.686  30.598  1.00  0.00     0.049 A 
ATOM     51  N   UNL A   1      43.778  31.557  31.550  1.00  0.00    -0.248 NA
ATOM     52  C   UNL A   1      43.308  30.125  33.210  1.00  0.00     0.031 C 
ATOM     53  C   UNL A   1      46.535  30.911  31.095  1.00  0.00     0.029 A 
ATOM     54  N   UNL A   1      46.733  29.288  29.560  1.00  0.00    -0.354 N 
ATOM     55  C   UNL A   1      43.192  32.256  32.633  1.00  0.00     0.074 A 
ATOM     56  C   UNL A   1      42.834  31.297  33.593  1.00  0.00     0.031 C 
ATOM     57  C   UNL A   1      47.466  31.303  30.211  1.00  0.00     0.029 A 
ATOM     58  C   UNL A   1      47.424  30.396  29.079  1.00  0.00     0.049 A 
ATOM     59  H   UNL A   1      46.818  28.370  29.217  1.00  0.00     0.167 HD
ATOM     60  C   UNL A   1      43.136  33.594  32.887  1.00  0.00     0.031 A 
ATOM     61  C   UNL A   1      47.365  30.736  27.764  1.00  0.00     0.031 A 
ATOM     62  C   UNL A   1      44.068  34.299  32.068  1.00  0.00     0.049 A 
ATOM     63  C   UNL A   1      46.759  32.101  27.528  1.00  0.00     0.074 A 
ATOM     64  C   UNL A   1      45.371  34.702  32.288  1.00  0.00     0.029 A 
ATOM     65  N   UNL A   1      43.837  34.345  30.713  1.00  0.00    -0.354 N 
ATOM     66  N   UNL A   1      46.224  32.843  28.459  1.00  0.00    -0.248 NA
ATOM     67  C   UNL A   1      46.677  32.727  26.212  1.00  0.00     0.031 C 
ATOM     68  C   UNL A   1      45.968  34.900  31.018  1.00  0.00     0.029 A 
ATOM     69  C   UNL A   1      44.995  34.693  30.056  1.00  0.00     0.049 A 
ATOM     70  H   UNL A   1      42.975  34.158  30.278  1.00  0.00     0.167 HD
ATOM     71  C   UNL A   1      45.673  33.966  27.893  1.00  0.00     0.074 A 
ATOM     72  C   UNL A   1      46.022  33.867  26.491  1.00  0.00     0.031 C 
ATOM     73  C   UNL A   1      44.951  34.867  28.620  1.00  0.00     0.031 A 
BRANCH  60  74
ATOM     74  C   UNL A   1      42.450  34.130  34.147  1.00  0.00    -0.014 A 
ATOM     75  C   UNL A   1      41.581  35.237  34.118  1.00  0.00     0.010 A 
ATOM     76  C   UNL A   1      42.738  33.591  35.427  1.00  0.00     0.010 A 
ATOM     77  C   UNL A   1      41.123  35.849  35.305  1.00  0.00     0.020 A 
ATOM     78  C   UNL A   1      42.309  34.214  36.618  1.00  0.00     0.020 A 
ATOM     79  C   UNL A   1      41.518  35.356  36.551  1.00  0.00     0.054 A 
BRANCH  79  80
ATOM     80  S   UNL A   1      41.075  36.284  38.058  1.00  0.00     0.124 S 
ATOM     81  O   UNL A   1      42.155  37.264  38.162  1.00  0.00    -0.237 OA
ATOM     82  O   UNL A   1      39.765  36.834  37.722  1.00  0.00    -0.237 OA
ATOM     83  O   UNL A   1      41.070  35.277  39.118  1.00  0.00    -0.744 OA
ENDBRANCH  79  80
ENDBRANCH  60  74
BRANCH  61  84
ATOM     84  C   UNL A   1      47.335  29.561  26.838  1.00  0.00    -0.014 A 
ATOM     85  C   UNL A   1      48.448  28.688  26.895  1.00  0.00     0.010 A 
ATOM     86  C   UNL A   1      46.159  29.098  26.225  1.00  0.00     0.010 A 
ATOM     87  C   UNL A   1      48.344  27.352  26.502  1.00  0.00     0.020 A 
ATOM     88  C   UNL A   1      46.056  27.754  25.808  1.00  0.00     0.020 A 
ATOM     89  C   UNL A   1      47.131  26.879  26.008  1.00  0.00     0.054 A 
BRANCH  89  90
ATOM     90  S   UNL A   1      46.948  25.076  25.831  1.00  0.00     0.124 S 
ATOM     91  O   UNL A   1      47.203  24.870  24.409  1.00  0.00    -0.237 OA
ATOM     92  O   UNL A   1      47.992  24.586  26.734  1.00  0.00    -0.237 OA
ATOM     93  O   UNL A   1      45.577  24.832  26.266  1.00  0.00    -0.744 OA
ENDBRANCH  89  90
ENDBRANCH  61  84
BRANCH  73  94
ATOM     94  C   UNL A   1      44.136  36.032  28.105  1.00  0.00    -0.014 A 
ATOM     95  C   UNL A   1      42.769  35.975  27.809  1.00  0.00     0.010 A 
ATOM     96  C   UNL A   1      44.751  37.311  28.038  1.00  0.00     0.010 A 
ATOM     97  C   UNL A   1      42.067  37.121  27.405  1.00  0.00     0.020 A 
ATOM     98  C   UNL A   1      44.051  38.466  27.691  1.00  0.00     0.020 A 
ATOM     99  C   UNL A   1      42.713  38.357  27.344  1.00  0.00     0.054 A 
BRANCH  99 100
ATOM    100  S   UNL A   1      41.797  39.843  26.867  1.00  0.00     0.124 S 
ATOM    101  O   UNL A   1      41.275  40.298  28.154  1.00  0.00    -0.237 OA
ATOM    102  O   UNL A   1      42.827  40.691  26.274  1.00  0.00    -0.237 OA
ATOM    103  O   UNL A   1      40.799  39.337  25.928  1.00  0.00    -0.744 OA
ENDBRANCH  99 100
ENDBRANCH  73  94
ENDBRANCH  47  48
ENDBRANCH  40  42
ENDBRANCH  39  40
ENDBRANCH  38  39
ENDBRANCH  37  38
ENDBRANCH  36  37
ENDBRANCH  35  36
ENDBRANCH   1  35
TORSDOF 24
ENDMDL
MODEL 3
REMARK VINA RESULT:      -9.3      6.041     11.730
REMARK SMILES Cc1ccccc1/[NH+]=C1\S[C@@H](CC(=O)Nc2ccc(C(=O)OCCOCCOCCOC(=O)c3ccc(-c4c5nc(c(-c6ccc(S(=O)(=O)[O-])cc6)c6ccc([nH]6)c(-c6ccc(S(=O)(=O)[O-])cc6)c6nc(c(-c7ccc(S(=O)(=O)[O-])cc7)c7ccc4[nH]7)C=C6)C=C5)cc3)cc2)C(=O)N1C
REMARK SMILES IDX 26 1 25 2 24 3 23 4 22 5 20 6 21 7 19 8 16 9 17 10 95 11
REMARK SMILES IDX 18 12 94 13 15 14 13 15 14 16 12 18 11 19 8 20 9 21 10 23
REMARK SMILES IDX 98 24 96 25 99 26 97 27 7 28 1 29 2 30 3 31 4 32 6 33 5 34
REMARK SMILES IDX 27 35 28 36 29 37 30 38 31 39 32 40 33 41 34 42 35 43 93 44
REMARK SMILES IDX 36 45 92 46 37 47 38 48 39 49 86 50 40 51 91 52 85 53 87 54
REMARK SMILES IDX 41 55 90 56 84 57 83 58 42 60 72 61 53 62 71 63 54 64 57 65
REMARK SMILES IDX 70 66 88 67 55 68 56 69 69 71 89 72 58 73 43 74 44 75 52 76
REMARK SMILES IDX 45 77 51 78 46 79 47 80 48 81 49 82 50 83 73 84 74 85 82 86
REMARK SMILES IDX 75 87 81 88 76 89 77 90 78 91 79 92 80 93 59 94 60 95 68 96
REMARK SMILES IDX 61 97 67 98 62 99 63 100 64 101 65 102 66 103
REMARK H PARENT 15 17 8 22 87 59 57 70
REMARK Flexibility Score: inf
ROOT
ATOM      1  C   UNL A   1      51.408  28.485  24.588  1.00  0.00     0.188 C 
ENDROOT
BRANCH   1   2
ATOM      2  O   UNL A   1      51.175  29.896  24.834  1.00  0.00    -0.376 OA
BRANCH   2   3
ATOM      3  C   UNL A   1      51.615  30.594  26.002  1.00  0.00     0.202 C 
BRANCH   3   4
ATOM      4  C   UNL A   1      51.048  30.250  27.546  1.00  0.00     0.261 C 
BRANCH   4   5
ATOM      5  O   UNL A   1      49.531  30.600  28.098  1.00  0.00    -0.460 OA
BRANCH   5   6
ATOM      6  C   UNL A   1      48.494  31.529  28.146  1.00  0.00     0.338 C 
ATOM      7  O   UNL A   1      48.551  32.684  27.738  1.00  0.00    -0.246 OA
BRANCH   6   8
ATOM      8  C   UNL A   1      47.139  31.159  28.765  1.00  0.00     0.060 A 
ATOM      9  C   UNL A   1      44.432  31.339  29.536  1.00  0.00     0.041 A 
ATOM     10  C   UNL A   1      45.435  31.829  30.371  1.00  0.00     0.027 A 
ATOM     11  C   UNL A   1      44.773  30.520  28.467  1.00  0.00     0.027 A 
ATOM     12  C   UNL A   1      46.779  31.758  29.971  1.00  0.00     0.018 A 
ATOM     13  C   UNL A   1      46.120  30.465  28.054  1.00  0.00     0.018 A 
BRANCH   9  14
ATOM     14  N   UNL A   1      43.163  31.945  29.629  1.00  0.00    -0.326 N 
ATOM     15  C   UNL A   1      42.892  33.208  29.135  1.00  0.00     0.226 C 
ATOM     16  O   UNL A   1      41.931  33.845  29.579  1.00  0.00    -0.275 OA
ATOM     17  H   UNL A   1      42.436  31.446  30.066  1.00  0.00     0.169 HD
BRANCH  15  18
ATOM     18  C   UNL A   1      43.778  33.819  28.065  1.00  0.00     0.128 C 
BRANCH  18  19
ATOM     19  C   UNL A   1      44.147  35.280  28.269  1.00  0.00     0.183 C 
ATOM     20  N   UNL A   1      44.795  38.738  26.962  1.00  0.00    -0.234 N 
ATOM     21  C   UNL A   1      44.766  37.466  27.123  1.00  0.00     0.319 C 
ATOM     22  H   UNL A   1      45.682  39.123  27.149  1.00  0.00     0.313 HD
ATOM     23  S   UNL A   1      43.535  36.280  26.876  1.00  0.00    -0.022 SA
ATOM     24  N   UNL A   1      45.862  36.845  27.670  1.00  0.00    -0.193 N 
ATOM     25  C   UNL A   1      45.603  35.703  28.403  1.00  0.00     0.324 C 
ATOM     26  C   UNL A   1      47.177  37.452  27.611  1.00  0.00     0.301 C 
ATOM     27  O   UNL A   1      46.387  35.204  29.205  1.00  0.00    -0.245 OA
BRANCH  20  28
ATOM     28  C   UNL A   1      43.859  39.707  26.582  1.00  0.00     0.128 A 
ATOM     29  C   UNL A   1      45.302  41.457  25.327  1.00  0.00     0.049 C 
ATOM     30  C   UNL A   1      44.007  40.850  25.770  1.00  0.00    -0.004 A 
ATOM     31  C   UNL A   1      42.853  41.536  25.325  1.00  0.00     0.008 A 
ATOM     32  C   UNL A   1      41.572  41.098  25.636  1.00  0.00     0.001 A 
ATOM     33  C   UNL A   1      42.543  39.311  26.905  1.00  0.00     0.052 A 
ATOM     34  C   UNL A   1      41.414  39.983  26.438  1.00  0.00     0.004 A 
ENDBRANCH  20  28
ENDBRANCH  18  19
ENDBRANCH  15  18
ENDBRANCH   9  14
ENDBRANCH   6   8
ENDBRANCH   5   6
ENDBRANCH   4   5
ENDBRANCH   3   4
ENDBRANCH   2   3
ENDBRANCH   1   2
BRANCH   1  35
ATOM     35  C   UNL A   1      50.763  27.375  25.431  1.00  0.00     0.188 C 
BRANCH  35  36
ATOM     36  O   UNL A   1      49.464  27.082  24.949  1.00  0.00    -0.376 OA
BRANCH  36  37
ATOM     37  C   UNL A   1      48.647  26.280  25.778  1.00  0.00     0.202 C 
BRANCH  37  38
ATOM     38  C   UNL A   1      47.256  26.007  25.179  1.00  0.00     0.261 C 
BRANCH  38  39
ATOM     39  O   UNL A   1      46.309  25.547  26.176  1.00  0.00    -0.460 OA
BRANCH  39  40
ATOM     40  C   UNL A   1      44.953  25.578  25.856  1.00  0.00     0.338 C 
ATOM     41  O   UNL A   1      44.541  25.233  24.793  1.00  0.00    -0.246 OA
BRANCH  40  42
ATOM     42  C   UNL A   1      44.129  25.886  27.091  1.00  0.00     0.060 A 
ATOM     43  C   UNL A   1      42.903  25.356  27.516  1.00  0.00     0.016 A 
ATOM     44  C   UNL A   1      44.555  26.931  27.823  1.00  0.00     0.016 A 
ATOM     45  C   UNL A   1      42.090  25.974  28.590  1.00  0.00     0.010 A 
ATOM     46  C   UNL A   1      43.598  27.591  28.594  1.00  0.00     0.010 A 
ATOM     47  C   UNL A   1      42.404  27.197  29.196  1.00  0.00    -0.014 A 
BRANCH  47  48
ATOM     48  C   UNL A   1      41.482  28.150  30.153  1.00  0.00     0.031 A 
ATOM     49  C   UNL A   1      40.326  29.312  29.926  1.00  0.00     0.074 A 
ATOM     50  C   UNL A   1      41.772  28.095  31.476  1.00  0.00     0.049 A 
ATOM     51  N   UNL A   1      40.364  30.530  30.462  1.00  0.00    -0.248 NA
ATOM     52  C   UNL A   1      39.016  29.207  29.253  1.00  0.00     0.031 C 
ATOM     53  C   UNL A   1      41.061  28.731  32.585  1.00  0.00     0.029 A 
ATOM     54  N   UNL A   1      42.904  27.564  32.071  1.00  0.00    -0.354 N 
ATOM     55  C   UNL A   1      39.136  31.192  30.220  1.00  0.00     0.074 A 
ATOM     56  C   UNL A   1      38.380  30.357  29.382  1.00  0.00     0.031 C 
ATOM     57  C   UNL A   1      41.884  28.790  33.644  1.00  0.00     0.029 A 
ATOM     58  C   UNL A   1      43.176  28.266  33.240  1.00  0.00     0.049 A 
ATOM     59  H   UNL A   1      43.433  26.810  31.722  1.00  0.00     0.167 HD
ATOM     60  C   UNL A   1      38.609  32.306  30.803  1.00  0.00     0.031 A 
ATOM     61  C   UNL A   1      44.389  28.849  33.437  1.00  0.00     0.031 A 
ATOM     62  C   UNL A   1      39.304  32.617  32.009  1.00  0.00     0.049 A 
ATOM     63  C   UNL A   1      44.312  30.351  33.584  1.00  0.00     0.074 A 
ATOM     64  C   UNL A   1      39.062  32.282  33.327  1.00  0.00     0.029 A 
ATOM     65  N   UNL A   1      40.609  33.040  31.916  1.00  0.00    -0.354 N 
ATOM     66  N   UNL A   1      43.226  31.056  33.416  1.00  0.00    -0.248 NA
ATOM     67  C   UNL A   1      45.465  31.189  33.899  1.00  0.00     0.031 C 
ATOM     68  C   UNL A   1      40.288  32.415  34.025  1.00  0.00     0.029 A 
ATOM     69  C   UNL A   1      41.229  32.906  33.137  1.00  0.00     0.049 A 
ATOM     70  H   UNL A   1      41.036  33.388  31.100  1.00  0.00     0.167 HD
ATOM     71  C   UNL A   1      43.523  32.392  33.515  1.00  0.00     0.074 A 
ATOM     72  C   UNL A   1      44.929  32.421  33.861  1.00  0.00     0.031 C 
ATOM     73  C   UNL A   1      42.595  33.363  33.274  1.00  0.00     0.031 A 
BRANCH  60  74
ATOM     74  C   UNL A   1      37.237  32.841  30.383  1.00  0.00    -0.014 A 
ATOM     75  C   UNL A   1      36.994  33.366  29.099  1.00  0.00     0.010 A 
ATOM     76  C   UNL A   1      36.165  32.925  31.307  1.00  0.00     0.010 A 
ATOM     77  C   UNL A   1      35.796  34.045  28.792  1.00  0.00     0.020 A 
ATOM     78  C   UNL A   1      34.977  33.628  31.018  1.00  0.00     0.020 A 
ATOM     79  C   UNL A   1      34.805  34.204  29.764  1.00  0.00     0.054 A 
BRANCH  79  80
ATOM     80  S   UNL A   1      33.359  35.255  29.399  1.00  0.00     0.124 S 
ATOM     81  O   UNL A   1      32.606  34.445  28.443  1.00  0.00    -0.237 OA
ATOM     82  O   UNL A   1      32.737  35.411  30.711  1.00  0.00    -0.237 OA
ATOM     83  O   UNL A   1      33.931  36.477  28.836  1.00  0.00    -0.744 OA
ENDBRANCH  79  80
ENDBRANCH  60  74
BRANCH  61  84
ATOM     84  C   UNL A   1      45.535  28.050  32.901  1.00  0.00    -0.014 A 
ATOM     85  C   UNL A   1      45.925  28.326  31.570  1.00  0.00     0.010 A 
ATOM     86  C   UNL A   1      46.433  27.351  33.726  1.00  0.00     0.010 A 
ATOM     87  C   UNL A   1      47.222  28.059  31.123  1.00  0.00     0.020 A 
ATOM     88  C   UNL A   1      47.737  27.062  33.272  1.00  0.00     0.020 A 
ATOM     89  C   UNL A   1      48.137  27.475  31.995  1.00  0.00     0.054 A 
BRANCH  89  90
ATOM     90  S   UNL A   1      49.885  27.460  31.483  1.00  0.00     0.124 S 
ATOM     91  O   UNL A   1      49.791  27.225  30.046  1.00  0.00    -0.237 OA
ATOM     92  O   UNL A   1      50.314  28.805  31.873  1.00  0.00    -0.237 OA
ATOM     93  O   UNL A   1      50.455  26.368  32.264  1.00  0.00    -0.744 OA
ENDBRANCH  89  90
ENDBRANCH  61  84
BRANCH  73  94
ATOM     94  C   UNL A   1      42.823  34.854  33.159  1.00  0.00    -0.014 A 
ATOM     95  C   UNL A   1      42.511  35.784  34.156  1.00  0.00     0.010 A 
ATOM     96  C   UNL A   1      43.524  35.345  32.023  1.00  0.00     0.010 A 
ATOM     97  C   UNL A   1      42.823  37.144  34.002  1.00  0.00     0.020 A 
ATOM     98  C   UNL A   1      43.887  36.684  31.884  1.00  0.00     0.020 A 
ATOM     99  C   UNL A   1      43.504  37.585  32.866  1.00  0.00     0.054 A 
BRANCH  99 100
ATOM    100  S   UNL A   1      43.945  39.331  32.688  1.00  0.00     0.124 S 
ATOM    101  O   UNL A   1      44.611  39.339  31.387  1.00  0.00    -0.237 OA
ATOM    102  O   UNL A   1      42.652  40.006  32.732  1.00  0.00    -0.237 OA
ATOM    103  O   UNL A   1      44.811  39.580  33.838  1.00  0.00    -0.744 OA
ENDBRANCH  99 100
ENDBRANCH  73  94
ENDBRANCH  47  48
ENDBRANCH  40  42
ENDBRANCH  39  40
ENDBRANCH  38  39
ENDBRANCH  37  38
ENDBRANCH  36  37
ENDBRANCH  35  36
ENDBRANCH   1  35
TORSDOF 24
ENDMDL
