MODEL 1
REMARK VINA RESULT:      -6.4      0.000      0.000
REMARK SMILES COc1ccc(C2=NN(C(=O)CCC(=O)OCCOCCOCCOC(=O)c3ccc(-c4c5nc(c(-c6ccc(S(=O)(=O)[O-])cc6)c6ccc([nH]6)c(-c6ccc(S(=O)(=O)[O-])cc6)c6nc(c(-c7ccc(S(=O)(=O)[O-])cc7)c7ccc4[nH]7)C=C6)C=C5)cc3)[C@H](c3ccc(Cl)cc3Cl)C2)cc1
REMARK SMILES IDX 20 1 19 2 18 3 17 4 16 5 14 6 15 7 13 8 12 9 10 10 11 11
REMARK SMILES IDX 9 12 7 13 8 14 97 15 88 16 6 17 3 18 4 19 99 20 5 21 98 22
REMARK SMILES IDX 2 23 1 24 89 25 90 26 95 27 91 28 94 29 96 30 92 31 93 32
REMARK SMILES IDX 21 33 22 34 23 35 24 36 25 37 26 38 27 39 28 40 29 41 87 42
REMARK SMILES IDX 30 43 86 44 31 45 32 46 33 47 80 48 34 49 85 50 79 51 81 52
REMARK SMILES IDX 35 53 84 54 78 55 77 56 36 58 66 59 47 60 65 61 48 62 51 63
REMARK SMILES IDX 64 64 82 65 49 66 50 67 63 69 83 70 52 71 37 72 38 73 46 74
REMARK SMILES IDX 39 75 45 76 40 77 41 78 42 79 43 80 44 81 67 82 68 83 76 84
REMARK SMILES IDX 69 85 75 86 70 87 71 88 72 89 73 90 74 91 53 92 54 93 62 94
REMARK SMILES IDX 55 95 61 96 56 97 57 98 58 99 59 100 60 101
REMARK H PARENT 81 57 51 68
REMARK Flexibility Score: inf
ROOT
ATOM      1  C   UNL A   1      52.383  32.693  26.645  1.00  0.00     0.188 C 
ENDROOT
BRANCH   1   2
ATOM      2  O   UNL A   1      52.069  31.463  27.398  1.00  0.00    -0.376 OA
BRANCH   2   3
ATOM      3  C   UNL A   1      52.694  30.139  27.456  1.00  0.00     0.202 C 
BRANCH   3   4
ATOM      4  C   UNL A   1      52.976  29.345  28.737  1.00  0.00     0.261 C 
BRANCH   4   5
ATOM      5  O   UNL A   1      52.203  29.859  29.789  1.00  0.00    -0.463 OA
BRANCH   5   6
ATOM      6  C   UNL A   1      51.329  29.020  30.374  1.00  0.00     0.306 C 
ATOM      7  O   UNL A   1      51.571  27.897  30.762  1.00  0.00    -0.252 OA
BRANCH   6   8
ATOM      8  C   UNL A   1      50.058  29.757  30.663  1.00  0.00     0.132 C 
BRANCH   8   9
ATOM      9  C   UNL A   1      49.996  31.240  30.301  1.00  0.00     0.114 C 
BRANCH   9  10
ATOM     10  C   UNL A   1      49.096  32.288  31.027  1.00  0.00     0.243 C 
ATOM     11  O   UNL A   1      49.737  33.368  31.133  1.00  0.00    -0.273 OA
BRANCH  10  12
ATOM     12  N   UNL A   1      47.726  32.244  31.478  1.00  0.00    -0.225 N 
ATOM     13  C   UNL A   1      46.186  33.822  31.791  1.00  0.00     0.071 C 
ATOM     14  N   UNL A   1      47.292  33.540  31.234  1.00  0.00    -0.174 NA
ATOM     15  C   UNL A   1      45.516  32.746  32.567  1.00  0.00     0.091 C 
ATOM     16  C   UNL A   1      46.293  31.342  32.188  1.00  0.00     0.149 C 
BRANCH  13  17
ATOM     17  C   UNL A   1      45.744  35.231  31.729  1.00  0.00    -0.002 A 
ATOM     18  C   UNL A   1      45.151  37.908  31.118  1.00  0.00     0.118 A 
ATOM     19  C   UNL A   1      44.205  36.900  30.900  1.00  0.00     0.047 A 
ATOM     20  C   UNL A   1      46.403  37.570  31.633  1.00  0.00     0.047 A 
ATOM     21  C   UNL A   1      44.504  35.559  31.179  1.00  0.00     0.014 A 
ATOM     22  C   UNL A   1      46.702  36.231  31.930  1.00  0.00     0.014 A 
BRANCH  18  23
ATOM     23  O   UNL A   1      44.733  39.178  30.823  1.00  0.00    -0.497 OA
ATOM     24  C   UNL A   1      43.393  39.504  31.181  1.00  0.00     0.278 C 
ENDBRANCH  18  23
ENDBRANCH  13  17
BRANCH  16  25
ATOM     25  C   UNL A   1      45.584  29.581  31.625  1.00  0.00    -0.004 A 
ATOM     26  C   UNL A   1      46.230  28.914  30.668  1.00  0.00     0.009 A 
ATOM     27  C   UNL A   1      44.402  28.555  32.177  1.00  0.00     0.047 A 
ATOM     28  C   UNL A   1      46.078  27.456  30.550  1.00  0.00     0.021 A 
ATOM     29  C   UNL A   1      44.167  27.217  31.800  1.00  0.00     0.041 A 
ATOM     30  Cl  UNL A   1      43.132  28.760  33.520  1.00  0.00    -0.084 Cl
ATOM     31  C   UNL A   1      45.122  26.624  31.079  1.00  0.00     0.042 A 
ATOM     32  Cl  UNL A   1      45.240  24.917  30.965  1.00  0.00    -0.084 Cl
ENDBRANCH  16  25
ENDBRANCH  10  12
ENDBRANCH   9  10
ENDBRANCH   8   9
ENDBRANCH   6   8
ENDBRANCH   5   6
ENDBRANCH   4   5
ENDBRANCH   3   4
ENDBRANCH   2   3
ENDBRANCH   1   2
BRANCH   1  33
ATOM     33  C   UNL A   1      51.391  34.181  26.059  1.00  0.00     0.188 C 
BRANCH  33  34
ATOM     34  O   UNL A   1      50.726  35.616  27.010  1.00  0.00    -0.376 OA
BRANCH  34  35
ATOM     35  C   UNL A   1      50.610  37.391  26.665  1.00  0.00     0.202 C 
BRANCH  35  36
ATOM     36  C   UNL A   1      49.289  38.725  26.985  1.00  0.00     0.261 C 
BRANCH  36  37
ATOM     37  O   UNL A   1      47.863  39.012  26.268  1.00  0.00    -0.460 OA
BRANCH  37  38
ATOM     38  C   UNL A   1      46.690  38.140  26.307  1.00  0.00     0.338 C 
ATOM     39  O   UNL A   1      45.560  38.612  26.408  1.00  0.00    -0.246 OA
BRANCH  38  40
ATOM     40  C   UNL A   1      46.924  36.548  26.717  1.00  0.00     0.060 A 
ATOM     41  C   UNL A   1      46.483  35.551  25.808  1.00  0.00     0.016 A 
ATOM     42  C   UNL A   1      47.190  36.032  28.001  1.00  0.00     0.016 A 
ATOM     43  C   UNL A   1      46.008  34.266  26.231  1.00  0.00     0.010 A 
ATOM     44  C   UNL A   1      46.917  34.635  28.355  1.00  0.00     0.010 A 
ATOM     45  C   UNL A   1      46.283  33.715  27.489  1.00  0.00    -0.014 A 
BRANCH  45  46
ATOM     46  C   UNL A   1      46.042  32.213  27.788  1.00  0.00     0.031 A 
ATOM     47  C   UNL A   1      47.000  31.076  27.388  1.00  0.00     0.074 A 
ATOM     48  C   UNL A   1      44.902  31.791  28.407  1.00  0.00     0.049 A 
ATOM     49  N   UNL A   1      46.764  29.782  27.265  1.00  0.00    -0.248 NA
ATOM     50  C   UNL A   1      48.404  31.428  27.142  1.00  0.00     0.031 C 
ATOM     51  C   UNL A   1      43.884  32.647  29.021  1.00  0.00     0.029 A 
ATOM     52  N   UNL A   1      44.381  30.517  28.599  1.00  0.00    -0.354 N 
ATOM     53  C   UNL A   1      47.962  29.179  26.866  1.00  0.00     0.074 A 
ATOM     54  C   UNL A   1      48.936  30.254  26.804  1.00  0.00     0.031 C 
ATOM     55  C   UNL A   1      42.881  31.900  29.499  1.00  0.00     0.029 A 
ATOM     56  C   UNL A   1      43.100  30.514  29.122  1.00  0.00     0.049 A 
ATOM     57  H   UNL A   1      44.876  29.694  28.384  1.00  0.00     0.167 HD
ATOM     58  C   UNL A   1      48.230  27.875  26.559  1.00  0.00     0.031 A 
ATOM     59  C   UNL A   1      42.140  29.568  29.223  1.00  0.00     0.031 A 
ATOM     60  C   UNL A   1      47.283  26.779  26.635  1.00  0.00     0.049 A 
ATOM     61  C   UNL A   1      42.385  28.175  28.720  1.00  0.00     0.074 A 
ATOM     62  C   UNL A   1      47.474  25.444  26.296  1.00  0.00     0.029 A 
ATOM     63  N   UNL A   1      45.977  26.872  27.088  1.00  0.00    -0.354 N 
ATOM     64  N   UNL A   1      43.479  27.663  28.217  1.00  0.00    -0.248 NA
ATOM     65  C   UNL A   1      41.256  27.232  28.791  1.00  0.00     0.031 C 
ATOM     66  C   UNL A   1      46.270  24.752  26.479  1.00  0.00     0.029 A 
ATOM     67  C   UNL A   1      45.347  25.636  27.005  1.00  0.00     0.049 A 
ATOM     68  H   UNL A   1      45.555  27.698  27.421  1.00  0.00     0.167 HD
ATOM     69  C   UNL A   1      43.178  26.332  27.940  1.00  0.00     0.074 A 
ATOM     70  C   UNL A   1      41.808  26.113  28.343  1.00  0.00     0.031 C 
ATOM     71  C   UNL A   1      43.982  25.384  27.399  1.00  0.00     0.031 A 
BRANCH  58  72
ATOM     72  C   UNL A   1      49.605  27.535  26.007  1.00  0.00    -0.014 A 
ATOM     73  C   UNL A   1      49.975  27.810  24.679  1.00  0.00     0.010 A 
ATOM     74  C   UNL A   1      50.580  27.001  26.878  1.00  0.00     0.010 A 
ATOM     75  C   UNL A   1      51.265  27.501  24.219  1.00  0.00     0.020 A 
ATOM     76  C   UNL A   1      51.877  26.719  26.432  1.00  0.00     0.020 A 
ATOM     77  C   UNL A   1      52.203  26.946  25.095  1.00  0.00     0.054 A 
BRANCH  77  78
ATOM     78  S   UNL A   1      53.857  26.530  24.468  1.00  0.00     0.124 S 
ATOM     79  O   UNL A   1      53.800  25.071  24.419  1.00  0.00    -0.237 OA
ATOM     80  O   UNL A   1      53.889  27.200  23.171  1.00  0.00    -0.237 OA
ATOM     81  O   UNL A   1      54.762  27.081  25.474  1.00  0.00    -0.744 OA
ENDBRANCH  77  78
ENDBRANCH  58  72
BRANCH  59  82
ATOM     82  C   UNL A   1      40.787  29.935  29.750  1.00  0.00    -0.014 A 
ATOM     83  C   UNL A   1      39.749  30.303  28.878  1.00  0.00     0.010 A 
ATOM     84  C   UNL A   1      40.538  29.927  31.137  1.00  0.00     0.010 A 
ATOM     85  C   UNL A   1      38.492  30.659  29.381  1.00  0.00     0.020 A 
ATOM     86  C   UNL A   1      39.273  30.244  31.641  1.00  0.00     0.020 A 
ATOM     87  C   UNL A   1      38.260  30.618  30.758  1.00  0.00     0.054 A 
BRANCH  87  88
ATOM     88  S   UNL A   1      36.603  31.017  31.381  1.00  0.00     0.124 S 
ATOM     89  O   UNL A   1      35.959  29.708  31.395  1.00  0.00    -0.237 OA
ATOM     90  O   UNL A   1      36.891  31.598  32.691  1.00  0.00    -0.237 OA
ATOM     91  O   UNL A   1      36.084  31.960  30.392  1.00  0.00    -0.744 OA
ENDBRANCH  87  88
ENDBRANCH  59  82
BRANCH  71  92
ATOM     92  C   UNL A   1      43.425  23.988  27.260  1.00  0.00    -0.014 A 
ATOM     93  C   UNL A   1      42.990  23.249  28.376  1.00  0.00     0.010 A 
ATOM     94  C   UNL A   1      43.316  23.408  25.982  1.00  0.00     0.010 A 
ATOM     95  C   UNL A   1      42.495  21.949  28.222  1.00  0.00     0.020 A 
ATOM     96  C   UNL A   1      42.795  22.119  25.819  1.00  0.00     0.020 A 
ATOM     97  C   UNL A   1      42.401  21.391  26.943  1.00  0.00     0.054 A 
BRANCH  97  98
ATOM     98  S   UNL A   1      41.725  19.716  26.764  1.00  0.00     0.124 S 
ATOM     99  O   UNL A   1      41.862  19.482  25.329  1.00  0.00    -0.237 OA
ATOM    100  O   UNL A   1      42.606  18.921  27.617  1.00  0.00    -0.237 OA
ATOM    101  O   UNL A   1      40.351  19.842  27.247  1.00  0.00    -0.744 OA
ENDBRANCH  97  98
ENDBRANCH  71  92
ENDBRANCH  45  46
ENDBRANCH  38  40
ENDBRANCH  37  38
ENDBRANCH  36  37
ENDBRANCH  35  36
ENDBRANCH  34  35
ENDBRANCH  33  34
ENDBRANCH   1  33
TORSDOF 26
ENDMDL
MODEL 2
REMARK VINA RESULT:      -6.2      7.387     12.922
REMARK SMILES COc1ccc(C2=NN(C(=O)CCC(=O)OCCOCCOCCOC(=O)c3ccc(-c4c5nc(c(-c6ccc(S(=O)(=O)[O-])cc6)c6ccc([nH]6)c(-c6ccc(S(=O)(=O)[O-])cc6)c6nc(c(-c7ccc(S(=O)(=O)[O-])cc7)c7ccc4[nH]7)C=C6)C=C5)cc3)[C@H](c3ccc(Cl)cc3Cl)C2)cc1
REMARK SMILES IDX 20 1 19 2 18 3 17 4 16 5 14 6 15 7 13 8 12 9 10 10 11 11
REMARK SMILES IDX 9 12 7 13 8 14 97 15 88 16 6 17 3 18 4 19 99 20 5 21 98 22
REMARK SMILES IDX 2 23 1 24 89 25 90 26 95 27 91 28 94 29 96 30 92 31 93 32
REMARK SMILES IDX 21 33 22 34 23 35 24 36 25 37 26 38 27 39 28 40 29 41 87 42
REMARK SMILES IDX 30 43 86 44 31 45 32 46 33 47 80 48 34 49 85 50 79 51 81 52
REMARK SMILES IDX 35 53 84 54 78 55 77 56 36 58 66 59 47 60 65 61 48 62 51 63
REMARK SMILES IDX 64 64 82 65 49 66 50 67 63 69 83 70 52 71 37 72 38 73 46 74
REMARK SMILES IDX 39 75 45 76 40 77 41 78 42 79 43 80 44 81 67 82 68 83 76 84
REMARK SMILES IDX 69 85 75 86 70 87 71 88 72 89 73 90 74 91 53 92 54 93 62 94
REMARK SMILES IDX 55 95 61 96 56 97 57 98 58 99 59 100 60 101
REMARK H PARENT 81 57 51 68
REMARK Flexibility Score: inf
ROOT
ATOM      1  C   UNL A   1      48.218  29.272  26.927  1.00  0.00     0.188 C 
ENDROOT
BRANCH   1   2
ATOM      2  O   UNL A   1      47.724  28.885  25.592  1.00  0.00    -0.376 OA
BRANCH   2   3
ATOM      3  C   UNL A   1      46.492  28.240  25.130  1.00  0.00     0.202 C 
BRANCH   3   4
ATOM      4  C   UNL A   1      46.330  26.743  24.837  1.00  0.00     0.261 C 
BRANCH   4   5
ATOM      5  O   UNL A   1      45.717  26.113  25.930  1.00  0.00    -0.463 OA
BRANCH   5   6
ATOM      6  C   UNL A   1      44.372  26.062  25.933  1.00  0.00     0.306 C 
ATOM      7  O   UNL A   1      43.670  25.730  25.002  1.00  0.00    -0.252 OA
BRANCH   6   8
ATOM      8  C   UNL A   1      43.875  26.281  27.329  1.00  0.00     0.132 C 
BRANCH   8   9
ATOM      9  C   UNL A   1      42.726  27.266  27.531  1.00  0.00     0.114 C 
BRANCH   9  10
ATOM     10  C   UNL A   1      41.664  27.162  28.671  1.00  0.00     0.243 C 
ATOM     11  O   UNL A   1      41.101  26.037  28.598  1.00  0.00    -0.273 OA
BRANCH  10  12
ATOM     12  N   UNL A   1      41.320  28.046  29.758  1.00  0.00    -0.225 N 
ATOM     13  C   UNL A   1      39.670  29.513  30.049  1.00  0.00     0.071 C 
ATOM     14  N   UNL A   1      40.070  28.513  29.375  1.00  0.00    -0.174 NA
ATOM     15  C   UNL A   1      40.552  29.999  31.143  1.00  0.00     0.091 C 
ATOM     16  C   UNL A   1      41.697  28.835  31.372  1.00  0.00     0.149 C 
BRANCH  13  17
ATOM     17  C   UNL A   1      38.434  30.181  29.589  1.00  0.00    -0.002 A 
ATOM     18  C   UNL A   1      36.385  31.577  28.268  1.00  0.00     0.118 A 
ATOM     19  C   UNL A   1      36.455  30.181  28.202  1.00  0.00     0.047 A 
ATOM     20  C   UNL A   1      37.355  32.275  28.989  1.00  0.00     0.047 A 
ATOM     21  C   UNL A   1      37.490  29.480  28.838  1.00  0.00     0.014 A 
ATOM     22  C   UNL A   1      38.383  31.578  29.641  1.00  0.00     0.014 A 
BRANCH  18  23
ATOM     23  O   UNL A   1      35.319  32.141  27.621  1.00  0.00    -0.497 OA
ATOM     24  C   UNL A   1      34.077  31.452  27.725  1.00  0.00     0.278 C 
ENDBRANCH  18  23
ENDBRANCH  13  17
BRANCH  16  25
ATOM     25  C   UNL A   1      42.328  27.948  33.026  1.00  0.00    -0.004 A 
ATOM     26  C   UNL A   1      41.745  28.274  34.181  1.00  0.00     0.009 A 
ATOM     27  C   UNL A   1      43.356  26.693  33.372  1.00  0.00     0.047 A 
ATOM     28  C   UNL A   1      41.797  27.347  35.322  1.00  0.00     0.021 A 
ATOM     29  C   UNL A   1      43.528  26.023  34.600  1.00  0.00     0.041 A 
ATOM     30  Cl  UNL A   1      44.477  25.690  32.276  1.00  0.00    -0.084 Cl
ATOM     31  C   UNL A   1      42.619  26.270  35.547  1.00  0.00     0.042 A 
ATOM     32  Cl  UNL A   1      42.384  25.209  36.873  1.00  0.00    -0.084 Cl
ENDBRANCH  16  25
ENDBRANCH  10  12
ENDBRANCH   9  10
ENDBRANCH   8   9
ENDBRANCH   6   8
ENDBRANCH   5   6
ENDBRANCH   4   5
ENDBRANCH   3   4
ENDBRANCH   2   3
ENDBRANCH   1   2
BRANCH   1  33
ATOM     33  C   UNL A   1      49.914  29.618  27.667  1.00  0.00     0.188 C 
BRANCH  33  34
ATOM     34  O   UNL A   1      50.927  28.616  28.840  1.00  0.00    -0.376 OA
BRANCH  34  35
ATOM     35  C   UNL A   1      50.511  27.532  30.231  1.00  0.00     0.202 C 
BRANCH  35  36
ATOM     36  C   UNL A   1      48.882  26.863  30.956  1.00  0.00     0.261 C 
BRANCH  36  37
ATOM     37  O   UNL A   1      47.461  27.591  31.247  1.00  0.00    -0.460 OA
BRANCH  37  38
ATOM     38  C   UNL A   1      47.280  28.955  31.743  1.00  0.00     0.338 C 
ATOM     39  O   UNL A   1      48.182  29.784  31.642  1.00  0.00    -0.246 OA
BRANCH  38  40
ATOM     40  C   UNL A   1      46.082  29.218  32.862  1.00  0.00     0.060 A 
ATOM     41  C   UNL A   1      45.217  30.326  32.666  1.00  0.00     0.016 A 
ATOM     42  C   UNL A   1      46.013  28.699  34.170  1.00  0.00     0.016 A 
ATOM     43  C   UNL A   1      44.631  31.058  33.752  1.00  0.00     0.010 A 
ATOM     44  C   UNL A   1      45.211  29.332  35.221  1.00  0.00     0.010 A 
ATOM     45  C   UNL A   1      44.521  30.555  35.054  1.00  0.00    -0.014 A 
BRANCH  45  46
ATOM     46  C   UNL A   1      43.601  31.224  36.107  1.00  0.00     0.031 A 
ATOM     47  C   UNL A   1      43.911  31.311  37.613  1.00  0.00     0.074 A 
ATOM     48  C   UNL A   1      42.397  31.758  35.753  1.00  0.00     0.049 A 
ATOM     49  N   UNL A   1      43.093  31.522  38.628  1.00  0.00    -0.248 NA
ATOM     50  C   UNL A   1      45.315  31.190  38.024  1.00  0.00     0.031 C 
ATOM     51  C   UNL A   1      41.901  31.945  34.388  1.00  0.00     0.029 A 
ATOM     52  N   UNL A   1      41.336  32.220  36.525  1.00  0.00    -0.354 N 
ATOM     53  C   UNL A   1      43.867  31.495  39.795  1.00  0.00     0.074 A 
ATOM     54  C   UNL A   1      45.232  31.281  39.350  1.00  0.00     0.031 C 
ATOM     55  C   UNL A   1      40.664  32.457  34.412  1.00  0.00     0.029 A 
ATOM     56  C   UNL A   1      40.205  32.522  35.789  1.00  0.00     0.049 A 
ATOM     57  H   UNL A   1      41.385  32.322  37.503  1.00  0.00     0.167 HD
ATOM     58  C   UNL A   1      43.489  31.612  41.103  1.00  0.00     0.031 A 
ATOM     59  C   UNL A   1      38.913  32.740  36.120  1.00  0.00     0.031 A 
ATOM     60  C   UNL A   1      42.137  31.850  41.572  1.00  0.00     0.049 A 
ATOM     61  C   UNL A   1      38.473  32.692  37.554  1.00  0.00     0.074 A 
ATOM     62  C   UNL A   1      41.677  31.933  42.882  1.00  0.00     0.029 A 
ATOM     63  N   UNL A   1      41.029  32.055  40.766  1.00  0.00    -0.354 N 
ATOM     64  N   UNL A   1      39.197  32.524  38.631  1.00  0.00    -0.248 NA
ATOM     65  C   UNL A   1      37.033  32.854  37.816  1.00  0.00     0.031 C 
ATOM     66  C   UNL A   1      40.289  32.118  42.864  1.00  0.00     0.029 A 
ATOM     67  C   UNL A   1      39.891  32.229  41.546  1.00  0.00     0.049 A 
ATOM     68  H   UNL A   1      41.046  32.074  39.781  1.00  0.00     0.167 HD
ATOM     69  C   UNL A   1      38.305  32.591  39.698  1.00  0.00     0.074 A 
ATOM     70  C   UNL A   1      36.993  32.828  39.141  1.00  0.00     0.031 C 
ATOM     71  C   UNL A   1      38.568  32.467  41.022  1.00  0.00     0.031 A 
BRANCH  58  72
ATOM     72  C   UNL A   1      44.542  31.392  42.176  1.00  0.00    -0.014 A 
ATOM     73  C   UNL A   1      45.235  32.455  42.782  1.00  0.00     0.010 A 
ATOM     74  C   UNL A   1      44.777  30.082  42.648  1.00  0.00     0.010 A 
ATOM     75  C   UNL A   1      46.183  32.207  43.788  1.00  0.00     0.020 A 
ATOM     76  C   UNL A   1      45.700  29.833  43.673  1.00  0.00     0.020 A 
ATOM     77  C   UNL A   1      46.418  30.897  44.217  1.00  0.00     0.054 A 
BRANCH  77  78
ATOM     78  S   UNL A   1      47.668  30.600  45.502  1.00  0.00     0.124 S 
ATOM     79  O   UNL A   1      48.630  29.758  44.794  1.00  0.00    -0.237 OA
ATOM     80  O   UNL A   1      48.130  31.948  45.821  1.00  0.00    -0.237 OA
ATOM     81  O   UNL A   1      46.925  29.931  46.567  1.00  0.00    -0.744 OA
ENDBRANCH  77  78
ENDBRANCH  58  72
BRANCH  59  82
ATOM     82  C   UNL A   1      37.891  32.931  35.041  1.00  0.00    -0.014 A 
ATOM     83  C   UNL A   1      37.405  34.211  34.726  1.00  0.00     0.010 A 
ATOM     84  C   UNL A   1      37.393  31.821  34.329  1.00  0.00     0.010 A 
ATOM     85  C   UNL A   1      36.440  34.377  33.726  1.00  0.00     0.020 A 
ATOM     86  C   UNL A   1      36.458  31.987  33.303  1.00  0.00     0.020 A 
ATOM     87  C   UNL A   1      35.979  33.265  33.015  1.00  0.00     0.054 A 
BRANCH  87  88
ATOM     88  S   UNL A   1      34.779  33.515  31.677  1.00  0.00     0.124 S 
ATOM     89  O   UNL A   1      33.652  34.112  32.386  1.00  0.00    -0.237 OA
ATOM     90  O   UNL A   1      35.501  34.403  30.769  1.00  0.00    -0.237 OA
ATOM     91  O   UNL A   1      34.553  32.164  31.165  1.00  0.00    -0.744 OA
ENDBRANCH  87  88
ENDBRANCH  59  82
BRANCH  71  92
ATOM     92  C   UNL A   1      37.419  32.644  41.985  1.00  0.00    -0.014 A 
ATOM     93  C   UNL A   1      36.636  31.554  42.411  1.00  0.00     0.010 A 
ATOM     94  C   UNL A   1      37.125  33.925  42.489  1.00  0.00     0.010 A 
ATOM     95  C   UNL A   1      35.563  31.747  43.289  1.00  0.00     0.020 A 
ATOM     96  C   UNL A   1      36.072  34.119  43.390  1.00  0.00     0.020 A 
ATOM     97  C   UNL A   1      35.287  33.030  43.773  1.00  0.00     0.054 A 
BRANCH  97  98
ATOM     98  S   UNL A   1      33.912  33.251  44.937  1.00  0.00     0.124 S 
ATOM     99  O   UNL A   1      33.125  32.040  44.715  1.00  0.00    -0.237 OA
ATOM    100  O   UNL A   1      34.593  33.328  46.228  1.00  0.00    -0.237 OA
ATOM    101  O   UNL A   1      33.280  34.493  44.498  1.00  0.00    -0.744 OA
ENDBRANCH  97  98
ENDBRANCH  71  92
ENDBRANCH  45  46
ENDBRANCH  38  40
ENDBRANCH  37  38
ENDBRANCH  36  37
ENDBRANCH  35  36
ENDBRANCH  34  35
ENDBRANCH  33  34
ENDBRANCH   1  33
TORSDOF 26
ENDMDL
MODEL 3
REMARK VINA RESULT:      -5.9      6.877     13.103
REMARK SMILES COc1ccc(C2=NN(C(=O)CCC(=O)OCCOCCOCCOC(=O)c3ccc(-c4c5nc(c(-c6ccc(S(=O)(=O)[O-])cc6)c6ccc([nH]6)c(-c6ccc(S(=O)(=O)[O-])cc6)c6nc(c(-c7ccc(S(=O)(=O)[O-])cc7)c7ccc4[nH]7)C=C6)C=C5)cc3)[C@H](c3ccc(Cl)cc3Cl)C2)cc1
REMARK SMILES IDX 20 1 19 2 18 3 17 4 16 5 14 6 15 7 13 8 12 9 10 10 11 11
REMARK SMILES IDX 9 12 7 13 8 14 97 15 88 16 6 17 3 18 4 19 99 20 5 21 98 22
REMARK SMILES IDX 2 23 1 24 89 25 90 26 95 27 91 28 94 29 96 30 92 31 93 32
REMARK SMILES IDX 21 33 22 34 23 35 24 36 25 37 26 38 27 39 28 40 29 41 87 42
REMARK SMILES IDX 30 43 86 44 31 45 32 46 33 47 80 48 34 49 85 50 79 51 81 52
REMARK SMILES IDX 35 53 84 54 78 55 77 56 36 58 66 59 47 60 65 61 48 62 51 63
REMARK SMILES IDX 64 64 82 65 49 66 50 67 63 69 83 70 52 71 37 72 38 73 46 74
REMARK SMILES IDX 39 75 45 76 40 77 41 78 42 79 43 80 44 81 67 82 68 83 76 84
REMARK SMILES IDX 69 85 75 86 70 87 71 88 72 89 73 90 74 91 53 92 54 93 62 94
REMARK SMILES IDX 55 95 61 96 56 97 57 98 58 99 59 100 60 101
REMARK H PARENT 81 57 51 68
REMARK Flexibility Score: inf
ROOT
ATOM      1  C   UNL A   1      48.068  36.324  36.965  1.00  0.00     0.188 C 
ENDROOT
BRANCH   1   2
ATOM      2  O   UNL A   1      46.773  36.799  36.442  1.00  0.00    -0.376 OA
BRANCH   2   3
ATOM      3  C   UNL A   1      46.288  37.091  35.090  1.00  0.00     0.202 C 
BRANCH   3   4
ATOM      4  C   UNL A   1      44.837  37.424  34.720  1.00  0.00     0.261 C 
BRANCH   4   5
ATOM      5  O   UNL A   1      44.818  38.249  33.586  1.00  0.00    -0.463 OA
BRANCH   5   6
ATOM      6  C   UNL A   1      43.764  39.072  33.444  1.00  0.00     0.306 C 
ATOM      7  O   UNL A   1      42.670  38.922  33.945  1.00  0.00    -0.252 OA
BRANCH   6   8
ATOM      8  C   UNL A   1      44.204  40.318  32.739  1.00  0.00     0.132 C 
BRANCH   8   9
ATOM      9  C   UNL A   1      44.367  40.259  31.221  1.00  0.00     0.114 C 
BRANCH   9  10
ATOM     10  C   UNL A   1      43.186  40.328  30.203  1.00  0.00     0.243 C 
ATOM     11  O   UNL A   1      42.413  41.263  30.543  1.00  0.00    -0.273 OA
BRANCH  10  12
ATOM     12  N   UNL A   1      42.913  39.605  28.985  1.00  0.00    -0.225 N 
ATOM     13  C   UNL A   1      42.672  40.251  26.867  1.00  0.00     0.071 C 
ATOM     14  N   UNL A   1      43.108  40.579  28.014  1.00  0.00    -0.174 NA
ATOM     15  C   UNL A   1      42.070  38.899  26.723  1.00  0.00     0.091 C 
ATOM     16  C   UNL A   1      42.458  38.066  28.093  1.00  0.00     0.149 C 
BRANCH  13  17
ATOM     17  C   UNL A   1      42.678  41.297  25.822  1.00  0.00    -0.002 A 
ATOM     18  C   UNL A   1      43.020  42.935  23.565  1.00  0.00     0.118 A 
ATOM     19  C   UNL A   1      41.886  42.126  23.695  1.00  0.00     0.047 A 
ATOM     20  C   UNL A   1      43.993  42.912  24.566  1.00  0.00     0.047 A 
ATOM     21  C   UNL A   1      41.722  41.286  24.807  1.00  0.00     0.014 A 
ATOM     22  C   UNL A   1      43.825  42.088  25.689  1.00  0.00     0.014 A 
BRANCH  18  23
ATOM     23  O   UNL A   1      43.055  43.720  22.445  1.00  0.00    -0.497 OA
ATOM     24  C   UNL A   1      42.219  43.319  21.363  1.00  0.00     0.278 C 
ENDBRANCH  18  23
ENDBRANCH  13  17
BRANCH  16  25
ATOM     25  C   UNL A   1      43.239  36.263  28.333  1.00  0.00    -0.004 A 
ATOM     26  C   UNL A   1      42.686  35.449  29.234  1.00  0.00     0.009 A 
ATOM     27  C   UNL A   1      44.384  35.359  27.544  1.00  0.00     0.047 A 
ATOM     28  C   UNL A   1      42.870  33.993  29.127  1.00  0.00     0.021 A 
ATOM     29  C   UNL A   1      44.670  33.987  27.702  1.00  0.00     0.041 A 
ATOM     30  Cl  UNL A   1      45.532  35.788  26.144  1.00  0.00    -0.084 Cl
ATOM     31  C   UNL A   1      43.789  33.272  28.406  1.00  0.00     0.042 A 
ATOM     32  Cl  UNL A   1      43.707  31.564  28.281  1.00  0.00    -0.084 Cl
ENDBRANCH  16  25
ENDBRANCH  10  12
ENDBRANCH   9  10
ENDBRANCH   8   9
ENDBRANCH   6   8
ENDBRANCH   5   6
ENDBRANCH   4   5
ENDBRANCH   3   4
ENDBRANCH   2   3
ENDBRANCH   1   2
BRANCH   1  33
ATOM     33  C   UNL A   1      49.340  35.054  36.408  1.00  0.00     0.188 C 
BRANCH  33  34
ATOM     34  O   UNL A   1      49.168  33.630  35.246  1.00  0.00    -0.376 OA
BRANCH  34  35
ATOM     35  C   UNL A   1      49.300  33.469  33.446  1.00  0.00     0.202 C 
BRANCH  35  36
ATOM     36  C   UNL A   1      49.401  34.707  32.004  1.00  0.00     0.261 C 
BRANCH  36  37
ATOM     37  O   UNL A   1      49.397  34.482  30.397  1.00  0.00    -0.460 OA
BRANCH  37  38
ATOM     38  C   UNL A   1      48.232  34.149  29.579  1.00  0.00     0.338 C 
ATOM     39  O   UNL A   1      48.113  34.602  28.443  1.00  0.00    -0.246 OA
BRANCH  38  40
ATOM     40  C   UNL A   1      46.874  33.593  30.357  1.00  0.00     0.060 A 
ATOM     41  C   UNL A   1      46.084  34.529  31.076  1.00  0.00     0.016 A 
ATOM     42  C   UNL A   1      46.577  32.258  30.696  1.00  0.00     0.016 A 
ATOM     43  C   UNL A   1      45.350  34.183  32.258  1.00  0.00     0.010 A 
ATOM     44  C   UNL A   1      45.631  31.914  31.762  1.00  0.00     0.010 A 
ATOM     45  C   UNL A   1      45.014  32.868  32.603  1.00  0.00    -0.014 A 
BRANCH  45  46
ATOM     46  C   UNL A   1      43.953  32.561  33.691  1.00  0.00     0.031 A 
ATOM     47  C   UNL A   1      42.430  32.646  33.479  1.00  0.00     0.074 A 
ATOM     48  C   UNL A   1      44.322  32.226  34.961  1.00  0.00     0.049 A 
ATOM     49  N   UNL A   1      41.462  32.757  34.371  1.00  0.00    -0.248 NA
ATOM     50  C   UNL A   1      41.932  32.551  32.101  1.00  0.00     0.031 C 
ATOM     51  C   UNL A   1      45.682  31.933  35.417  1.00  0.00     0.029 A 
ATOM     52  N   UNL A   1      43.578  32.104  36.129  1.00  0.00    -0.354 N 
ATOM     53  C   UNL A   1      40.254  32.810  33.666  1.00  0.00     0.074 A 
ATOM     54  C   UNL A   1      40.616  32.682  32.265  1.00  0.00     0.031 C 
ATOM     55  C   UNL A   1      45.684  31.683  36.732  1.00  0.00     0.029 A 
ATOM     56  C   UNL A   1      44.352  31.920  37.262  1.00  0.00     0.049 A 
ATOM     57  H   UNL A   1      42.595  32.145  36.150  1.00  0.00     0.167 HD
ATOM     58  C   UNL A   1      38.976  32.971  34.122  1.00  0.00     0.031 A 
ATOM     59  C   UNL A   1      44.096  32.013  38.586  1.00  0.00     0.031 A 
ATOM     60  C   UNL A   1      38.585  33.077  35.515  1.00  0.00     0.049 A 
ATOM     61  C   UNL A   1      42.720  32.365  39.075  1.00  0.00     0.074 A 
ATOM     62  C   UNL A   1      37.317  33.287  36.045  1.00  0.00     0.029 A 
ATOM     63  N   UNL A   1      39.439  32.972  36.602  1.00  0.00    -0.354 N 
ATOM     64  N   UNL A   1      41.624  32.550  38.385  1.00  0.00    -0.248 NA
ATOM     65  C   UNL A   1      42.552  32.530  40.529  1.00  0.00     0.031 C 
ATOM     66  C   UNL A   1      37.417  33.376  37.439  1.00  0.00     0.029 A 
ATOM     67  C   UNL A   1      38.734  33.145  37.787  1.00  0.00     0.049 A 
ATOM     68  H   UNL A   1      40.407  32.800  36.541  1.00  0.00     0.167 HD
ATOM     69  C   UNL A   1      40.632  32.823  39.322  1.00  0.00     0.074 A 
ATOM     70  C   UNL A   1      41.252  32.766  40.627  1.00  0.00     0.031 C 
ATOM     71  C   UNL A   1      39.322  33.094  39.104  1.00  0.00     0.031 A 
BRANCH  58  72
ATOM     72  C   UNL A   1      37.865  33.141  33.100  1.00  0.00    -0.014 A 
ATOM     73  C   UNL A   1      37.136  32.053  32.588  1.00  0.00     0.010 A 
ATOM     74  C   UNL A   1      37.487  34.444  32.709  1.00  0.00     0.010 A 
ATOM     75  C   UNL A   1      36.101  32.259  31.663  1.00  0.00     0.020 A 
ATOM     76  C   UNL A   1      36.434  34.657  31.809  1.00  0.00     0.020 A 
ATOM     77  C   UNL A   1      35.765  33.559  31.270  1.00  0.00     0.054 A 
BRANCH  77  78
ATOM     78  S   UNL A   1      34.439  33.798  30.052  1.00  0.00     0.124 S 
ATOM     79  O   UNL A   1      33.452  34.546  30.827  1.00  0.00    -0.237 OA
ATOM     80  O   UNL A   1      35.104  34.550  28.992  1.00  0.00    -0.237 OA
ATOM     81  O   UNL A   1      34.044  32.437  29.693  1.00  0.00    -0.744 OA
ENDBRANCH  77  78
ENDBRANCH  58  72
BRANCH  59  82
ATOM     82  C   UNL A   1      45.214  31.863  39.571  1.00  0.00    -0.014 A 
ATOM     83  C   UNL A   1      45.996  32.968  39.949  1.00  0.00     0.010 A 
ATOM     84  C   UNL A   1      45.505  30.602  40.128  1.00  0.00     0.010 A 
ATOM     85  C   UNL A   1      47.048  32.814  40.859  1.00  0.00     0.020 A 
ATOM     86  C   UNL A   1      46.531  30.452  41.067  1.00  0.00     0.020 A 
ATOM     87  C   UNL A   1      47.303  31.559  41.419  1.00  0.00     0.054 A 
BRANCH  87  88
ATOM     88  S   UNL A   1      48.628  31.399  42.648  1.00  0.00     0.124 S 
ATOM     89  O   UNL A   1      48.980  32.793  42.900  1.00  0.00    -0.237 OA
ATOM     90  O   UNL A   1      47.956  30.706  43.745  1.00  0.00    -0.237 OA
ATOM     91  O   UNL A   1      49.645  30.612  41.954  1.00  0.00    -0.744 OA
ENDBRANCH  87  88
ENDBRANCH  59  82
BRANCH  71  92
ATOM     92  C   UNL A   1      38.437  33.295  40.310  1.00  0.00    -0.014 A 
ATOM     93  C   UNL A   1      37.633  32.258  40.820  1.00  0.00     0.010 A 
ATOM     94  C   UNL A   1      38.421  34.544  40.960  1.00  0.00     0.010 A 
ATOM     95  C   UNL A   1      36.806  32.477  41.929  1.00  0.00     0.020 A 
ATOM     96  C   UNL A   1      37.618  34.759  42.085  1.00  0.00     0.020 A 
ATOM     97  C   UNL A   1      36.803  33.727  42.555  1.00  0.00     0.054 A 
BRANCH  97  98
ATOM     98  S   UNL A   1      35.748  33.977  44.010  1.00  0.00     0.124 S 
ATOM     99  O   UNL A   1      36.299  35.203  44.581  1.00  0.00    -0.237 OA
ATOM    100  O   UNL A   1      34.415  34.102  43.423  1.00  0.00    -0.237 OA
ATOM    101  O   UNL A   1      35.960  32.769  44.805  1.00  0.00    -0.744 OA
ENDBRANCH  97  98
ENDBRANCH  71  92
ENDBRANCH  45  46
ENDBRANCH  38  40
ENDBRANCH  37  38
ENDBRANCH  36  37
ENDBRANCH  35  36
ENDBRANCH  34  35
ENDBRANCH  33  34
ENDBRANCH   1  33
TORSDOF 26
ENDMDL
