MODEL 1
REMARK VINA RESULT:     -10.1      0.000      0.000
REMARK SMILES CC1(C)C[C@@](Cc2ccccc2)(C(=O)OCCOCCOCCOC(=O)c2ccc(-c3c4nc(c(-c5ccc(S(=O)(=O)[O-])cc5)c5ccc([nH]5)c(-c5ccc(S(=O)(=O)[O-])cc5)c5nc(c(-c6ccc(S(=O)(=O)[O-])cc6)c6ccc3[nH]6)C=C5)C=C4)cc2)CCO1
REMARK SMILES IDX 20 1 19 2 18 3 17 4 16 5 15 6 13 7 14 8 5 9 1 10 2 11 3 12
REMARK SMILES IDX 4 13 89 14 88 15 87 16 6 17 7 18 8 19 12 20 9 21 11 22 10 23
REMARK SMILES IDX 21 24 22 25 23 26 24 27 25 28 26 29 27 30 28 31 86 32 29 33
REMARK SMILES IDX 85 34 30 35 31 36 32 37 79 38 33 39 84 40 78 41 80 42 34 43
REMARK SMILES IDX 83 44 77 45 76 46 35 48 65 49 46 50 64 51 47 52 50 53 63 54
REMARK SMILES IDX 81 55 48 56 49 57 62 59 82 60 51 61 36 62 37 63 45 64 38 65
REMARK SMILES IDX 44 66 39 67 40 68 41 69 42 70 43 71 66 72 67 73 75 74 68 75
REMARK SMILES IDX 74 76 69 77 70 78 71 79 72 80 73 81 52 82 53 83 61 84 54 85
REMARK SMILES IDX 60 86 55 87 56 88 57 89 58 90 59 91
REMARK H PARENT 80 47 50 58
REMARK Flexibility Score: inf
ROOT
ATOM      1  C   UNL A   1      41.054  20.512  26.526  1.00  0.00     0.188 C 
ENDROOT
BRANCH   1   2
ATOM      2  C   UNL A   1      40.039  21.615  26.849  1.00  0.00     0.188 C 
BRANCH   2   3
ATOM      3  O   UNL A   1      39.196  22.056  25.789  1.00  0.00    -0.376 OA
BRANCH   3   4
ATOM      4  C   UNL A   1      38.197  21.164  25.306  1.00  0.00     0.202 C 
BRANCH   4   5
ATOM      5  C   UNL A   1      37.035  21.811  24.558  1.00  0.00     0.261 C 
BRANCH   5   6
ATOM      6  O   UNL A   1      35.762  21.315  25.025  1.00  0.00    -0.463 OA
BRANCH   6   7
ATOM      7  C   UNL A   1      34.652  21.838  24.459  1.00  0.00     0.312 C 
ATOM      8  O   UNL A   1      34.718  22.750  23.646  1.00  0.00    -0.252 OA
BRANCH   7   9
ATOM      9  C   UNL A   1      33.323  21.232  24.973  1.00  0.00     0.077 C 
ATOM     10  C   UNL A   1      33.045  24.500  25.956  1.00  0.00     0.042 C 
ATOM     11  C   UNL A   1      32.215  23.254  26.283  1.00  0.00     0.064 C 
ATOM     12  C   UNL A   1      30.781  23.729  26.591  1.00  0.00     0.042 C 
ATOM     13  C   UNL A   1      32.158  22.244  25.109  1.00  0.00     0.054 C 
ATOM     14  O   UNL A   1      32.632  22.628  27.496  1.00  0.00    -0.376 OA
ATOM     15  C   UNL A   1      33.810  21.843  27.426  1.00  0.00     0.162 C 
ATOM     16  C   UNL A   1      33.653  20.715  26.403  1.00  0.00     0.047 C 
BRANCH   9  17
ATOM     17  C   UNL A   1      32.865  19.991  24.106  1.00  0.00     0.054 C 
BRANCH  17  18
ATOM     18  C   UNL A   1      33.266  18.581  24.527  1.00  0.00    -0.047 A 
ATOM     19  C   UNL A   1      34.543  18.072  24.236  1.00  0.00     0.004 A 
ATOM     20  C   UNL A   1      32.365  17.734  25.190  1.00  0.00     0.004 A 
ATOM     21  C   UNL A   1      34.920  16.789  24.653  1.00  0.00     0.000 A 
ATOM     22  C   UNL A   1      32.750  16.465  25.632  1.00  0.00     0.000 A 
ATOM     23  C   UNL A   1      34.031  15.995  25.371  1.00  0.00     0.000 A 
ENDBRANCH  17  18
ENDBRANCH   9  17
ENDBRANCH   7   9
ENDBRANCH   6   7
ENDBRANCH   5   6
ENDBRANCH   4   5
ENDBRANCH   3   4
ENDBRANCH   2   3
ENDBRANCH   1   2
BRANCH   1  24
ATOM     24  O   UNL A   1      42.097  20.838  25.616  1.00  0.00    -0.376 OA
BRANCH  24  25
ATOM     25  C   UNL A   1      43.074  21.769  26.054  1.00  0.00     0.202 C 
BRANCH  25  26
ATOM     26  C   UNL A   1      43.022  23.083  25.284  1.00  0.00     0.261 C 
BRANCH  26  27
ATOM     27  O   UNL A   1      42.394  24.099  26.080  1.00  0.00    -0.460 OA
BRANCH  27  28
ATOM     28  C   UNL A   1      42.847  25.363  25.881  1.00  0.00     0.338 C 
ATOM     29  O   UNL A   1      43.435  25.791  24.908  1.00  0.00    -0.246 OA
BRANCH  28  30
ATOM     30  C   UNL A   1      42.370  26.220  26.990  1.00  0.00     0.060 A 
ATOM     31  C   UNL A   1      42.927  27.498  27.117  1.00  0.00     0.016 A 
ATOM     32  C   UNL A   1      41.413  25.773  27.907  1.00  0.00     0.016 A 
ATOM     33  C   UNL A   1      42.562  28.310  28.190  1.00  0.00     0.010 A 
ATOM     34  C   UNL A   1      41.048  26.590  28.978  1.00  0.00     0.010 A 
ATOM     35  C   UNL A   1      41.644  27.850  29.139  1.00  0.00    -0.014 A 
BRANCH  35  36
ATOM     36  C   UNL A   1      41.473  28.599  30.404  1.00  0.00     0.031 A 
ATOM     37  C   UNL A   1      40.359  29.604  30.484  1.00  0.00     0.074 A 
ATOM     38  C   UNL A   1      42.262  28.368  31.467  1.00  0.00     0.049 A 
ATOM     39  N   UNL A   1      40.039  30.409  31.461  1.00  0.00    -0.248 NA
ATOM     40  C   UNL A   1      39.491  29.711  29.300  1.00  0.00     0.031 C 
ATOM     41  C   UNL A   1      43.331  27.373  31.527  1.00  0.00     0.029 A 
ATOM     42  N   UNL A   1      42.283  28.961  32.705  1.00  0.00    -0.354 N 
ATOM     43  C   UNL A   1      38.937  31.123  31.009  1.00  0.00     0.074 A 
ATOM     44  C   UNL A   1      38.660  30.676  29.662  1.00  0.00     0.031 C 
ATOM     45  C   UNL A   1      43.907  27.425  32.740  1.00  0.00     0.029 A 
ATOM     46  C   UNL A   1      43.283  28.490  33.524  1.00  0.00     0.049 A 
ATOM     47  H   UNL A   1      41.644  29.657  32.980  1.00  0.00     0.167 HD
ATOM     48  C   UNL A   1      38.218  32.069  31.659  1.00  0.00     0.031 A 
ATOM     49  C   UNL A   1      43.666  28.895  34.752  1.00  0.00     0.031 A 
ATOM     50  C   UNL A   1      38.526  32.537  32.983  1.00  0.00     0.049 A 
ATOM     51  C   UNL A   1      42.915  30.023  35.416  1.00  0.00     0.074 A 
ATOM     52  C   UNL A   1      37.880  33.512  33.722  1.00  0.00     0.029 A 
ATOM     53  N   UNL A   1      39.577  32.074  33.762  1.00  0.00    -0.354 N 
ATOM     54  N   UNL A   1      41.875  30.694  34.979  1.00  0.00    -0.248 NA
ATOM     55  C   UNL A   1      43.388  30.446  36.742  1.00  0.00     0.031 C 
ATOM     56  C   UNL A   1      38.579  33.682  34.922  1.00  0.00     0.029 A 
ATOM     57  C   UNL A   1      39.613  32.761  34.963  1.00  0.00     0.049 A 
ATOM     58  H   UNL A   1      40.203  31.362  33.499  1.00  0.00     0.167 HD
ATOM     59  C   UNL A   1      41.553  31.598  35.988  1.00  0.00     0.074 A 
ATOM     60  C   UNL A   1      42.498  31.375  37.063  1.00  0.00     0.031 C 
ATOM     61  C   UNL A   1      40.563  32.527  36.024  1.00  0.00     0.031 A 
BRANCH  48  62
ATOM     62  C   UNL A   1      37.070  32.692  30.912  1.00  0.00    -0.014 A 
ATOM     63  C   UNL A   1      37.279  33.718  29.972  1.00  0.00     0.010 A 
ATOM     64  C   UNL A   1      35.759  32.243  31.156  1.00  0.00     0.010 A 
ATOM     65  C   UNL A   1      36.194  34.312  29.323  1.00  0.00     0.020 A 
ATOM     66  C   UNL A   1      34.675  32.814  30.485  1.00  0.00     0.020 A 
ATOM     67  C   UNL A   1      34.898  33.858  29.586  1.00  0.00     0.054 A 
BRANCH  67  68
ATOM     68  S   UNL A   1      33.510  34.644  28.724  1.00  0.00     0.124 S 
ATOM     69  O   UNL A   1      32.589  34.919  29.824  1.00  0.00    -0.237 OA
ATOM     70  O   UNL A   1      34.133  35.816  28.118  1.00  0.00    -0.237 OA
ATOM     71  O   UNL A   1      33.062  33.621  27.781  1.00  0.00    -0.744 OA
ENDBRANCH  67  68
ENDBRANCH  48  62
BRANCH  49  72
ATOM     72  C   UNL A   1      44.843  28.264  35.416  1.00  0.00    -0.014 A 
ATOM     73  C   UNL A   1      46.105  28.883  35.397  1.00  0.00     0.010 A 
ATOM     74  C   UNL A   1      44.704  27.023  36.064  1.00  0.00     0.010 A 
ATOM     75  C   UNL A   1      47.208  28.265  35.998  1.00  0.00     0.020 A 
ATOM     76  C   UNL A   1      45.795  26.417  36.694  1.00  0.00     0.020 A 
ATOM     77  C   UNL A   1      47.044  27.037  36.646  1.00  0.00     0.054 A 
BRANCH  77  78
ATOM     78  S   UNL A   1      48.479  26.276  37.457  1.00  0.00     0.124 S 
ATOM     79  O   UNL A   1      49.478  26.297  36.394  1.00  0.00    -0.237 OA
ATOM     80  O   UNL A   1      48.725  27.181  38.577  1.00  0.00    -0.237 OA
ATOM     81  O   UNL A   1      47.995  24.949  37.835  1.00  0.00    -0.744 OA
ENDBRANCH  77  78
ENDBRANCH  49  72
BRANCH  61  82
ATOM     82  C   UNL A   1      40.417  33.345  37.282  1.00  0.00    -0.014 A 
ATOM     83  C   UNL A   1      41.033  34.601  37.421  1.00  0.00     0.010 A 
ATOM     84  C   UNL A   1      39.595  32.870  38.321  1.00  0.00     0.010 A 
ATOM     85  C   UNL A   1      40.860  35.349  38.590  1.00  0.00     0.020 A 
ATOM     86  C   UNL A   1      39.390  33.629  39.476  1.00  0.00     0.020 A 
ATOM     87  C   UNL A   1      40.038  34.858  39.609  1.00  0.00     0.054 A 
BRANCH  87  88
ATOM     88  S   UNL A   1      39.795  35.866  41.098  1.00  0.00     0.124 S 
ATOM     89  O   UNL A   1      40.934  36.777  41.036  1.00  0.00    -0.237 OA
ATOM     90  O   UNL A   1      38.489  36.476  40.861  1.00  0.00    -0.237 OA
ATOM     91  O   UNL A   1      39.834  34.893  42.187  1.00  0.00    -0.744 OA
ENDBRANCH  87  88
ENDBRANCH  61  82
ENDBRANCH  35  36
ENDBRANCH  28  30
ENDBRANCH  27  28
ENDBRANCH  26  27
ENDBRANCH  25  26
ENDBRANCH  24  25
ENDBRANCH   1  24
TORSDOF 22
ENDMDL
MODEL 2
REMARK VINA RESULT:     -10.0      5.825     11.100
REMARK SMILES CC1(C)C[C@@](Cc2ccccc2)(C(=O)OCCOCCOCCOC(=O)c2ccc(-c3c4nc(c(-c5ccc(S(=O)(=O)[O-])cc5)c5ccc([nH]5)c(-c5ccc(S(=O)(=O)[O-])cc5)c5nc(c(-c6ccc(S(=O)(=O)[O-])cc6)c6ccc3[nH]6)C=C5)C=C4)cc2)CCO1
REMARK SMILES IDX 20 1 19 2 18 3 17 4 16 5 15 6 13 7 14 8 5 9 1 10 2 11 3 12
REMARK SMILES IDX 4 13 89 14 88 15 87 16 6 17 7 18 8 19 12 20 9 21 11 22 10 23
REMARK SMILES IDX 21 24 22 25 23 26 24 27 25 28 26 29 27 30 28 31 86 32 29 33
REMARK SMILES IDX 85 34 30 35 31 36 32 37 79 38 33 39 84 40 78 41 80 42 34 43
REMARK SMILES IDX 83 44 77 45 76 46 35 48 65 49 46 50 64 51 47 52 50 53 63 54
REMARK SMILES IDX 81 55 48 56 49 57 62 59 82 60 51 61 36 62 37 63 45 64 38 65
REMARK SMILES IDX 44 66 39 67 40 68 41 69 42 70 43 71 66 72 67 73 75 74 68 75
REMARK SMILES IDX 74 76 69 77 70 78 71 79 72 80 73 81 52 82 53 83 61 84 54 85
REMARK SMILES IDX 60 86 55 87 56 88 57 89 58 90 59 91
REMARK H PARENT 80 47 50 58
REMARK Flexibility Score: inf
ROOT
ATOM      1  C   UNL A   1      36.078  20.789  25.005  1.00  0.00     0.188 C 
ENDROOT
BRANCH   1   2
ATOM      2  C   UNL A   1      34.796  21.625  25.090  1.00  0.00     0.188 C 
BRANCH   2   3
ATOM      3  O   UNL A   1      34.225  22.070  23.864  1.00  0.00    -0.376 OA
BRANCH   3   4
ATOM      4  C   UNL A   1      34.372  23.441  23.510  1.00  0.00     0.202 C 
BRANCH   4   5
ATOM      5  C   UNL A   1      33.310  24.002  22.569  1.00  0.00     0.261 C 
BRANCH   5   6
ATOM      6  O   UNL A   1      32.743  25.228  23.078  1.00  0.00    -0.463 OA
BRANCH   6   7
ATOM      7  C   UNL A   1      31.417  25.234  23.335  1.00  0.00     0.312 C 
ATOM      8  O   UNL A   1      30.721  24.250  23.125  1.00  0.00    -0.252 OA
BRANCH   7   9
ATOM      9  C   UNL A   1      30.868  26.588  23.846  1.00  0.00     0.077 C 
ATOM     10  C   UNL A   1      33.251  25.851  26.192  1.00  0.00     0.042 C 
ATOM     11  C   UNL A   1      32.160  26.926  26.138  1.00  0.00     0.064 C 
ATOM     12  C   UNL A   1      32.658  28.125  26.970  1.00  0.00     0.042 C 
ATOM     13  C   UNL A   1      31.867  27.414  24.697  1.00  0.00     0.054 C 
ATOM     14  O   UNL A   1      30.967  26.521  26.809  1.00  0.00    -0.376 OA
ATOM     15  C   UNL A   1      30.130  25.615  26.112  1.00  0.00     0.162 C 
ATOM     16  C   UNL A   1      29.679  26.207  24.774  1.00  0.00     0.047 C 
BRANCH   9  17
ATOM     17  C   UNL A   1      30.296  27.476  22.670  1.00  0.00     0.054 C 
BRANCH  17  18
ATOM     18  C   UNL A   1      29.444  28.701  22.988  1.00  0.00    -0.047 A 
ATOM     19  C   UNL A   1      30.029  29.895  23.442  1.00  0.00     0.004 A 
ATOM     20  C   UNL A   1      28.046  28.667  22.870  1.00  0.00     0.004 A 
ATOM     21  C   UNL A   1      29.248  31.028  23.702  1.00  0.00     0.000 A 
ATOM     22  C   UNL A   1      27.268  29.806  23.100  1.00  0.00     0.000 A 
ATOM     23  C   UNL A   1      27.870  30.990  23.509  1.00  0.00     0.000 A 
ENDBRANCH  17  18
ENDBRANCH   9  17
ENDBRANCH   7   9
ENDBRANCH   6   7
ENDBRANCH   5   6
ENDBRANCH   4   5
ENDBRANCH   3   4
ENDBRANCH   2   3
ENDBRANCH   1   2
BRANCH   1  24
ATOM     24  O   UNL A   1      37.270  21.468  24.635  1.00  0.00    -0.376 OA
BRANCH  24  25
ATOM     25  C   UNL A   1      38.341  21.455  25.566  1.00  0.00     0.202 C 
BRANCH  25  26
ATOM     26  C   UNL A   1      39.104  20.136  25.568  1.00  0.00     0.261 C 
BRANCH  26  27
ATOM     27  O   UNL A   1      40.025  20.097  26.668  1.00  0.00    -0.460 OA
BRANCH  27  28
ATOM     28  C   UNL A   1      41.322  19.872  26.339  1.00  0.00     0.338 C 
ATOM     29  O   UNL A   1      41.800  18.856  25.876  1.00  0.00    -0.246 OA
BRANCH  28  30
ATOM     30  C   UNL A   1      42.077  21.138  26.484  1.00  0.00     0.060 A 
ATOM     31  C   UNL A   1      42.452  21.534  27.774  1.00  0.00     0.016 A 
ATOM     32  C   UNL A   1      42.390  21.939  25.382  1.00  0.00     0.016 A 
ATOM     33  C   UNL A   1      43.098  22.754  27.965  1.00  0.00     0.010 A 
ATOM     34  C   UNL A   1      43.039  23.160  25.577  1.00  0.00     0.010 A 
ATOM     35  C   UNL A   1      43.369  23.584  26.872  1.00  0.00    -0.014 A 
BRANCH  35  36
ATOM     36  C   UNL A   1      43.802  24.979  27.112  1.00  0.00     0.031 A 
ATOM     37  C   UNL A   1      45.249  25.317  26.893  1.00  0.00     0.074 A 
ATOM     38  C   UNL A   1      42.926  25.930  27.479  1.00  0.00     0.049 A 
ATOM     39  N   UNL A   1      45.872  26.449  27.079  1.00  0.00    -0.248 NA
ATOM     40  C   UNL A   1      46.105  24.226  26.396  1.00  0.00     0.031 C 
ATOM     41  C   UNL A   1      41.490  25.734  27.659  1.00  0.00     0.029 A 
ATOM     42  N   UNL A   1      43.124  27.258  27.769  1.00  0.00    -0.354 N 
ATOM     43  C   UNL A   1      47.194  26.209  26.728  1.00  0.00     0.074 A 
ATOM     44  C   UNL A   1      47.289  24.817  26.344  1.00  0.00     0.031 C 
ATOM     45  C   UNL A   1      40.933  26.900  28.031  1.00  0.00     0.029 A 
ATOM     46  C   UNL A   1      41.980  27.911  28.165  1.00  0.00     0.049 A 
ATOM     47  H   UNL A   1      44.001  27.699  27.700  1.00  0.00     0.167 HD
ATOM     48  C   UNL A   1      48.238  27.071  26.725  1.00  0.00     0.031 A 
ATOM     49  C   UNL A   1      41.809  29.171  28.613  1.00  0.00     0.031 A 
ATOM     50  C   UNL A   1      48.144  28.441  27.148  1.00  0.00     0.049 A 
ATOM     51  C   UNL A   1      43.006  30.085  28.701  1.00  0.00     0.074 A 
ATOM     52  C   UNL A   1      49.147  29.392  27.212  1.00  0.00     0.029 A 
ATOM     53  N   UNL A   1      46.981  29.055  27.591  1.00  0.00    -0.354 N 
ATOM     54  N   UNL A   1      44.254  29.847  28.370  1.00  0.00    -0.248 NA
ATOM     55  C   UNL A   1      42.772  31.440  29.221  1.00  0.00     0.031 C 
ATOM     56  C   UNL A   1      48.603  30.562  27.754  1.00  0.00     0.029 A 
ATOM     57  C   UNL A   1      47.246  30.364  27.956  1.00  0.00     0.049 A 
ATOM     58  H   UNL A   1      46.098  28.623  27.639  1.00  0.00     0.167 HD
ATOM     59  C   UNL A   1      44.947  31.030  28.613  1.00  0.00     0.074 A 
ATOM     60  C   UNL A   1      43.975  31.986  29.105  1.00  0.00     0.031 C 
ATOM     61  C   UNL A   1      46.266  31.303  28.444  1.00  0.00     0.031 A 
BRANCH  48  62
ATOM     62  C   UNL A   1      49.577  26.526  26.306  1.00  0.00    -0.014 A 
ATOM     63  C   UNL A   1      50.347  25.728  27.173  1.00  0.00     0.010 A 
ATOM     64  C   UNL A   1      50.073  26.817  25.022  1.00  0.00     0.010 A 
ATOM     65  C   UNL A   1      51.606  25.270  26.779  1.00  0.00     0.020 A 
ATOM     66  C   UNL A   1      51.318  26.334  24.613  1.00  0.00     0.020 A 
ATOM     67  C   UNL A   1      52.086  25.579  25.502  1.00  0.00     0.054 A 
BRANCH  67  68
ATOM     68  S   UNL A   1      53.721  24.965  25.015  1.00  0.00     0.124 S 
ATOM     69  O   UNL A   1      53.894  25.579  23.701  1.00  0.00    -0.237 OA
ATOM     70  O   UNL A   1      54.584  25.486  26.071  1.00  0.00    -0.237 OA
ATOM     71  O   UNL A   1      53.559  23.513  25.007  1.00  0.00    -0.744 OA
ENDBRANCH  67  68
ENDBRANCH  48  62
BRANCH  49  72
ATOM     72  C   UNL A   1      40.462  29.632  29.056  1.00  0.00    -0.014 A 
ATOM     73  C   UNL A   1      40.214  29.968  30.399  1.00  0.00     0.010 A 
ATOM     74  C   UNL A   1      39.408  29.724  28.128  1.00  0.00     0.010 A 
ATOM     75  C   UNL A   1      38.937  30.370  30.807  1.00  0.00     0.020 A 
ATOM     76  C   UNL A   1      38.139  30.155  28.524  1.00  0.00     0.020 A 
ATOM     77  C   UNL A   1      37.908  30.464  29.865  1.00  0.00     0.054 A 
BRANCH  77  78
ATOM     78  S   UNL A   1      36.271  31.030  30.408  1.00  0.00     0.124 S 
ATOM     79  O   UNL A   1      35.904  30.010  31.385  1.00  0.00    -0.237 OA
ATOM     80  O   UNL A   1      36.560  32.354  30.953  1.00  0.00    -0.237 OA
ATOM     81  O   UNL A   1      35.482  31.030  29.178  1.00  0.00    -0.744 OA
ENDBRANCH  77  78
ENDBRANCH  49  72
BRANCH  61  82
ATOM     82  C   UNL A   1      46.735  32.704  28.748  1.00  0.00    -0.014 A 
ATOM     83  C   UNL A   1      46.699  33.720  27.778  1.00  0.00     0.010 A 
ATOM     84  C   UNL A   1      47.161  33.019  30.052  1.00  0.00     0.010 A 
ATOM     85  C   UNL A   1      47.116  35.016  28.096  1.00  0.00     0.020 A 
ATOM     86  C   UNL A   1      47.546  34.321  30.383  1.00  0.00     0.020 A 
ATOM     87  C   UNL A   1      47.536  35.308  29.397  1.00  0.00     0.054 A 
BRANCH  87  88
ATOM     88  S   UNL A   1      48.033  37.007  29.795  1.00  0.00     0.124 S 
ATOM     89  O   UNL A   1      46.812  37.755  29.511  1.00  0.00    -0.237 OA
ATOM     90  O   UNL A   1      48.397  36.910  31.207  1.00  0.00    -0.237 OA
ATOM     91  O   UNL A   1      49.147  37.265  28.887  1.00  0.00    -0.744 OA
ENDBRANCH  87  88
ENDBRANCH  61  82
ENDBRANCH  35  36
ENDBRANCH  28  30
ENDBRANCH  27  28
ENDBRANCH  26  27
ENDBRANCH  25  26
ENDBRANCH  24  25
ENDBRANCH   1  24
TORSDOF 22
ENDMDL
MODEL 3
REMARK VINA RESULT:      -9.8      1.205      8.187
REMARK SMILES CC1(C)C[C@@](Cc2ccccc2)(C(=O)OCCOCCOCCOC(=O)c2ccc(-c3c4nc(c(-c5ccc(S(=O)(=O)[O-])cc5)c5ccc([nH]5)c(-c5ccc(S(=O)(=O)[O-])cc5)c5nc(c(-c6ccc(S(=O)(=O)[O-])cc6)c6ccc3[nH]6)C=C5)C=C4)cc2)CCO1
REMARK SMILES IDX 20 1 19 2 18 3 17 4 16 5 15 6 13 7 14 8 5 9 1 10 2 11 3 12
REMARK SMILES IDX 4 13 89 14 88 15 87 16 6 17 7 18 8 19 12 20 9 21 11 22 10 23
REMARK SMILES IDX 21 24 22 25 23 26 24 27 25 28 26 29 27 30 28 31 86 32 29 33
REMARK SMILES IDX 85 34 30 35 31 36 32 37 79 38 33 39 84 40 78 41 80 42 34 43
REMARK SMILES IDX 83 44 77 45 76 46 35 48 65 49 46 50 64 51 47 52 50 53 63 54
REMARK SMILES IDX 81 55 48 56 49 57 62 59 82 60 51 61 36 62 37 63 45 64 38 65
REMARK SMILES IDX 44 66 39 67 40 68 41 69 42 70 43 71 66 72 67 73 75 74 68 75
REMARK SMILES IDX 74 76 69 77 70 78 71 79 72 80 73 81 52 82 53 83 61 84 54 85
REMARK SMILES IDX 60 86 55 87 56 88 57 89 58 90 59 91
REMARK H PARENT 80 47 50 58
REMARK Flexibility Score: inf
ROOT
ATOM      1  C   UNL A   1      40.433  20.626  26.533  1.00  0.00     0.188 C 
ENDROOT
BRANCH   1   2
ATOM      2  C   UNL A   1      39.526  21.854  26.392  1.00  0.00     0.188 C 
BRANCH   2   3
ATOM      3  O   UNL A   1      38.378  21.724  25.558  1.00  0.00    -0.376 OA
BRANCH   3   4
ATOM      4  C   UNL A   1      37.499  22.838  25.444  1.00  0.00     0.202 C 
BRANCH   4   5
ATOM      5  C   UNL A   1      36.882  23.058  24.066  1.00  0.00     0.261 C 
BRANCH   5   6
ATOM      6  O   UNL A   1      35.795  24.007  24.117  1.00  0.00    -0.463 OA
BRANCH   6   7
ATOM      7  C   UNL A   1      34.583  23.578  23.699  1.00  0.00     0.312 C 
ATOM      8  O   UNL A   1      34.411  23.155  22.564  1.00  0.00    -0.252 OA
BRANCH   7   9
ATOM      9  C   UNL A   1      33.452  23.730  24.746  1.00  0.00     0.077 C 
ATOM     10  C   UNL A   1      32.308  25.674  22.170  1.00  0.00     0.042 C 
ATOM     11  C   UNL A   1      31.829  25.497  23.615  1.00  0.00     0.064 C 
ATOM     12  C   UNL A   1      30.316  25.791  23.634  1.00  0.00     0.042 C 
ATOM     13  C   UNL A   1      32.059  24.063  24.153  1.00  0.00     0.054 C 
ATOM     14  O   UNL A   1      32.377  26.482  24.492  1.00  0.00    -0.376 OA
ATOM     15  C   UNL A   1      33.720  26.286  24.897  1.00  0.00     0.162 C 
ATOM     16  C   UNL A   1      33.883  24.945  25.617  1.00  0.00     0.047 C 
BRANCH   9  17
ATOM     17  C   UNL A   1      33.351  22.469  25.694  1.00  0.00     0.054 C 
BRANCH  17  18
ATOM     18  C   UNL A   1      33.453  21.066  25.104  1.00  0.00    -0.047 A 
ATOM     19  C   UNL A   1      34.657  20.346  25.147  1.00  0.00     0.004 A 
ATOM     20  C   UNL A   1      32.356  20.460  24.471  1.00  0.00     0.004 A 
ATOM     21  C   UNL A   1      34.740  19.045  24.634  1.00  0.00     0.000 A 
ATOM     22  C   UNL A   1      32.428  19.152  23.986  1.00  0.00     0.000 A 
ATOM     23  C   UNL A   1      33.618  18.440  24.075  1.00  0.00     0.000 A 
ENDBRANCH  17  18
ENDBRANCH   9  17
ENDBRANCH   7   9
ENDBRANCH   6   7
ENDBRANCH   5   6
ENDBRANCH   4   5
ENDBRANCH   3   4
ENDBRANCH   2   3
ENDBRANCH   1   2
BRANCH   1  24
ATOM     24  O   UNL A   1      41.740  20.842  27.050  1.00  0.00    -0.376 OA
BRANCH  24  25
ATOM     25  C   UNL A   1      42.822  20.764  26.136  1.00  0.00     0.202 C 
BRANCH  25  26
ATOM     26  C   UNL A   1      43.487  22.114  25.895  1.00  0.00     0.261 C 
BRANCH  26  27
ATOM     27  O   UNL A   1      42.679  23.169  26.436  1.00  0.00    -0.460 OA
BRANCH  27  28
ATOM     28  C   UNL A   1      42.959  24.415  25.980  1.00  0.00     0.338 C 
ATOM     29  O   UNL A   1      43.439  24.717  24.906  1.00  0.00    -0.246 OA
BRANCH  28  30
ATOM     30  C   UNL A   1      42.434  25.406  26.948  1.00  0.00     0.060 A 
ATOM     31  C   UNL A   1      42.962  26.702  26.910  1.00  0.00     0.016 A 
ATOM     32  C   UNL A   1      41.461  25.067  27.894  1.00  0.00     0.016 A 
ATOM     33  C   UNL A   1      42.552  27.646  27.850  1.00  0.00     0.010 A 
ATOM     34  C   UNL A   1      41.051  26.016  28.832  1.00  0.00     0.010 A 
ATOM     35  C   UNL A   1      41.616  27.300  28.831  1.00  0.00    -0.014 A 
BRANCH  35  36
ATOM     36  C   UNL A   1      41.396  28.212  29.976  1.00  0.00     0.031 A 
ATOM     37  C   UNL A   1      42.292  28.072  31.173  1.00  0.00     0.074 A 
ATOM     38  C   UNL A   1      40.448  29.164  29.940  1.00  0.00     0.049 A 
ATOM     39  N   UNL A   1      42.266  28.719  32.306  1.00  0.00    -0.248 NA
ATOM     40  C   UNL A   1      43.361  27.064  31.073  1.00  0.00     0.031 C 
ATOM     41  C   UNL A   1      39.564  29.435  28.809  1.00  0.00     0.029 A 
ATOM     42  N   UNL A   1      40.072  30.082  30.889  1.00  0.00    -0.354 N 
ATOM     43  C   UNL A   1      43.310  28.195  33.058  1.00  0.00     0.074 A 
ATOM     44  C   UNL A   1      43.932  27.159  32.263  1.00  0.00     0.031 C 
ATOM     45  C   UNL A   1      38.744  30.452  29.130  1.00  0.00     0.029 A 
ATOM     46  C   UNL A   1      39.012  30.869  30.505  1.00  0.00     0.049 A 
ATOM     47  H   UNL A   1      40.519  30.169  31.762  1.00  0.00     0.167 HD
ATOM     48  C   UNL A   1      43.715  28.546  34.302  1.00  0.00     0.031 A 
ATOM     49  C   UNL A   1      38.320  31.796  31.198  1.00  0.00     0.031 A 
ATOM     50  C   UNL A   1      43.066  29.548  35.101  1.00  0.00     0.049 A 
ATOM     51  C   UNL A   1      38.723  32.097  32.620  1.00  0.00     0.074 A 
ATOM     52  C   UNL A   1      43.378  29.959  36.385  1.00  0.00     0.029 A 
ATOM     53  N   UNL A   1      41.963  30.288  34.700  1.00  0.00    -0.354 N 
ATOM     54  N   UNL A   1      39.710  31.594  33.324  1.00  0.00    -0.248 NA
ATOM     55  C   UNL A   1      37.921  33.095  33.342  1.00  0.00     0.031 C 
ATOM     56  C   UNL A   1      42.424  30.903  36.782  1.00  0.00     0.029 A 
ATOM     57  C   UNL A   1      41.565  31.136  35.720  1.00  0.00     0.049 A 
ATOM     58  H   UNL A   1      41.528  30.220  33.820  1.00  0.00     0.167 HD
ATOM     59  C   UNL A   1      39.665  32.234  34.559  1.00  0.00     0.074 A 
ATOM     60  C   UNL A   1      38.563  33.173  34.500  1.00  0.00     0.031 C 
ATOM     61  C   UNL A   1      40.464  32.064  35.644  1.00  0.00     0.031 A 
BRANCH  48  62
ATOM     62  C   UNL A   1      44.880  27.790  34.883  1.00  0.00    -0.014 A 
ATOM     63  C   UNL A   1      46.203  28.239  34.711  1.00  0.00     0.010 A 
ATOM     64  C   UNL A   1      44.647  26.611  35.614  1.00  0.00     0.010 A 
ATOM     65  C   UNL A   1      47.272  27.498  35.220  1.00  0.00     0.020 A 
ATOM     66  C   UNL A   1      45.712  25.885  36.152  1.00  0.00     0.020 A 
ATOM     67  C   UNL A   1      47.019  26.323  35.935  1.00  0.00     0.054 A 
BRANCH  67  68
ATOM     68  S   UNL A   1      48.426  25.386  36.592  1.00  0.00     0.124 S 
ATOM     69  O   UNL A   1      48.994  24.805  35.378  1.00  0.00    -0.237 OA
ATOM     70  O   UNL A   1      49.232  26.424  37.228  1.00  0.00    -0.237 OA
ATOM     71  O   UNL A   1      47.810  24.430  37.509  1.00  0.00    -0.744 OA
ENDBRANCH  67  68
ENDBRANCH  48  62
BRANCH  49  72
ATOM     72  C   UNL A   1      37.146  32.474  30.577  1.00  0.00    -0.014 A 
ATOM     73  C   UNL A   1      37.315  33.549  29.687  1.00  0.00     0.010 A 
ATOM     74  C   UNL A   1      35.841  32.047  30.887  1.00  0.00     0.010 A 
ATOM     75  C   UNL A   1      36.203  34.196  29.135  1.00  0.00     0.020 A 
ATOM     76  C   UNL A   1      34.728  32.669  30.313  1.00  0.00     0.020 A 
ATOM     77  C   UNL A   1      34.916  33.748  29.449  1.00  0.00     0.054 A 
BRANCH  77  78
ATOM     78  S   UNL A   1      33.490  34.573  28.686  1.00  0.00     0.124 S 
ATOM     79  O   UNL A   1      34.109  35.740  28.066  1.00  0.00    -0.237 OA
ATOM     80  O   UNL A   1      32.993  33.555  27.764  1.00  0.00    -0.237 OA
ATOM     81  O   UNL A   1      32.612  34.858  29.820  1.00  0.00    -0.744 OA
ENDBRANCH  77  78
ENDBRANCH  49  72
BRANCH  61  82
ATOM     82  C   UNL A   1      40.209  32.941  36.844  1.00  0.00    -0.014 A 
ATOM     83  C   UNL A   1      40.899  34.151  37.033  1.00  0.00     0.010 A 
ATOM     84  C   UNL A   1      39.211  32.573  37.766  1.00  0.00     0.010 A 
ATOM     85  C   UNL A   1      40.623  34.957  38.143  1.00  0.00     0.020 A 
ATOM     86  C   UNL A   1      38.908  33.391  38.857  1.00  0.00     0.020 A 
ATOM     87  C   UNL A   1      39.628  34.572  39.047  1.00  0.00     0.054 A 
BRANCH  87  88
ATOM     88  S   UNL A   1      39.260  35.654  40.455  1.00  0.00     0.124 S 
ATOM     89  O   UNL A   1      40.465  35.516  41.267  1.00  0.00    -0.237 OA
ATOM     90  O   UNL A   1      39.076  36.956  39.818  1.00  0.00    -0.237 OA
ATOM     91  O   UNL A   1      38.050  35.074  41.033  1.00  0.00    -0.744 OA
ENDBRANCH  87  88
ENDBRANCH  61  82
ENDBRANCH  35  36
ENDBRANCH  28  30
ENDBRANCH  27  28
ENDBRANCH  26  27
ENDBRANCH  25  26
ENDBRANCH  24  25
ENDBRANCH   1  24
TORSDOF 22
ENDMDL
