MODEL 1
REMARK VINA RESULT:     -10.4      0.000      0.000
REMARK SMILES O=C(OCCOCCOCCOC(=O)c1ccc(-c2c3nc(c(-c4ccc(S(=O)(=O)[O-])cc4)c4ccc([nH]4)c(-c4ccc(S(=O)(=O)[O-])cc4)c4nc(c(-c5ccc(S(=O)(=O)[O-])cc5)c5ccc2[nH]5)C=C4)C=C3)cc1)C1=Cc2cc(Cl)cc(Cl)c2O[C@@H]1C(F)(F)F
REMARK SMILES IDX 8 1 7 2 6 3 5 4 4 5 3 6 2 7 1 8 75 9 76 10 86 11 77 12 85 13
REMARK SMILES IDX 78 14 84 15 79 16 82 17 80 18 81 19 83 20 87 21 88 22 89 23
REMARK SMILES IDX 90 24 9 25 10 26 11 27 12 28 13 29 14 30 15 31 16 32 74 33
REMARK SMILES IDX 17 34 73 35 18 36 19 37 20 38 67 39 21 40 72 41 66 42 68 43
REMARK SMILES IDX 22 44 71 45 65 46 64 47 23 49 53 50 34 51 52 52 35 53 38 54
REMARK SMILES IDX 51 55 69 56 36 57 37 58 50 60 70 61 39 62 24 63 25 64 33 65
REMARK SMILES IDX 26 66 32 67 27 68 28 69 29 70 30 71 31 72 54 73 55 74 63 75
REMARK SMILES IDX 56 76 62 77 57 78 58 79 59 80 60 81 61 82 40 83 41 84 49 85
REMARK SMILES IDX 42 86 48 87 43 88 44 89 45 90 46 91 47 92
REMARK H PARENT 68 48 38 59
REMARK Flexibility Score: inf
ROOT
ATOM      1  C   UNL A   1      33.064  29.452  26.019  1.00  0.00     0.188 C 
ENDROOT
BRANCH   1   2
ATOM      2  C   UNL A   1      31.651  29.634  25.431  1.00  0.00     0.188 C 
BRANCH   2   3
ATOM      3  O   UNL A   1      31.259  29.078  24.154  1.00  0.00    -0.376 OA
BRANCH   3   4
ATOM      4  C   UNL A   1      32.126  28.687  22.844  1.00  0.00     0.202 C 
BRANCH   4   5
ATOM      5  C   UNL A   1      32.366  26.749  21.876  1.00  0.00     0.261 C 
BRANCH   5   6
ATOM      6  O   UNL A   1      31.779  25.412  22.372  1.00  0.00    -0.460 OA
BRANCH   6   7
ATOM      7  C   UNL A   1      32.638  24.391  22.267  1.00  0.00     0.338 C 
ATOM      8  O   UNL A   1      33.172  23.918  21.300  1.00  0.00    -0.246 OA
BRANCH   7   9
ATOM      9  C   UNL A   1      32.426  23.897  23.604  1.00  0.00     0.087 C 
ATOM     10  C   UNL A   1      31.974  22.482  23.591  1.00  0.00     0.027 C 
ATOM     11  C   UNL A   1      34.110  24.515  24.336  1.00  0.00     0.316 C 
ATOM     12  C   UNL A   1      33.033  21.086  24.077  1.00  0.00     0.020 A 
ATOM     13  O   UNL A   1      35.281  23.034  24.756  1.00  0.00    -0.474 OA
ATOM     14  C   UNL A   1      32.568  19.806  23.934  1.00  0.00     0.032 A 
ATOM     15  C   UNL A   1      34.671  21.322  24.605  1.00  0.00     0.146 A 
ATOM     16  C   UNL A   1      33.498  18.800  24.258  1.00  0.00     0.043 A 
ATOM     17  C   UNL A   1      35.503  20.268  24.866  1.00  0.00     0.085 A 
ATOM     18  Cl  UNL A   1      32.961  17.159  24.075  1.00  0.00    -0.084 Cl
ATOM     19  C   UNL A   1      34.872  19.012  24.696  1.00  0.00     0.045 A 
ATOM     20  Cl  UNL A   1      37.156  20.366  25.239  1.00  0.00    -0.080 Cl
BRANCH  11  21
ATOM     21  C   UNL A   1      33.543  25.706  25.265  1.00  0.00     0.430 C 
ATOM     22  F   UNL A   1      32.278  26.105  25.070  1.00  0.00    -0.167 F 
ATOM     23  F   UNL A   1      33.564  25.242  26.549  1.00  0.00    -0.167 F 
ATOM     24  F   UNL A   1      34.328  26.810  25.281  1.00  0.00    -0.167 F 
ENDBRANCH  11  21
ENDBRANCH   7   9
ENDBRANCH   6   7
ENDBRANCH   5   6
ENDBRANCH   4   5
ENDBRANCH   3   4
ENDBRANCH   2   3
ENDBRANCH   1   2
BRANCH   1  25
ATOM     25  O   UNL A   1      33.354  29.816  27.346  1.00  0.00    -0.376 OA
BRANCH  25  26
ATOM     26  C   UNL A   1      34.641  30.335  27.629  1.00  0.00     0.202 C 
BRANCH  26  27
ATOM     27  C   UNL A   1      34.787  31.858  27.601  1.00  0.00     0.261 C 
BRANCH  27  28
ATOM     28  O   UNL A   1      33.641  32.541  28.145  1.00  0.00    -0.460 OA
BRANCH  28  29
ATOM     29  C   UNL A   1      33.880  33.738  28.734  1.00  0.00     0.338 C 
ATOM     30  O   UNL A   1      33.310  34.792  28.511  1.00  0.00    -0.246 OA
BRANCH  29  31
ATOM     31  C   UNL A   1      34.844  33.568  29.843  1.00  0.00     0.060 A 
ATOM     32  C   UNL A   1      36.140  34.078  29.675  1.00  0.00     0.016 A 
ATOM     33  C   UNL A   1      34.499  32.884  31.011  1.00  0.00     0.016 A 
ATOM     34  C   UNL A   1      37.108  33.864  30.653  1.00  0.00     0.010 A 
ATOM     35  C   UNL A   1      35.481  32.635  31.975  1.00  0.00     0.010 A 
ATOM     36  C   UNL A   1      36.799  33.080  31.771  1.00  0.00    -0.014 A 
BRANCH  36  37
ATOM     37  C   UNL A   1      37.921  32.458  32.517  1.00  0.00     0.031 A 
ATOM     38  C   UNL A   1      38.624  31.303  31.850  1.00  0.00     0.074 A 
ATOM     39  C   UNL A   1      38.344  32.927  33.702  1.00  0.00     0.049 A 
ATOM     40  N   UNL A   1      39.675  30.630  32.240  1.00  0.00    -0.248 NA
ATOM     41  C   UNL A   1      38.067  30.850  30.562  1.00  0.00     0.031 C 
ATOM     42  C   UNL A   1      37.773  34.065  34.421  1.00  0.00     0.029 A 
ATOM     43  N   UNL A   1      39.371  32.500  34.507  1.00  0.00    -0.354 N 
ATOM     44  C   UNL A   1      39.903  29.684  31.245  1.00  0.00     0.074 A 
ATOM     45  C   UNL A   1      38.864  29.842  30.255  1.00  0.00     0.031 C 
ATOM     46  C   UNL A   1      38.461  34.245  35.564  1.00  0.00     0.029 A 
ATOM     47  C   UNL A   1      39.506  33.228  35.666  1.00  0.00     0.049 A 
ATOM     48  H   UNL A   1      39.956  31.743  34.277  1.00  0.00     0.167 HD
ATOM     49  C   UNL A   1      40.895  28.768  31.159  1.00  0.00     0.031 A 
ATOM     50  C   UNL A   1      40.375  33.081  36.687  1.00  0.00     0.031 A 
ATOM     51  C   UNL A   1      41.904  28.590  32.165  1.00  0.00     0.049 A 
ATOM     52  C   UNL A   1      41.426  32.000  36.605  1.00  0.00     0.074 A 
ATOM     53  C   UNL A   1      42.957  27.694  32.179  1.00  0.00     0.029 A 
ATOM     54  N   UNL A   1      41.974  29.314  33.346  1.00  0.00    -0.354 N 
ATOM     55  N   UNL A   1      41.656  31.138  35.640  1.00  0.00    -0.248 NA
ATOM     56  C   UNL A   1      42.350  31.885  37.743  1.00  0.00     0.031 C 
ATOM     57  C   UNL A   1      43.623  27.827  33.402  1.00  0.00     0.029 A 
ATOM     58  C   UNL A   1      43.036  28.864  34.111  1.00  0.00     0.049 A 
ATOM     59  H   UNL A   1      41.360  30.038  33.603  1.00  0.00     0.167 HD
ATOM     60  C   UNL A   1      42.777  30.413  36.035  1.00  0.00     0.074 A 
ATOM     61  C   UNL A   1      43.182  30.943  37.321  1.00  0.00     0.031 C 
ATOM     62  C   UNL A   1      43.423  29.408  35.390  1.00  0.00     0.031 A 
BRANCH  49  63
ATOM     63  C   UNL A   1      40.894  27.858  29.958  1.00  0.00    -0.014 A 
ATOM     64  C   UNL A   1      39.842  26.954  29.720  1.00  0.00     0.010 A 
ATOM     65  C   UNL A   1      41.963  27.917  29.045  1.00  0.00     0.010 A 
ATOM     66  C   UNL A   1      39.879  26.100  28.614  1.00  0.00     0.020 A 
ATOM     67  C   UNL A   1      41.987  27.089  27.920  1.00  0.00     0.020 A 
ATOM     68  C   UNL A   1      40.952  26.174  27.721  1.00  0.00     0.054 A 
BRANCH  68  69
ATOM     69  S   UNL A   1      40.962  25.072  26.280  1.00  0.00     0.124 S 
ATOM     70  O   UNL A   1      39.638  24.462  26.356  1.00  0.00    -0.237 OA
ATOM     71  O   UNL A   1      41.163  26.001  25.171  1.00  0.00    -0.237 OA
ATOM     72  O   UNL A   1      42.079  24.168  26.542  1.00  0.00    -0.744 OA
ENDBRANCH  68  69
ENDBRANCH  49  63
BRANCH  50  73
ATOM     73  C   UNL A   1      40.303  33.982  37.873  1.00  0.00    -0.014 A 
ATOM     74  C   UNL A   1      40.895  35.258  37.850  1.00  0.00     0.010 A 
ATOM     75  C   UNL A   1      39.655  33.557  39.048  1.00  0.00     0.010 A 
ATOM     76  C   UNL A   1      40.862  36.079  38.984  1.00  0.00     0.020 A 
ATOM     77  C   UNL A   1      39.593  34.386  40.173  1.00  0.00     0.020 A 
ATOM     78  C   UNL A   1      40.208  35.638  40.137  1.00  0.00     0.054 A 
BRANCH  78  79
ATOM     79  S   UNL A   1      40.146  36.736  41.582  1.00  0.00     0.124 S 
ATOM     80  O   UNL A   1      38.765  36.577  42.026  1.00  0.00    -0.237 OA
ATOM     81  O   UNL A   1      41.163  36.159  42.458  1.00  0.00    -0.237 OA
ATOM     82  O   UNL A   1      40.480  38.047  41.030  1.00  0.00    -0.744 OA
ENDBRANCH  78  79
ENDBRANCH  50  73
BRANCH  62  83
ATOM     83  C   UNL A   1      44.672  28.856  36.030  1.00  0.00    -0.014 A 
ATOM     84  C   UNL A   1      45.938  29.426  35.803  1.00  0.00     0.010 A 
ATOM     85  C   UNL A   1      44.564  27.765  36.912  1.00  0.00     0.010 A 
ATOM     86  C   UNL A   1      47.076  28.880  36.404  1.00  0.00     0.020 A 
ATOM     87  C   UNL A   1      45.693  27.241  37.545  1.00  0.00     0.020 A 
ATOM     88  C   UNL A   1      46.947  27.788  37.268  1.00  0.00     0.054 A 
BRANCH  88  89
ATOM     89  S   UNL A   1      48.436  27.107  38.045  1.00  0.00     0.124 S 
ATOM     90  O   UNL A   1      49.465  27.423  37.059  1.00  0.00    -0.237 OA
ATOM     91  O   UNL A   1      48.514  27.855  39.298  1.00  0.00    -0.237 OA
ATOM     92  O   UNL A   1      48.132  25.686  38.193  1.00  0.00    -0.744 OA
ENDBRANCH  88  89
ENDBRANCH  62  83
ENDBRANCH  36  37
ENDBRANCH  29  31
ENDBRANCH  28  29
ENDBRANCH  27  28
ENDBRANCH  26  27
ENDBRANCH  25  26
ENDBRANCH   1  25
TORSDOF 21
ENDMDL
MODEL 2
REMARK VINA RESULT:     -10.2      2.388      8.667
REMARK SMILES O=C(OCCOCCOCCOC(=O)c1ccc(-c2c3nc(c(-c4ccc(S(=O)(=O)[O-])cc4)c4ccc([nH]4)c(-c4ccc(S(=O)(=O)[O-])cc4)c4nc(c(-c5ccc(S(=O)(=O)[O-])cc5)c5ccc2[nH]5)C=C4)C=C3)cc1)C1=Cc2cc(Cl)cc(Cl)c2O[C@@H]1C(F)(F)F
REMARK SMILES IDX 8 1 7 2 6 3 5 4 4 5 3 6 2 7 1 8 75 9 76 10 86 11 77 12 85 13
REMARK SMILES IDX 78 14 84 15 79 16 82 17 80 18 81 19 83 20 87 21 88 22 89 23
REMARK SMILES IDX 90 24 9 25 10 26 11 27 12 28 13 29 14 30 15 31 16 32 74 33
REMARK SMILES IDX 17 34 73 35 18 36 19 37 20 38 67 39 21 40 72 41 66 42 68 43
REMARK SMILES IDX 22 44 71 45 65 46 64 47 23 49 53 50 34 51 52 52 35 53 38 54
REMARK SMILES IDX 51 55 69 56 36 57 37 58 50 60 70 61 39 62 24 63 25 64 33 65
REMARK SMILES IDX 26 66 32 67 27 68 28 69 29 70 30 71 31 72 54 73 55 74 63 75
REMARK SMILES IDX 56 76 62 77 57 78 58 79 59 80 60 81 61 82 40 83 41 84 49 85
REMARK SMILES IDX 42 86 48 87 43 88 44 89 45 90 46 91 47 92
REMARK H PARENT 68 48 38 59
REMARK Flexibility Score: inf
ROOT
ATOM      1  C   UNL A   1      31.597  31.858  26.577  1.00  0.00     0.188 C 
ENDROOT
BRANCH   1   2
ATOM      2  C   UNL A   1      30.671  31.370  25.446  1.00  0.00     0.188 C 
BRANCH   2   3
ATOM      3  O   UNL A   1      30.851  30.096  24.783  1.00  0.00    -0.376 OA
BRANCH   3   4
ATOM      4  C   UNL A   1      30.281  29.532  23.376  1.00  0.00     0.202 C 
BRANCH   4   5
ATOM      5  C   UNL A   1      30.647  27.613  22.411  1.00  0.00     0.261 C 
BRANCH   5   6
ATOM      6  O   UNL A   1      30.596  26.232  23.094  1.00  0.00    -0.460 OA
BRANCH   6   7
ATOM      7  C   UNL A   1      31.680  25.485  22.852  1.00  0.00     0.338 C 
ATOM      8  O   UNL A   1      32.126  25.074  21.814  1.00  0.00    -0.246 OA
BRANCH   7   9
ATOM      9  C   UNL A   1      31.895  25.106  24.225  1.00  0.00     0.087 C 
ATOM     10  C   UNL A   1      31.482  23.700  24.468  1.00  0.00     0.027 C 
ATOM     11  C   UNL A   1      33.713  25.763  24.352  1.00  0.00     0.316 C 
ATOM     12  C   UNL A   1      32.658  22.337  24.719  1.00  0.00     0.020 A 
ATOM     13  O   UNL A   1      34.978  24.309  24.514  1.00  0.00    -0.474 OA
ATOM     14  C   UNL A   1      32.190  21.055  24.832  1.00  0.00     0.032 A 
ATOM     15  C   UNL A   1      34.375  22.598  24.699  1.00  0.00     0.146 A 
ATOM     16  C   UNL A   1      33.189  20.069  24.937  1.00  0.00     0.043 A 
ATOM     17  C   UNL A   1      35.263  21.559  24.779  1.00  0.00     0.085 A 
ATOM     18  Cl  UNL A   1      32.645  18.425  25.064  1.00  0.00    -0.084 Cl
ATOM     19  C   UNL A   1      34.628  20.301  24.914  1.00  0.00     0.045 A 
ATOM     20  Cl  UNL A   1      36.949  21.669  24.617  1.00  0.00    -0.080 Cl
BRANCH  11  21
ATOM     21  C   UNL A   1      33.441  27.034  25.308  1.00  0.00     0.430 C 
ATOM     22  F   UNL A   1      34.393  27.370  26.190  1.00  0.00    -0.167 F 
ATOM     23  F   UNL A   1      33.333  28.121  24.488  1.00  0.00    -0.167 F 
ATOM     24  F   UNL A   1      32.261  26.981  25.971  1.00  0.00    -0.167 F 
ENDBRANCH  11  21
ENDBRANCH   7   9
ENDBRANCH   6   7
ENDBRANCH   5   6
ENDBRANCH   4   5
ENDBRANCH   3   4
ENDBRANCH   2   3
ENDBRANCH   1   2
BRANCH   1  25
ATOM     25  O   UNL A   1      31.759  33.228  26.847  1.00  0.00    -0.376 OA
BRANCH  25  26
ATOM     26  C   UNL A   1      32.719  33.608  27.815  1.00  0.00     0.202 C 
BRANCH  26  27
ATOM     27  C   UNL A   1      34.020  32.804  27.843  1.00  0.00     0.261 C 
BRANCH  27  28
ATOM     28  O   UNL A   1      34.147  31.987  29.023  1.00  0.00    -0.460 OA
BRANCH  28  29
ATOM     29  C   UNL A   1      35.011  32.430  29.970  1.00  0.00     0.338 C 
ATOM     30  O   UNL A   1      34.788  33.259  30.835  1.00  0.00    -0.246 OA
BRANCH  29  31
ATOM     31  C   UNL A   1      36.256  31.633  29.925  1.00  0.00     0.060 A 
ATOM     32  C   UNL A   1      36.275  30.401  30.597  1.00  0.00     0.016 A 
ATOM     33  C   UNL A   1      37.399  32.102  29.273  1.00  0.00     0.016 A 
ATOM     34  C   UNL A   1      37.451  29.658  30.660  1.00  0.00     0.010 A 
ATOM     35  C   UNL A   1      38.589  31.374  29.370  1.00  0.00     0.010 A 
ATOM     36  C   UNL A   1      38.628  30.178  30.108  1.00  0.00    -0.014 A 
BRANCH  36  37
ATOM     37  C   UNL A   1      39.922  29.646  30.600  1.00  0.00     0.031 A 
ATOM     38  C   UNL A   1      40.493  30.284  31.841  1.00  0.00     0.074 A 
ATOM     39  C   UNL A   1      40.541  28.605  30.018  1.00  0.00     0.049 A 
ATOM     40  N   UNL A   1      41.561  29.968  32.525  1.00  0.00    -0.248 NA
ATOM     41  C   UNL A   1      39.749  31.434  32.388  1.00  0.00     0.031 C 
ATOM     42  C   UNL A   1      40.062  27.880  28.843  1.00  0.00     0.029 A 
ATOM     43  N   UNL A   1      41.712  27.972  30.352  1.00  0.00    -0.354 N 
ATOM     44  C   UNL A   1      41.612  30.874  33.580  1.00  0.00     0.074 A 
ATOM     45  C   UNL A   1      40.493  31.775  33.427  1.00  0.00     0.031 C 
ATOM     46  C   UNL A   1      40.936  26.896  28.554  1.00  0.00     0.029 A 
ATOM     47  C   UNL A   1      42.042  26.936  29.510  1.00  0.00     0.049 A 
ATOM     48  H   UNL A   1      42.266  28.236  31.122  1.00  0.00     0.167 HD
ATOM     49  C   UNL A   1      42.507  30.948  34.592  1.00  0.00     0.031 A 
ATOM     50  C   UNL A   1      43.115  26.119  29.518  1.00  0.00     0.031 A 
ATOM     51  C   UNL A   1      43.639  30.074  34.718  1.00  0.00     0.049 A 
ATOM     52  C   UNL A   1      44.143  26.270  30.614  1.00  0.00     0.074 A 
ATOM     53  C   UNL A   1      44.608  30.057  35.704  1.00  0.00     0.029 A 
ATOM     54  N   UNL A   1      43.963  29.071  33.816  1.00  0.00    -0.354 N 
ATOM     55  N   UNL A   1      44.157  27.105  31.628  1.00  0.00    -0.248 NA
ATOM     56  C   UNL A   1      45.291  25.352  30.577  1.00  0.00     0.031 C 
ATOM     57  C   UNL A   1      45.558  29.090  35.361  1.00  0.00     0.029 A 
ATOM     58  C   UNL A   1      45.135  28.447  34.207  1.00  0.00     0.049 A 
ATOM     59  H   UNL A   1      43.439  28.837  33.017  1.00  0.00     0.167 HD
ATOM     60  C   UNL A   1      45.289  26.780  32.373  1.00  0.00     0.074 A 
ATOM     61  C   UNL A   1      45.926  25.669  31.697  1.00  0.00     0.031 C 
ATOM     62  C   UNL A   1      45.753  27.340  33.519  1.00  0.00     0.031 A 
BRANCH  49  63
ATOM     63  C   UNL A   1      42.317  32.047  35.605  1.00  0.00    -0.014 A 
ATOM     64  C   UNL A   1      42.890  33.320  35.426  1.00  0.00     0.010 A 
ATOM     65  C   UNL A   1      41.541  31.802  36.753  1.00  0.00     0.010 A 
ATOM     66  C   UNL A   1      42.723  34.314  36.395  1.00  0.00     0.020 A 
ATOM     67  C   UNL A   1      41.345  32.803  37.708  1.00  0.00     0.020 A 
ATOM     68  C   UNL A   1      41.950  34.048  37.530  1.00  0.00     0.054 A 
BRANCH  68  69
ATOM     69  S   UNL A   1      41.729  35.363  38.759  1.00  0.00     0.124 S 
ATOM     70  O   UNL A   1      40.967  34.679  39.800  1.00  0.00    -0.237 OA
ATOM     71  O   UNL A   1      43.105  35.705  39.110  1.00  0.00    -0.237 OA
ATOM     72  O   UNL A   1      40.999  36.398  38.033  1.00  0.00    -0.744 OA
ENDBRANCH  68  69
ENDBRANCH  49  63
BRANCH  50  73
ATOM     73  C   UNL A   1      43.275  25.075  28.464  1.00  0.00    -0.014 A 
ATOM     74  C   UNL A   1      42.932  23.734  28.715  1.00  0.00     0.010 A 
ATOM     75  C   UNL A   1      43.795  25.418  27.201  1.00  0.00     0.010 A 
ATOM     76  C   UNL A   1      43.129  22.754  27.735  1.00  0.00     0.020 A 
ATOM     77  C   UNL A   1      43.965  24.447  26.210  1.00  0.00     0.020 A 
ATOM     78  C   UNL A   1      43.642  23.118  26.487  1.00  0.00     0.054 A 
BRANCH  78  79
ATOM     79  S   UNL A   1      43.852  21.835  25.219  1.00  0.00     0.124 S 
ATOM     80  O   UNL A   1      42.685  20.990  25.443  1.00  0.00    -0.237 OA
ATOM     81  O   UNL A   1      43.844  22.613  23.982  1.00  0.00    -0.237 OA
ATOM     82  O   UNL A   1      45.138  21.228  25.557  1.00  0.00    -0.744 OA
ENDBRANCH  78  79
ENDBRANCH  50  73
BRANCH  62  83
ATOM     83  C   UNL A   1      46.975  26.724  34.153  1.00  0.00    -0.014 A 
ATOM     84  C   UNL A   1      46.881  25.659  35.067  1.00  0.00     0.010 A 
ATOM     85  C   UNL A   1      48.248  27.199  33.787  1.00  0.00     0.010 A 
ATOM     86  C   UNL A   1      48.036  25.120  35.643  1.00  0.00     0.020 A 
ATOM     87  C   UNL A   1      49.405  26.638  34.331  1.00  0.00     0.020 A 
ATOM     88  C   UNL A   1      49.290  25.616  35.275  1.00  0.00     0.054 A 
BRANCH  88  89
ATOM     89  S   UNL A   1      50.772  24.891  36.027  1.00  0.00     0.124 S 
ATOM     90  O   UNL A   1      51.694  26.024  36.031  1.00  0.00    -0.237 OA
ATOM     91  O   UNL A   1      50.291  24.468  37.339  1.00  0.00    -0.237 OA
ATOM     92  O   UNL A   1      51.127  23.804  35.118  1.00  0.00    -0.744 OA
ENDBRANCH  88  89
ENDBRANCH  62  83
ENDBRANCH  36  37
ENDBRANCH  29  31
ENDBRANCH  28  29
ENDBRANCH  27  28
ENDBRANCH  26  27
ENDBRANCH  25  26
ENDBRANCH   1  25
TORSDOF 21
ENDMDL
MODEL 3
REMARK VINA RESULT:     -10.1      1.681      2.837
REMARK SMILES O=C(OCCOCCOCCOC(=O)c1ccc(-c2c3nc(c(-c4ccc(S(=O)(=O)[O-])cc4)c4ccc([nH]4)c(-c4ccc(S(=O)(=O)[O-])cc4)c4nc(c(-c5ccc(S(=O)(=O)[O-])cc5)c5ccc2[nH]5)C=C4)C=C3)cc1)C1=Cc2cc(Cl)cc(Cl)c2O[C@@H]1C(F)(F)F
REMARK SMILES IDX 8 1 7 2 6 3 5 4 4 5 3 6 2 7 1 8 75 9 76 10 86 11 77 12 85 13
REMARK SMILES IDX 78 14 84 15 79 16 82 17 80 18 81 19 83 20 87 21 88 22 89 23
REMARK SMILES IDX 90 24 9 25 10 26 11 27 12 28 13 29 14 30 15 31 16 32 74 33
REMARK SMILES IDX 17 34 73 35 18 36 19 37 20 38 67 39 21 40 72 41 66 42 68 43
REMARK SMILES IDX 22 44 71 45 65 46 64 47 23 49 53 50 34 51 52 52 35 53 38 54
REMARK SMILES IDX 51 55 69 56 36 57 37 58 50 60 70 61 39 62 24 63 25 64 33 65
REMARK SMILES IDX 26 66 32 67 27 68 28 69 29 70 30 71 31 72 54 73 55 74 63 75
REMARK SMILES IDX 56 76 62 77 57 78 58 79 59 80 60 81 61 82 40 83 41 84 49 85
REMARK SMILES IDX 42 86 48 87 43 88 44 89 45 90 46 91 47 92
REMARK H PARENT 68 48 38 59
REMARK Flexibility Score: inf
ROOT
ATOM      1  C   UNL A   1      34.231  32.513  28.392  1.00  0.00     0.188 C 
ENDROOT
BRANCH   1   2
ATOM      2  C   UNL A   1      34.338  31.165  27.652  1.00  0.00     0.188 C 
BRANCH   2   3
ATOM      3  O   UNL A   1      33.178  30.421  27.211  1.00  0.00    -0.376 OA
BRANCH   3   4
ATOM      4  C   UNL A   1      32.840  28.838  27.258  1.00  0.00     0.202 C 
BRANCH   4   5
ATOM      5  C   UNL A   1      33.891  27.175  26.322  1.00  0.00     0.261 C 
BRANCH   5   6
ATOM      6  O   UNL A   1      33.706  26.688  24.871  1.00  0.00    -0.460 OA
BRANCH   6   7
ATOM      7  C   UNL A   1      33.280  27.651  24.044  1.00  0.00     0.338 C 
ATOM      8  O   UNL A   1      33.403  28.845  24.111  1.00  0.00    -0.246 OA
BRANCH   7   9
ATOM      9  C   UNL A   1      32.393  26.802  23.291  1.00  0.00     0.087 C 
ATOM     10  C   UNL A   1      32.987  25.458  23.073  1.00  0.00     0.027 C 
ATOM     11  C   UNL A   1      30.806  27.152  24.344  1.00  0.00     0.316 C 
ATOM     12  C   UNL A   1      32.428  23.960  23.939  1.00  0.00     0.020 A 
ATOM     13  O   UNL A   1      30.268  25.591  25.351  1.00  0.00    -0.474 OA
ATOM     14  C   UNL A   1      33.103  22.783  23.756  1.00  0.00     0.032 A 
ATOM     15  C   UNL A   1      31.132  24.004  25.095  1.00  0.00     0.146 A 
ATOM     16  C   UNL A   1      32.641  21.709  24.538  1.00  0.00     0.043 A 
ATOM     17  C   UNL A   1      30.781  22.903  25.828  1.00  0.00     0.085 A 
ATOM     18  Cl  UNL A   1      33.477  20.198  24.353  1.00  0.00    -0.084 Cl
ATOM     19  C   UNL A   1      31.554  21.760  25.508  1.00  0.00     0.045 A 
ATOM     20  Cl  UNL A   1      29.643  22.858  27.086  1.00  0.00    -0.080 Cl
BRANCH  11  21
ATOM     21  C   UNL A   1      29.997  28.042  23.268  1.00  0.00     0.430 C 
ATOM     22  F   UNL A   1      30.122  27.725  21.971  1.00  0.00    -0.167 F 
ATOM     23  F   UNL A   1      28.670  27.867  23.538  1.00  0.00    -0.167 F 
ATOM     24  F   UNL A   1      30.203  29.375  23.391  1.00  0.00    -0.167 F 
ENDBRANCH  11  21
ENDBRANCH   7   9
ENDBRANCH   6   7
ENDBRANCH   5   6
ENDBRANCH   4   5
ENDBRANCH   3   4
ENDBRANCH   2   3
ENDBRANCH   1   2
BRANCH   1  25
ATOM     25  O   UNL A   1      33.330  33.506  27.971  1.00  0.00    -0.376 OA
BRANCH  25  26
ATOM     26  C   UNL A   1      33.691  34.861  28.167  1.00  0.00     0.202 C 
BRANCH  26  27
ATOM     27  C   UNL A   1      32.815  35.672  29.123  1.00  0.00     0.261 C 
BRANCH  27  28
ATOM     28  O   UNL A   1      33.508  36.059  30.325  1.00  0.00    -0.460 OA
BRANCH  28  29
ATOM     29  C   UNL A   1      33.313  35.272  31.411  1.00  0.00     0.338 C 
ATOM     30  O   UNL A   1      32.293  35.174  32.072  1.00  0.00    -0.246 OA
BRANCH  29  31
ATOM     31  C   UNL A   1      34.483  34.389  31.608  1.00  0.00     0.060 A 
ATOM     32  C   UNL A   1      34.324  33.254  32.418  1.00  0.00     0.016 A 
ATOM     33  C   UNL A   1      35.725  34.690  31.045  1.00  0.00     0.016 A 
ATOM     34  C   UNL A   1      35.419  32.443  32.706  1.00  0.00     0.010 A 
ATOM     35  C   UNL A   1      36.832  33.897  31.366  1.00  0.00     0.010 A 
ATOM     36  C   UNL A   1      36.689  32.804  32.239  1.00  0.00    -0.014 A 
BRANCH  36  37
ATOM     37  C   UNL A   1      37.872  32.248  32.939  1.00  0.00     0.031 A 
ATOM     38  C   UNL A   1      38.643  31.169  32.221  1.00  0.00     0.074 A 
ATOM     39  C   UNL A   1      38.289  32.712  34.129  1.00  0.00     0.049 A 
ATOM     40  N   UNL A   1      39.751  30.566  32.566  1.00  0.00    -0.248 NA
ATOM     41  C   UNL A   1      38.088  30.713  30.933  1.00  0.00     0.031 C 
ATOM     42  C   UNL A   1      37.652  33.782  34.895  1.00  0.00     0.029 A 
ATOM     43  N   UNL A   1      39.364  32.341  34.897  1.00  0.00    -0.354 N 
ATOM     44  C   UNL A   1      40.024  29.669  31.538  1.00  0.00     0.074 A 
ATOM     45  C   UNL A   1      38.951  29.776  30.577  1.00  0.00     0.031 C 
ATOM     46  C   UNL A   1      38.353  33.981  36.027  1.00  0.00     0.029 A 
ATOM     47  C   UNL A   1      39.473  33.042  36.074  1.00  0.00     0.049 A 
ATOM     48  H   UNL A   1      39.998  31.637  34.630  1.00  0.00     0.167 HD
ATOM     49  C   UNL A   1      41.078  28.833  31.401  1.00  0.00     0.031 A 
ATOM     50  C   UNL A   1      40.376  32.932  37.070  1.00  0.00     0.031 A 
ATOM     51  C   UNL A   1      42.123  28.702  32.377  1.00  0.00     0.049 A 
ATOM     52  C   UNL A   1      41.503  31.936  36.931  1.00  0.00     0.074 A 
ATOM     53  C   UNL A   1      43.240  27.888  32.340  1.00  0.00     0.029 A 
ATOM     54  N   UNL A   1      42.168  29.394  33.579  1.00  0.00    -0.354 N 
ATOM     55  N   UNL A   1      41.772  31.122  35.935  1.00  0.00    -0.248 NA
ATOM     56  C   UNL A   1      42.461  31.859  38.043  1.00  0.00     0.031 C 
ATOM     57  C   UNL A   1      43.924  28.036  33.551  1.00  0.00     0.029 A 
ATOM     58  C   UNL A   1      43.279  29.005  34.305  1.00  0.00     0.049 A 
ATOM     59  H   UNL A   1      41.508  30.063  33.872  1.00  0.00     0.167 HD
ATOM     60  C   UNL A   1      42.954  30.472  36.282  1.00  0.00     0.074 A 
ATOM     61  C   UNL A   1      43.351  30.995  37.573  1.00  0.00     0.031 C 
ATOM     62  C   UNL A   1      43.657  29.538  35.591  1.00  0.00     0.031 A 
BRANCH  49  63
ATOM     63  C   UNL A   1      41.115  27.961  30.173  1.00  0.00    -0.014 A 
ATOM     64  C   UNL A   1      40.030  27.137  29.822  1.00  0.00     0.010 A 
ATOM     65  C   UNL A   1      42.256  27.975  29.348  1.00  0.00     0.010 A 
ATOM     66  C   UNL A   1      40.100  26.315  28.693  1.00  0.00     0.020 A 
ATOM     67  C   UNL A   1      42.317  27.181  28.201  1.00  0.00     0.020 A 
ATOM     68  C   UNL A   1      41.244  26.344  27.890  1.00  0.00     0.054 A 
BRANCH  68  69
ATOM     69  S   UNL A   1      41.299  25.286  26.417  1.00  0.00     0.124 S 
ATOM     70  O   UNL A   1      42.626  24.685  26.525  1.00  0.00    -0.237 OA
ATOM     71  O   UNL A   1      40.178  24.377  26.636  1.00  0.00    -0.237 OA
ATOM     72  O   UNL A   1      41.130  26.224  25.310  1.00  0.00    -0.744 OA
ENDBRANCH  68  69
ENDBRANCH  49  63
BRANCH  50  73
ATOM     73  C   UNL A   1      40.267  33.791  38.285  1.00  0.00    -0.014 A 
ATOM     74  C   UNL A   1      41.025  34.969  38.409  1.00  0.00     0.010 A 
ATOM     75  C   UNL A   1      39.413  33.419  39.340  1.00  0.00     0.010 A 
ATOM     76  C   UNL A   1      40.951  35.744  39.573  1.00  0.00     0.020 A 
ATOM     77  C   UNL A   1      39.312  34.207  40.491  1.00  0.00     0.020 A 
ATOM     78  C   UNL A   1      40.092  35.359  40.605  1.00  0.00     0.054 A 
BRANCH  78  79
ATOM     79  S   UNL A   1      39.983  36.401  42.088  1.00  0.00     0.124 S 
ATOM     80  O   UNL A   1      41.220  36.068  42.787  1.00  0.00    -0.237 OA
ATOM     81  O   UNL A   1      39.918  37.746  41.522  1.00  0.00    -0.237 OA
ATOM     82  O   UNL A   1      38.756  35.945  42.738  1.00  0.00    -0.744 OA
ENDBRANCH  78  79
ENDBRANCH  50  73
BRANCH  62  83
ATOM     83  C   UNL A   1      44.960  29.064  36.185  1.00  0.00    -0.014 A 
ATOM     84  C   UNL A   1      45.030  27.931  37.015  1.00  0.00     0.010 A 
ATOM     85  C   UNL A   1      46.146  29.750  35.865  1.00  0.00     0.010 A 
ATOM     86  C   UNL A   1      46.254  27.528  37.556  1.00  0.00     0.020 A 
ATOM     87  C   UNL A   1      47.377  29.328  36.372  1.00  0.00     0.020 A 
ATOM     88  C   UNL A   1      47.419  28.231  37.235  1.00  0.00     0.054 A 
BRANCH  88  89
ATOM     89  S   UNL A   1      48.996  27.680  37.940  1.00  0.00     0.124 S 
ATOM     90  O   UNL A   1      48.578  26.561  38.780  1.00  0.00    -0.237 OA
ATOM     91  O   UNL A   1      49.769  27.322  36.753  1.00  0.00    -0.237 OA
ATOM     92  O   UNL A   1      49.482  28.853  38.662  1.00  0.00    -0.744 OA
ENDBRANCH  88  89
ENDBRANCH  62  83
ENDBRANCH  36  37
ENDBRANCH  29  31
ENDBRANCH  28  29
ENDBRANCH  27  28
ENDBRANCH  26  27
ENDBRANCH  25  26
ENDBRANCH   1  25
TORSDOF 21
ENDMDL
