MODEL 1
REMARK VINA RESULT:      -9.0      0.000      0.000
REMARK SMILES CC(C)C[C@H](NC(N)=O)C(=O)N[C@@H](C(=O)OCCOCCOCCOC(=O)c1ccc(-c2c3nc(c(-c4ccc(S(=O)(=O)[O-])cc4)c4ccc([nH]4)c(-c4ccc(S(=O)(=O)[O-])cc4)c4nc(c(-c5ccc(S(=O)(=O)[O-])cc5)c5ccc2[nH]5)C=C4)C=C3)cc1)C(C)C
REMARK SMILES IDX 20 1 19 2 18 3 17 4 16 5 14 6 15 7 13 8 12 9 10 10 11 11
REMARK SMILES IDX 5 13 4 14 2 15 1 16 3 17 6 18 7 19 8 21 9 22 88 25 89 26
REMARK SMILES IDX 90 27 21 28 22 29 23 30 24 31 25 32 26 33 27 34 28 35 29 36
REMARK SMILES IDX 87 37 30 38 86 39 31 40 32 41 33 42 80 43 34 44 85 45 79 46
REMARK SMILES IDX 81 47 35 48 84 49 78 50 77 51 36 53 66 54 47 55 65 56 48 57
REMARK SMILES IDX 51 58 64 59 82 60 49 61 50 62 63 64 83 65 52 66 37 67 38 68
REMARK SMILES IDX 46 69 39 70 45 71 40 72 41 73 42 74 43 75 44 76 67 77 68 78
REMARK SMILES IDX 76 79 69 80 75 81 70 82 71 83 72 84 73 85 74 86 53 87 54 88
REMARK SMILES IDX 62 89 55 90 61 91 56 92 57 93 58 94 59 95 60 96
REMARK H PARENT 12 12 6 20 8 23 8 24 81 52 51 63
REMARK Flexibility Score: inf
ROOT
ATOM      1  C   UNL A   1      38.693  20.540  25.346  1.00  0.00     0.188 C 
ENDROOT
BRANCH   1   2
ATOM      2  O   UNL A   1      37.331  20.510  24.939  1.00  0.00    -0.376 OA
BRANCH   2   3
ATOM      3  C   UNL A   1      36.443  21.508  25.430  1.00  0.00     0.202 C 
BRANCH   3   4
ATOM      4  C   UNL A   1      35.591  22.323  24.436  1.00  0.00     0.261 C 
BRANCH   4   5
ATOM      5  O   UNL A   1      34.962  23.507  24.977  1.00  0.00    -0.462 OA
BRANCH   5   6
ATOM      6  C   UNL A   1      33.752  23.338  25.568  1.00  0.00     0.328 C 
ATOM      7  O   UNL A   1      33.586  22.715  26.611  1.00  0.00    -0.250 OA
BRANCH   6   8
ATOM      8  C   UNL A   1      32.576  24.066  24.856  1.00  0.00     0.194 C 
BRANCH   8   9
ATOM      9  N   UNL A   1      31.451  24.501  25.709  1.00  0.00    -0.341 N 
ATOM     10  C   UNL A   1      30.824  25.693  25.895  1.00  0.00     0.243 C 
ATOM     11  O   UNL A   1      29.766  25.661  26.533  1.00  0.00    -0.273 OA
ATOM     12  H   UNL A   1      31.075  23.774  26.258  1.00  0.00     0.164 HD
BRANCH  10  13
ATOM     13  C   UNL A   1      31.314  26.989  25.240  1.00  0.00     0.173 C 
BRANCH  13  14
ATOM     14  C   UNL A   1      31.857  27.993  26.266  1.00  0.00     0.038 C 
BRANCH  14  15
ATOM     15  C   UNL A   1      33.187  28.654  25.864  1.00  0.00    -0.015 C 
ATOM     16  C   UNL A   1      33.963  29.111  27.097  1.00  0.00     0.007 C 
ATOM     17  C   UNL A   1      34.026  27.659  25.055  1.00  0.00     0.007 C 
ENDBRANCH  14  15
ENDBRANCH  13  14
BRANCH  13  18
ATOM     18  N   UNL A   1      30.243  27.579  24.442  1.00  0.00    -0.327 N 
ATOM     19  C   UNL A   1      30.463  28.009  23.171  1.00  0.00     0.312 C 
ATOM     20  H   UNL A   1      29.343  27.665  24.831  1.00  0.00     0.166 HD
ATOM     21  N   UNL A   1      29.369  28.576  22.613  1.00  0.00    -0.352 N 
ATOM     22  O   UNL A   1      31.522  27.949  22.565  1.00  0.00    -0.249 OA
ATOM     23  H   UNL A   1      28.524  28.615  23.117  1.00  0.00     0.161 HD
ATOM     24  H   UNL A   1      29.418  28.950  21.703  1.00  0.00     0.161 HD
ENDBRANCH  13  18
ENDBRANCH  10  13
ENDBRANCH   8   9
BRANCH   8  25
ATOM     25  C   UNL A   1      32.001  23.232  23.665  1.00  0.00     0.017 C 
ATOM     26  C   UNL A   1      32.056  21.721  23.937  1.00  0.00     0.010 C 
ATOM     27  C   UNL A   1      30.557  23.600  23.311  1.00  0.00     0.010 C 
ENDBRANCH   8  25
ENDBRANCH   6   8
ENDBRANCH   5   6
ENDBRANCH   4   5
ENDBRANCH   3   4
ENDBRANCH   2   3
ENDBRANCH   1   2
BRANCH   1  28
ATOM     28  C   UNL A   1      39.223  21.787  26.072  1.00  0.00     0.188 C 
BRANCH  28  29
ATOM     29  O   UNL A   1      40.128  21.523  27.116  1.00  0.00    -0.376 OA
BRANCH  29  30
ATOM     30  C   UNL A   1      40.836  22.616  27.668  1.00  0.00     0.202 C 
BRANCH  30  31
ATOM     31  C   UNL A   1      41.238  23.782  26.745  1.00  0.00     0.261 C 
BRANCH  31  32
ATOM     32  O   UNL A   1      40.284  24.849  26.587  1.00  0.00    -0.460 OA
BRANCH  32  33
ATOM     33  C   UNL A   1      40.774  26.081  26.317  1.00  0.00     0.338 C 
ATOM     34  O   UNL A   1      41.220  26.465  25.245  1.00  0.00    -0.246 OA
BRANCH  33  35
ATOM     35  C   UNL A   1      40.446  26.974  27.456  1.00  0.00     0.060 A 
ATOM     36  C   UNL A   1      40.982  28.272  27.476  1.00  0.00     0.016 A 
ATOM     37  C   UNL A   1      39.621  26.544  28.497  1.00  0.00     0.016 A 
ATOM     38  C   UNL A   1      40.733  29.123  28.555  1.00  0.00     0.010 A 
ATOM     39  C   UNL A   1      39.392  27.389  29.591  1.00  0.00     0.010 A 
ATOM     40  C   UNL A   1      39.981  28.667  29.646  1.00  0.00    -0.014 A 
BRANCH  40  41
ATOM     41  C   UNL A   1      40.005  29.427  30.924  1.00  0.00     0.031 A 
ATOM     42  C   UNL A   1      41.118  29.139  31.902  1.00  0.00     0.074 A 
ATOM     43  C   UNL A   1      39.095  30.377  31.210  1.00  0.00     0.049 A 
ATOM     44  N   UNL A   1      41.342  29.654  33.084  1.00  0.00    -0.248 NA
ATOM     45  C   UNL A   1      42.110  28.132  31.487  1.00  0.00     0.031 C 
ATOM     46  C   UNL A   1      37.996  30.790  30.339  1.00  0.00     0.029 A 
ATOM     47  N   UNL A   1      38.952  31.165  32.327  1.00  0.00    -0.354 N 
ATOM     48  C   UNL A   1      42.489  29.026  33.559  1.00  0.00     0.074 A 
ATOM     49  C   UNL A   1      42.897  28.072  32.550  1.00  0.00     0.031 C 
ATOM     50  C   UNL A   1      37.287  31.751  30.960  1.00  0.00     0.029 A 
ATOM     51  C   UNL A   1      37.860  31.998  32.283  1.00  0.00     0.049 A 
ATOM     52  H   UNL A   1      39.576  31.135  33.089  1.00  0.00     0.167 HD
ATOM     53  C   UNL A   1      43.150  29.226  34.724  1.00  0.00     0.031 A 
ATOM     54  C   UNL A   1      37.367  32.846  33.209  1.00  0.00     0.031 A 
ATOM     55  C   UNL A   1      42.740  30.164  35.734  1.00  0.00     0.049 A 
ATOM     56  C   UNL A   1      38.081  33.004  34.529  1.00  0.00     0.074 A 
ATOM     57  C   UNL A   1      43.354  30.448  36.942  1.00  0.00     0.029 A 
ATOM     58  N   UNL A   1      41.610  30.964  35.664  1.00  0.00    -0.354 N 
ATOM     59  N   UNL A   1      39.178  32.420  34.952  1.00  0.00    -0.248 NA
ATOM     60  C   UNL A   1      37.498  33.950  35.491  1.00  0.00     0.031 C 
ATOM     61  C   UNL A   1      42.559  31.371  37.630  1.00  0.00     0.029 A 
ATOM     62  C   UNL A   1      41.494  31.723  36.817  1.00  0.00     0.049 A 
ATOM     63  H   UNL A   1      40.983  30.991  34.904  1.00  0.00     0.167 HD
ATOM     64  C   UNL A   1      39.435  32.957  36.212  1.00  0.00     0.074 A 
ATOM     65  C   UNL A   1      38.389  33.924  36.473  1.00  0.00     0.031 C 
ATOM     66  C   UNL A   1      40.448  32.681  37.071  1.00  0.00     0.031 A 
BRANCH  53  67
ATOM     67  C   UNL A   1      44.369  28.380  34.987  1.00  0.00    -0.014 A 
ATOM     68  C   UNL A   1      44.450  27.535  36.109  1.00  0.00     0.010 A 
ATOM     69  C   UNL A   1      45.436  28.399  34.069  1.00  0.00     0.010 A 
ATOM     70  C   UNL A   1      45.588  26.753  36.326  1.00  0.00     0.020 A 
ATOM     71  C   UNL A   1      46.562  27.596  34.265  1.00  0.00     0.020 A 
ATOM     72  C   UNL A   1      46.637  26.788  35.401  1.00  0.00     0.054 A 
BRANCH  72  73
ATOM     73  S   UNL A   1      48.086  25.738  35.690  1.00  0.00     0.124 S 
ATOM     74  O   UNL A   1      49.071  26.706  36.163  1.00  0.00    -0.237 OA
ATOM     75  O   UNL A   1      47.601  24.794  36.694  1.00  0.00    -0.237 OA
ATOM     76  O   UNL A   1      48.364  25.158  34.378  1.00  0.00    -0.744 OA
ENDBRANCH  72  73
ENDBRANCH  53  67
BRANCH  54  77
ATOM     77  C   UNL A   1      36.115  33.610  32.936  1.00  0.00    -0.014 A 
ATOM     78  C   UNL A   1      36.148  34.997  32.709  1.00  0.00     0.010 A 
ATOM     79  C   UNL A   1      34.872  32.950  32.926  1.00  0.00     0.010 A 
ATOM     80  C   UNL A   1      34.964  35.712  32.499  1.00  0.00     0.020 A 
ATOM     81  C   UNL A   1      33.690  33.654  32.683  1.00  0.00     0.020 A 
ATOM     82  C   UNL A   1      33.741  35.035  32.484  1.00  0.00     0.054 A 
BRANCH  82  83
ATOM     83  S   UNL A   1      32.223  35.973  32.159  1.00  0.00     0.124 S 
ATOM     84  O   UNL A   1      32.366  37.106  33.068  1.00  0.00    -0.237 OA
ATOM     85  O   UNL A   1      32.346  36.283  30.737  1.00  0.00    -0.237 OA
ATOM     86  O   UNL A   1      31.160  35.031  32.494  1.00  0.00    -0.744 OA
ENDBRANCH  82  83
ENDBRANCH  54  77
BRANCH  66  87
ATOM     87  C   UNL A   1      40.510  33.473  38.356  1.00  0.00    -0.014 A 
ATOM     88  C   UNL A   1      39.881  33.030  39.533  1.00  0.00     0.010 A 
ATOM     89  C   UNL A   1      41.237  34.679  38.385  1.00  0.00     0.010 A 
ATOM     90  C   UNL A   1      39.926  33.806  40.695  1.00  0.00     0.020 A 
ATOM     91  C   UNL A   1      41.316  35.439  39.555  1.00  0.00     0.020 A 
ATOM     92  C   UNL A   1      40.640  35.009  40.697  1.00  0.00     0.054 A 
BRANCH  92  93
ATOM     93  S   UNL A   1      40.684  35.998  42.216  1.00  0.00     0.124 S 
ATOM     94  O   UNL A   1      41.913  36.769  42.041  1.00  0.00    -0.237 OA
ATOM     95  O   UNL A   1      39.444  36.767  42.135  1.00  0.00    -0.237 OA
ATOM     96  O   UNL A   1      40.724  34.999  43.281  1.00  0.00    -0.744 OA
ENDBRANCH  92  93
ENDBRANCH  66  87
ENDBRANCH  40  41
ENDBRANCH  33  35
ENDBRANCH  32  33
ENDBRANCH  31  32
ENDBRANCH  30  31
ENDBRANCH  29  30
ENDBRANCH  28  29
ENDBRANCH   1  28
TORSDOF 26
ENDMDL
MODEL 2
REMARK VINA RESULT:      -7.6      7.298     10.364
REMARK SMILES CC(C)C[C@H](NC(N)=O)C(=O)N[C@@H](C(=O)OCCOCCOCCOC(=O)c1ccc(-c2c3nc(c(-c4ccc(S(=O)(=O)[O-])cc4)c4ccc([nH]4)c(-c4ccc(S(=O)(=O)[O-])cc4)c4nc(c(-c5ccc(S(=O)(=O)[O-])cc5)c5ccc2[nH]5)C=C4)C=C3)cc1)C(C)C
REMARK SMILES IDX 20 1 19 2 18 3 17 4 16 5 14 6 15 7 13 8 12 9 10 10 11 11
REMARK SMILES IDX 5 13 4 14 2 15 1 16 3 17 6 18 7 19 8 21 9 22 88 25 89 26
REMARK SMILES IDX 90 27 21 28 22 29 23 30 24 31 25 32 26 33 27 34 28 35 29 36
REMARK SMILES IDX 87 37 30 38 86 39 31 40 32 41 33 42 80 43 34 44 85 45 79 46
REMARK SMILES IDX 81 47 35 48 84 49 78 50 77 51 36 53 66 54 47 55 65 56 48 57
REMARK SMILES IDX 51 58 64 59 82 60 49 61 50 62 63 64 83 65 52 66 37 67 38 68
REMARK SMILES IDX 46 69 39 70 45 71 40 72 41 73 42 74 43 75 44 76 67 77 68 78
REMARK SMILES IDX 76 79 69 80 75 81 70 82 71 83 72 84 73 85 74 86 53 87 54 88
REMARK SMILES IDX 62 89 55 90 61 91 56 92 57 93 58 94 59 95 60 96
REMARK H PARENT 12 12 6 20 8 23 8 24 81 52 51 63
REMARK Flexibility Score: inf
ROOT
ATOM      1  C   UNL A   1      38.032  22.410  25.633  1.00  0.00     0.188 C 
ENDROOT
BRANCH   1   2
ATOM      2  O   UNL A   1      36.631  22.648  25.612  1.00  0.00    -0.376 OA
BRANCH   2   3
ATOM      3  C   UNL A   1      36.162  23.972  25.376  1.00  0.00     0.202 C 
BRANCH   3   4
ATOM      4  C   UNL A   1      34.661  24.287  25.543  1.00  0.00     0.261 C 
BRANCH   4   5
ATOM      5  O   UNL A   1      34.035  23.737  26.724  1.00  0.00    -0.462 OA
BRANCH   5   6
ATOM      6  C   UNL A   1      32.709  23.462  26.638  1.00  0.00     0.328 C 
ATOM      7  O   UNL A   1      32.021  23.123  27.595  1.00  0.00    -0.250 OA
BRANCH   6   8
ATOM      8  C   UNL A   1      32.092  23.680  25.226  1.00  0.00     0.194 C 
BRANCH   8   9
ATOM      9  N   UNL A   1      30.865  24.499  25.157  1.00  0.00    -0.341 N 
ATOM     10  C   UNL A   1      30.614  25.777  24.766  1.00  0.00     0.243 C 
ATOM     11  O   UNL A   1      29.424  26.083  24.631  1.00  0.00    -0.273 OA
ATOM     12  H   UNL A   1      30.059  24.019  25.457  1.00  0.00     0.164 HD
BRANCH  10  13
ATOM     13  C   UNL A   1      31.731  26.750  24.376  1.00  0.00     0.173 C 
BRANCH  13  14
ATOM     14  C   UNL A   1      32.514  27.259  25.594  1.00  0.00     0.038 C 
BRANCH  14  15
ATOM     15  C   UNL A   1      31.858  28.447  26.319  1.00  0.00    -0.015 C 
ATOM     16  C   UNL A   1      31.583  28.107  27.782  1.00  0.00     0.007 C 
ATOM     17  C   UNL A   1      32.779  29.669  26.229  1.00  0.00     0.007 C 
ENDBRANCH  14  15
ENDBRANCH  13  14
BRANCH  13  18
ATOM     18  N   UNL A   1      31.177  27.860  23.605  1.00  0.00    -0.327 N 
ATOM     19  C   UNL A   1      31.916  28.505  22.663  1.00  0.00     0.312 C 
ATOM     20  H   UNL A   1      30.250  28.147  23.771  1.00  0.00     0.166 HD
ATOM     21  N   UNL A   1      31.254  29.539  22.095  1.00  0.00    -0.352 N 
ATOM     22  O   UNL A   1      33.067  28.244  22.349  1.00  0.00    -0.249 OA
ATOM     23  H   UNL A   1      30.326  29.734  22.360  1.00  0.00     0.161 HD
ATOM     24  H   UNL A   1      31.700  30.097  21.418  1.00  0.00     0.161 HD
ENDBRANCH  13  18
ENDBRANCH  10  13
ENDBRANCH   8   9
BRANCH   8  25
ATOM     25  C   UNL A   1      31.829  22.329  24.484  1.00  0.00     0.017 C 
ATOM     26  C   UNL A   1      31.993  22.463  22.962  1.00  0.00     0.010 C 
ATOM     27  C   UNL A   1      32.735  21.190  24.962  1.00  0.00     0.010 C 
ENDBRANCH   8  25
ENDBRANCH   6   8
ENDBRANCH   5   6
ENDBRANCH   4   5
ENDBRANCH   3   4
ENDBRANCH   2   3
ENDBRANCH   1   2
BRANCH   1  28
ATOM     28  C   UNL A   1      38.934  23.355  26.443  1.00  0.00     0.188 C 
BRANCH  28  29
ATOM     29  O   UNL A   1      39.708  22.728  27.437  1.00  0.00    -0.376 OA
BRANCH  29  30
ATOM     30  C   UNL A   1      41.101  22.623  27.220  1.00  0.00     0.202 C 
BRANCH  30  31
ATOM     31  C   UNL A   1      41.640  21.424  26.417  1.00  0.00     0.261 C 
BRANCH  31  32
ATOM     32  O   UNL A   1      42.371  21.721  25.212  1.00  0.00    -0.460 OA
BRANCH  32  33
ATOM     33  C   UNL A   1      43.675  21.363  25.178  1.00  0.00     0.338 C 
ATOM     34  O   UNL A   1      44.121  20.280  24.825  1.00  0.00    -0.246 OA
BRANCH  33  35
ATOM     35  C   UNL A   1      44.499  22.580  25.388  1.00  0.00     0.060 A 
ATOM     36  C   UNL A   1      45.792  22.440  25.917  1.00  0.00     0.016 A 
ATOM     37  C   UNL A   1      44.008  23.848  25.070  1.00  0.00     0.016 A 
ATOM     38  C   UNL A   1      46.577  23.567  26.171  1.00  0.00     0.010 A 
ATOM     39  C   UNL A   1      44.786  24.979  25.349  1.00  0.00     0.010 A 
ATOM     40  C   UNL A   1      46.058  24.848  25.940  1.00  0.00    -0.014 A 
BRANCH  40  41
ATOM     41  C   UNL A   1      46.740  26.034  26.524  1.00  0.00     0.031 A 
ATOM     42  C   UNL A   1      47.970  26.562  25.827  1.00  0.00     0.074 A 
ATOM     43  C   UNL A   1      46.274  26.659  27.621  1.00  0.00     0.049 A 
ATOM     44  N   UNL A   1      48.745  27.564  26.153  1.00  0.00    -0.248 NA
ATOM     45  C   UNL A   1      48.378  25.861  24.598  1.00  0.00     0.031 C 
ATOM     46  C   UNL A   1      45.073  26.286  28.366  1.00  0.00     0.029 A 
ATOM     47  N   UNL A   1      46.768  27.746  28.303  1.00  0.00    -0.354 N 
ATOM     48  C   UNL A   1      49.737  27.606  25.179  1.00  0.00     0.074 A 
ATOM     49  C   UNL A   1      49.483  26.511  24.268  1.00  0.00     0.031 C 
ATOM     50  C   UNL A   1      44.928  27.126  29.408  1.00  0.00     0.029 A 
ATOM     51  C   UNL A   1      46.042  28.075  29.423  1.00  0.00     0.049 A 
ATOM     52  H   UNL A   1      47.568  28.243  28.014  1.00  0.00     0.167 HD
ATOM     53  C   UNL A   1      50.766  28.478  25.047  1.00  0.00     0.031 A 
ATOM     54  C   UNL A   1      46.261  29.018  30.362  1.00  0.00     0.031 A 
ATOM     55  C   UNL A   1      51.029  29.560  25.957  1.00  0.00     0.049 A 
ATOM     56  C   UNL A   1      47.451  29.937  30.232  1.00  0.00     0.074 A 
ATOM     57  C   UNL A   1      52.039  30.505  25.898  1.00  0.00     0.029 A 
ATOM     58  N   UNL A   1      50.289  29.838  27.095  1.00  0.00    -0.354 N 
ATOM     59  N   UNL A   1      48.367  29.978  29.292  1.00  0.00    -0.248 NA
ATOM     60  C   UNL A   1      47.628  30.948  31.284  1.00  0.00     0.031 C 
ATOM     61  C   UNL A   1      51.948  31.313  27.035  1.00  0.00     0.029 A 
ATOM     62  C   UNL A   1      50.834  30.923  27.761  1.00  0.00     0.049 A 
ATOM     63  H   UNL A   1      49.492  29.339  27.387  1.00  0.00     0.167 HD
ATOM     64  C   UNL A   1      49.203  31.042  29.620  1.00  0.00     0.074 A 
ATOM     65  C   UNL A   1      48.675  31.627  30.835  1.00  0.00     0.031 C 
ATOM     66  C   UNL A   1      50.304  31.499  28.972  1.00  0.00     0.031 A 
BRANCH  53  67
ATOM     67  C   UNL A   1      51.711  28.270  23.891  1.00  0.00    -0.014 A 
ATOM     68  C   UNL A   1      51.455  28.822  22.623  1.00  0.00     0.010 A 
ATOM     69  C   UNL A   1      52.900  27.543  24.092  1.00  0.00     0.010 A 
ATOM     70  C   UNL A   1      52.352  28.622  21.570  1.00  0.00     0.020 A 
ATOM     71  C   UNL A   1      53.814  27.367  23.051  1.00  0.00     0.020 A 
ATOM     72  C   UNL A   1      53.527  27.896  21.792  1.00  0.00     0.054 A 
BRANCH  72  73
ATOM     73  S   UNL A   1      54.689  27.682  20.416  1.00  0.00     0.124 S 
ATOM     74  O   UNL A   1      53.871  28.061  19.268  1.00  0.00    -0.237 OA
ATOM     75  O   UNL A   1      55.762  28.613  20.757  1.00  0.00    -0.237 OA
ATOM     76  O   UNL A   1      55.051  26.268  20.483  1.00  0.00    -0.744 OA
ENDBRANCH  72  73
ENDBRANCH  53  67
BRANCH  54  77
ATOM     77  C   UNL A   1      45.340  29.141  31.530  1.00  0.00    -0.014 A 
ATOM     78  C   UNL A   1      44.244  30.021  31.499  1.00  0.00     0.010 A 
ATOM     79  C   UNL A   1      45.576  28.390  32.697  1.00  0.00     0.010 A 
ATOM     80  C   UNL A   1      43.413  30.162  32.616  1.00  0.00     0.020 A 
ATOM     81  C   UNL A   1      44.730  28.504  33.803  1.00  0.00     0.020 A 
ATOM     82  C   UNL A   1      43.660  29.400  33.761  1.00  0.00     0.054 A 
BRANCH  82  83
ATOM     83  S   UNL A   1      42.541  29.563  35.179  1.00  0.00     0.124 S 
ATOM     84  O   UNL A   1      41.390  28.776  34.751  1.00  0.00    -0.237 OA
ATOM     85  O   UNL A   1      43.331  28.990  36.267  1.00  0.00    -0.237 OA
ATOM     86  O   UNL A   1      42.316  31.003  35.274  1.00  0.00    -0.744 OA
ENDBRANCH  82  83
ENDBRANCH  54  77
BRANCH  66  87
ATOM     87  C   UNL A   1      50.985  32.726  29.530  1.00  0.00    -0.014 A 
ATOM     88  C   UNL A   1      52.029  32.635  30.468  1.00  0.00     0.010 A 
ATOM     89  C   UNL A   1      50.581  34.000  29.084  1.00  0.00     0.010 A 
ATOM     90  C   UNL A   1      52.613  33.792  30.993  1.00  0.00     0.020 A 
ATOM     91  C   UNL A   1      51.187  35.157  29.578  1.00  0.00     0.020 A 
ATOM     92  C   UNL A   1      52.184  35.047  30.548  1.00  0.00     0.054 A 
BRANCH  92  93
ATOM     93  S   UNL A   1      52.956  36.533  31.244  1.00  0.00     0.124 S 
ATOM     94  O   UNL A   1      53.755  37.015  30.119  1.00  0.00    -0.237 OA
ATOM     95  O   UNL A   1      51.803  37.359  31.594  1.00  0.00    -0.237 OA
ATOM     96  O   UNL A   1      53.722  36.028  32.379  1.00  0.00    -0.744 OA
ENDBRANCH  92  93
ENDBRANCH  66  87
ENDBRANCH  40  41
ENDBRANCH  33  35
ENDBRANCH  32  33
ENDBRANCH  31  32
ENDBRANCH  30  31
ENDBRANCH  29  30
ENDBRANCH  28  29
ENDBRANCH   1  28
TORSDOF 26
ENDMDL
MODEL 3
REMARK VINA RESULT:      -7.6      4.655      8.680
REMARK SMILES CC(C)C[C@H](NC(N)=O)C(=O)N[C@@H](C(=O)OCCOCCOCCOC(=O)c1ccc(-c2c3nc(c(-c4ccc(S(=O)(=O)[O-])cc4)c4ccc([nH]4)c(-c4ccc(S(=O)(=O)[O-])cc4)c4nc(c(-c5ccc(S(=O)(=O)[O-])cc5)c5ccc2[nH]5)C=C4)C=C3)cc1)C(C)C
REMARK SMILES IDX 20 1 19 2 18 3 17 4 16 5 14 6 15 7 13 8 12 9 10 10 11 11
REMARK SMILES IDX 5 13 4 14 2 15 1 16 3 17 6 18 7 19 8 21 9 22 88 25 89 26
REMARK SMILES IDX 90 27 21 28 22 29 23 30 24 31 25 32 26 33 27 34 28 35 29 36
REMARK SMILES IDX 87 37 30 38 86 39 31 40 32 41 33 42 80 43 34 44 85 45 79 46
REMARK SMILES IDX 81 47 35 48 84 49 78 50 77 51 36 53 66 54 47 55 65 56 48 57
REMARK SMILES IDX 51 58 64 59 82 60 49 61 50 62 63 64 83 65 52 66 37 67 38 68
REMARK SMILES IDX 46 69 39 70 45 71 40 72 41 73 42 74 43 75 44 76 67 77 68 78
REMARK SMILES IDX 76 79 69 80 75 81 70 82 71 83 72 84 73 85 74 86 53 87 54 88
REMARK SMILES IDX 62 89 55 90 61 91 56 92 57 93 58 94 59 95 60 96
REMARK H PARENT 12 12 6 20 8 23 8 24 81 52 51 63
REMARK Flexibility Score: inf
ROOT
ATOM      1  C   UNL A   1      38.124  21.858  25.632  1.00  0.00     0.188 C 
ENDROOT
BRANCH   1   2
ATOM      2  O   UNL A   1      36.826  22.369  25.356  1.00  0.00    -0.376 OA
BRANCH   2   3
ATOM      3  C   UNL A   1      36.480  23.664  25.836  1.00  0.00     0.202 C 
BRANCH   3   4
ATOM      4  C   UNL A   1      34.994  24.054  25.966  1.00  0.00     0.261 C 
BRANCH   4   5
ATOM      5  O   UNL A   1      34.231  23.293  26.930  1.00  0.00    -0.462 OA
BRANCH   5   6
ATOM      6  C   UNL A   1      32.895  23.200  26.712  1.00  0.00     0.328 C 
ATOM      7  O   UNL A   1      32.088  22.854  27.568  1.00  0.00    -0.250 OA
BRANCH   6   8
ATOM      8  C   UNL A   1      32.437  23.642  25.291  1.00  0.00     0.194 C 
BRANCH   8   9
ATOM      9  N   UNL A   1      31.208  24.459  25.214  1.00  0.00    -0.341 N 
ATOM     10  C   UNL A   1      30.957  25.737  24.825  1.00  0.00     0.243 C 
ATOM     11  O   UNL A   1      29.769  26.041  24.680  1.00  0.00    -0.273 OA
ATOM     12  H   UNL A   1      30.401  23.974  25.504  1.00  0.00     0.164 HD
BRANCH  10  13
ATOM     13  C   UNL A   1      32.076  26.716  24.452  1.00  0.00     0.173 C 
BRANCH  13  14
ATOM     14  C   UNL A   1      32.809  27.264  25.684  1.00  0.00     0.038 C 
BRANCH  14  15
ATOM     15  C   UNL A   1      32.141  28.493  26.324  1.00  0.00    -0.015 C 
ATOM     16  C   UNL A   1      31.636  28.168  27.728  1.00  0.00     0.007 C 
ATOM     17  C   UNL A   1      33.148  29.646  26.383  1.00  0.00     0.007 C 
ENDBRANCH  14  15
ENDBRANCH  13  14
BRANCH  13  18
ATOM     18  N   UNL A   1      31.536  27.799  23.635  1.00  0.00    -0.327 N 
ATOM     19  C   UNL A   1      32.299  28.428  22.700  1.00  0.00     0.312 C 
ATOM     20  H   UNL A   1      30.601  28.080  23.762  1.00  0.00     0.166 HD
ATOM     21  N   UNL A   1      31.645  29.439  22.085  1.00  0.00    -0.352 N 
ATOM     22  O   UNL A   1      33.462  28.172  22.432  1.00  0.00    -0.249 OA
ATOM     23  H   UNL A   1      30.707  29.631  22.315  1.00  0.00     0.161 HD
ATOM     24  H   UNL A   1      32.107  29.985  21.409  1.00  0.00     0.161 HD
ENDBRANCH  13  18
ENDBRANCH  10  13
ENDBRANCH   8   9
BRANCH   8  25
ATOM     25  C   UNL A   1      32.289  22.430  24.316  1.00  0.00     0.017 C 
ATOM     26  C   UNL A   1      32.730  22.779  22.887  1.00  0.00     0.010 C 
ATOM     27  C   UNL A   1      33.073  21.193  24.767  1.00  0.00     0.010 C 
ENDBRANCH   8  25
ENDBRANCH   6   8
ENDBRANCH   5   6
ENDBRANCH   4   5
ENDBRANCH   3   4
ENDBRANCH   2   3
ENDBRANCH   1   2
BRANCH   1  28
ATOM     28  C   UNL A   1      39.158  22.778  26.301  1.00  0.00     0.188 C 
BRANCH  28  29
ATOM     29  O   UNL A   1      39.835  22.210  27.395  1.00  0.00    -0.376 OA
BRANCH  29  30
ATOM     30  C   UNL A   1      41.232  22.021  27.281  1.00  0.00     0.202 C 
BRANCH  30  31
ATOM     31  C   UNL A   1      41.890  22.166  25.895  1.00  0.00     0.261 C 
BRANCH  31  32
ATOM     32  O   UNL A   1      42.128  23.505  25.422  1.00  0.00    -0.460 OA
BRANCH  32  33
ATOM     33  C   UNL A   1      43.411  23.934  25.402  1.00  0.00     0.338 C 
ATOM     34  O   UNL A   1      44.222  23.755  24.505  1.00  0.00    -0.246 OA
BRANCH  33  35
ATOM     35  C   UNL A   1      43.603  24.882  26.528  1.00  0.00     0.060 A 
ATOM     36  C   UNL A   1      44.906  25.292  26.853  1.00  0.00     0.016 A 
ATOM     37  C   UNL A   1      42.517  25.364  27.260  1.00  0.00     0.016 A 
ATOM     38  C   UNL A   1      45.128  26.147  27.936  1.00  0.00     0.010 A 
ATOM     39  C   UNL A   1      42.743  26.201  28.362  1.00  0.00     0.010 A 
ATOM     40  C   UNL A   1      44.052  26.563  28.731  1.00  0.00    -0.014 A 
BRANCH  40  41
ATOM     41  C   UNL A   1      44.315  27.173  30.062  1.00  0.00     0.031 A 
ATOM     42  C   UNL A   1      44.222  28.674  30.187  1.00  0.00     0.074 A 
ATOM     43  C   UNL A   1      44.594  26.429  31.148  1.00  0.00     0.049 A 
ATOM     44  N   UNL A   1      44.427  29.436  31.230  1.00  0.00    -0.248 NA
ATOM     45  C   UNL A   1      43.850  29.411  28.968  1.00  0.00     0.031 C 
ATOM     46  C   UNL A   1      44.669  24.969  31.181  1.00  0.00     0.029 A 
ATOM     47  N   UNL A   1      44.872  26.808  32.440  1.00  0.00    -0.354 N 
ATOM     48  C   UNL A   1      44.221  30.740  30.792  1.00  0.00     0.074 A 
ATOM     49  C   UNL A   1      43.906  30.667  29.382  1.00  0.00     0.031 C 
ATOM     50  C   UNL A   1      44.981  24.578  32.431  1.00  0.00     0.029 A 
ATOM     51  C   UNL A   1      45.161  25.758  33.277  1.00  0.00     0.049 A 
ATOM     52  H   UNL A   1      44.864  27.747  32.737  1.00  0.00     0.167 HD
ATOM     53  C   UNL A   1      44.282  31.896  31.496  1.00  0.00     0.031 A 
ATOM     54  C   UNL A   1      45.545  25.748  34.570  1.00  0.00     0.031 A 
ATOM     55  C   UNL A   1      44.608  31.973  32.895  1.00  0.00     0.049 A 
ATOM     56  C   UNL A   1      45.673  27.053  35.318  1.00  0.00     0.074 A 
ATOM     57  C   UNL A   1      44.680  33.098  33.698  1.00  0.00     0.029 A 
ATOM     58  N   UNL A   1      44.925  30.889  33.697  1.00  0.00    -0.354 N 
ATOM     59  N   UNL A   1      45.451  28.276  34.895  1.00  0.00    -0.248 NA
ATOM     60  C   UNL A   1      46.087  26.973  36.727  1.00  0.00     0.031 C 
ATOM     61  C   UNL A   1      45.105  32.700  34.970  1.00  0.00     0.029 A 
ATOM     62  C   UNL A   1      45.219  31.319  34.981  1.00  0.00     0.049 A 
ATOM     63  H   UNL A   1      44.937  29.950  33.400  1.00  0.00     0.167 HD
ATOM     64  C   UNL A   1      45.662  29.104  35.994  1.00  0.00     0.074 A 
ATOM     65  C   UNL A   1      46.011  28.242  37.104  1.00  0.00     0.031 C 
ATOM     66  C   UNL A   1      45.569  30.455  36.080  1.00  0.00     0.031 A 
BRANCH  53  67
ATOM     67  C   UNL A   1      44.029  33.180  30.749  1.00  0.00    -0.014 A 
ATOM     68  C   UNL A   1      42.736  33.718  30.627  1.00  0.00     0.010 A 
ATOM     69  C   UNL A   1      45.116  33.884  30.196  1.00  0.00     0.010 A 
ATOM     70  C   UNL A   1      42.529  34.916  29.936  1.00  0.00     0.020 A 
ATOM     71  C   UNL A   1      44.918  35.098  29.533  1.00  0.00     0.020 A 
ATOM     72  C   UNL A   1      43.622  35.598  29.395  1.00  0.00     0.054 A 
BRANCH  72  73
ATOM     73  S   UNL A   1      43.329  37.167  28.534  1.00  0.00     0.124 S 
ATOM     74  O   UNL A   1      41.896  37.098  28.261  1.00  0.00    -0.237 OA
ATOM     75  O   UNL A   1      43.731  38.157  29.530  1.00  0.00    -0.237 OA
ATOM     76  O   UNL A   1      44.192  37.086  27.357  1.00  0.00    -0.744 OA
ENDBRANCH  72  73
ENDBRANCH  53  67
BRANCH  54  77
ATOM     77  C   UNL A   1      45.857  24.458  35.251  1.00  0.00    -0.014 A 
ATOM     78  C   UNL A   1      44.862  23.744  35.942  1.00  0.00     0.010 A 
ATOM     79  C   UNL A   1      47.169  23.948  35.230  1.00  0.00     0.010 A 
ATOM     80  C   UNL A   1      45.175  22.558  36.615  1.00  0.00     0.020 A 
ATOM     81  C   UNL A   1      47.479  22.747  35.874  1.00  0.00     0.020 A 
ATOM     82  C   UNL A   1      46.482  22.065  36.574  1.00  0.00     0.054 A 
BRANCH  82  83
ATOM     83  S   UNL A   1      46.855  20.499  37.412  1.00  0.00     0.124 S 
ATOM     84  O   UNL A   1      46.291  19.519  36.490  1.00  0.00    -0.237 OA
ATOM     85  O   UNL A   1      48.313  20.528  37.492  1.00  0.00    -0.237 OA
ATOM     86  O   UNL A   1      46.165  20.625  38.693  1.00  0.00    -0.744 OA
ENDBRANCH  82  83
ENDBRANCH  54  77
BRANCH  66  87
ATOM     87  C   UNL A   1      45.794  31.087  37.434  1.00  0.00    -0.014 A 
ATOM     88  C   UNL A   1      47.061  31.540  37.841  1.00  0.00     0.010 A 
ATOM     89  C   UNL A   1      44.700  31.249  38.307  1.00  0.00     0.010 A 
ATOM     90  C   UNL A   1      47.243  32.086  39.115  1.00  0.00     0.020 A 
ATOM     91  C   UNL A   1      44.870  31.828  39.567  1.00  0.00     0.020 A 
ATOM     92  C   UNL A   1      46.145  32.221  39.973  1.00  0.00     0.054 A 
BRANCH  92  93
ATOM     93  S   UNL A   1      46.405  32.932  41.621  1.00  0.00     0.124 S 
ATOM     94  O   UNL A   1      45.766  34.240  41.492  1.00  0.00    -0.237 OA
ATOM     95  O   UNL A   1      45.720  31.981  42.493  1.00  0.00    -0.237 OA
ATOM     96  O   UNL A   1      47.859  32.963  41.761  1.00  0.00    -0.744 OA
ENDBRANCH  92  93
ENDBRANCH  66  87
ENDBRANCH  40  41
ENDBRANCH  33  35
ENDBRANCH  32  33
ENDBRANCH  31  32
ENDBRANCH  30  31
ENDBRANCH  29  30
ENDBRANCH  28  29
ENDBRANCH   1  28
TORSDOF 26
ENDMDL
