MODEL 1
REMARK VINA RESULT:      -9.1      0.000      0.000
REMARK SMILES C[C@@H](C(=O)OCCOCCOCCOC(=O)c1ccc(-c2c3nc(c(-c4ccc(S(=O)(=O)[O-])cc4)c4ccc([nH]4)c(-c4ccc(S(=O)(=O)[O-])cc4)c4nc(c(-c5ccc(S(=O)(=O)[O-])cc5)c5ccc2[nH]5)C=C4)C=C3)cc1)c1ccc(C[C@H]2CCCC2=O)cc1Cl
REMARK SMILES IDX 9 1 8 2 7 3 6 4 5 5 3 6 4 7 2 8 1 9 77 10 78 11 89 12 79 13
REMARK SMILES IDX 88 14 90 15 80 16 81 17 82 18 83 19 86 20 84 21 85 22 87 23
REMARK SMILES IDX 10 24 11 25 12 26 13 27 14 28 15 29 16 30 17 31 18 32 76 33
REMARK SMILES IDX 19 34 75 35 20 36 21 37 22 38 69 39 23 40 74 41 68 42 70 43
REMARK SMILES IDX 24 44 73 45 67 46 66 47 25 49 55 50 36 51 54 52 37 53 40 54
REMARK SMILES IDX 53 55 71 56 38 57 39 58 52 60 72 61 41 62 26 63 27 64 35 65
REMARK SMILES IDX 28 66 34 67 29 68 30 69 31 70 32 71 33 72 56 73 57 74 65 75
REMARK SMILES IDX 58 76 64 77 59 78 60 79 61 80 62 81 63 82 42 83 43 84 51 85
REMARK SMILES IDX 44 86 50 87 45 88 46 89 47 90 48 91 49 92
REMARK H PARENT 70 48 40 59
REMARK Flexibility Score: inf
ROOT
ATOM      1  C   UNL A   1      34.325  30.753  27.244  1.00  0.00     0.188 C 
ENDROOT
BRANCH   1   2
ATOM      2  O   UNL A   1      32.950  31.075  27.311  1.00  0.00    -0.376 OA
BRANCH   2   3
ATOM      3  C   UNL A   1      32.008  30.058  27.009  1.00  0.00     0.202 C 
BRANCH   3   4
ATOM      4  C   UNL A   1      32.439  28.880  26.124  1.00  0.00     0.261 C 
BRANCH   4   5
ATOM      5  O   UNL A   1      31.341  28.142  25.558  1.00  0.00    -0.463 OA
BRANCH   5   6
ATOM      6  C   UNL A   1      31.203  28.073  24.210  1.00  0.00     0.313 C 
ATOM      7  O   UNL A   1      31.453  28.999  23.448  1.00  0.00    -0.252 OA
BRANCH   6   8
ATOM      8  C   UNL A   1      30.648  26.720  23.759  1.00  0.00     0.127 C 
ATOM      9  C   UNL A   1      29.302  26.357  24.431  1.00  0.00     0.025 C 
BRANCH   8  10
ATOM     10  C   UNL A   1      31.568  25.492  23.734  1.00  0.00    -0.015 A 
ATOM     11  C   UNL A   1      31.169  24.425  24.572  1.00  0.00     0.006 A 
ATOM     12  C   UNL A   1      32.743  25.287  22.998  1.00  0.00     0.045 A 
ATOM     13  C   UNL A   1      31.919  23.253  24.713  1.00  0.00     0.004 A 
ATOM     14  C   UNL A   1      33.523  24.125  23.192  1.00  0.00     0.024 A 
ATOM     15  Cl  UNL A   1      33.314  26.337  21.754  1.00  0.00    -0.084 Cl
ATOM     16  C   UNL A   1      33.145  23.102  24.073  1.00  0.00    -0.046 A 
BRANCH  16  17
ATOM     17  C   UNL A   1      33.955  21.822  24.141  1.00  0.00     0.047 C 
BRANCH  17  18
ATOM     18  C   UNL A   1      35.234  21.721  24.990  1.00  0.00     0.060 C 
ATOM     19  C   UNL A   1      36.558  21.974  24.266  1.00  0.00     0.012 C 
ATOM     20  C   UNL A   1      35.313  22.723  26.116  1.00  0.00     0.136 C 
ATOM     21  C   UNL A   1      36.892  23.439  24.504  1.00  0.00     0.009 C 
ATOM     22  C   UNL A   1      36.430  23.719  25.928  1.00  0.00     0.076 C 
ATOM     23  O   UNL A   1      34.549  22.747  27.073  1.00  0.00    -0.299 OA
ENDBRANCH  17  18
ENDBRANCH  16  17
ENDBRANCH   8  10
ENDBRANCH   6   8
ENDBRANCH   5   6
ENDBRANCH   4   5
ENDBRANCH   3   4
ENDBRANCH   2   3
ENDBRANCH   1   2
BRANCH   1  24
ATOM     24  C   UNL A   1      35.090  31.085  28.538  1.00  0.00     0.188 C 
BRANCH  24  25
ATOM     25  O   UNL A   1      34.795  32.284  29.239  1.00  0.00    -0.376 OA
BRANCH  25  26
ATOM     26  C   UNL A   1      34.918  32.277  30.655  1.00  0.00     0.202 C 
BRANCH  26  27
ATOM     27  C   UNL A   1      35.763  33.367  31.338  1.00  0.00     0.261 C 
BRANCH  27  28
ATOM     28  O   UNL A   1      37.182  33.119  31.403  1.00  0.00    -0.460 OA
BRANCH  28  29
ATOM     29  C   UNL A   1      37.562  32.047  32.149  1.00  0.00     0.338 C 
ATOM     30  O   UNL A   1      37.064  31.669  33.193  1.00  0.00    -0.246 OA
BRANCH  29  31
ATOM     31  C   UNL A   1      38.597  31.260  31.440  1.00  0.00     0.060 A 
ATOM     32  C   UNL A   1      39.425  30.409  32.186  1.00  0.00     0.016 A 
ATOM     33  C   UNL A   1      38.829  31.436  30.076  1.00  0.00     0.016 A 
ATOM     34  C   UNL A   1      40.491  29.749  31.574  1.00  0.00     0.010 A 
ATOM     35  C   UNL A   1      39.921  30.794  29.471  1.00  0.00     0.010 A 
ATOM     36  C   UNL A   1      40.780  29.971  30.221  1.00  0.00    -0.014 A 
BRANCH  36  37
ATOM     37  C   UNL A   1      42.063  29.486  29.639  1.00  0.00     0.031 A 
ATOM     38  C   UNL A   1      43.248  30.416  29.609  1.00  0.00     0.074 A 
ATOM     39  C   UNL A   1      42.196  28.235  29.161  1.00  0.00     0.049 A 
ATOM     40  N   UNL A   1      44.435  30.229  29.092  1.00  0.00    -0.248 NA
ATOM     41  C   UNL A   1      43.063  31.733  30.236  1.00  0.00     0.031 C 
ATOM     42  C   UNL A   1      41.148  27.220  29.158  1.00  0.00     0.029 A 
ATOM     43  N   UNL A   1      43.277  27.604  28.591  1.00  0.00    -0.354 N 
ATOM     44  C   UNL A   1      45.125  31.421  29.288  1.00  0.00     0.074 A 
ATOM     45  C   UNL A   1      44.224  32.319  29.979  1.00  0.00     0.031 C 
ATOM     46  C   UNL A   1      41.643  26.084  28.635  1.00  0.00     0.029 A 
ATOM     47  C   UNL A   1      43.025  26.306  28.210  1.00  0.00     0.049 A 
ATOM     48  H   UNL A   1      44.150  28.041  28.464  1.00  0.00     0.167 HD
ATOM     49  C   UNL A   1      46.387  31.747  28.913  1.00  0.00     0.031 A 
ATOM     50  C   UNL A   1      43.805  25.409  27.570  1.00  0.00     0.031 A 
ATOM     51  C   UNL A   1      47.280  30.866  28.207  1.00  0.00     0.049 A 
ATOM     52  C   UNL A   1      45.192  25.808  27.125  1.00  0.00     0.074 A 
ATOM     53  C   UNL A   1      48.574  31.117  27.781  1.00  0.00     0.029 A 
ATOM     54  N   UNL A   1      46.975  29.572  27.814  1.00  0.00    -0.354 N 
ATOM     55  N   UNL A   1      45.826  26.940  27.315  1.00  0.00    -0.248 NA
ATOM     56  C   UNL A   1      45.960  24.811  26.362  1.00  0.00     0.031 C 
ATOM     57  C   UNL A   1      49.029  29.996  27.077  1.00  0.00     0.029 A 
ATOM     58  C   UNL A   1      48.047  29.021  27.131  1.00  0.00     0.049 A 
ATOM     59  H   UNL A   1      46.123  29.113  27.993  1.00  0.00     0.167 HD
ATOM     60  C   UNL A   1      47.070  26.787  26.704  1.00  0.00     0.074 A 
ATOM     61  C   UNL A   1      47.109  25.444  26.166  1.00  0.00     0.031 C 
ATOM     62  C   UNL A   1      48.082  27.683  26.593  1.00  0.00     0.031 A 
BRANCH  49  63
ATOM     63  C   UNL A   1      46.854  33.150  29.207  1.00  0.00    -0.014 A 
ATOM     64  C   UNL A   1      46.625  34.205  28.306  1.00  0.00     0.010 A 
ATOM     65  C   UNL A   1      47.511  33.418  30.422  1.00  0.00     0.010 A 
ATOM     66  C   UNL A   1      47.086  35.491  28.594  1.00  0.00     0.020 A 
ATOM     67  C   UNL A   1      47.944  34.711  30.729  1.00  0.00     0.020 A 
ATOM     68  C   UNL A   1      47.747  35.735  29.803  1.00  0.00     0.054 A 
BRANCH  68  69
ATOM     69  S   UNL A   1      48.324  37.418  30.154  1.00  0.00     0.124 S 
ATOM     70  O   UNL A   1      47.068  38.160  30.217  1.00  0.00    -0.237 OA
ATOM     71  O   UNL A   1      49.024  37.257  31.425  1.00  0.00    -0.237 OA
ATOM     72  O   UNL A   1      49.178  37.737  29.012  1.00  0.00    -0.744 OA
ENDBRANCH  68  69
ENDBRANCH  49  63
BRANCH  50  73
ATOM     73  C   UNL A   1      43.285  24.043  27.267  1.00  0.00    -0.014 A 
ATOM     74  C   UNL A   1      43.436  22.994  28.193  1.00  0.00     0.010 A 
ATOM     75  C   UNL A   1      42.646  23.779  26.041  1.00  0.00     0.010 A 
ATOM     76  C   UNL A   1      42.970  21.710  27.894  1.00  0.00     0.020 A 
ATOM     77  C   UNL A   1      42.146  22.506  25.755  1.00  0.00     0.020 A 
ATOM     78  C   UNL A   1      42.322  21.476  26.679  1.00  0.00     0.054 A 
BRANCH  78  79
ATOM     79  S   UNL A   1      41.672  19.817  26.335  1.00  0.00     0.124 S 
ATOM     80  O   UNL A   1      40.274  20.097  26.022  1.00  0.00    -0.237 OA
ATOM     81  O   UNL A   1      42.498  19.381  25.213  1.00  0.00    -0.237 OA
ATOM     82  O   UNL A   1      41.901  19.095  27.585  1.00  0.00    -0.744 OA
ENDBRANCH  78  79
ENDBRANCH  50  73
BRANCH  62  83
ATOM     83  C   UNL A   1      49.343  27.240  25.890  1.00  0.00    -0.014 A 
ATOM     84  C   UNL A   1      49.588  27.564  24.543  1.00  0.00     0.010 A 
ATOM     85  C   UNL A   1      50.330  26.541  26.611  1.00  0.00     0.010 A 
ATOM     86  C   UNL A   1      50.779  27.173  23.924  1.00  0.00     0.020 A 
ATOM     87  C   UNL A   1      51.534  26.173  26.004  1.00  0.00     0.020 A 
ATOM     88  C   UNL A   1      51.746  26.479  24.659  1.00  0.00     0.054 A 
BRANCH  88  89
ATOM     89  S   UNL A   1      53.302  26.022  23.845  1.00  0.00     0.124 S 
ATOM     90  O   UNL A   1      52.902  25.949  22.442  1.00  0.00    -0.237 OA
ATOM     91  O   UNL A   1      54.183  27.135  24.189  1.00  0.00    -0.237 OA
ATOM     92  O   UNL A   1      53.652  24.743  24.459  1.00  0.00    -0.744 OA
ENDBRANCH  88  89
ENDBRANCH  62  83
ENDBRANCH  36  37
ENDBRANCH  29  31
ENDBRANCH  28  29
ENDBRANCH  27  28
ENDBRANCH  26  27
ENDBRANCH  25  26
ENDBRANCH  24  25
ENDBRANCH   1  24
TORSDOF 23
ENDMDL
MODEL 2
REMARK VINA RESULT:      -8.6      2.256      9.027
REMARK SMILES C[C@@H](C(=O)OCCOCCOCCOC(=O)c1ccc(-c2c3nc(c(-c4ccc(S(=O)(=O)[O-])cc4)c4ccc([nH]4)c(-c4ccc(S(=O)(=O)[O-])cc4)c4nc(c(-c5ccc(S(=O)(=O)[O-])cc5)c5ccc2[nH]5)C=C4)C=C3)cc1)c1ccc(C[C@H]2CCCC2=O)cc1Cl
REMARK SMILES IDX 9 1 8 2 7 3 6 4 5 5 3 6 4 7 2 8 1 9 77 10 78 11 89 12 79 13
REMARK SMILES IDX 88 14 90 15 80 16 81 17 82 18 83 19 86 20 84 21 85 22 87 23
REMARK SMILES IDX 10 24 11 25 12 26 13 27 14 28 15 29 16 30 17 31 18 32 76 33
REMARK SMILES IDX 19 34 75 35 20 36 21 37 22 38 69 39 23 40 74 41 68 42 70 43
REMARK SMILES IDX 24 44 73 45 67 46 66 47 25 49 55 50 36 51 54 52 37 53 40 54
REMARK SMILES IDX 53 55 71 56 38 57 39 58 52 60 72 61 41 62 26 63 27 64 35 65
REMARK SMILES IDX 28 66 34 67 29 68 30 69 31 70 32 71 33 72 56 73 57 74 65 75
REMARK SMILES IDX 58 76 64 77 59 78 60 79 61 80 62 81 63 82 42 83 43 84 51 85
REMARK SMILES IDX 44 86 50 87 45 88 46 89 47 90 48 91 49 92
REMARK H PARENT 70 48 40 59
REMARK Flexibility Score: inf
ROOT
ATOM      1  C   UNL A   1      35.318  21.785  26.101  1.00  0.00     0.188 C 
ENDROOT
BRANCH   1   2
ATOM      2  O   UNL A   1      34.470  22.751  25.512  1.00  0.00    -0.376 OA
BRANCH   2   3
ATOM      3  C   UNL A   1      34.220  23.949  26.227  1.00  0.00     0.202 C 
BRANCH   3   4
ATOM      4  C   UNL A   1      32.904  24.095  27.005  1.00  0.00     0.261 C 
BRANCH   4   5
ATOM      5  O   UNL A   1      32.201  22.856  27.202  1.00  0.00    -0.463 OA
BRANCH   5   6
ATOM      6  C   UNL A   1      30.889  22.768  26.866  1.00  0.00     0.313 C 
ATOM      7  O   UNL A   1      29.982  22.635  27.678  1.00  0.00    -0.252 OA
BRANCH   6   8
ATOM      8  C   UNL A   1      30.682  22.798  25.350  1.00  0.00     0.127 C 
ATOM      9  C   UNL A   1      31.656  21.873  24.582  1.00  0.00     0.025 C 
BRANCH   8  10
ATOM     10  C   UNL A   1      30.563  24.147  24.627  1.00  0.00    -0.015 A 
ATOM     11  C   UNL A   1      31.243  24.228  23.391  1.00  0.00     0.006 A 
ATOM     12  C   UNL A   1      29.874  25.301  25.026  1.00  0.00     0.045 A 
ATOM     13  C   UNL A   1      31.285  25.400  22.626  1.00  0.00     0.004 A 
ATOM     14  C   UNL A   1      29.972  26.494  24.277  1.00  0.00     0.024 A 
ATOM     15  Cl  UNL A   1      28.799  25.383  26.372  1.00  0.00    -0.084 Cl
ATOM     16  C   UNL A   1      30.701  26.576  23.082  1.00  0.00    -0.046 A 
BRANCH  16  17
ATOM     17  C   UNL A   1      30.661  27.847  22.255  1.00  0.00     0.047 C 
BRANCH  17  18
ATOM     18  C   UNL A   1      31.410  29.118  22.692  1.00  0.00     0.060 C 
ATOM     19  C   UNL A   1      30.791  29.916  23.841  1.00  0.00     0.012 C 
ATOM     20  C   UNL A   1      32.803  28.869  23.217  1.00  0.00     0.136 C 
ATOM     21  C   UNL A   1      31.495  29.445  25.105  1.00  0.00     0.009 C 
ATOM     22  C   UNL A   1      32.938  29.205  24.681  1.00  0.00     0.076 C 
ATOM     23  O   UNL A   1      33.725  28.426  22.543  1.00  0.00    -0.299 OA
ENDBRANCH  17  18
ENDBRANCH  16  17
ENDBRANCH   8  10
ENDBRANCH   6   8
ENDBRANCH   5   6
ENDBRANCH   4   5
ENDBRANCH   3   4
ENDBRANCH   2   3
ENDBRANCH   1   2
BRANCH   1  24
ATOM     24  C   UNL A   1      36.722  21.743  25.470  1.00  0.00     0.188 C 
BRANCH  24  25
ATOM     25  O   UNL A   1      37.802  22.400  26.118  1.00  0.00    -0.376 OA
BRANCH  25  26
ATOM     26  C   UNL A   1      39.121  21.954  25.836  1.00  0.00     0.202 C 
BRANCH  26  27
ATOM     27  C   UNL A   1      39.412  20.443  25.824  1.00  0.00     0.261 C 
BRANCH  27  28
ATOM     28  O   UNL A   1      40.329  19.967  26.831  1.00  0.00    -0.460 OA
BRANCH  28  29
ATOM     29  C   UNL A   1      41.594  19.709  26.406  1.00  0.00     0.338 C 
ATOM     30  O   UNL A   1      41.973  18.728  25.794  1.00  0.00    -0.246 OA
BRANCH  29  31
ATOM     31  C   UNL A   1      42.472  20.878  26.641  1.00  0.00     0.060 A 
ATOM     32  C   UNL A   1      42.601  21.371  27.947  1.00  0.00     0.016 A 
ATOM     33  C   UNL A   1      43.075  21.552  25.580  1.00  0.00     0.016 A 
ATOM     34  C   UNL A   1      43.316  22.545  28.189  1.00  0.00     0.010 A 
ATOM     35  C   UNL A   1      43.767  22.748  25.824  1.00  0.00     0.010 A 
ATOM     36  C   UNL A   1      43.867  23.271  27.126  1.00  0.00    -0.014 A 
BRANCH  36  37
ATOM     37  C   UNL A   1      44.390  24.648  27.350  1.00  0.00     0.031 A 
ATOM     38  C   UNL A   1      43.433  25.734  27.767  1.00  0.00     0.074 A 
ATOM     39  C   UNL A   1      45.697  24.941  27.210  1.00  0.00     0.049 A 
ATOM     40  N   UNL A   1      43.656  27.011  27.950  1.00  0.00    -0.248 NA
ATOM     41  C   UNL A   1      42.039  25.325  27.997  1.00  0.00     0.031 C 
ATOM     42  C   UNL A   1      46.738  23.987  26.847  1.00  0.00     0.029 A 
ATOM     43  N   UNL A   1      46.371  26.130  27.367  1.00  0.00    -0.354 N 
ATOM     44  C   UNL A   1      42.423  27.568  28.271  1.00  0.00     0.074 A 
ATOM     45  C   UNL A   1      41.459  26.487  28.264  1.00  0.00     0.031 C 
ATOM     46  C   UNL A   1      47.925  24.620  26.832  1.00  0.00     0.029 A 
ATOM     47  C   UNL A   1      47.722  26.039  27.126  1.00  0.00     0.049 A 
ATOM     48  H   UNL A   1      45.927  26.970  27.626  1.00  0.00     0.167 HD
ATOM     49  C   UNL A   1      42.113  28.862  28.530  1.00  0.00     0.031 A 
ATOM     50  C   UNL A   1      48.681  26.989  27.115  1.00  0.00     0.031 A 
ATOM     51  C   UNL A   1      43.063  29.945  28.517  1.00  0.00     0.049 A 
ATOM     52  C   UNL A   1      48.307  28.431  27.365  1.00  0.00     0.074 A 
ATOM     53  C   UNL A   1      42.835  31.288  28.761  1.00  0.00     0.029 A 
ATOM     54  N   UNL A   1      44.415  29.814  28.238  1.00  0.00    -0.354 N 
ATOM     55  N   UNL A   1      47.135  28.940  27.662  1.00  0.00    -0.248 NA
ATOM     56  C   UNL A   1      49.384  29.428  27.260  1.00  0.00     0.031 C 
ATOM     57  C   UNL A   1      44.037  31.979  28.570  1.00  0.00     0.029 A 
ATOM     58  C   UNL A   1      45.028  31.055  28.281  1.00  0.00     0.049 A 
ATOM     59  H   UNL A   1      44.871  28.965  28.039  1.00  0.00     0.167 HD
ATOM     60  C   UNL A   1      47.337  30.313  27.788  1.00  0.00     0.074 A 
ATOM     61  C   UNL A   1      48.748  30.550  27.566  1.00  0.00     0.031 C 
ATOM     62  C   UNL A   1      46.434  31.289  28.056  1.00  0.00     0.031 A 
BRANCH  49  63
ATOM     63  C   UNL A   1      40.665  29.188  28.788  1.00  0.00    -0.014 A 
ATOM     64  C   UNL A   1      39.742  29.322  27.735  1.00  0.00     0.010 A 
ATOM     65  C   UNL A   1      40.216  29.335  30.114  1.00  0.00     0.010 A 
ATOM     66  C   UNL A   1      38.409  29.644  28.002  1.00  0.00     0.020 A 
ATOM     67  C   UNL A   1      38.876  29.625  30.386  1.00  0.00     0.020 A 
ATOM     68  C   UNL A   1      37.986  29.798  29.326  1.00  0.00     0.054 A 
BRANCH  68  69
ATOM     69  S   UNL A   1      36.247  30.206  29.641  1.00  0.00     0.124 S 
ATOM     70  O   UNL A   1      36.032  29.607  30.956  1.00  0.00    -0.237 OA
ATOM     71  O   UNL A   1      36.250  31.665  29.608  1.00  0.00    -0.237 OA
ATOM     72  O   UNL A   1      35.534  29.562  28.540  1.00  0.00    -0.744 OA
ENDBRANCH  68  69
ENDBRANCH  49  63
BRANCH  50  73
ATOM     73  C   UNL A   1      50.097  26.623  26.816  1.00  0.00    -0.014 A 
ATOM     74  C   UNL A   1      50.518  26.395  25.493  1.00  0.00     0.010 A 
ATOM     75  C   UNL A   1      51.032  26.487  27.859  1.00  0.00     0.010 A 
ATOM     76  C   UNL A   1      51.839  26.028  25.221  1.00  0.00     0.020 A 
ATOM     77  C   UNL A   1      52.363  26.155  27.588  1.00  0.00     0.020 A 
ATOM     78  C   UNL A   1      52.756  25.917  26.271  1.00  0.00     0.054 A 
BRANCH  78  79
ATOM     79  S   UNL A   1      54.479  25.497  25.891  1.00  0.00     0.124 S 
ATOM     80  O   UNL A   1      54.322  24.412  24.927  1.00  0.00    -0.237 OA
ATOM     81  O   UNL A   1      54.998  26.752  25.353  1.00  0.00    -0.237 OA
ATOM     82  O   UNL A   1      55.030  25.108  27.187  1.00  0.00    -0.744 OA
ENDBRANCH  78  79
ENDBRANCH  50  73
BRANCH  62  83
ATOM     83  C   UNL A   1      46.937  32.709  28.160  1.00  0.00    -0.014 A 
ATOM     84  C   UNL A   1      47.514  33.200  29.345  1.00  0.00     0.010 A 
ATOM     85  C   UNL A   1      46.888  33.546  27.029  1.00  0.00     0.010 A 
ATOM     86  C   UNL A   1      48.004  34.509  29.406  1.00  0.00     0.020 A 
ATOM     87  C   UNL A   1      47.403  34.844  27.076  1.00  0.00     0.020 A 
ATOM     88  C   UNL A   1      47.946  35.323  28.270  1.00  0.00     0.054 A 
BRANCH  88  89
ATOM     89  S   UNL A   1      48.631  37.002  28.362  1.00  0.00     0.124 S 
ATOM     90  O   UNL A   1      50.054  36.762  28.142  1.00  0.00    -0.237 OA
ATOM     91  O   UNL A   1      47.935  37.691  27.278  1.00  0.00    -0.237 OA
ATOM     92  O   UNL A   1      48.275  37.448  29.707  1.00  0.00    -0.744 OA
ENDBRANCH  88  89
ENDBRANCH  62  83
ENDBRANCH  36  37
ENDBRANCH  29  31
ENDBRANCH  28  29
ENDBRANCH  27  28
ENDBRANCH  26  27
ENDBRANCH  25  26
ENDBRANCH  24  25
ENDBRANCH   1  24
TORSDOF 23
ENDMDL
MODEL 3
REMARK VINA RESULT:      -8.5      3.945     11.338
REMARK SMILES C[C@@H](C(=O)OCCOCCOCCOC(=O)c1ccc(-c2c3nc(c(-c4ccc(S(=O)(=O)[O-])cc4)c4ccc([nH]4)c(-c4ccc(S(=O)(=O)[O-])cc4)c4nc(c(-c5ccc(S(=O)(=O)[O-])cc5)c5ccc2[nH]5)C=C4)C=C3)cc1)c1ccc(C[C@H]2CCCC2=O)cc1Cl
REMARK SMILES IDX 9 1 8 2 7 3 6 4 5 5 3 6 4 7 2 8 1 9 77 10 78 11 89 12 79 13
REMARK SMILES IDX 88 14 90 15 80 16 81 17 82 18 83 19 86 20 84 21 85 22 87 23
REMARK SMILES IDX 10 24 11 25 12 26 13 27 14 28 15 29 16 30 17 31 18 32 76 33
REMARK SMILES IDX 19 34 75 35 20 36 21 37 22 38 69 39 23 40 74 41 68 42 70 43
REMARK SMILES IDX 24 44 73 45 67 46 66 47 25 49 55 50 36 51 54 52 37 53 40 54
REMARK SMILES IDX 53 55 71 56 38 57 39 58 52 60 72 61 41 62 26 63 27 64 35 65
REMARK SMILES IDX 28 66 34 67 29 68 30 69 31 70 32 71 33 72 56 73 57 74 65 75
REMARK SMILES IDX 58 76 64 77 59 78 60 79 61 80 62 81 63 82 42 83 43 84 51 85
REMARK SMILES IDX 44 86 50 87 45 88 46 89 47 90 48 91 49 92
REMARK H PARENT 70 48 40 59
REMARK Flexibility Score: inf
ROOT
ATOM      1  C   UNL A   1      40.421  22.178  27.058  1.00  0.00     0.188 C 
ENDROOT
BRANCH   1   2
ATOM      2  O   UNL A   1      39.522  21.740  26.059  1.00  0.00    -0.376 OA
BRANCH   2   3
ATOM      3  C   UNL A   1      38.179  22.191  26.122  1.00  0.00     0.202 C 
BRANCH   3   4
ATOM      4  C   UNL A   1      37.901  23.696  26.248  1.00  0.00     0.261 C 
BRANCH   4   5
ATOM      5  O   UNL A   1      36.985  24.206  25.264  1.00  0.00    -0.463 OA
BRANCH   5   6
ATOM      6  C   UNL A   1      36.385  23.350  24.398  1.00  0.00     0.313 C 
ATOM      7  O   UNL A   1      36.990  22.664  23.584  1.00  0.00    -0.252 OA
BRANCH   6   8
ATOM      8  C   UNL A   1      34.860  23.384  24.522  1.00  0.00     0.127 C 
ATOM      9  C   UNL A   1      34.364  24.195  25.743  1.00  0.00     0.025 C 
BRANCH   8  10
ATOM     10  C   UNL A   1      34.059  22.080  24.401  1.00  0.00    -0.015 A 
ATOM     11  C   UNL A   1      34.355  21.100  25.375  1.00  0.00     0.006 A 
ATOM     12  C   UNL A   1      33.079  21.733  23.460  1.00  0.00     0.045 A 
ATOM     13  C   UNL A   1      33.759  19.834  25.381  1.00  0.00     0.004 A 
ATOM     14  C   UNL A   1      32.528  20.433  23.439  1.00  0.00     0.024 A 
ATOM     15  Cl  UNL A   1      32.391  22.825  22.316  1.00  0.00    -0.084 Cl
ATOM     16  C   UNL A   1      32.877  19.451  24.376  1.00  0.00    -0.046 A 
BRANCH  16  17
ATOM     17  C   UNL A   1      32.154  18.117  24.383  1.00  0.00     0.047 C 
BRANCH  17  18
ATOM     18  C   UNL A   1      32.854  16.819  23.945  1.00  0.00     0.060 C 
ATOM     19  C   UNL A   1      34.274  16.959  23.393  1.00  0.00     0.012 C 
ATOM     20  C   UNL A   1      33.063  15.819  25.056  1.00  0.00     0.136 C 
ATOM     21  C   UNL A   1      35.207  16.695  24.565  1.00  0.00     0.009 C 
ATOM     22  C   UNL A   1      34.521  15.599  25.370  1.00  0.00     0.076 C 
ATOM     23  O   UNL A   1      32.155  15.256  25.656  1.00  0.00    -0.299 OA
ENDBRANCH  17  18
ENDBRANCH  16  17
ENDBRANCH   8  10
ENDBRANCH   6   8
ENDBRANCH   5   6
ENDBRANCH   4   5
ENDBRANCH   3   4
ENDBRANCH   2   3
ENDBRANCH   1   2
BRANCH   1  24
ATOM     24  C   UNL A   1      41.480  23.165  26.534  1.00  0.00     0.188 C 
BRANCH  24  25
ATOM     25  O   UNL A   1      42.604  22.673  25.818  1.00  0.00    -0.376 OA
BRANCH  25  26
ATOM     26  C   UNL A   1      43.291  23.570  24.956  1.00  0.00     0.202 C 
BRANCH  26  27
ATOM     27  C   UNL A   1      44.662  23.161  24.391  1.00  0.00     0.261 C 
BRANCH  27  28
ATOM     28  O   UNL A   1      45.743  24.087  24.624  1.00  0.00    -0.460 OA
BRANCH  28  29
ATOM     29  C   UNL A   1      46.110  24.255  25.922  1.00  0.00     0.338 C 
ATOM     30  O   UNL A   1      46.417  23.384  26.715  1.00  0.00    -0.246 OA
BRANCH  29  31
ATOM     31  C   UNL A   1      46.253  25.694  26.240  1.00  0.00     0.060 A 
ATOM     32  C   UNL A   1      46.707  26.061  27.515  1.00  0.00     0.016 A 
ATOM     33  C   UNL A   1      45.843  26.677  25.339  1.00  0.00     0.016 A 
ATOM     34  C   UNL A   1      46.734  27.404  27.894  1.00  0.00     0.010 A 
ATOM     35  C   UNL A   1      45.842  28.023  25.735  1.00  0.00     0.010 A 
ATOM     36  C   UNL A   1      46.259  28.395  27.026  1.00  0.00    -0.014 A 
BRANCH  36  37
ATOM     37  C   UNL A   1      46.035  29.782  27.522  1.00  0.00     0.031 A 
ATOM     38  C   UNL A   1      44.798  30.078  28.330  1.00  0.00     0.074 A 
ATOM     39  C   UNL A   1      46.918  30.770  27.286  1.00  0.00     0.049 A 
ATOM     40  N   UNL A   1      44.370  31.220  28.803  1.00  0.00    -0.248 NA
ATOM     41  C   UNL A   1      43.926  28.933  28.635  1.00  0.00     0.031 C 
ATOM     42  C   UNL A   1      48.170  30.621  26.552  1.00  0.00     0.029 A 
ATOM     43  N   UNL A   1      46.897  32.097  27.649  1.00  0.00    -0.354 N 
ATOM     44  C   UNL A   1      43.155  30.943  29.421  1.00  0.00     0.074 A 
ATOM     45  C   UNL A   1      42.922  29.522  29.268  1.00  0.00     0.031 C 
ATOM     46  C   UNL A   1      48.811  31.803  26.538  1.00  0.00     0.029 A 
ATOM     47  C   UNL A   1      47.989  32.810  27.211  1.00  0.00     0.049 A 
ATOM     48  H   UNL A   1      46.167  32.500  28.173  1.00  0.00     0.167 HD
ATOM     49  C   UNL A   1      42.302  31.793  30.043  1.00  0.00     0.031 A 
ATOM     50  C   UNL A   1      48.282  34.123  27.314  1.00  0.00     0.031 A 
ATOM     51  C   UNL A   1      42.518  33.210  30.179  1.00  0.00     0.049 A 
ATOM     52  C   UNL A   1      47.298  35.059  27.975  1.00  0.00     0.074 A 
ATOM     53  C   UNL A   1      41.702  34.148  30.788  1.00  0.00     0.029 A 
ATOM     54  N   UNL A   1      43.621  33.896  29.695  1.00  0.00    -0.354 N 
ATOM     55  N   UNL A   1      46.152  34.780  28.549  1.00  0.00    -0.248 NA
ATOM     56  C   UNL A   1      47.639  36.490  27.983  1.00  0.00     0.031 C 
ATOM     57  C   UNL A   1      42.282  35.410  30.619  1.00  0.00     0.029 A 
ATOM     58  C   UNL A   1      43.496  35.248  29.971  1.00  0.00     0.049 A 
ATOM     59  H   UNL A   1      44.381  33.484  29.224  1.00  0.00     0.167 HD
ATOM     60  C   UNL A   1      45.642  35.999  28.995  1.00  0.00     0.074 A 
ATOM     61  C   UNL A   1      46.619  37.011  28.651  1.00  0.00     0.031 C 
ATOM     62  C   UNL A   1      44.469  36.255  29.624  1.00  0.00     0.031 A 
BRANCH  49  63
ATOM     63  C   UNL A   1      41.014  31.215  30.571  1.00  0.00    -0.014 A 
ATOM     64  C   UNL A   1      39.923  30.955  29.722  1.00  0.00     0.010 A 
ATOM     65  C   UNL A   1      40.906  30.903  31.939  1.00  0.00     0.010 A 
ATOM     66  C   UNL A   1      38.733  30.437  30.241  1.00  0.00     0.020 A 
ATOM     67  C   UNL A   1      39.730  30.355  32.456  1.00  0.00     0.020 A 
ATOM     68  C   UNL A   1      38.643  30.144  31.606  1.00  0.00     0.054 A 
BRANCH  68  69
ATOM     69  S   UNL A   1      37.090  29.464  32.249  1.00  0.00     0.124 S 
ATOM     70  O   UNL A   1      36.666  30.508  33.178  1.00  0.00    -0.237 OA
ATOM     71  O   UNL A   1      36.277  29.329  31.043  1.00  0.00    -0.237 OA
ATOM     72  O   UNL A   1      37.493  28.204  32.870  1.00  0.00    -0.744 OA
ENDBRANCH  68  69
ENDBRANCH  49  63
BRANCH  50  73
ATOM     73  C   UNL A   1      49.554  34.656  26.743  1.00  0.00    -0.014 A 
ATOM     74  C   UNL A   1      49.615  35.092  25.406  1.00  0.00     0.010 A 
ATOM     75  C   UNL A   1      50.719  34.717  27.530  1.00  0.00     0.010 A 
ATOM     76  C   UNL A   1      50.815  35.566  24.867  1.00  0.00     0.020 A 
ATOM     77  C   UNL A   1      51.911  35.225  27.006  1.00  0.00     0.020 A 
ATOM     78  C   UNL A   1      51.954  35.636  25.673  1.00  0.00     0.054 A 
BRANCH  78  79
ATOM     79  S   UNL A   1      53.486  36.310  24.972  1.00  0.00     0.124 S 
ATOM     80  O   UNL A   1      52.989  37.424  24.171  1.00  0.00    -0.237 OA
ATOM     81  O   UNL A   1      54.244  36.676  26.165  1.00  0.00    -0.237 OA
ATOM     82  O   UNL A   1      54.036  35.190  24.213  1.00  0.00    -0.744 OA
ENDBRANCH  78  79
ENDBRANCH  50  73
BRANCH  62  83
ATOM     83  C   UNL A   1      44.175  37.683  30.019  1.00  0.00    -0.014 A 
ATOM     84  C   UNL A   1      44.594  38.204  31.257  1.00  0.00     0.010 A 
ATOM     85  C   UNL A   1      43.525  38.535  29.107  1.00  0.00     0.010 A 
ATOM     86  C   UNL A   1      44.341  39.540  31.586  1.00  0.00     0.020 A 
ATOM     87  C   UNL A   1      43.296  39.878  29.420  1.00  0.00     0.020 A 
ATOM     88  C   UNL A   1      43.694  40.369  30.664  1.00  0.00     0.054 A 
BRANCH  88  89
ATOM     89  S   UNL A   1      43.418  42.110  31.097  1.00  0.00     0.124 S 
ATOM     90  O   UNL A   1      43.870  42.799  29.891  1.00  0.00    -0.237 OA
ATOM     91  O   UNL A   1      41.980  42.155  31.344  1.00  0.00    -0.237 OA
ATOM     92  O   UNL A   1      44.255  42.310  32.278  1.00  0.00    -0.744 OA
ENDBRANCH  88  89
ENDBRANCH  62  83
ENDBRANCH  36  37
ENDBRANCH  29  31
ENDBRANCH  28  29
ENDBRANCH  27  28
ENDBRANCH  26  27
ENDBRANCH  25  26
ENDBRANCH  24  25
ENDBRANCH   1  24
TORSDOF 23
ENDMDL
