MODEL 1
REMARK VINA RESULT:     -10.5      0.000      0.000
REMARK SMILES Cc1nc2ccc(OCC(=O)OCCOCCOCCOC(=O)c3ccc(-c4c5nc(c(-c6ccc(S(=O)(=O)[O-])cc6)c6ccc([nH]6)c(-c6ccc(S(=O)(=O)[O-])cc6)c6nc(c(-c7ccc(S(=O)(=O)[O-])cc7)c7ccc4[nH]7)C=C6)C=C5)cc3)cc2c(=O)n1-c1ccc2c(c1)OCO2
REMARK SMILES IDX 16 1 15 2 14 3 13 4 12 5 10 6 11 7 9 8 8 9 7 10 1 11 2 12
REMARK SMILES IDX 3 13 88 14 4 15 86 16 5 17 85 18 87 19 6 20 84 21 89 22
REMARK SMILES IDX 90 23 94 24 91 25 93 26 92 27 95 28 97 29 96 30 17 31 18 32
REMARK SMILES IDX 19 33 20 34 21 35 22 36 23 37 24 38 25 39 83 40 26 41 82 42
REMARK SMILES IDX 27 43 28 44 29 45 76 46 30 47 81 48 75 49 77 50 31 51 80 52
REMARK SMILES IDX 74 53 73 54 32 56 62 57 43 58 61 59 44 60 47 61 60 62 78 63
REMARK SMILES IDX 45 64 46 65 59 67 79 68 48 69 33 70 34 71 42 72 35 73 41 74
REMARK SMILES IDX 36 75 37 76 38 77 39 78 40 79 63 80 64 81 72 82 65 83 71 84
REMARK SMILES IDX 66 85 67 86 68 87 69 88 70 89 49 90 50 91 58 92 51 93 57 94
REMARK SMILES IDX 52 95 53 96 54 97 55 98 56 99
REMARK H PARENT 77 55 47 66
REMARK Flexibility Score: inf
ROOT
ATOM      1  C   UNL A   1      38.098  23.255  25.950  1.00  0.00     0.188 C 
ENDROOT
BRANCH   1   2
ATOM      2  O   UNL A   1      37.268  22.687  24.940  1.00  0.00    -0.376 OA
BRANCH   2   3
ATOM      3  C   UNL A   1      36.076  22.018  25.320  1.00  0.00     0.202 C 
BRANCH   3   4
ATOM      4  C   UNL A   1      35.851  20.646  24.687  1.00  0.00     0.261 C 
BRANCH   4   5
ATOM      5  O   UNL A   1      34.893  19.817  25.383  1.00  0.00    -0.461 OA
BRANCH   5   6
ATOM      6  C   UNL A   1      34.477  18.697  24.730  1.00  0.00     0.344 C 
ATOM      7  O   UNL A   1      35.226  17.860  24.238  1.00  0.00    -0.248 OA
BRANCH   6   8
ATOM      8  C   UNL A   1      32.953  18.620  24.564  1.00  0.00     0.351 C 
BRANCH   8   9
ATOM      9  O   UNL A   1      32.109  19.615  25.125  1.00  0.00    -0.482 OA
BRANCH   9  10
ATOM     10  C   UNL A   1      32.109  20.885  24.617  1.00  0.00     0.121 A 
ATOM     11  C   UNL A   1      30.198  26.923  23.608  1.00  0.00     0.088 C 
ATOM     12  C   UNL A   1      30.900  25.674  24.100  1.00  0.00     0.113 A 
ATOM     13  N   UNL A   1      31.132  24.715  23.263  1.00  0.00    -0.234 NA
ATOM     14  N   UNL A   1      31.221  25.597  25.444  1.00  0.00    -0.264 N 
ATOM     15  C   UNL A   1      31.659  23.523  23.768  1.00  0.00     0.078 A 
ATOM     16  C   UNL A   1      31.447  24.358  26.057  1.00  0.00     0.266 A 
ATOM     17  C   UNL A   1      32.102  22.555  22.872  1.00  0.00     0.033 A 
ATOM     18  C   UNL A   1      31.629  23.219  25.123  1.00  0.00     0.070 A 
ATOM     19  O   UNL A   1      31.572  24.172  27.264  1.00  0.00    -0.268 OA
ATOM     20  C   UNL A   1      32.304  21.234  23.282  1.00  0.00     0.049 A 
ATOM     21  C   UNL A   1      31.849  21.902  25.552  1.00  0.00     0.062 A 
BRANCH  14  22
ATOM     22  C   UNL A   1      31.782  26.750  26.060  1.00  0.00     0.054 A 
ATOM     23  C   UNL A   1      31.043  27.590  26.911  1.00  0.00     0.031 A 
ATOM     24  C   UNL A   1      33.139  27.013  25.800  1.00  0.00     0.077 A 
ATOM     25  C   UNL A   1      31.657  28.711  27.493  1.00  0.00     0.053 A 
ATOM     26  C   UNL A   1      33.722  28.084  26.429  1.00  0.00     0.167 A 
ATOM     27  C   UNL A   1      33.002  28.916  27.251  1.00  0.00     0.165 A 
ATOM     28  O   UNL A   1      35.033  28.428  26.346  1.00  0.00    -0.454 OA
ATOM     29  O   UNL A   1      33.777  29.901  27.781  1.00  0.00    -0.454 OA
ATOM     30  C   UNL A   1      35.084  29.500  27.306  1.00  0.00     0.468 C 
ENDBRANCH  14  22
ENDBRANCH   9  10
ENDBRANCH   8   9
ENDBRANCH   6   8
ENDBRANCH   5   6
ENDBRANCH   4   5
ENDBRANCH   3   4
ENDBRANCH   2   3
ENDBRANCH   1   2
BRANCH   1  31
ATOM     31  C   UNL A   1      39.247  22.404  26.518  1.00  0.00     0.188 C 
BRANCH  31  32
ATOM     32  O   UNL A   1      40.117  23.200  27.313  1.00  0.00    -0.376 OA
BRANCH  32  33
ATOM     33  C   UNL A   1      41.445  23.331  26.851  1.00  0.00     0.202 C 
BRANCH  33  34
ATOM     34  C   UNL A   1      41.787  24.723  26.319  1.00  0.00     0.261 C 
BRANCH  34  35
ATOM     35  O   UNL A   1      40.686  25.644  26.416  1.00  0.00    -0.460 OA
BRANCH  35  36
ATOM     36  C   UNL A   1      40.960  26.954  26.293  1.00  0.00     0.338 C 
ATOM     37  O   UNL A   1      41.435  27.511  25.304  1.00  0.00    -0.246 OA
BRANCH  36  38
ATOM     38  C   UNL A   1      40.711  27.635  27.580  1.00  0.00     0.060 A 
ATOM     39  C   UNL A   1      40.010  26.959  28.573  1.00  0.00     0.016 A 
ATOM     40  C   UNL A   1      41.211  28.912  27.843  1.00  0.00     0.016 A 
ATOM     41  C   UNL A   1      39.826  27.557  29.825  1.00  0.00     0.010 A 
ATOM     42  C   UNL A   1      41.098  29.477  29.120  1.00  0.00     0.010 A 
ATOM     43  C   UNL A   1      40.402  28.806  30.130  1.00  0.00    -0.014 A 
BRANCH  43  44
ATOM     44  C   UNL A   1      40.327  29.339  31.522  1.00  0.00     0.031 A 
ATOM     45  C   UNL A   1      41.396  29.052  32.544  1.00  0.00     0.074 A 
ATOM     46  C   UNL A   1      39.280  30.124  31.859  1.00  0.00     0.049 A 
ATOM     47  N   UNL A   1      41.577  29.616  33.714  1.00  0.00    -0.248 NA
ATOM     48  C   UNL A   1      42.373  27.996  32.237  1.00  0.00     0.031 C 
ATOM     49  C   UNL A   1      38.126  30.397  30.999  1.00  0.00     0.029 A 
ATOM     50  N   UNL A   1      39.032  30.869  32.988  1.00  0.00    -0.354 N 
ATOM     51  C   UNL A   1      42.695  29.001  34.267  1.00  0.00     0.074 A 
ATOM     52  C   UNL A   1      43.108  27.969  33.343  1.00  0.00     0.031 C 
ATOM     53  C   UNL A   1      37.347  31.319  31.585  1.00  0.00     0.029 A 
ATOM     54  C   UNL A   1      37.926  31.685  32.874  1.00  0.00     0.049 A 
ATOM     55  H   UNL A   1      39.588  30.824  33.799  1.00  0.00     0.167 HD
ATOM     56  C   UNL A   1      43.341  29.300  35.419  1.00  0.00     0.031 A 
ATOM     57  C   UNL A   1      37.455  32.655  33.685  1.00  0.00     0.031 A 
ATOM     58  C   UNL A   1      42.938  30.349  36.321  1.00  0.00     0.049 A 
ATOM     59  C   UNL A   1      38.209  32.992  34.943  1.00  0.00     0.074 A 
ATOM     60  C   UNL A   1      43.577  30.781  37.470  1.00  0.00     0.029 A 
ATOM     61  N   UNL A   1      41.804  31.132  36.176  1.00  0.00    -0.354 N 
ATOM     62  N   UNL A   1      39.332  32.480  35.388  1.00  0.00    -0.248 NA
ATOM     63  C   UNL A   1      37.648  34.049  35.797  1.00  0.00     0.031 C 
ATOM     64  C   UNL A   1      42.802  31.783  38.052  1.00  0.00     0.029 A 
ATOM     65  C   UNL A   1      41.715  32.027  37.229  1.00  0.00     0.049 A 
ATOM     66  H   UNL A   1      41.159  31.064  35.435  1.00  0.00     0.167 HD
ATOM     67  C   UNL A   1      39.624  33.172  36.559  1.00  0.00     0.074 A 
ATOM     68  C   UNL A   1      38.571  34.148  36.745  1.00  0.00     0.031 C 
ATOM     69  C   UNL A   1      40.670  33.005  37.402  1.00  0.00     0.031 A 
BRANCH  56  70
ATOM     70  C   UNL A   1      44.606  28.551  35.763  1.00  0.00    -0.014 A 
ATOM     71  C   UNL A   1      45.835  28.938  35.197  1.00  0.00     0.010 A 
ATOM     72  C   UNL A   1      44.539  27.350  36.494  1.00  0.00     0.010 A 
ATOM     73  C   UNL A   1      46.958  28.113  35.309  1.00  0.00     0.020 A 
ATOM     74  C   UNL A   1      45.667  26.537  36.631  1.00  0.00     0.020 A 
ATOM     75  C   UNL A   1      46.862  26.907  36.010  1.00  0.00     0.054 A 
BRANCH  75  76
ATOM     76  S   UNL A   1      48.302  25.807  36.067  1.00  0.00     0.124 S 
ATOM     77  O   UNL A   1      49.007  26.156  34.838  1.00  0.00    -0.237 OA
ATOM     78  O   UNL A   1      48.960  26.208  37.309  1.00  0.00    -0.237 OA
ATOM     79  O   UNL A   1      47.712  24.469  36.090  1.00  0.00    -0.744 OA
ENDBRANCH  75  76
ENDBRANCH  56  70
BRANCH  57  80
ATOM     80  C   UNL A   1      36.263  33.447  33.269  1.00  0.00    -0.014 A 
ATOM     81  C   UNL A   1      34.962  32.944  33.449  1.00  0.00     0.010 A 
ATOM     82  C   UNL A   1      36.429  34.694  32.639  1.00  0.00     0.010 A 
ATOM     83  C   UNL A   1      33.854  33.651  32.972  1.00  0.00     0.020 A 
ATOM     84  C   UNL A   1      35.322  35.419  32.188  1.00  0.00     0.020 A 
ATOM     85  C   UNL A   1      34.043  34.881  32.335  1.00  0.00     0.054 A 
BRANCH  85  86
ATOM     86  S   UNL A   1      32.593  35.771  31.704  1.00  0.00     0.124 S 
ATOM     87  O   UNL A   1      31.550  35.341  32.630  1.00  0.00    -0.237 OA
ATOM     88  O   UNL A   1      33.000  37.169  31.820  1.00  0.00    -0.237 OA
ATOM     89  O   UNL A   1      32.458  35.277  30.335  1.00  0.00    -0.744 OA
ENDBRANCH  85  86
ENDBRANCH  57  80
BRANCH  69  90
ATOM     90  C   UNL A   1      40.761  33.891  38.618  1.00  0.00    -0.014 A 
ATOM     91  C   UNL A   1      40.019  33.569  39.771  1.00  0.00     0.010 A 
ATOM     92  C   UNL A   1      41.454  35.113  38.566  1.00  0.00     0.010 A 
ATOM     93  C   UNL A   1      39.934  34.474  40.833  1.00  0.00     0.020 A 
ATOM     94  C   UNL A   1      41.394  36.006  39.639  1.00  0.00     0.020 A 
ATOM     95  C   UNL A   1      40.611  35.692  40.753  1.00  0.00     0.054 A 
BRANCH  95  96
ATOM     96  S   UNL A   1      40.449  36.875  42.120  1.00  0.00     0.124 S 
ATOM     97  O   UNL A   1      41.733  37.568  42.080  1.00  0.00    -0.237 OA
ATOM     98  O   UNL A   1      39.291  37.671  41.720  1.00  0.00    -0.237 OA
ATOM     99  O   UNL A   1      40.235  36.023  43.287  1.00  0.00    -0.744 OA
ENDBRANCH  95  96
ENDBRANCH  69  90
ENDBRANCH  43  44
ENDBRANCH  36  38
ENDBRANCH  35  36
ENDBRANCH  34  35
ENDBRANCH  33  34
ENDBRANCH  32  33
ENDBRANCH  31  32
ENDBRANCH   1  31
TORSDOF 23
ENDMDL
MODEL 2
REMARK VINA RESULT:     -10.5      1.557      2.097
REMARK SMILES Cc1nc2ccc(OCC(=O)OCCOCCOCCOC(=O)c3ccc(-c4c5nc(c(-c6ccc(S(=O)(=O)[O-])cc6)c6ccc([nH]6)c(-c6ccc(S(=O)(=O)[O-])cc6)c6nc(c(-c7ccc(S(=O)(=O)[O-])cc7)c7ccc4[nH]7)C=C6)C=C5)cc3)cc2c(=O)n1-c1ccc2c(c1)OCO2
REMARK SMILES IDX 16 1 15 2 14 3 13 4 12 5 10 6 11 7 9 8 8 9 7 10 1 11 2 12
REMARK SMILES IDX 3 13 88 14 4 15 86 16 5 17 85 18 87 19 6 20 84 21 89 22
REMARK SMILES IDX 90 23 94 24 91 25 93 26 92 27 95 28 97 29 96 30 17 31 18 32
REMARK SMILES IDX 19 33 20 34 21 35 22 36 23 37 24 38 25 39 83 40 26 41 82 42
REMARK SMILES IDX 27 43 28 44 29 45 76 46 30 47 81 48 75 49 77 50 31 51 80 52
REMARK SMILES IDX 74 53 73 54 32 56 62 57 43 58 61 59 44 60 47 61 60 62 78 63
REMARK SMILES IDX 45 64 46 65 59 67 79 68 48 69 33 70 34 71 42 72 35 73 41 74
REMARK SMILES IDX 36 75 37 76 38 77 39 78 40 79 63 80 64 81 72 82 65 83 71 84
REMARK SMILES IDX 66 85 67 86 68 87 69 88 70 89 49 90 50 91 58 92 51 93 57 94
REMARK SMILES IDX 52 95 53 96 54 97 55 98 56 99
REMARK H PARENT 77 55 47 66
REMARK Flexibility Score: inf
ROOT
ATOM      1  C   UNL A   1      39.112  22.406  26.398  1.00  0.00     0.188 C 
ENDROOT
BRANCH   1   2
ATOM      2  O   UNL A   1      38.177  22.177  25.347  1.00  0.00    -0.376 OA
BRANCH   2   3
ATOM      3  C   UNL A   1      36.814  21.953  25.673  1.00  0.00     0.202 C 
BRANCH   3   4
ATOM      4  C   UNL A   1      36.157  20.749  25.000  1.00  0.00     0.261 C 
BRANCH   4   5
ATOM      5  O   UNL A   1      34.826  20.451  25.477  1.00  0.00    -0.461 OA
BRANCH   5   6
ATOM      6  C   UNL A   1      34.120  19.531  24.763  1.00  0.00     0.344 C 
ATOM      7  O   UNL A   1      34.555  18.439  24.415  1.00  0.00    -0.248 OA
BRANCH   6   8
ATOM      8  C   UNL A   1      32.735  20.030  24.328  1.00  0.00     0.351 C 
BRANCH   8   9
ATOM      9  O   UNL A   1      32.174  21.205  24.895  1.00  0.00    -0.482 OA
BRANCH   9  10
ATOM     10  C   UNL A   1      32.517  22.437  24.409  1.00  0.00     0.121 A 
ATOM     11  C   UNL A   1      31.868  28.581  22.693  1.00  0.00     0.088 C 
ATOM     12  C   UNL A   1      32.180  27.293  23.425  1.00  0.00     0.113 A 
ATOM     13  N   UNL A   1      32.585  26.268  22.746  1.00  0.00    -0.234 NA
ATOM     14  N   UNL A   1      31.971  27.257  24.792  1.00  0.00    -0.264 N 
ATOM     15  C   UNL A   1      32.738  25.056  23.424  1.00  0.00     0.078 A 
ATOM     16  C   UNL A   1      31.802  26.037  25.459  1.00  0.00     0.266 A 
ATOM     17  C   UNL A   1      33.359  23.997  22.768  1.00  0.00     0.033 A 
ATOM     18  C   UNL A   1      32.174  24.833  24.673  1.00  0.00     0.070 A 
ATOM     19  O   UNL A   1      31.449  25.906  26.628  1.00  0.00    -0.268 OA
ATOM     20  C   UNL A   1      33.231  22.687  23.239  1.00  0.00     0.049 A 
ATOM     21  C   UNL A   1      32.057  23.527  25.168  1.00  0.00     0.062 A 
BRANCH  14  22
ATOM     22  C   UNL A   1      32.403  28.374  25.560  1.00  0.00     0.054 A 
ATOM     23  C   UNL A   1      31.535  29.412  25.942  1.00  0.00     0.031 A 
ATOM     24  C   UNL A   1      33.754  28.393  25.951  1.00  0.00     0.077 A 
ATOM     25  C   UNL A   1      32.021  30.485  26.706  1.00  0.00     0.053 A 
ATOM     26  C   UNL A   1      34.183  29.428  26.744  1.00  0.00     0.167 A 
ATOM     27  C   UNL A   1      33.342  30.451  27.109  1.00  0.00     0.165 A 
ATOM     28  O   UNL A   1      35.429  29.555  27.267  1.00  0.00    -0.454 OA
ATOM     29  O   UNL A   1      33.967  31.361  27.905  1.00  0.00    -0.454 OA
ATOM     30  C   UNL A   1      35.244  30.711  28.105  1.00  0.00     0.468 C 
ENDBRANCH  14  22
ENDBRANCH   9  10
ENDBRANCH   8   9
ENDBRANCH   6   8
ENDBRANCH   5   6
ENDBRANCH   4   5
ENDBRANCH   3   4
ENDBRANCH   2   3
ENDBRANCH   1   2
BRANCH   1  31
ATOM     31  C   UNL A   1      40.266  21.405  26.584  1.00  0.00     0.188 C 
BRANCH  31  32
ATOM     32  O   UNL A   1      41.363  22.019  27.247  1.00  0.00    -0.376 OA
BRANCH  32  33
ATOM     33  C   UNL A   1      42.612  21.946  26.592  1.00  0.00     0.202 C 
BRANCH  33  34
ATOM     34  C   UNL A   1      43.120  23.289  26.066  1.00  0.00     0.261 C 
BRANCH  34  35
ATOM     35  O   UNL A   1      42.155  24.346  26.207  1.00  0.00    -0.460 OA
BRANCH  35  36
ATOM     36  C   UNL A   1      42.584  25.608  26.033  1.00  0.00     0.338 C 
ATOM     37  O   UNL A   1      43.342  26.004  25.148  1.00  0.00    -0.246 OA
BRANCH  36  38
ATOM     38  C   UNL A   1      42.100  26.454  27.142  1.00  0.00     0.060 A 
ATOM     39  C   UNL A   1      41.111  25.957  27.985  1.00  0.00     0.016 A 
ATOM     40  C   UNL A   1      42.651  27.711  27.399  1.00  0.00     0.016 A 
ATOM     41  C   UNL A   1      40.690  26.713  29.085  1.00  0.00     0.010 A 
ATOM     42  C   UNL A   1      42.288  28.432  28.545  1.00  0.00     0.010 A 
ATOM     43  C   UNL A   1      41.301  27.942  29.405  1.00  0.00    -0.014 A 
BRANCH  43  44
ATOM     44  C   UNL A   1      40.943  28.641  30.674  1.00  0.00     0.031 A 
ATOM     45  C   UNL A   1      41.779  28.509  31.920  1.00  0.00     0.074 A 
ATOM     46  C   UNL A   1      39.851  29.436  30.688  1.00  0.00     0.049 A 
ATOM     47  N   UNL A   1      41.718  29.217  33.021  1.00  0.00    -0.248 NA
ATOM     48  C   UNL A   1      42.796  27.446  31.954  1.00  0.00     0.031 C 
ATOM     49  C   UNL A   1      38.899  29.574  29.583  1.00  0.00     0.029 A 
ATOM     50  N   UNL A   1      39.378  30.309  31.640  1.00  0.00    -0.354 N 
ATOM     51  C   UNL A   1      42.697  28.702  33.864  1.00  0.00     0.074 A 
ATOM     52  C   UNL A   1      43.289  27.574  33.180  1.00  0.00     0.031 C 
ATOM     53  C   UNL A   1      38.018  30.542  29.878  1.00  0.00     0.029 A 
ATOM     54  C   UNL A   1      38.322  31.079  31.201  1.00  0.00     0.049 A 
ATOM     55  H   UNL A   1      39.756  30.379  32.546  1.00  0.00     0.167 HD
ATOM     56  C   UNL A   1      43.094  29.157  35.075  1.00  0.00     0.031 A 
ATOM     57  C   UNL A   1      37.696  32.130  31.770  1.00  0.00     0.031 A 
ATOM     58  C   UNL A   1      42.517  30.299  35.737  1.00  0.00     0.049 A 
ATOM     59  C   UNL A   1      38.177  32.638  33.102  1.00  0.00     0.074 A 
ATOM     60  C   UNL A   1      42.908  30.885  36.928  1.00  0.00     0.029 A 
ATOM     61  N   UNL A   1      41.439  31.032  35.266  1.00  0.00    -0.354 N 
ATOM     62  N   UNL A   1      39.183  32.213  33.828  1.00  0.00    -0.248 NA
ATOM     63  C   UNL A   1      37.455  33.779  33.684  1.00  0.00     0.031 C 
ATOM     64  C   UNL A   1      42.032  31.934  37.209  1.00  0.00     0.029 A 
ATOM     65  C   UNL A   1      41.138  32.048  36.157  1.00  0.00     0.049 A 
ATOM     66  H   UNL A   1      40.959  30.857  34.424  1.00  0.00     0.167 HD
ATOM     67  C   UNL A   1      39.231  33.051  34.937  1.00  0.00     0.074 A 
ATOM     68  C   UNL A   1      38.165  34.018  34.779  1.00  0.00     0.031 C 
ATOM     69  C   UNL A   1      40.082  33.015  35.989  1.00  0.00     0.031 A 
BRANCH  56  70
ATOM     70  C   UNL A   1      44.259  28.486  35.761  1.00  0.00    -0.014 A 
ATOM     71  C   UNL A   1      44.066  27.788  36.968  1.00  0.00     0.010 A 
ATOM     72  C   UNL A   1      45.572  28.714  35.309  1.00  0.00     0.010 A 
ATOM     73  C   UNL A   1      45.160  27.379  37.735  1.00  0.00     0.020 A 
ATOM     74  C   UNL A   1      46.669  28.281  36.060  1.00  0.00     0.020 A 
ATOM     75  C   UNL A   1      46.456  27.645  37.284  1.00  0.00     0.054 A 
BRANCH  75  76
ATOM     76  S   UNL A   1      47.863  27.189  38.334  1.00  0.00     0.124 S 
ATOM     77  O   UNL A   1      47.224  26.964  39.627  1.00  0.00    -0.237 OA
ATOM     78  O   UNL A   1      48.383  25.996  37.670  1.00  0.00    -0.237 OA
ATOM     79  O   UNL A   1      48.737  28.359  38.266  1.00  0.00    -0.744 OA
ENDBRANCH  75  76
ENDBRANCH  56  70
BRANCH  57  80
ATOM     80  C   UNL A   1      36.616  32.836  31.024  1.00  0.00    -0.014 A 
ATOM     81  C   UNL A   1      36.920  33.704  29.960  1.00  0.00     0.010 A 
ATOM     82  C   UNL A   1      35.272  32.683  31.414  1.00  0.00     0.010 A 
ATOM     83  C   UNL A   1      35.909  34.434  29.327  1.00  0.00     0.020 A 
ATOM     84  C   UNL A   1      34.255  33.387  30.763  1.00  0.00     0.020 A 
ATOM     85  C   UNL A   1      34.583  34.278  29.740  1.00  0.00     0.054 A 
BRANCH  85  86
ATOM     86  S   UNL A   1      33.290  35.252  28.921  1.00  0.00     0.124 S 
ATOM     87  O   UNL A   1      32.516  35.741  30.058  1.00  0.00    -0.237 OA
ATOM     88  O   UNL A   1      34.059  36.265  28.201  1.00  0.00    -0.237 OA
ATOM     89  O   UNL A   1      32.610  34.274  28.075  1.00  0.00    -0.744 OA
ENDBRANCH  85  86
ENDBRANCH  57  80
BRANCH  69  90
ATOM     90  C   UNL A   1      39.923  34.046  37.076  1.00  0.00    -0.014 A 
ATOM     91  C   UNL A   1      40.681  35.232  37.029  1.00  0.00     0.010 A 
ATOM     92  C   UNL A   1      39.144  33.775  38.215  1.00  0.00     0.010 A 
ATOM     93  C   UNL A   1      40.697  36.107  38.118  1.00  0.00     0.020 A 
ATOM     94  C   UNL A   1      39.135  34.663  39.294  1.00  0.00     0.020 A 
ATOM     95  C   UNL A   1      39.934  35.809  39.249  1.00  0.00     0.054 A 
BRANCH  95  96
ATOM     96  S   UNL A   1      40.005  36.930  40.674  1.00  0.00     0.124 S 
ATOM     97  O   UNL A   1      38.717  37.612  40.593  1.00  0.00    -0.237 OA
ATOM     98  O   UNL A   1      40.163  36.011  41.799  1.00  0.00    -0.237 OA
ATOM     99  O   UNL A   1      41.172  37.764  40.395  1.00  0.00    -0.744 OA
ENDBRANCH  95  96
ENDBRANCH  69  90
ENDBRANCH  43  44
ENDBRANCH  36  38
ENDBRANCH  35  36
ENDBRANCH  34  35
ENDBRANCH  33  34
ENDBRANCH  32  33
ENDBRANCH  31  32
ENDBRANCH   1  31
TORSDOF 23
ENDMDL
MODEL 3
REMARK VINA RESULT:     -10.3      1.667      2.486
REMARK SMILES Cc1nc2ccc(OCC(=O)OCCOCCOCCOC(=O)c3ccc(-c4c5nc(c(-c6ccc(S(=O)(=O)[O-])cc6)c6ccc([nH]6)c(-c6ccc(S(=O)(=O)[O-])cc6)c6nc(c(-c7ccc(S(=O)(=O)[O-])cc7)c7ccc4[nH]7)C=C6)C=C5)cc3)cc2c(=O)n1-c1ccc2c(c1)OCO2
REMARK SMILES IDX 16 1 15 2 14 3 13 4 12 5 10 6 11 7 9 8 8 9 7 10 1 11 2 12
REMARK SMILES IDX 3 13 88 14 4 15 86 16 5 17 85 18 87 19 6 20 84 21 89 22
REMARK SMILES IDX 90 23 94 24 91 25 93 26 92 27 95 28 97 29 96 30 17 31 18 32
REMARK SMILES IDX 19 33 20 34 21 35 22 36 23 37 24 38 25 39 83 40 26 41 82 42
REMARK SMILES IDX 27 43 28 44 29 45 76 46 30 47 81 48 75 49 77 50 31 51 80 52
REMARK SMILES IDX 74 53 73 54 32 56 62 57 43 58 61 59 44 60 47 61 60 62 78 63
REMARK SMILES IDX 45 64 46 65 59 67 79 68 48 69 33 70 34 71 42 72 35 73 41 74
REMARK SMILES IDX 36 75 37 76 38 77 39 78 40 79 63 80 64 81 72 82 65 83 71 84
REMARK SMILES IDX 66 85 67 86 68 87 69 88 70 89 49 90 50 91 58 92 51 93 57 94
REMARK SMILES IDX 52 95 53 96 54 97 55 98 56 99
REMARK H PARENT 77 55 47 66
REMARK Flexibility Score: inf
ROOT
ATOM      1  C   UNL A   1      37.765  23.002  25.579  1.00  0.00     0.188 C 
ENDROOT
BRANCH   1   2
ATOM      2  O   UNL A   1      36.527  22.427  25.170  1.00  0.00    -0.376 OA
BRANCH   2   3
ATOM      3  C   UNL A   1      36.088  21.224  25.782  1.00  0.00     0.202 C 
BRANCH   3   4
ATOM      4  C   UNL A   1      35.630  20.120  24.831  1.00  0.00     0.261 C 
BRANCH   4   5
ATOM      5  O   UNL A   1      34.458  19.399  25.273  1.00  0.00    -0.461 OA
BRANCH   5   6
ATOM      6  C   UNL A   1      33.709  18.810  24.300  1.00  0.00     0.344 C 
ATOM      7  O   UNL A   1      33.987  17.747  23.756  1.00  0.00    -0.248 OA
BRANCH   6   8
ATOM      8  C   UNL A   1      32.511  19.662  23.855  1.00  0.00     0.351 C 
BRANCH   8   9
ATOM      9  O   UNL A   1      32.696  20.993  23.396  1.00  0.00    -0.482 OA
BRANCH   9  10
ATOM     10  C   UNL A   1      32.172  22.043  24.098  1.00  0.00     0.121 A 
ATOM     11  C   UNL A   1      31.345  28.078  26.102  1.00  0.00     0.088 C 
ATOM     12  C   UNL A   1      31.228  26.742  25.399  1.00  0.00     0.113 A 
ATOM     13  N   UNL A   1      31.466  25.659  26.067  1.00  0.00    -0.234 NA
ATOM     14  N   UNL A   1      30.915  26.744  24.051  1.00  0.00    -0.264 N 
ATOM     15  C   UNL A   1      31.481  24.451  25.365  1.00  0.00     0.078 A 
ATOM     16  C   UNL A   1      31.217  25.639  23.244  1.00  0.00     0.266 A 
ATOM     17  C   UNL A   1      31.534  23.260  26.084  1.00  0.00     0.033 A 
ATOM     18  C   UNL A   1      31.581  24.403  23.981  1.00  0.00     0.070 A 
ATOM     19  O   UNL A   1      31.134  25.608  22.019  1.00  0.00    -0.268 OA
ATOM     20  C   UNL A   1      31.902  22.063  25.465  1.00  0.00     0.049 A 
ATOM     21  C   UNL A   1      31.930  23.204  23.343  1.00  0.00     0.062 A 
BRANCH  14  22
ATOM     22  C   UNL A   1      29.888  27.622  23.609  1.00  0.00     0.054 A 
ATOM     23  C   UNL A   1      28.522  27.312  23.729  1.00  0.00     0.031 A 
ATOM     24  C   UNL A   1      30.295  28.849  23.054  1.00  0.00     0.077 A 
ATOM     25  C   UNL A   1      27.555  28.226  23.278  1.00  0.00     0.053 A 
ATOM     26  C   UNL A   1      29.323  29.741  22.674  1.00  0.00     0.167 A 
ATOM     27  C   UNL A   1      27.988  29.439  22.778  1.00  0.00     0.165 A 
ATOM     28  O   UNL A   1      29.547  30.992  22.195  1.00  0.00    -0.454 OA
ATOM     29  O   UNL A   1      27.201  30.468  22.361  1.00  0.00    -0.454 OA
ATOM     30  C   UNL A   1      28.197  31.489  22.123  1.00  0.00     0.468 C 
ENDBRANCH  14  22
ENDBRANCH   9  10
ENDBRANCH   8   9
ENDBRANCH   6   8
ENDBRANCH   5   6
ENDBRANCH   4   5
ENDBRANCH   3   4
ENDBRANCH   2   3
ENDBRANCH   1   2
BRANCH   1  31
ATOM     31  C   UNL A   1      38.872  22.067  26.098  1.00  0.00     0.188 C 
BRANCH  31  32
ATOM     32  O   UNL A   1      39.627  22.702  27.122  1.00  0.00    -0.376 OA
BRANCH  32  33
ATOM     33  C   UNL A   1      41.017  22.808  26.901  1.00  0.00     0.202 C 
BRANCH  33  34
ATOM     34  C   UNL A   1      41.490  24.222  26.561  1.00  0.00     0.261 C 
BRANCH  34  35
ATOM     35  O   UNL A   1      40.428  25.192  26.603  1.00  0.00    -0.460 OA
BRANCH  35  36
ATOM     36  C   UNL A   1      40.757  26.483  26.428  1.00  0.00     0.338 C 
ATOM     37  O   UNL A   1      41.280  26.973  25.428  1.00  0.00    -0.246 OA
BRANCH  36  38
ATOM     38  C   UNL A   1      40.504  27.232  27.675  1.00  0.00     0.060 A 
ATOM     39  C   UNL A   1      39.747  26.634  28.677  1.00  0.00     0.016 A 
ATOM     40  C   UNL A   1      41.054  28.497  27.895  1.00  0.00     0.016 A 
ATOM     41  C   UNL A   1      39.556  27.296  29.895  1.00  0.00     0.010 A 
ATOM     42  C   UNL A   1      40.931  29.125  29.141  1.00  0.00     0.010 A 
ATOM     43  C   UNL A   1      40.179  28.532  30.160  1.00  0.00    -0.014 A 
BRANCH  43  44
ATOM     44  C   UNL A   1      40.089  29.131  31.524  1.00  0.00     0.031 A 
ATOM     45  C   UNL A   1      41.146  28.890  32.571  1.00  0.00     0.074 A 
ATOM     46  C   UNL A   1      39.042  29.935  31.811  1.00  0.00     0.049 A 
ATOM     47  N   UNL A   1      41.315  29.508  33.715  1.00  0.00    -0.248 NA
ATOM     48  C   UNL A   1      42.122  27.817  32.327  1.00  0.00     0.031 C 
ATOM     49  C   UNL A   1      37.899  30.171  30.924  1.00  0.00     0.029 A 
ATOM     50  N   UNL A   1      38.783  30.734  32.899  1.00  0.00    -0.354 N 
ATOM     51  C   UNL A   1      42.424  28.917  34.310  1.00  0.00     0.074 A 
ATOM     52  C   UNL A   1      42.844  27.841  33.441  1.00  0.00     0.031 C 
ATOM     53  C   UNL A   1      37.117  31.122  31.456  1.00  0.00     0.029 A 
ATOM     54  C   UNL A   1      37.683  31.548  32.733  1.00  0.00     0.049 A 
ATOM     55  H   UNL A   1      39.330  30.726  33.718  1.00  0.00     0.167 HD
ATOM     56  C   UNL A   1      43.058  29.269  35.454  1.00  0.00     0.031 A 
ATOM     57  C   UNL A   1      37.206  32.557  33.491  1.00  0.00     0.031 A 
ATOM     58  C   UNL A   1      42.648  30.361  36.299  1.00  0.00     0.049 A 
ATOM     59  C   UNL A   1      37.946  32.951  34.740  1.00  0.00     0.074 A 
ATOM     60  C   UNL A   1      43.276  30.845  37.434  1.00  0.00     0.029 A 
ATOM     61  N   UNL A   1      41.519  31.141  36.104  1.00  0.00    -0.354 N 
ATOM     62  N   UNL A   1      39.062  32.458  35.223  1.00  0.00    -0.248 NA
ATOM     63  C   UNL A   1      37.380  34.050  35.536  1.00  0.00     0.031 C 
ATOM     64  C   UNL A   1      42.497  31.877  37.958  1.00  0.00     0.029 A 
ATOM     65  C   UNL A   1      41.421  32.085  37.111  1.00  0.00     0.049 A 
ATOM     66  H   UNL A   1      40.883  31.039  35.359  1.00  0.00     0.167 HD
ATOM     67  C   UNL A   1      39.343  33.204  36.362  1.00  0.00     0.074 A 
ATOM     68  C   UNL A   1      38.292  34.192  36.489  1.00  0.00     0.031 C 
ATOM     69  C   UNL A   1      40.379  33.074  37.225  1.00  0.00     0.031 A 
BRANCH  56  70
ATOM     70  C   UNL A   1      44.315  28.533  35.848  1.00  0.00    -0.014 A 
ATOM     71  C   UNL A   1      44.250  27.448  36.743  1.00  0.00     0.010 A 
ATOM     72  C   UNL A   1      45.575  29.040  35.481  1.00  0.00     0.010 A 
ATOM     73  C   UNL A   1      45.416  26.921  37.305  1.00  0.00     0.020 A 
ATOM     74  C   UNL A   1      46.745  28.496  36.020  1.00  0.00     0.020 A 
ATOM     75  C   UNL A   1      46.656  27.462  36.953  1.00  0.00     0.054 A 
BRANCH  75  76
ATOM     76  S   UNL A   1      48.152  26.827  37.760  1.00  0.00     0.124 S 
ATOM     77  O   UNL A   1      48.436  27.865  38.746  1.00  0.00    -0.237 OA
ATOM     78  O   UNL A   1      47.702  25.547  38.302  1.00  0.00    -0.237 OA
ATOM     79  O   UNL A   1      49.116  26.725  36.666  1.00  0.00    -0.744 OA
ENDBRANCH  75  76
ENDBRANCH  56  70
BRANCH  57  80
ATOM     80  C   UNL A   1      36.022  33.332  33.024  1.00  0.00    -0.014 A 
ATOM     81  C   UNL A   1      36.095  34.145  31.878  1.00  0.00     0.010 A 
ATOM     82  C   UNL A   1      34.823  33.302  33.761  1.00  0.00     0.010 A 
ATOM     83  C   UNL A   1      35.010  34.941  31.501  1.00  0.00     0.020 A 
ATOM     84  C   UNL A   1      33.724  34.074  33.370  1.00  0.00     0.020 A 
ATOM     85  C   UNL A   1      33.833  34.908  32.256  1.00  0.00     0.054 A 
BRANCH  85  86
ATOM     86  S   UNL A   1      32.445  35.966  31.761  1.00  0.00     0.124 S 
ATOM     87  O   UNL A   1      32.557  35.947  30.305  1.00  0.00    -0.237 OA
ATOM     88  O   UNL A   1      31.291  35.260  32.312  1.00  0.00    -0.237 OA
ATOM     89  O   UNL A   1      32.749  37.246  32.396  1.00  0.00    -0.744 OA
ENDBRANCH  85  86
ENDBRANCH  57  80
BRANCH  69  90
ATOM     90  C   UNL A   1      40.459  34.017  38.398  1.00  0.00    -0.014 A 
ATOM     91  C   UNL A   1      39.837  33.671  39.613  1.00  0.00     0.010 A 
ATOM     92  C   UNL A   1      41.012  35.301  38.251  1.00  0.00     0.010 A 
ATOM     93  C   UNL A   1      39.730  34.607  40.646  1.00  0.00     0.020 A 
ATOM     94  C   UNL A   1      40.932  36.229  39.292  1.00  0.00     0.020 A 
ATOM     95  C   UNL A   1      40.267  35.885  40.472  1.00  0.00     0.054 A 
BRANCH  95  96
ATOM     96  S   UNL A   1      40.075  37.104  41.803  1.00  0.00     0.124 S 
ATOM     97  O   UNL A   1      39.385  38.196  41.122  1.00  0.00    -0.237 OA
ATOM     98  O   UNL A   1      39.283  36.377  42.792  1.00  0.00    -0.237 OA
ATOM     99  O   UNL A   1      41.450  37.388  42.207  1.00  0.00    -0.744 OA
ENDBRANCH  95  96
ENDBRANCH  69  90
ENDBRANCH  43  44
ENDBRANCH  36  38
ENDBRANCH  35  36
ENDBRANCH  34  35
ENDBRANCH  33  34
ENDBRANCH  32  33
ENDBRANCH  31  32
ENDBRANCH   1  31
TORSDOF 23
ENDMDL
