MODEL 1
REMARK VINA RESULT:      -8.4      0.000      0.000
REMARK SMILES O=C(OCCOCCOCCOC(=O)[C@@H]1CC(=O)N(CCO)C1)c1ccc(-c2c3nc(c(-c4ccc(S(=O)(=O)[O-])cc4)c4ccc([nH]4)c(-c4ccc(S(=O)(=O)[O-])cc4)c4nc(c(-c5ccc(S(=O)(=O)[O-])cc5)c5ccc2[nH]5)C=C4)C=C3)cc1
REMARK SMILES IDX 7 1 6 2 5 3 4 4 3 5 2 6 1 7 24 8 25 9 83 10 26 11 82 12
REMARK SMILES IDX 27 13 28 14 29 15 76 16 30 17 81 18 75 19 77 20 31 21 80 22
REMARK SMILES IDX 74 23 73 24 32 26 62 27 43 28 61 29 44 30 47 31 60 32 78 33
REMARK SMILES IDX 45 34 46 35 59 37 79 38 48 39 33 40 34 41 42 42 35 43 41 44
REMARK SMILES IDX 36 45 37 46 38 47 39 48 40 49 63 50 64 51 72 52 65 53 71 54
REMARK SMILES IDX 66 55 67 56 68 57 69 58 70 59 49 60 50 61 58 62 51 63 57 64
REMARK SMILES IDX 52 65 53 66 54 67 55 68 56 69 8 70 9 71 10 72 11 73 12 74
REMARK SMILES IDX 13 75 14 76 15 77 16 78 23 79 17 80 19 81 18 82 20 83 21 84
REMARK SMILES IDX 22 85
REMARK H PARENT 77 25 47 36 22 86
REMARK Flexibility Score: inf
ROOT
ATOM      1  C   UNL A   1      39.797  32.121  32.109  1.00  0.00     0.188 C 
ENDROOT
BRANCH   1   2
ATOM      2  O   UNL A   1      39.240  32.981  31.114  1.00  0.00    -0.376 OA
BRANCH   2   3
ATOM      3  C   UNL A   1      38.867  32.330  29.893  1.00  0.00     0.202 C 
BRANCH   3   4
ATOM      4  C   UNL A   1      37.380  31.957  29.731  1.00  0.00     0.261 C 
BRANCH   4   5
ATOM      5  O   UNL A   1      37.124  30.541  29.693  1.00  0.00    -0.460 OA
BRANCH   5   6
ATOM      6  C   UNL A   1      37.547  29.630  28.780  1.00  0.00     0.338 C 
ATOM      7  O   UNL A   1      36.704  28.961  28.185  1.00  0.00    -0.246 OA
BRANCH   6   8
ATOM      8  C   UNL A   1      38.988  29.361  28.487  1.00  0.00     0.060 A 
ATOM      9  C   UNL A   1      39.942  29.045  29.451  1.00  0.00     0.016 A 
ATOM     10  C   UNL A   1      39.392  29.349  27.141  1.00  0.00     0.016 A 
ATOM     11  C   UNL A   1      41.267  28.823  29.127  1.00  0.00     0.010 A 
ATOM     12  C   UNL A   1      40.719  29.075  26.794  1.00  0.00     0.010 A 
ATOM     13  C   UNL A   1      41.666  28.844  27.798  1.00  0.00    -0.014 A 
BRANCH  13  14
ATOM     14  C   UNL A   1      43.112  28.769  27.536  1.00  0.00     0.031 A 
ATOM     15  C   UNL A   1      43.652  27.493  26.975  1.00  0.00     0.074 A 
ATOM     16  C   UNL A   1      43.865  29.880  27.635  1.00  0.00     0.049 A 
ATOM     17  N   UNL A   1      44.881  27.188  26.669  1.00  0.00    -0.248 NA
ATOM     18  C   UNL A   1      42.675  26.423  26.700  1.00  0.00     0.031 C 
ATOM     19  C   UNL A   1      43.366  31.200  28.027  1.00  0.00     0.029 A 
ATOM     20  N   UNL A   1      45.192  30.092  27.385  1.00  0.00    -0.354 N 
ATOM     21  C   UNL A   1      44.831  25.883  26.200  1.00  0.00     0.074 A 
ATOM     22  C   UNL A   1      43.456  25.449  26.262  1.00  0.00     0.031 C 
ATOM     23  C   UNL A   1      44.372  32.086  27.985  1.00  0.00     0.029 A 
ATOM     24  C   UNL A   1      45.596  31.384  27.629  1.00  0.00     0.049 A 
ATOM     25  H   UNL A   1      45.799  29.388  27.061  1.00  0.00     0.167 HD
ATOM     26  C   UNL A   1      45.858  25.119  25.767  1.00  0.00     0.031 A 
ATOM     27  C   UNL A   1      46.831  31.921  27.608  1.00  0.00     0.031 A 
ATOM     28  C   UNL A   1      47.215  25.586  25.735  1.00  0.00     0.049 A 
ATOM     29  C   UNL A   1      47.971  31.010  27.246  1.00  0.00     0.074 A 
ATOM     30  C   UNL A   1      48.357  24.895  25.379  1.00  0.00     0.029 A 
ATOM     31  N   UNL A   1      47.610  26.874  26.079  1.00  0.00    -0.354 N 
ATOM     32  N   UNL A   1      47.927  29.753  26.866  1.00  0.00    -0.248 NA
ATOM     33  C   UNL A   1      49.321  31.578  27.316  1.00  0.00     0.031 C 
ATOM     34  C   UNL A   1      49.449  25.747  25.571  1.00  0.00     0.029 A 
ATOM     35  C   UNL A   1      48.981  26.992  25.971  1.00  0.00     0.049 A 
ATOM     36  H   UNL A   1      47.000  27.595  26.358  1.00  0.00     0.167 HD
ATOM     37  C   UNL A   1      49.244  29.386  26.627  1.00  0.00     0.074 A 
ATOM     38  C   UNL A   1      50.054  30.561  26.885  1.00  0.00     0.031 C 
ATOM     39  C   UNL A   1      49.742  28.188  26.232  1.00  0.00     0.031 A 
BRANCH  26  40
ATOM     40  C   UNL A   1      45.551  23.698  25.392  1.00  0.00    -0.014 A 
ATOM     41  C   UNL A   1      45.594  22.656  26.335  1.00  0.00     0.010 A 
ATOM     42  C   UNL A   1      45.222  23.400  24.057  1.00  0.00     0.010 A 
ATOM     43  C   UNL A   1      45.338  21.338  25.943  1.00  0.00     0.020 A 
ATOM     44  C   UNL A   1      44.937  22.090  23.668  1.00  0.00     0.020 A 
ATOM     45  C   UNL A   1      45.009  21.065  24.612  1.00  0.00     0.054 A 
BRANCH  45  46
ATOM     46  S   UNL A   1      44.643  19.352  24.141  1.00  0.00     0.124 S 
ATOM     47  O   UNL A   1      45.799  18.638  24.678  1.00  0.00    -0.237 OA
ATOM     48  O   UNL A   1      43.376  19.099  24.822  1.00  0.00    -0.237 OA
ATOM     49  O   UNL A   1      44.566  19.402  22.683  1.00  0.00    -0.744 OA
ENDBRANCH  45  46
ENDBRANCH  26  40
BRANCH  27  50
ATOM     50  C   UNL A   1      47.058  33.336  28.013  1.00  0.00    -0.014 A 
ATOM     51  C   UNL A   1      47.277  33.688  29.356  1.00  0.00     0.010 A 
ATOM     52  C   UNL A   1      47.027  34.356  27.043  1.00  0.00     0.010 A 
ATOM     53  C   UNL A   1      47.432  35.031  29.723  1.00  0.00     0.020 A 
ATOM     54  C   UNL A   1      47.203  35.695  27.402  1.00  0.00     0.020 A 
ATOM     55  C   UNL A   1      47.392  36.026  28.743  1.00  0.00     0.054 A 
BRANCH  55  56
ATOM     56  S   UNL A   1      47.625  37.757  29.229  1.00  0.00     0.124 S 
ATOM     57  O   UNL A   1      49.070  37.915  29.108  1.00  0.00    -0.237 OA
ATOM     58  O   UNL A   1      46.823  38.472  28.238  1.00  0.00    -0.237 OA
ATOM     59  O   UNL A   1      47.097  37.801  30.590  1.00  0.00    -0.744 OA
ENDBRANCH  55  56
ENDBRANCH  27  50
BRANCH  39  60
ATOM     60  C   UNL A   1      51.225  28.113  26.005  1.00  0.00    -0.014 A 
ATOM     61  C   UNL A   1      51.794  28.472  24.772  1.00  0.00     0.010 A 
ATOM     62  C   UNL A   1      52.059  27.740  27.074  1.00  0.00     0.010 A 
ATOM     63  C   UNL A   1      53.178  28.430  24.604  1.00  0.00     0.020 A 
ATOM     64  C   UNL A   1      53.444  27.733  26.921  1.00  0.00     0.020 A 
ATOM     65  C   UNL A   1      53.994  28.066  25.681  1.00  0.00     0.054 A 
BRANCH  65  66
ATOM     66  S   UNL A   1      55.790  28.079  25.454  1.00  0.00     0.124 S 
ATOM     67  O   UNL A   1      56.087  26.656  25.302  1.00  0.00    -0.237 OA
ATOM     68  O   UNL A   1      55.954  28.888  24.249  1.00  0.00    -0.237 OA
ATOM     69  O   UNL A   1      56.290  28.692  26.682  1.00  0.00    -0.744 OA
ENDBRANCH  65  66
ENDBRANCH  39  60
ENDBRANCH  13  14
ENDBRANCH   6   8
ENDBRANCH   5   6
ENDBRANCH   4   5
ENDBRANCH   3   4
ENDBRANCH   2   3
ENDBRANCH   1   2
BRANCH   1  70
ATOM     70  C   UNL A   1      39.572  32.619  33.538  1.00  0.00     0.188 C 
BRANCH  70  71
ATOM     71  O   UNL A   1      38.675  31.879  34.364  1.00  0.00    -0.376 OA
BRANCH  71  72
ATOM     72  C   UNL A   1      37.412  31.524  33.811  1.00  0.00     0.202 C 
BRANCH  72  73
ATOM     73  C   UNL A   1      36.540  32.639  33.205  1.00  0.00     0.261 C 
BRANCH  73  74
ATOM     74  O   UNL A   1      35.196  32.229  32.915  1.00  0.00    -0.463 OA
BRANCH  74  75
ATOM     75  C   UNL A   1      34.274  33.229  32.840  1.00  0.00     0.311 C 
ATOM     76  O   UNL A   1      33.114  33.143  33.214  1.00  0.00    -0.252 OA
BRANCH  75  77
ATOM     77  C   UNL A   1      34.919  34.500  32.329  1.00  0.00     0.128 C 
ATOM     78  C   UNL A   1      34.200  35.706  32.931  1.00  0.00     0.117 C 
ATOM     79  C   UNL A   1      34.760  34.664  30.835  1.00  0.00     0.135 C 
ATOM     80  C   UNL A   1      33.186  36.072  31.874  1.00  0.00     0.223 C 
ATOM     81  N   UNL A   1      33.575  35.465  30.692  1.00  0.00    -0.339 N 
ATOM     82  O   UNL A   1      32.262  36.845  32.035  1.00  0.00    -0.275 OA
BRANCH  81  83
ATOM     83  C   UNL A   1      32.940  35.712  29.399  1.00  0.00     0.147 C 
BRANCH  83  84
ATOM     84  C   UNL A   1      33.544  36.924  28.687  1.00  0.00     0.177 C 
BRANCH  84  85
ATOM     85  O   UNL A   1      34.633  36.537  27.846  1.00  0.00    -0.395 OA
ATOM     86  H   UNL A   1      35.461  36.572  28.351  1.00  0.00     0.210 HD
ENDBRANCH  84  85
ENDBRANCH  83  84
ENDBRANCH  81  83
ENDBRANCH  75  77
ENDBRANCH  74  75
ENDBRANCH  73  74
ENDBRANCH  72  73
ENDBRANCH  71  72
ENDBRANCH  70  71
ENDBRANCH   1  70
TORSDOF 23
ENDMDL
MODEL 2
REMARK VINA RESULT:      -8.4      7.625     13.254
REMARK SMILES O=C(OCCOCCOCCOC(=O)[C@@H]1CC(=O)N(CCO)C1)c1ccc(-c2c3nc(c(-c4ccc(S(=O)(=O)[O-])cc4)c4ccc([nH]4)c(-c4ccc(S(=O)(=O)[O-])cc4)c4nc(c(-c5ccc(S(=O)(=O)[O-])cc5)c5ccc2[nH]5)C=C4)C=C3)cc1
REMARK SMILES IDX 7 1 6 2 5 3 4 4 3 5 2 6 1 7 24 8 25 9 83 10 26 11 82 12
REMARK SMILES IDX 27 13 28 14 29 15 76 16 30 17 81 18 75 19 77 20 31 21 80 22
REMARK SMILES IDX 74 23 73 24 32 26 62 27 43 28 61 29 44 30 47 31 60 32 78 33
REMARK SMILES IDX 45 34 46 35 59 37 79 38 48 39 33 40 34 41 42 42 35 43 41 44
REMARK SMILES IDX 36 45 37 46 38 47 39 48 40 49 63 50 64 51 72 52 65 53 71 54
REMARK SMILES IDX 66 55 67 56 68 57 69 58 70 59 49 60 50 61 58 62 51 63 57 64
REMARK SMILES IDX 52 65 53 66 54 67 55 68 56 69 8 70 9 71 10 72 11 73 12 74
REMARK SMILES IDX 13 75 14 76 15 77 16 78 23 79 17 80 19 81 18 82 20 83 21 84
REMARK SMILES IDX 22 85
REMARK H PARENT 77 25 47 36 22 86
REMARK Flexibility Score: inf
ROOT
ATOM      1  C   UNL A   1      36.193  22.103  25.254  1.00  0.00     0.188 C 
ENDROOT
BRANCH   1   2
ATOM      2  O   UNL A   1      36.677  23.106  26.147  1.00  0.00    -0.376 OA
BRANCH   2   3
ATOM      3  C   UNL A   1      38.023  23.532  25.905  1.00  0.00     0.202 C 
BRANCH   3   4
ATOM      4  C   UNL A   1      39.146  22.612  26.424  1.00  0.00     0.261 C 
BRANCH   4   5
ATOM      5  O   UNL A   1      40.085  23.259  27.301  1.00  0.00    -0.460 OA
BRANCH   5   6
ATOM      6  C   UNL A   1      40.696  24.462  27.148  1.00  0.00     0.338 C 
ATOM      7  O   UNL A   1      41.449  24.620  26.188  1.00  0.00    -0.246 OA
BRANCH   6   8
ATOM      8  C   UNL A   1      40.539  25.597  28.107  1.00  0.00     0.060 A 
ATOM      9  C   UNL A   1      41.451  26.639  28.251  1.00  0.00     0.016 A 
ATOM     10  C   UNL A   1      39.354  25.660  28.860  1.00  0.00     0.016 A 
ATOM     11  C   UNL A   1      41.266  27.656  29.168  1.00  0.00     0.010 A 
ATOM     12  C   UNL A   1      39.128  26.712  29.755  1.00  0.00     0.010 A 
ATOM     13  C   UNL A   1      40.107  27.695  29.930  1.00  0.00    -0.014 A 
BRANCH  13  14
ATOM     14  C   UNL A   1      40.049  28.703  31.002  1.00  0.00     0.031 A 
ATOM     15  C   UNL A   1      41.054  28.604  32.104  1.00  0.00     0.074 A 
ATOM     16  C   UNL A   1      39.231  29.763  30.875  1.00  0.00     0.049 A 
ATOM     17  N   UNL A   1      41.198  29.365  33.152  1.00  0.00    -0.248 NA
ATOM     18  C   UNL A   1      42.045  27.518  32.003  1.00  0.00     0.031 C 
ATOM     19  C   UNL A   1      38.334  30.001  29.742  1.00  0.00     0.029 A 
ATOM     20  N   UNL A   1      39.041  30.853  31.678  1.00  0.00    -0.354 N 
ATOM     21  C   UNL A   1      42.270  28.830  33.852  1.00  0.00     0.074 A 
ATOM     22  C   UNL A   1      42.741  27.680  33.117  1.00  0.00     0.031 C 
ATOM     23  C   UNL A   1      37.694  31.167  29.918  1.00  0.00     0.029 A 
ATOM     24  C   UNL A   1      38.085  31.722  31.205  1.00  0.00     0.049 A 
ATOM     25  H   UNL A   1      39.540  31.002  32.513  1.00  0.00     0.167 HD
ATOM     26  C   UNL A   1      42.800  29.266  35.015  1.00  0.00     0.031 A 
ATOM     27  C   UNL A   1      37.558  32.820  31.778  1.00  0.00     0.031 A 
ATOM     28  C   UNL A   1      42.292  30.407  35.722  1.00  0.00     0.049 A 
ATOM     29  C   UNL A   1      38.080  33.207  33.134  1.00  0.00     0.074 A 
ATOM     30  C   UNL A   1      42.694  30.918  36.941  1.00  0.00     0.029 A 
ATOM     31  N   UNL A   1      41.257  31.215  35.265  1.00  0.00    -0.354 N 
ATOM     32  N   UNL A   1      39.052  32.657  33.825  1.00  0.00    -0.248 NA
ATOM     33  C   UNL A   1      37.436  34.349  33.792  1.00  0.00     0.031 C 
ATOM     34  C   UNL A   1      41.859  31.995  37.249  1.00  0.00     0.029 A 
ATOM     35  C   UNL A   1      40.988  32.205  36.188  1.00  0.00     0.049 A 
ATOM     36  H   UNL A   1      40.786  31.098  34.408  1.00  0.00     0.167 HD
ATOM     37  C   UNL A   1      39.153  33.402  34.992  1.00  0.00     0.074 A 
ATOM     38  C   UNL A   1      38.158  34.453  34.899  1.00  0.00     0.031 C 
ATOM     39  C   UNL A   1      39.990  33.236  36.046  1.00  0.00     0.031 A 
BRANCH  26  40
ATOM     40  C   UNL A   1      43.910  28.453  35.617  1.00  0.00    -0.014 A 
ATOM     41  C   UNL A   1      43.655  27.373  36.481  1.00  0.00     0.010 A 
ATOM     42  C   UNL A   1      45.243  28.787  35.314  1.00  0.00     0.010 A 
ATOM     43  C   UNL A   1      44.713  26.660  37.052  1.00  0.00     0.020 A 
ATOM     44  C   UNL A   1      46.302  28.060  35.860  1.00  0.00     0.020 A 
ATOM     45  C   UNL A   1      46.030  27.007  36.735  1.00  0.00     0.054 A 
BRANCH  45  46
ATOM     46  S   UNL A   1      47.383  26.040  37.459  1.00  0.00     0.124 S 
ATOM     47  O   UNL A   1      48.241  25.807  36.299  1.00  0.00    -0.237 OA
ATOM     48  O   UNL A   1      47.920  26.952  38.465  1.00  0.00    -0.237 OA
ATOM     49  O   UNL A   1      46.717  24.853  37.988  1.00  0.00    -0.744 OA
ENDBRANCH  45  46
ENDBRANCH  26  40
BRANCH  27  50
ATOM     50  C   UNL A   1      36.444  33.565  31.128  1.00  0.00    -0.014 A 
ATOM     51  C   UNL A   1      35.213  33.759  31.779  1.00  0.00     0.010 A 
ATOM     52  C   UNL A   1      36.603  34.065  29.821  1.00  0.00     0.010 A 
ATOM     53  C   UNL A   1      34.159  34.412  31.128  1.00  0.00     0.020 A 
ATOM     54  C   UNL A   1      35.561  34.736  29.176  1.00  0.00     0.020 A 
ATOM     55  C   UNL A   1      34.340  34.894  29.829  1.00  0.00     0.054 A 
BRANCH  55  56
ATOM     56  S   UNL A   1      32.976  35.765  29.010  1.00  0.00     0.124 S 
ATOM     57  O   UNL A   1      32.370  34.702  28.216  1.00  0.00    -0.237 OA
ATOM     58  O   UNL A   1      32.184  36.243  30.141  1.00  0.00    -0.237 OA
ATOM     59  O   UNL A   1      33.652  36.814  28.250  1.00  0.00    -0.744 OA
ENDBRANCH  55  56
ENDBRANCH  27  50
BRANCH  39  60
ATOM     60  C   UNL A   1      39.894  34.247  37.152  1.00  0.00    -0.014 A 
ATOM     61  C   UNL A   1      39.063  34.036  38.265  1.00  0.00     0.010 A 
ATOM     62  C   UNL A   1      40.708  35.393  37.100  1.00  0.00     0.010 A 
ATOM     63  C   UNL A   1      39.024  34.975  39.295  1.00  0.00     0.020 A 
ATOM     64  C   UNL A   1      40.700  36.314  38.145  1.00  0.00     0.020 A 
ATOM     65  C   UNL A   1      39.847  36.106  39.231  1.00  0.00     0.054 A 
BRANCH  65  66
ATOM     66  S   UNL A   1      39.824  37.277  40.611  1.00  0.00     0.124 S 
ATOM     67  O   UNL A   1      41.212  37.241  41.063  1.00  0.00    -0.237 OA
ATOM     68  O   UNL A   1      39.401  38.519  39.969  1.00  0.00    -0.237 OA
ATOM     69  O   UNL A   1      38.852  36.701  41.538  1.00  0.00    -0.744 OA
ENDBRANCH  65  66
ENDBRANCH  39  60
ENDBRANCH  13  14
ENDBRANCH   6   8
ENDBRANCH   5   6
ENDBRANCH   4   5
ENDBRANCH   3   4
ENDBRANCH   2   3
ENDBRANCH   1   2
BRANCH   1  70
ATOM     70  C   UNL A   1      35.050  21.269  25.838  1.00  0.00     0.188 C 
BRANCH  70  71
ATOM     71  O   UNL A   1      33.851  21.950  26.198  1.00  0.00    -0.376 OA
BRANCH  71  72
ATOM     72  C   UNL A   1      32.709  21.754  25.371  1.00  0.00     0.202 C 
BRANCH  72  73
ATOM     73  C   UNL A   1      32.912  21.699  23.845  1.00  0.00     0.261 C 
BRANCH  73  74
ATOM     74  O   UNL A   1      32.361  22.826  23.148  1.00  0.00    -0.463 OA
BRANCH  74  75
ATOM     75  C   UNL A   1      33.261  23.627  22.513  1.00  0.00     0.311 C 
ATOM     76  O   UNL A   1      34.405  23.307  22.225  1.00  0.00    -0.252 OA
BRANCH  75  77
ATOM     77  C   UNL A   1      32.610  24.935  22.115  1.00  0.00     0.128 C 
ATOM     78  C   UNL A   1      33.460  26.097  22.626  1.00  0.00     0.117 C 
ATOM     79  C   UNL A   1      31.261  25.127  22.770  1.00  0.00     0.135 C 
ATOM     80  C   UNL A   1      32.816  26.446  23.946  1.00  0.00     0.223 C 
ATOM     81  N   UNL A   1      31.551  25.883  23.958  1.00  0.00    -0.339 N 
ATOM     82  O   UNL A   1      33.304  27.178  24.786  1.00  0.00    -0.275 OA
BRANCH  81  83
ATOM     83  C   UNL A   1      30.554  26.135  24.996  1.00  0.00     0.147 C 
BRANCH  83  84
ATOM     84  C   UNL A   1      30.822  25.313  26.259  1.00  0.00     0.177 C 
BRANCH  84  85
ATOM     85  O   UNL A   1      29.710  24.472  26.571  1.00  0.00    -0.395 OA
ATOM     86  H   UNL A   1      29.141  24.383  25.790  1.00  0.00     0.210 HD
ENDBRANCH  84  85
ENDBRANCH  83  84
ENDBRANCH  81  83
ENDBRANCH  75  77
ENDBRANCH  74  75
ENDBRANCH  73  74
ENDBRANCH  72  73
ENDBRANCH  71  72
ENDBRANCH  70  71
ENDBRANCH   1  70
TORSDOF 23
ENDMDL
MODEL 3
REMARK VINA RESULT:      -8.2      4.436     10.249
REMARK SMILES O=C(OCCOCCOCCOC(=O)[C@@H]1CC(=O)N(CCO)C1)c1ccc(-c2c3nc(c(-c4ccc(S(=O)(=O)[O-])cc4)c4ccc([nH]4)c(-c4ccc(S(=O)(=O)[O-])cc4)c4nc(c(-c5ccc(S(=O)(=O)[O-])cc5)c5ccc2[nH]5)C=C4)C=C3)cc1
REMARK SMILES IDX 7 1 6 2 5 3 4 4 3 5 2 6 1 7 24 8 25 9 83 10 26 11 82 12
REMARK SMILES IDX 27 13 28 14 29 15 76 16 30 17 81 18 75 19 77 20 31 21 80 22
REMARK SMILES IDX 74 23 73 24 32 26 62 27 43 28 61 29 44 30 47 31 60 32 78 33
REMARK SMILES IDX 45 34 46 35 59 37 79 38 48 39 33 40 34 41 42 42 35 43 41 44
REMARK SMILES IDX 36 45 37 46 38 47 39 48 40 49 63 50 64 51 72 52 65 53 71 54
REMARK SMILES IDX 66 55 67 56 68 57 69 58 70 59 49 60 50 61 58 62 51 63 57 64
REMARK SMILES IDX 52 65 53 66 54 67 55 68 56 69 8 70 9 71 10 72 11 73 12 74
REMARK SMILES IDX 13 75 14 76 15 77 16 78 23 79 17 80 19 81 18 82 20 83 21 84
REMARK SMILES IDX 22 85
REMARK H PARENT 77 25 47 36 22 86
REMARK Flexibility Score: inf
ROOT
ATOM      1  C   UNL A   1      37.716  22.337  25.766  1.00  0.00     0.188 C 
ENDROOT
BRANCH   1   2
ATOM      2  O   UNL A   1      38.146  21.311  24.871  1.00  0.00    -0.376 OA
BRANCH   2   3
ATOM      3  C   UNL A   1      38.089  19.982  25.402  1.00  0.00     0.202 C 
BRANCH   3   4
ATOM      4  C   UNL A   1      39.419  19.205  25.473  1.00  0.00     0.261 C 
BRANCH   4   5
ATOM      5  O   UNL A   1      40.344  19.702  26.456  1.00  0.00    -0.460 OA
BRANCH   5   6
ATOM      6  C   UNL A   1      41.634  20.090  26.284  1.00  0.00     0.338 C 
ATOM      7  O   UNL A   1      42.461  19.245  25.942  1.00  0.00    -0.246 OA
BRANCH   6   8
ATOM      8  C   UNL A   1      42.117  21.483  26.528  1.00  0.00     0.060 A 
ATOM      9  C   UNL A   1      42.160  22.482  25.560  1.00  0.00     0.016 A 
ATOM     10  C   UNL A   1      42.479  21.830  27.841  1.00  0.00     0.016 A 
ATOM     11  C   UNL A   1      42.634  23.751  25.835  1.00  0.00     0.010 A 
ATOM     12  C   UNL A   1      42.911  23.126  28.145  1.00  0.00     0.010 A 
ATOM     13  C   UNL A   1      43.019  24.079  27.127  1.00  0.00    -0.014 A 
BRANCH  13  14
ATOM     14  C   UNL A   1      43.670  25.385  27.316  1.00  0.00     0.031 A 
ATOM     15  C   UNL A   1      42.874  26.471  27.966  1.00  0.00     0.074 A 
ATOM     16  C   UNL A   1      44.986  25.515  27.071  1.00  0.00     0.049 A 
ATOM     17  N   UNL A   1      43.225  27.697  28.232  1.00  0.00    -0.248 NA
ATOM     18  C   UNL A   1      41.506  26.126  28.394  1.00  0.00     0.031 C 
ATOM     19  C   UNL A   1      45.859  24.445  26.583  1.00  0.00     0.029 A 
ATOM     20  N   UNL A   1      45.830  26.580  27.227  1.00  0.00    -0.354 N 
ATOM     21  C   UNL A   1      42.113  28.279  28.825  1.00  0.00     0.074 A 
ATOM     22  C   UNL A   1      41.074  27.278  28.880  1.00  0.00     0.031 C 
ATOM     23  C   UNL A   1      47.116  24.905  26.486  1.00  0.00     0.029 A 
ATOM     24  C   UNL A   1      47.123  26.317  26.840  1.00  0.00     0.049 A 
ATOM     25  H   UNL A   1      45.539  27.451  27.583  1.00  0.00     0.167 HD
ATOM     26  C   UNL A   1      41.982  29.546  29.273  1.00  0.00     0.031 A 
ATOM     27  C   UNL A   1      48.180  27.144  26.743  1.00  0.00     0.031 A 
ATOM     28  C   UNL A   1      43.038  30.515  29.187  1.00  0.00     0.049 A 
ATOM     29  C   UNL A   1      47.967  28.582  27.128  1.00  0.00     0.074 A 
ATOM     30  C   UNL A   1      43.017  31.849  29.544  1.00  0.00     0.029 A 
ATOM     31  N   UNL A   1      44.312  30.245  28.701  1.00  0.00    -0.354 N 
ATOM     32  N   UNL A   1      46.891  29.145  27.628  1.00  0.00    -0.248 NA
ATOM     33  C   UNL A   1      49.097  29.496  26.931  1.00  0.00     0.031 C 
ATOM     34  C   UNL A   1      44.258  32.400  29.213  1.00  0.00     0.029 A 
ATOM     35  C   UNL A   1      45.078  31.393  28.723  1.00  0.00     0.049 A 
ATOM     36  H   UNL A   1      44.621  29.364  28.388  1.00  0.00     0.167 HD
ATOM     37  C   UNL A   1      47.222  30.477  27.829  1.00  0.00     0.074 A 
ATOM     38  C   UNL A   1      48.604  30.627  27.416  1.00  0.00     0.031 C 
ATOM     39  C   UNL A   1      46.456  31.489  28.308  1.00  0.00     0.031 A 
BRANCH  26  40
ATOM     40  C   UNL A   1      40.636  29.958  29.798  1.00  0.00    -0.014 A 
ATOM     41  C   UNL A   1      40.414  30.193  31.167  1.00  0.00     0.010 A 
ATOM     42  C   UNL A   1      39.567  30.103  28.895  1.00  0.00     0.010 A 
ATOM     43  C   UNL A   1      39.140  30.539  31.625  1.00  0.00     0.020 A 
ATOM     44  C   UNL A   1      38.299  30.477  29.346  1.00  0.00     0.020 A 
ATOM     45  C   UNL A   1      38.092  30.682  30.711  1.00  0.00     0.054 A 
BRANCH  45  46
ATOM     46  S   UNL A   1      36.458  31.170  31.329  1.00  0.00     0.124 S 
ATOM     47  O   UNL A   1      36.765  32.403  32.051  1.00  0.00    -0.237 OA
ATOM     48  O   UNL A   1      35.690  31.338  30.098  1.00  0.00    -0.237 OA
ATOM     49  O   UNL A   1      36.052  30.045  32.166  1.00  0.00    -0.744 OA
ENDBRANCH  45  46
ENDBRANCH  26  40
BRANCH  27  50
ATOM     50  C   UNL A   1      49.480  26.666  26.194  1.00  0.00    -0.014 A 
ATOM     51  C   UNL A   1      50.293  25.770  26.910  1.00  0.00     0.010 A 
ATOM     52  C   UNL A   1      49.930  27.138  24.946  1.00  0.00     0.010 A 
ATOM     53  C   UNL A   1      51.538  25.378  26.402  1.00  0.00     0.020 A 
ATOM     54  C   UNL A   1      51.161  26.733  24.425  1.00  0.00     0.020 A 
ATOM     55  C   UNL A   1      51.964  25.864  25.163  1.00  0.00     0.054 A 
BRANCH  55  56
ATOM     56  S   UNL A   1      53.565  25.323  24.503  1.00  0.00     0.124 S 
ATOM     57  O   UNL A   1      53.415  25.599  23.079  1.00  0.00    -0.237 OA
ATOM     58  O   UNL A   1      54.506  26.180  25.221  1.00  0.00    -0.237 OA
ATOM     59  O   UNL A   1      53.622  23.910  24.869  1.00  0.00    -0.744 OA
ENDBRANCH  55  56
ENDBRANCH  27  50
BRANCH  39  60
ATOM     60  C   UNL A   1      47.120  32.827  28.460  1.00  0.00    -0.014 A 
ATOM     61  C   UNL A   1      47.056  33.794  27.443  1.00  0.00     0.010 A 
ATOM     62  C   UNL A   1      47.758  33.137  29.674  1.00  0.00     0.010 A 
ATOM     63  C   UNL A   1      47.648  35.043  27.628  1.00  0.00     0.020 A 
ATOM     64  C   UNL A   1      48.319  34.397  29.877  1.00  0.00     0.020 A 
ATOM     65  C   UNL A   1      48.272  35.338  28.846  1.00  0.00     0.054 A 
BRANCH  65  66
ATOM     66  S   UNL A   1      48.979  36.987  29.083  1.00  0.00     0.124 S 
ATOM     67  O   UNL A   1      48.427  37.370  30.381  1.00  0.00    -0.237 OA
ATOM     68  O   UNL A   1      50.416  36.725  29.063  1.00  0.00    -0.237 OA
ATOM     69  O   UNL A   1      48.474  37.748  27.943  1.00  0.00    -0.744 OA
ENDBRANCH  65  66
ENDBRANCH  39  60
ENDBRANCH  13  14
ENDBRANCH   6   8
ENDBRANCH   5   6
ENDBRANCH   4   5
ENDBRANCH   3   4
ENDBRANCH   2   3
ENDBRANCH   1   2
BRANCH   1  70
ATOM     70  C   UNL A   1      36.326  22.887  25.438  1.00  0.00     0.188 C 
BRANCH  70  71
ATOM     71  O   UNL A   1      35.474  22.089  24.620  1.00  0.00    -0.376 OA
BRANCH  71  72
ATOM     72  C   UNL A   1      34.184  22.606  24.313  1.00  0.00     0.202 C 
BRANCH  72  73
ATOM     73  C   UNL A   1      33.948  23.199  22.911  1.00  0.00     0.261 C 
BRANCH  73  74
ATOM     74  O   UNL A   1      34.435  24.541  22.762  1.00  0.00    -0.463 OA
BRANCH  74  75
ATOM     75  C   UNL A   1      33.484  25.515  22.710  1.00  0.00     0.311 C 
ATOM     76  O   UNL A   1      32.521  25.516  21.958  1.00  0.00    -0.252 OA
BRANCH  75  77
ATOM     77  C   UNL A   1      33.728  26.544  23.795  1.00  0.00     0.128 C 
ATOM     78  C   UNL A   1      32.953  26.146  25.049  1.00  0.00     0.117 C 
ATOM     79  C   UNL A   1      33.188  27.906  23.424  1.00  0.00     0.135 C 
ATOM     80  C   UNL A   1      31.664  26.923  24.925  1.00  0.00     0.223 C 
ATOM     81  N   UNL A   1      31.870  27.931  23.999  1.00  0.00    -0.339 N 
ATOM     82  O   UNL A   1      30.673  26.738  25.604  1.00  0.00    -0.275 OA
BRANCH  81  83
ATOM     83  C   UNL A   1      30.910  28.997  23.724  1.00  0.00     0.147 C 
BRANCH  83  84
ATOM     84  C   UNL A   1      30.293  28.868  22.330  1.00  0.00     0.177 C 
BRANCH  84  85
ATOM     85  O   UNL A   1      30.743  29.915  21.468  1.00  0.00    -0.395 OA
ATOM     86  H   UNL A   1      31.594  29.666  21.073  1.00  0.00     0.210 HD
ENDBRANCH  84  85
ENDBRANCH  83  84
ENDBRANCH  81  83
ENDBRANCH  75  77
ENDBRANCH  74  75
ENDBRANCH  73  74
ENDBRANCH  72  73
ENDBRANCH  71  72
ENDBRANCH  70  71
ENDBRANCH   1  70
TORSDOF 23
ENDMDL
