MODEL 1
REMARK VINA RESULT:      -7.7      0.000      0.000
REMARK SMILES C[C@@H]1CN(C(=O)C[N@H+]2CCO[C@H](CC(=O)OCCOCCOCCOC(=O)c3ccc(-c4c5nc(c(-c6ccc(S(=O)(=O)[O-])cc6)c6ccc([nH]6)c(-c6ccc(S(=O)(=O)[O-])cc6)c6nc(c(-c7ccc(S(=O)(=O)[O-])cc7)c7ccc4[nH]7)C=C6)C=C5)cc3)C2)C[C@H](C)O1
REMARK SMILES IDX 20 1 19 2 18 3 17 4 16 5 14 6 15 7 13 8 12 9 8 10 9 11 88 12
REMARK SMILES IDX 10 14 11 15 7 16 5 17 6 18 4 19 1 20 2 21 3 22 92 23 90 24
REMARK SMILES IDX 89 25 91 26 21 27 22 28 23 29 24 30 25 31 26 32 27 33 28 34
REMARK SMILES IDX 29 35 87 36 30 37 86 38 31 39 32 40 33 41 80 42 34 43 85 44
REMARK SMILES IDX 79 45 81 46 35 47 84 48 78 49 77 50 36 52 66 53 47 54 65 55
REMARK SMILES IDX 48 56 51 57 64 58 82 59 49 60 50 61 63 63 83 64 52 65 37 66
REMARK SMILES IDX 38 67 46 68 39 69 45 70 40 71 41 72 42 73 43 74 44 75 67 76
REMARK SMILES IDX 68 77 76 78 69 79 75 80 70 81 71 82 72 83 73 84 74 85 53 86
REMARK SMILES IDX 54 87 62 88 55 89 61 90 56 91 57 92 58 93 59 94 60 95
REMARK H PARENT 8 13 81 51 51 62
REMARK Flexibility Score: inf
ROOT
ATOM      1  C   UNL A   1      33.860  35.014  32.785  1.00  0.00     0.188 C 
ENDROOT
BRANCH   1   2
ATOM      2  O   UNL A   1      32.841  35.328  31.843  1.00  0.00    -0.376 OA
BRANCH   2   3
ATOM      3  C   UNL A   1      33.202  36.192  30.765  1.00  0.00     0.202 C 
BRANCH   3   4
ATOM      4  C   UNL A   1      33.428  35.523  29.400  1.00  0.00     0.261 C 
BRANCH   4   5
ATOM      5  O   UNL A   1      34.033  34.221  29.518  1.00  0.00    -0.463 OA
BRANCH   5   6
ATOM      6  C   UNL A   1      34.219  33.535  28.357  1.00  0.00     0.308 C 
ATOM      7  O   UNL A   1      35.208  33.639  27.639  1.00  0.00    -0.252 OA
BRANCH   6   8
ATOM      8  C   UNL A   1      33.151  32.486  28.115  1.00  0.00     0.160 C 
BRANCH   8   9
ATOM      9  C   UNL A   1      33.583  31.318  27.232  1.00  0.00     0.184 C 
ATOM     10  N   UNL A   1      32.602  29.162  26.182  1.00  0.00    -0.323 N 
ATOM     11  C   UNL A   1      33.551  28.495  27.092  1.00  0.00     0.291 C 
ATOM     12  C   UNL A   1      32.333  30.520  26.725  1.00  0.00     0.295 C 
ATOM     13  H   UNL A   1      31.734  28.627  26.151  1.00  0.00     0.348 HD
ATOM     14  C   UNL A   1      34.809  29.312  27.372  1.00  0.00     0.222 C 
ATOM     15  O   UNL A   1      34.443  30.506  28.050  1.00  0.00    -0.366 OA
BRANCH  10  16
ATOM     16  C   UNL A   1      33.047  29.176  24.770  1.00  0.00     0.363 C 
BRANCH  16  17
ATOM     17  C   UNL A   1      32.369  28.048  23.947  1.00  0.00     0.277 C 
ATOM     18  O   UNL A   1      31.274  28.250  23.416  1.00  0.00    -0.268 OA
BRANCH  17  19
ATOM     19  N   UNL A   1      33.036  26.836  23.785  1.00  0.00    -0.333 N 
ATOM     20  C   UNL A   1      30.594  24.913  23.723  1.00  0.00     0.040 C 
ATOM     21  C   UNL A   1      32.075  24.587  23.890  1.00  0.00     0.135 C 
ATOM     22  C   UNL A   1      32.888  25.663  24.630  1.00  0.00     0.151 C 
ATOM     23  O   UNL A   1      32.691  24.248  22.635  1.00  0.00    -0.372 OA
ATOM     24  C   UNL A   1      33.070  25.354  21.787  1.00  0.00     0.135 C 
ATOM     25  C   UNL A   1      33.742  26.522  22.544  1.00  0.00     0.151 C 
ATOM     26  C   UNL A   1      31.920  25.816  20.901  1.00  0.00     0.040 C 
ENDBRANCH  17  19
ENDBRANCH  16  17
ENDBRANCH  10  16
ENDBRANCH   8   9
ENDBRANCH   6   8
ENDBRANCH   5   6
ENDBRANCH   4   5
ENDBRANCH   3   4
ENDBRANCH   2   3
ENDBRANCH   1   2
BRANCH   1  27
ATOM     27  C   UNL A   1      33.903  33.567  33.286  1.00  0.00     0.188 C 
BRANCH  27  28
ATOM     28  O   UNL A   1      35.146  33.150  33.840  1.00  0.00    -0.376 OA
BRANCH  28  29
ATOM     29  C   UNL A   1      35.994  32.386  32.977  1.00  0.00     0.202 C 
BRANCH  29  30
ATOM     30  C   UNL A   1      37.182  31.670  33.651  1.00  0.00     0.261 C 
BRANCH  30  31
ATOM     31  O   UNL A   1      38.482  32.155  33.257  1.00  0.00    -0.460 OA
BRANCH  31  32
ATOM     32  C   UNL A   1      39.457  31.234  33.064  1.00  0.00     0.338 C 
ATOM     33  O   UNL A   1      39.330  30.025  33.175  1.00  0.00    -0.246 OA
BRANCH  32  34
ATOM     34  C   UNL A   1      40.619  31.915  32.428  1.00  0.00     0.060 A 
ATOM     35  C   UNL A   1      40.513  32.296  31.083  1.00  0.00     0.016 A 
ATOM     36  C   UNL A   1      41.768  32.248  33.154  1.00  0.00     0.016 A 
ATOM     37  C   UNL A   1      41.567  32.962  30.451  1.00  0.00     0.010 A 
ATOM     38  C   UNL A   1      42.829  32.905  32.518  1.00  0.00     0.010 A 
ATOM     39  C   UNL A   1      42.749  33.231  31.153  1.00  0.00    -0.014 A 
BRANCH  39  40
ATOM     40  C   UNL A   1      43.979  33.610  30.409  1.00  0.00     0.031 A 
ATOM     41  C   UNL A   1      44.295  35.078  30.280  1.00  0.00     0.074 A 
ATOM     42  C   UNL A   1      44.817  32.697  29.882  1.00  0.00     0.049 A 
ATOM     43  N   UNL A   1      45.280  35.666  29.653  1.00  0.00    -0.248 NA
ATOM     44  C   UNL A   1      43.367  36.007  30.949  1.00  0.00     0.031 C 
ATOM     45  C   UNL A   1      44.667  31.246  29.975  1.00  0.00     0.029 A 
ATOM     46  N   UNL A   1      45.972  32.869  29.156  1.00  0.00    -0.354 N 
ATOM     47  C   UNL A   1      45.090  37.028  29.849  1.00  0.00     0.074 A 
ATOM     48  C   UNL A   1      43.877  37.183  30.622  1.00  0.00     0.031 C 
ATOM     49  C   UNL A   1      45.692  30.659  29.329  1.00  0.00     0.029 A 
ATOM     50  C   UNL A   1      46.553  31.691  28.748  1.00  0.00     0.049 A 
ATOM     51  H   UNL A   1      46.349  33.754  28.948  1.00  0.00     0.167 HD
ATOM     52  C   UNL A   1      45.857  38.064  29.434  1.00  0.00     0.031 A 
ATOM     53  C   UNL A   1      47.643  31.472  27.982  1.00  0.00     0.031 A 
ATOM     54  C   UNL A   1      47.056  37.922  28.655  1.00  0.00     0.049 A 
ATOM     55  C   UNL A   1      48.434  32.645  27.457  1.00  0.00     0.074 A 
ATOM     56  C   UNL A   1      47.897  38.915  28.184  1.00  0.00     0.029 A 
ATOM     57  N   UNL A   1      47.583  36.714  28.227  1.00  0.00    -0.354 N 
ATOM     58  N   UNL A   1      48.246  33.928  27.659  1.00  0.00    -0.248 NA
ATOM     59  C   UNL A   1      49.594  32.337  26.603  1.00  0.00     0.031 C 
ATOM     60  C   UNL A   1      48.905  38.310  27.427  1.00  0.00     0.029 A 
ATOM     61  C   UNL A   1      48.726  36.937  27.480  1.00  0.00     0.049 A 
ATOM     62  H   UNL A   1      47.200  35.828  28.426  1.00  0.00     0.167 HD
ATOM     63  C   UNL A   1      49.282  34.574  26.988  1.00  0.00     0.074 A 
ATOM     64  C   UNL A   1      50.098  33.544  26.383  1.00  0.00     0.031 C 
ATOM     65  C   UNL A   1      49.538  35.903  26.889  1.00  0.00     0.031 A 
BRANCH  52  66
ATOM     66  C   UNL A   1      45.394  39.450  29.792  1.00  0.00    -0.014 A 
ATOM     67  C   UNL A   1      44.424  40.116  29.021  1.00  0.00     0.010 A 
ATOM     68  C   UNL A   1      45.921  40.087  30.930  1.00  0.00     0.010 A 
ATOM     69  C   UNL A   1      44.019  41.410  29.358  1.00  0.00     0.020 A 
ATOM     70  C   UNL A   1      45.497  41.369  31.287  1.00  0.00     0.020 A 
ATOM     71  C   UNL A   1      44.562  42.029  30.488  1.00  0.00     0.054 A 
BRANCH  71  72
ATOM     72  S   UNL A   1      44.006  43.702  30.914  1.00  0.00     0.124 S 
ATOM     73  O   UNL A   1      44.695  43.934  32.181  1.00  0.00    -0.237 OA
ATOM     74  O   UNL A   1      44.484  44.496  29.786  1.00  0.00    -0.237 OA
ATOM     75  O   UNL A   1      42.555  43.572  31.009  1.00  0.00    -0.744 OA
ENDBRANCH  71  72
ENDBRANCH  52  66
BRANCH  53  76
ATOM     76  C   UNL A   1      48.053  30.079  27.640  1.00  0.00    -0.014 A 
ATOM     77  C   UNL A   1      49.108  29.451  28.326  1.00  0.00     0.010 A 
ATOM     78  C   UNL A   1      47.410  29.386  26.598  1.00  0.00     0.010 A 
ATOM     79  C   UNL A   1      49.528  28.167  27.961  1.00  0.00     0.020 A 
ATOM     80  C   UNL A   1      47.806  28.092  26.249  1.00  0.00     0.020 A 
ATOM     81  C   UNL A   1      48.873  27.495  26.924  1.00  0.00     0.054 A 
BRANCH  81  82
ATOM     82  S   UNL A   1      49.409  25.815  26.492  1.00  0.00     0.124 S 
ATOM     83  O   UNL A   1      49.233  25.804  25.043  1.00  0.00    -0.237 OA
ATOM     84  O   UNL A   1      50.791  25.795  26.962  1.00  0.00    -0.237 OA
ATOM     85  O   UNL A   1      48.490  24.961  27.242  1.00  0.00    -0.744 OA
ENDBRANCH  81  82
ENDBRANCH  53  76
BRANCH  65  86
ATOM     86  C   UNL A   1      50.778  36.329  26.143  1.00  0.00    -0.014 A 
ATOM     87  C   UNL A   1      51.969  36.647  26.816  1.00  0.00     0.010 A 
ATOM     88  C   UNL A   1      50.762  36.345  24.735  1.00  0.00     0.010 A 
ATOM     89  C   UNL A   1      53.115  37.004  26.097  1.00  0.00     0.020 A 
ATOM     90  C   UNL A   1      51.911  36.675  24.012  1.00  0.00     0.020 A 
ATOM     91  C   UNL A   1      53.078  37.016  24.698  1.00  0.00     0.054 A 
BRANCH  91  92
ATOM     92  S   UNL A   1      54.589  37.439  23.785  1.00  0.00     0.124 S 
ATOM     93  O   UNL A   1      55.582  37.501  24.854  1.00  0.00    -0.237 OA
ATOM     94  O   UNL A   1      54.730  36.316  22.861  1.00  0.00    -0.237 OA
ATOM     95  O   UNL A   1      54.268  38.718  23.157  1.00  0.00    -0.744 OA
ENDBRANCH  91  92
ENDBRANCH  65  86
ENDBRANCH  39  40
ENDBRANCH  32  34
ENDBRANCH  31  32
ENDBRANCH  30  31
ENDBRANCH  29  30
ENDBRANCH  28  29
ENDBRANCH  27  28
ENDBRANCH   1  27
TORSDOF 24
ENDMDL
MODEL 2
REMARK VINA RESULT:      -7.7      6.438     14.460
REMARK SMILES C[C@@H]1CN(C(=O)C[N@H+]2CCO[C@H](CC(=O)OCCOCCOCCOC(=O)c3ccc(-c4c5nc(c(-c6ccc(S(=O)(=O)[O-])cc6)c6ccc([nH]6)c(-c6ccc(S(=O)(=O)[O-])cc6)c6nc(c(-c7ccc(S(=O)(=O)[O-])cc7)c7ccc4[nH]7)C=C6)C=C5)cc3)C2)C[C@H](C)O1
REMARK SMILES IDX 20 1 19 2 18 3 17 4 16 5 14 6 15 7 13 8 12 9 8 10 9 11 88 12
REMARK SMILES IDX 10 14 11 15 7 16 5 17 6 18 4 19 1 20 2 21 3 22 92 23 90 24
REMARK SMILES IDX 89 25 91 26 21 27 22 28 23 29 24 30 25 31 26 32 27 33 28 34
REMARK SMILES IDX 29 35 87 36 30 37 86 38 31 39 32 40 33 41 80 42 34 43 85 44
REMARK SMILES IDX 79 45 81 46 35 47 84 48 78 49 77 50 36 52 66 53 47 54 65 55
REMARK SMILES IDX 48 56 51 57 64 58 82 59 49 60 50 61 63 63 83 64 52 65 37 66
REMARK SMILES IDX 38 67 46 68 39 69 45 70 40 71 41 72 42 73 43 74 44 75 67 76
REMARK SMILES IDX 68 77 76 78 69 79 75 80 70 81 71 82 72 83 73 84 74 85 53 86
REMARK SMILES IDX 54 87 62 88 55 89 61 90 56 91 57 92 58 93 59 94 60 95
REMARK H PARENT 8 13 81 51 51 62
REMARK Flexibility Score: inf
ROOT
ATOM      1  C   UNL A   1      47.746  41.388  28.190  1.00  0.00     0.188 C 
ENDROOT
BRANCH   1   2
ATOM      2  O   UNL A   1      46.592  41.144  28.985  1.00  0.00    -0.376 OA
BRANCH   2   3
ATOM      3  C   UNL A   1      45.347  41.017  28.295  1.00  0.00     0.202 C 
BRANCH   3   4
ATOM      4  C   UNL A   1      44.799  42.294  27.638  1.00  0.00     0.261 C 
BRANCH   4   5
ATOM      5  O   UNL A   1      45.353  42.522  26.328  1.00  0.00    -0.463 OA
BRANCH   5   6
ATOM      6  C   UNL A   1      44.503  42.359  25.277  1.00  0.00     0.308 C 
ATOM      7  O   UNL A   1      44.082  41.276  24.885  1.00  0.00    -0.252 OA
BRANCH   6   8
ATOM      8  C   UNL A   1      43.981  43.674  24.733  1.00  0.00     0.160 C 
BRANCH   8   9
ATOM      9  C   UNL A   1      44.531  44.070  23.365  1.00  0.00     0.184 C 
ATOM     10  N   UNL A   1      44.135  43.574  20.853  1.00  0.00    -0.323 N 
ATOM     11  C   UNL A   1      45.478  42.973  20.937  1.00  0.00     0.291 C 
ATOM     12  C   UNL A   1      43.563  43.600  22.225  1.00  0.00     0.295 C 
ATOM     13  H   UNL A   1      43.548  43.001  20.247  1.00  0.00     0.348 HD
ATOM     14  C   UNL A   1      46.381  43.634  21.974  1.00  0.00     0.222 C 
ATOM     15  O   UNL A   1      45.821  43.442  23.265  1.00  0.00    -0.366 OA
BRANCH  10  16
ATOM     16  C   UNL A   1      44.120  44.898  20.190  1.00  0.00     0.363 C 
BRANCH  16  17
ATOM     17  C   UNL A   1      43.704  44.785  18.699  1.00  0.00     0.277 C 
ATOM     18  O   UNL A   1      43.007  43.837  18.327  1.00  0.00    -0.268 OA
BRANCH  17  19
ATOM     19  N   UNL A   1      44.089  45.787  17.812  1.00  0.00    -0.333 N 
ATOM     20  C   UNL A   1      44.973  47.961  19.852  1.00  0.00     0.040 C 
ATOM     21  C   UNL A   1      44.705  48.094  18.356  1.00  0.00     0.135 C 
ATOM     22  C   UNL A   1      43.609  47.159  17.816  1.00  0.00     0.151 C 
ATOM     23  O   UNL A   1      45.914  47.969  17.585  1.00  0.00    -0.372 OA
ATOM     24  C   UNL A   1      46.384  46.625  17.343  1.00  0.00     0.135 C 
ATOM     25  C   UNL A   1      45.266  45.630  16.959  1.00  0.00     0.151 C 
ATOM     26  C   UNL A   1      47.260  46.113  18.479  1.00  0.00     0.040 C 
ENDBRANCH  17  19
ENDBRANCH  16  17
ENDBRANCH  10  16
ENDBRANCH   8   9
ENDBRANCH   6   8
ENDBRANCH   5   6
ENDBRANCH   4   5
ENDBRANCH   3   4
ENDBRANCH   2   3
ENDBRANCH   1   2
BRANCH   1  27
ATOM     27  C   UNL A   1      49.098  41.288  28.902  1.00  0.00     0.188 C 
BRANCH  27  28
ATOM     28  O   UNL A   1      50.059  40.448  28.272  1.00  0.00    -0.376 OA
BRANCH  28  29
ATOM     29  C   UNL A   1      49.544  39.277  27.630  1.00  0.00     0.202 C 
BRANCH  29  30
ATOM     30  C   UNL A   1      49.034  38.159  28.562  1.00  0.00     0.261 C 
BRANCH  30  31
ATOM     31  O   UNL A   1      47.693  37.706  28.285  1.00  0.00    -0.460 OA
BRANCH  31  32
ATOM     32  C   UNL A   1      46.990  37.178  29.316  1.00  0.00     0.338 C 
ATOM     33  O   UNL A   1      46.353  37.808  30.144  1.00  0.00    -0.246 OA
BRANCH  32  34
ATOM     34  C   UNL A   1      46.894  35.706  29.105  1.00  0.00     0.060 A 
ATOM     35  C   UNL A   1      46.929  35.218  27.791  1.00  0.00     0.016 A 
ATOM     36  C   UNL A   1      46.849  34.807  30.176  1.00  0.00     0.016 A 
ATOM     37  C   UNL A   1      46.870  33.844  27.545  1.00  0.00     0.010 A 
ATOM     38  C   UNL A   1      46.777  33.431  29.930  1.00  0.00     0.010 A 
ATOM     39  C   UNL A   1      46.748  32.944  28.611  1.00  0.00    -0.014 A 
BRANCH  39  40
ATOM     40  C   UNL A   1      46.336  31.540  28.350  1.00  0.00     0.031 A 
ATOM     41  C   UNL A   1      44.903  31.167  28.638  1.00  0.00     0.074 A 
ATOM     42  C   UNL A   1      47.178  30.618  27.849  1.00  0.00     0.049 A 
ATOM     43  N   UNL A   1      44.308  30.008  28.531  1.00  0.00    -0.248 NA
ATOM     44  C   UNL A   1      44.028  32.253  29.113  1.00  0.00     0.031 C 
ATOM     45  C   UNL A   1      48.572  30.850  27.475  1.00  0.00     0.029 A 
ATOM     46  N   UNL A   1      46.973  29.288  27.569  1.00  0.00    -0.354 N 
ATOM     47  C   UNL A   1      42.993  30.224  28.927  1.00  0.00     0.074 A 
ATOM     48  C   UNL A   1      42.886  31.614  29.310  1.00  0.00     0.031 C 
ATOM     49  C   UNL A   1      49.098  29.698  27.015  1.00  0.00     0.029 A 
ATOM     50  C   UNL A   1      48.089  28.641  27.093  1.00  0.00     0.049 A 
ATOM     51  H   UNL A   1      46.106  28.840  27.698  1.00  0.00     0.167 HD
ATOM     52  C   UNL A   1      41.959  29.350  28.963  1.00  0.00     0.031 A 
ATOM     53  C   UNL A   1      48.278  27.343  26.772  1.00  0.00     0.031 A 
ATOM     54  C   UNL A   1      42.058  27.964  28.597  1.00  0.00     0.049 A 
ATOM     55  C   UNL A   1      47.134  26.367  26.903  1.00  0.00     0.074 A 
ATOM     56  C   UNL A   1      41.065  27.001  28.606  1.00  0.00     0.029 A 
ATOM     57  N   UNL A   1      43.218  27.342  28.162  1.00  0.00    -0.354 N 
ATOM     58  N   UNL A   1      45.894  26.589  27.271  1.00  0.00    -0.248 NA
ATOM     59  C   UNL A   1      47.416  24.962  26.565  1.00  0.00     0.031 C 
ATOM     60  C   UNL A   1      41.637  25.782  28.225  1.00  0.00     0.029 A 
ATOM     61  C   UNL A   1      42.970  26.002  27.919  1.00  0.00     0.049 A 
ATOM     62  H   UNL A   1      44.088  27.787  28.044  1.00  0.00     0.167 HD
ATOM     63  C   UNL A   1      45.243  25.361  27.174  1.00  0.00     0.074 A 
ATOM     64  C   UNL A   1      46.221  24.403  26.706  1.00  0.00     0.031 C 
ATOM     65  C   UNL A   1      43.948  25.057  27.443  1.00  0.00     0.031 A 
BRANCH  52  66
ATOM     66  C   UNL A   1      40.635  29.871  29.450  1.00  0.00    -0.014 A 
ATOM     67  C   UNL A   1      39.598  30.177  28.550  1.00  0.00     0.010 A 
ATOM     68  C   UNL A   1      40.417  30.037  30.829  1.00  0.00     0.010 A 
ATOM     69  C   UNL A   1      38.380  30.677  29.019  1.00  0.00     0.020 A 
ATOM     70  C   UNL A   1      39.191  30.509  31.304  1.00  0.00     0.020 A 
ATOM     71  C   UNL A   1      38.187  30.842  30.394  1.00  0.00     0.054 A 
BRANCH  71  72
ATOM     72  S   UNL A   1      36.591  31.476  30.978  1.00  0.00     0.124 S 
ATOM     73  O   UNL A   1      35.929  31.826  29.724  1.00  0.00    -0.237 OA
ATOM     74  O   UNL A   1      36.029  30.328  31.684  1.00  0.00    -0.237 OA
ATOM     75  O   UNL A   1      36.956  32.608  31.826  1.00  0.00    -0.744 OA
ENDBRANCH  71  72
ENDBRANCH  52  66
BRANCH  53  76
ATOM     76  C   UNL A   1      49.615  26.870  26.310  1.00  0.00    -0.014 A 
ATOM     77  C   UNL A   1      49.937  26.849  24.940  1.00  0.00     0.010 A 
ATOM     78  C   UNL A   1      50.563  26.404  27.238  1.00  0.00     0.010 A 
ATOM     79  C   UNL A   1      51.170  26.349  24.508  1.00  0.00     0.020 A 
ATOM     80  C   UNL A   1      51.808  25.931  26.814  1.00  0.00     0.020 A 
ATOM     81  C   UNL A   1      52.099  25.894  25.449  1.00  0.00     0.054 A 
BRANCH  81  82
ATOM     82  S   UNL A   1      53.707  25.284  24.868  1.00  0.00     0.124 S 
ATOM     83  O   UNL A   1      54.609  25.766  25.910  1.00  0.00    -0.237 OA
ATOM     84  O   UNL A   1      53.501  23.839  24.828  1.00  0.00    -0.237 OA
ATOM     85  O   UNL A   1      53.862  25.921  23.562  1.00  0.00    -0.744 OA
ENDBRANCH  81  82
ENDBRANCH  53  76
BRANCH  65  86
ATOM     86  C   UNL A   1      43.489  23.643  27.191  1.00  0.00    -0.014 A 
ATOM     87  C   UNL A   1      43.289  22.735  28.243  1.00  0.00     0.010 A 
ATOM     88  C   UNL A   1      43.186  23.242  25.875  1.00  0.00     0.010 A 
ATOM     89  C   UNL A   1      42.827  21.440  27.984  1.00  0.00     0.020 A 
ATOM     90  C   UNL A   1      42.698  21.958  25.614  1.00  0.00     0.020 A 
ATOM     91  C   UNL A   1      42.534  21.061  26.670  1.00  0.00     0.054 A 
BRANCH  91  92
ATOM     92  S   UNL A   1      41.892  19.390  26.363  1.00  0.00     0.124 S 
ATOM     93  O   UNL A   1      42.504  18.626  27.446  1.00  0.00    -0.237 OA
ATOM     94  O   UNL A   1      40.447  19.579  26.464  1.00  0.00    -0.237 OA
ATOM     95  O   UNL A   1      42.381  19.072  25.023  1.00  0.00    -0.744 OA
ENDBRANCH  91  92
ENDBRANCH  65  86
ENDBRANCH  39  40
ENDBRANCH  32  34
ENDBRANCH  31  32
ENDBRANCH  30  31
ENDBRANCH  29  30
ENDBRANCH  28  29
ENDBRANCH  27  28
ENDBRANCH   1  27
TORSDOF 24
ENDMDL
MODEL 3
REMARK VINA RESULT:      -7.5      4.972      9.636
REMARK SMILES C[C@@H]1CN(C(=O)C[N@H+]2CCO[C@H](CC(=O)OCCOCCOCCOC(=O)c3ccc(-c4c5nc(c(-c6ccc(S(=O)(=O)[O-])cc6)c6ccc([nH]6)c(-c6ccc(S(=O)(=O)[O-])cc6)c6nc(c(-c7ccc(S(=O)(=O)[O-])cc7)c7ccc4[nH]7)C=C6)C=C5)cc3)C2)C[C@H](C)O1
REMARK SMILES IDX 20 1 19 2 18 3 17 4 16 5 14 6 15 7 13 8 12 9 8 10 9 11 88 12
REMARK SMILES IDX 10 14 11 15 7 16 5 17 6 18 4 19 1 20 2 21 3 22 92 23 90 24
REMARK SMILES IDX 89 25 91 26 21 27 22 28 23 29 24 30 25 31 26 32 27 33 28 34
REMARK SMILES IDX 29 35 87 36 30 37 86 38 31 39 32 40 33 41 80 42 34 43 85 44
REMARK SMILES IDX 79 45 81 46 35 47 84 48 78 49 77 50 36 52 66 53 47 54 65 55
REMARK SMILES IDX 48 56 51 57 64 58 82 59 49 60 50 61 63 63 83 64 52 65 37 66
REMARK SMILES IDX 38 67 46 68 39 69 45 70 40 71 41 72 42 73 43 74 44 75 67 76
REMARK SMILES IDX 68 77 76 78 69 79 75 80 70 81 71 82 72 83 73 84 74 85 53 86
REMARK SMILES IDX 54 87 62 88 55 89 61 90 56 91 57 92 58 93 59 94 60 95
REMARK H PARENT 8 13 81 51 51 62
REMARK Flexibility Score: inf
ROOT
ATOM      1  C   UNL A   1      35.424  34.145  34.790  1.00  0.00     0.188 C 
ENDROOT
BRANCH   1   2
ATOM      2  O   UNL A   1      36.770  33.702  34.667  1.00  0.00    -0.376 OA
BRANCH   2   3
ATOM      3  C   UNL A   1      37.652  34.012  35.747  1.00  0.00     0.202 C 
BRANCH   3   4
ATOM      4  C   UNL A   1      39.108  34.332  35.368  1.00  0.00     0.261 C 
BRANCH   4   5
ATOM      5  O   UNL A   1      39.781  33.208  34.769  1.00  0.00    -0.463 OA
BRANCH   5   6
ATOM      6  C   UNL A   1      40.229  33.383  33.495  1.00  0.00     0.308 C 
ATOM      7  O   UNL A   1      39.503  33.517  32.515  1.00  0.00    -0.252 OA
BRANCH   6   8
ATOM      8  C   UNL A   1      41.731  33.571  33.420  1.00  0.00     0.160 C 
BRANCH   8   9
ATOM      9  C   UNL A   1      42.191  35.005  33.169  1.00  0.00     0.184 C 
ATOM     10  N   UNL A   1      44.342  36.318  32.568  1.00  0.00    -0.323 N 
ATOM     11  C   UNL A   1      44.170  36.878  33.921  1.00  0.00     0.291 C 
ATOM     12  C   UNL A   1      43.617  35.020  32.520  1.00  0.00     0.295 C 
ATOM     13  H   UNL A   1      45.335  36.163  32.393  1.00  0.00     0.348 HD
ATOM     14  C   UNL A   1      42.713  36.963  34.368  1.00  0.00     0.222 C 
ATOM     15  O   UNL A   1      42.179  35.650  34.454  1.00  0.00    -0.366 OA
BRANCH  10  16
ATOM     16  C   UNL A   1      43.944  37.249  31.488  1.00  0.00     0.363 C 
BRANCH  16  17
ATOM     17  C   UNL A   1      43.877  36.531  30.113  1.00  0.00     0.277 C 
ATOM     18  O   UNL A   1      44.662  35.612  29.862  1.00  0.00    -0.268 OA
BRANCH  17  19
ATOM     19  N   UNL A   1      42.895  36.909  29.201  1.00  0.00    -0.333 N 
ATOM     20  C   UNL A   1      44.708  38.006  26.926  1.00  0.00     0.040 C 
ATOM     21  C   UNL A   1      43.205  38.171  27.125  1.00  0.00     0.135 C 
ATOM     22  C   UNL A   1      42.756  38.223  28.596  1.00  0.00     0.151 C 
ATOM     23  O   UNL A   1      42.459  37.182  26.394  1.00  0.00    -0.372 OA
ATOM     24  C   UNL A   1      42.357  35.876  27.003  1.00  0.00     0.135 C 
ATOM     25  C   UNL A   1      42.070  35.912  28.521  1.00  0.00     0.151 C 
ATOM     26  C   UNL A   1      43.545  34.989  26.653  1.00  0.00     0.040 C 
ENDBRANCH  17  19
ENDBRANCH  16  17
ENDBRANCH  10  16
ENDBRANCH   8   9
ENDBRANCH   6   8
ENDBRANCH   5   6
ENDBRANCH   4   5
ENDBRANCH   3   4
ENDBRANCH   2   3
ENDBRANCH   1   2
BRANCH   1  27
ATOM     27  C   UNL A   1      34.662  34.380  33.481  1.00  0.00     0.188 C 
BRANCH  27  28
ATOM     28  O   UNL A   1      35.266  33.828  32.316  1.00  0.00    -0.376 OA
BRANCH  28  29
ATOM     29  C   UNL A   1      34.808  32.530  31.926  1.00  0.00     0.202 C 
BRANCH  29  30
ATOM     30  C   UNL A   1      35.871  31.412  31.904  1.00  0.00     0.261 C 
BRANCH  30  31
ATOM     31  O   UNL A   1      36.870  31.549  30.874  1.00  0.00    -0.460 OA
BRANCH  31  32
ATOM     32  C   UNL A   1      36.872  30.624  29.883  1.00  0.00     0.338 C 
ATOM     33  O   UNL A   1      35.896  30.246  29.256  1.00  0.00    -0.246 OA
BRANCH  32  34
ATOM     34  C   UNL A   1      38.288  30.357  29.502  1.00  0.00     0.060 A 
ATOM     35  C   UNL A   1      38.546  29.828  28.229  1.00  0.00     0.016 A 
ATOM     36  C   UNL A   1      39.355  30.690  30.343  1.00  0.00     0.016 A 
ATOM     37  C   UNL A   1      39.859  29.587  27.817  1.00  0.00     0.010 A 
ATOM     38  C   UNL A   1      40.670  30.436  29.935  1.00  0.00     0.010 A 
ATOM     39  C   UNL A   1      40.927  29.848  28.685  1.00  0.00    -0.014 A 
BRANCH  39  40
ATOM     40  C   UNL A   1      42.268  29.275  28.398  1.00  0.00     0.031 A 
ATOM     41  C   UNL A   1      43.457  30.198  28.487  1.00  0.00     0.074 A 
ATOM     42  C   UNL A   1      42.452  27.977  28.094  1.00  0.00     0.049 A 
ATOM     43  N   UNL A   1      44.720  29.954  28.250  1.00  0.00    -0.248 NA
ATOM     44  C   UNL A   1      43.178  31.585  28.899  1.00  0.00     0.031 C 
ATOM     45  C   UNL A   1      41.404  26.960  28.024  1.00  0.00     0.029 A 
ATOM     46  N   UNL A   1      43.604  27.293  27.785  1.00  0.00    -0.354 N 
ATOM     47  C   UNL A   1      45.383  31.154  28.480  1.00  0.00     0.074 A 
ATOM     48  C   UNL A   1      44.381  32.133  28.840  1.00  0.00     0.031 C 
ATOM     49  C   UNL A   1      41.962  25.781  27.691  1.00  0.00     0.029 A 
ATOM     50  C   UNL A   1      43.401  25.965  27.492  1.00  0.00     0.049 A 
ATOM     51  H   UNL A   1      44.493  27.715  27.774  1.00  0.00     0.167 HD
ATOM     52  C   UNL A   1      46.708  31.423  28.408  1.00  0.00     0.031 A 
ATOM     53  C   UNL A   1      44.272  25.012  27.095  1.00  0.00     0.031 A 
ATOM     54  C   UNL A   1      47.709  30.462  28.038  1.00  0.00     0.049 A 
ATOM     55  C   UNL A   1      45.733  25.356  26.936  1.00  0.00     0.074 A 
ATOM     56  C   UNL A   1      49.077  30.644  27.933  1.00  0.00     0.029 A 
ATOM     57  N   UNL A   1      47.454  29.140  27.708  1.00  0.00    -0.354 N 
ATOM     58  N   UNL A   1      46.346  26.494  27.166  1.00  0.00    -0.248 NA
ATOM     59  C   UNL A   1      46.624  24.280  26.471  1.00  0.00     0.031 C 
ATOM     60  C   UNL A   1      49.644  29.445  27.489  1.00  0.00     0.029 A 
ATOM     61  C   UNL A   1      48.636  28.500  27.378  1.00  0.00     0.049 A 
ATOM     62  H   UNL A   1      46.564  28.720  27.707  1.00  0.00     0.167 HD
ATOM     63  C   UNL A   1      47.695  26.259  26.908  1.00  0.00     0.074 A 
ATOM     64  C   UNL A   1      47.811  24.871  26.514  1.00  0.00     0.031 C 
ATOM     65  C   UNL A   1      48.744  27.114  26.997  1.00  0.00     0.031 A 
BRANCH  52  66
ATOM     66  C   UNL A   1      47.141  32.832  28.707  1.00  0.00    -0.014 A 
ATOM     67  C   UNL A   1      47.594  33.199  29.987  1.00  0.00     0.010 A 
ATOM     68  C   UNL A   1      47.115  33.799  27.686  1.00  0.00     0.010 A 
ATOM     69  C   UNL A   1      47.976  34.517  30.251  1.00  0.00     0.020 A 
ATOM     70  C   UNL A   1      47.523  35.111  27.938  1.00  0.00     0.020 A 
ATOM     71  C   UNL A   1      47.934  35.465  29.224  1.00  0.00     0.054 A 
BRANCH  71  72
ATOM     72  S   UNL A   1      48.452  37.165  29.588  1.00  0.00     0.124 S 
ATOM     73  O   UNL A   1      47.210  37.908  29.385  1.00  0.00    -0.237 OA
ATOM     74  O   UNL A   1      48.907  37.072  30.973  1.00  0.00    -0.237 OA
ATOM     75  O   UNL A   1      49.501  37.426  28.607  1.00  0.00    -0.744 OA
ENDBRANCH  71  72
ENDBRANCH  52  66
BRANCH  53  76
ATOM     76  C   UNL A   1      43.792  23.632  26.794  1.00  0.00    -0.014 A 
ATOM     77  C   UNL A   1      43.510  22.726  27.832  1.00  0.00     0.010 A 
ATOM     78  C   UNL A   1      43.648  23.206  25.461  1.00  0.00     0.010 A 
ATOM     79  C   UNL A   1      43.117  21.415  27.543  1.00  0.00     0.020 A 
ATOM     80  C   UNL A   1      43.226  21.906  25.167  1.00  0.00     0.020 A 
ATOM     81  C   UNL A   1      42.977  21.014  26.211  1.00  0.00     0.054 A 
BRANCH  81  82
ATOM     82  S   UNL A   1      42.430  19.318  25.859  1.00  0.00     0.124 S 
ATOM     83  O   UNL A   1      41.066  19.532  25.384  1.00  0.00    -0.237 OA
ATOM     84  O   UNL A   1      43.391  18.880  24.851  1.00  0.00    -0.237 OA
ATOM     85  O   UNL A   1      42.545  18.648  27.153  1.00  0.00    -0.744 OA
ENDBRANCH  81  82
ENDBRANCH  53  76
BRANCH  65  86
ATOM     86  C   UNL A   1      50.122  26.573  26.714  1.00  0.00    -0.014 A 
ATOM     87  C   UNL A   1      50.506  26.173  25.424  1.00  0.00     0.010 A 
ATOM     88  C   UNL A   1      51.071  26.530  27.754  1.00  0.00     0.010 A 
ATOM     89  C   UNL A   1      51.804  25.708  25.183  1.00  0.00     0.020 A 
ATOM     90  C   UNL A   1      52.376  26.092  27.513  1.00  0.00     0.020 A 
ATOM     91  C   UNL A   1      52.730  25.671  26.230  1.00  0.00     0.054 A 
BRANCH  91  92
ATOM     92  S   UNL A   1      54.421  25.108  25.884  1.00  0.00     0.124 S 
ATOM     93  O   UNL A   1      54.203  24.127  24.825  1.00  0.00    -0.237 OA
ATOM     94  O   UNL A   1      55.092  26.339  25.473  1.00  0.00    -0.237 OA
ATOM     95  O   UNL A   1      54.871  24.557  27.160  1.00  0.00    -0.744 OA
ENDBRANCH  91  92
ENDBRANCH  65  86
ENDBRANCH  39  40
ENDBRANCH  32  34
ENDBRANCH  31  32
ENDBRANCH  30  31
ENDBRANCH  29  30
ENDBRANCH  28  29
ENDBRANCH  27  28
ENDBRANCH   1  27
TORSDOF 24
ENDMDL
