MODEL 1
REMARK VINA RESULT:      -9.6      0.000      0.000
REMARK SMILES O=C(OCCOCCOCCOC(=O)[C@H](CCc1ccccn1)c1ccccc1Br)c1ccc(-c2c3nc(c(-c4ccc(S(=O)(=O)[O-])cc4)c4ccc([nH]4)c(-c4ccc(S(=O)(=O)[O-])cc4)c4nc(c(-c5ccc(S(=O)(=O)[O-])cc5)c5ccc2[nH]5)C=C4)C=C3)cc1
REMARK SMILES IDX 7 1 6 2 5 3 4 4 3 5 2 6 1 7 31 8 32 9 90 10 33 11 89 12
REMARK SMILES IDX 34 13 35 14 36 15 83 16 37 17 88 18 82 19 84 20 38 21 87 22
REMARK SMILES IDX 81 23 80 24 39 26 69 27 50 28 68 29 51 30 54 31 67 32 85 33
REMARK SMILES IDX 52 34 53 35 66 37 86 38 55 39 40 40 41 41 49 42 42 43 48 44
REMARK SMILES IDX 43 45 44 46 45 47 46 48 47 49 70 50 71 51 79 52 72 53 78 54
REMARK SMILES IDX 73 55 74 56 75 57 76 58 77 59 56 60 57 61 65 62 58 63 64 64
REMARK SMILES IDX 59 65 60 66 61 67 62 68 63 69 8 70 9 71 10 72 11 73 12 74
REMARK SMILES IDX 13 75 14 76 15 77 24 78 25 79 29 80 26 81 28 82 30 83 27 84
REMARK SMILES IDX 16 85 17 86 18 87 19 88 23 89 20 90 22 91 21 92
REMARK H PARENT 84 25 54 36
REMARK Flexibility Score: inf
ROOT
ATOM      1  C   UNL A   1      31.691  29.541  25.296  1.00  0.00     0.188 C 
ENDROOT
BRANCH   1   2
ATOM      2  O   UNL A   1      32.980  29.884  25.826  1.00  0.00    -0.376 OA
BRANCH   2   3
ATOM      3  C   UNL A   1      33.237  29.304  27.107  1.00  0.00     0.202 C 
BRANCH   3   4
ATOM      4  C   UNL A   1      34.213  30.093  27.988  1.00  0.00     0.261 C 
BRANCH   4   5
ATOM      5  O   UNL A   1      35.582  29.775  27.710  1.00  0.00    -0.460 OA
BRANCH   5   6
ATOM      6  C   UNL A   1      36.574  29.587  28.614  1.00  0.00     0.338 C 
ATOM      7  O   UNL A   1      36.253  29.484  29.798  1.00  0.00    -0.246 OA
BRANCH   6   8
ATOM      8  C   UNL A   1      38.039  29.522  28.268  1.00  0.00     0.060 A 
ATOM      9  C   UNL A   1      38.601  29.503  26.986  1.00  0.00     0.016 A 
ATOM     10  C   UNL A   1      38.931  29.531  29.355  1.00  0.00     0.016 A 
ATOM     11  C   UNL A   1      39.984  29.428  26.783  1.00  0.00     0.010 A 
ATOM     12  C   UNL A   1      40.317  29.530  29.162  1.00  0.00     0.010 A 
ATOM     13  C   UNL A   1      40.854  29.434  27.869  1.00  0.00    -0.014 A 
BRANCH  13  14
ATOM     14  C   UNL A   1      42.286  29.095  27.680  1.00  0.00     0.031 A 
ATOM     15  C   UNL A   1      42.586  27.672  27.307  1.00  0.00     0.074 A 
ATOM     16  C   UNL A   1      43.275  29.999  27.814  1.00  0.00     0.049 A 
ATOM     17  N   UNL A   1      43.730  27.050  27.254  1.00  0.00    -0.248 NA
ATOM     18  C   UNL A   1      41.419  26.816  27.022  1.00  0.00     0.031 C 
ATOM     19  C   UNL A   1      43.096  31.405  28.167  1.00  0.00     0.029 A 
ATOM     20  N   UNL A   1      44.633  29.876  27.664  1.00  0.00    -0.354 N 
ATOM     21  C   UNL A   1      43.407  25.719  27.024  1.00  0.00     0.074 A 
ATOM     22  C   UNL A   1      41.968  25.616  27.011  1.00  0.00     0.031 C 
ATOM     23  C   UNL A   1      44.288  32.025  28.175  1.00  0.00     0.029 A 
ATOM     24  C   UNL A   1      45.326  31.049  27.874  1.00  0.00     0.049 A 
ATOM     25  H   UNL A   1      45.073  29.028  27.427  1.00  0.00     0.167 HD
ATOM     26  C   UNL A   1      44.240  24.677  26.812  1.00  0.00     0.031 A 
ATOM     27  C   UNL A   1      46.652  31.296  27.839  1.00  0.00     0.031 A 
ATOM     28  C   UNL A   1      45.664  24.831  26.746  1.00  0.00     0.049 A 
ATOM     29  C   UNL A   1      47.567  30.141  27.526  1.00  0.00     0.074 A 
ATOM     30  C   UNL A   1      46.627  23.876  26.492  1.00  0.00     0.029 A 
ATOM     31  N   UNL A   1      46.322  26.045  26.906  1.00  0.00    -0.354 N 
ATOM     32  N   UNL A   1      47.253  28.882  27.312  1.00  0.00    -0.248 NA
ATOM     33  C   UNL A   1      49.005  30.426  27.447  1.00  0.00     0.031 C 
ATOM     34  C   UNL A   1      47.873  24.512  26.522  1.00  0.00     0.029 A 
ATOM     35  C   UNL A   1      47.681  25.869  26.749  1.00  0.00     0.049 A 
ATOM     36  H   UNL A   1      45.883  26.904  27.104  1.00  0.00     0.167 HD
ATOM     37  C   UNL A   1      48.450  28.226  27.063  1.00  0.00     0.074 A 
ATOM     38  C   UNL A   1      49.494  29.233  27.131  1.00  0.00     0.031 C 
ATOM     39  C   UNL A   1      48.675  26.913  26.808  1.00  0.00     0.031 A 
BRANCH  26  40
ATOM     40  C   UNL A   1      43.604  23.320  26.673  1.00  0.00    -0.014 A 
ATOM     41  C   UNL A   1      43.220  22.570  27.803  1.00  0.00     0.010 A 
ATOM     42  C   UNL A   1      43.492  22.738  25.399  1.00  0.00     0.010 A 
ATOM     43  C   UNL A   1      42.837  21.233  27.669  1.00  0.00     0.020 A 
ATOM     44  C   UNL A   1      43.066  21.414  25.257  1.00  0.00     0.020 A 
ATOM     45  C   UNL A   1      42.778  20.659  26.396  1.00  0.00     0.054 A 
BRANCH  45  46
ATOM     46  S   UNL A   1      42.333  18.908  26.251  1.00  0.00     0.124 S 
ATOM     47  O   UNL A   1      40.984  18.987  25.694  1.00  0.00    -0.237 OA
ATOM     48  O   UNL A   1      43.354  18.389  25.343  1.00  0.00    -0.237 OA
ATOM     49  O   UNL A   1      42.414  18.414  27.622  1.00  0.00    -0.744 OA
ENDBRANCH  45  46
ENDBRANCH  26  40
BRANCH  27  50
ATOM     50  C   UNL A   1      47.175  32.670  28.104  1.00  0.00    -0.014 A 
ATOM     51  C   UNL A   1      47.625  33.040  29.385  1.00  0.00     0.010 A 
ATOM     52  C   UNL A   1      47.264  33.612  27.062  1.00  0.00     0.010 A 
ATOM     53  C   UNL A   1      48.146  34.321  29.617  1.00  0.00     0.020 A 
ATOM     54  C   UNL A   1      47.809  34.884  27.283  1.00  0.00     0.020 A 
ATOM     55  C   UNL A   1      48.241  35.233  28.563  1.00  0.00     0.054 A 
BRANCH  55  56
ATOM     56  S   UNL A   1      48.983  36.863  28.875  1.00  0.00     0.124 S 
ATOM     57  O   UNL A   1      48.138  37.741  28.072  1.00  0.00    -0.237 OA
ATOM     58  O   UNL A   1      48.842  36.999  30.322  1.00  0.00    -0.237 OA
ATOM     59  O   UNL A   1      50.356  36.711  28.400  1.00  0.00    -0.744 OA
ENDBRANCH  55  56
ENDBRANCH  27  50
BRANCH  39  60
ATOM     60  C   UNL A   1      50.093  26.496  26.547  1.00  0.00    -0.014 A 
ATOM     61  C   UNL A   1      50.873  25.914  27.560  1.00  0.00     0.010 A 
ATOM     62  C   UNL A   1      50.600  26.577  25.238  1.00  0.00     0.010 A 
ATOM     63  C   UNL A   1      52.143  25.418  27.266  1.00  0.00     0.020 A 
ATOM     64  C   UNL A   1      51.859  26.059  24.935  1.00  0.00     0.020 A 
ATOM     65  C   UNL A   1      52.624  25.486  25.954  1.00  0.00     0.054 A 
BRANCH  65  66
ATOM     66  S   UNL A   1      54.235  24.745  25.579  1.00  0.00     0.124 S 
ATOM     67  O   UNL A   1      53.872  23.366  25.273  1.00  0.00    -0.237 OA
ATOM     68  O   UNL A   1      54.699  25.543  24.447  1.00  0.00    -0.237 OA
ATOM     69  O   UNL A   1      54.997  24.930  26.816  1.00  0.00    -0.744 OA
ENDBRANCH  65  66
ENDBRANCH  39  60
ENDBRANCH  13  14
ENDBRANCH   6   8
ENDBRANCH   5   6
ENDBRANCH   4   5
ENDBRANCH   3   4
ENDBRANCH   2   3
ENDBRANCH   1   2
BRANCH   1  70
ATOM     70  C   UNL A   1      31.777  28.948  23.885  1.00  0.00     0.188 C 
BRANCH  70  71
ATOM     71  O   UNL A   1      30.977  27.794  23.618  1.00  0.00    -0.376 OA
BRANCH  71  72
ATOM     72  C   UNL A   1      31.433  26.914  22.592  1.00  0.00     0.202 C 
BRANCH  72  73
ATOM     73  C   UNL A   1      31.320  25.396  22.823  1.00  0.00     0.261 C 
BRANCH  73  74
ATOM     74  O   UNL A   1      32.348  24.846  23.661  1.00  0.00    -0.463 OA
BRANCH  74  75
ATOM     75  C   UNL A   1      33.375  24.193  23.036  1.00  0.00     0.313 C 
ATOM     76  O   UNL A   1      33.619  24.297  21.839  1.00  0.00    -0.252 OA
BRANCH  75  77
ATOM     77  C   UNL A   1      34.206  23.322  24.008  1.00  0.00     0.131 C 
BRANCH  77  78
ATOM     78  C   UNL A   1      33.468  22.057  24.458  1.00  0.00    -0.020 A 
ATOM     79  C   UNL A   1      32.855  21.228  23.499  1.00  0.00     0.006 A 
ATOM     80  C   UNL A   1      33.533  21.578  25.780  1.00  0.00     0.022 A 
ATOM     81  C   UNL A   1      32.481  19.919  23.804  1.00  0.00     0.000 A 
ATOM     82  C   UNL A   1      33.211  20.246  26.071  1.00  0.00     0.016 A 
ATOM     83  Br  UNL A   1      34.053  22.667  27.258  1.00  0.00    -0.051 Br
ATOM     84  C   UNL A   1      32.715  19.409  25.075  1.00  0.00     0.001 A 
ENDBRANCH  77  78
BRANCH  77  85
ATOM     85  C   UNL A   1      35.617  23.009  23.431  1.00  0.00     0.026 C 
BRANCH  85  86
ATOM     86  C   UNL A   1      36.475  21.924  24.094  1.00  0.00     0.057 C 
BRANCH  86  87
ATOM     87  C   UNL A   1      37.514  22.414  25.082  1.00  0.00     0.040 A 
ATOM     88  C   UNL A   1      37.452  23.728  25.544  1.00  0.00     0.024 A 
ATOM     89  N   UNL A   1      38.484  21.564  25.487  1.00  0.00    -0.261 NA
ATOM     90  C   UNL A   1      38.431  24.188  26.421  1.00  0.00     0.003 A 
ATOM     91  C   UNL A   1      39.390  22.019  26.378  1.00  0.00     0.111 A 
ATOM     92  C   UNL A   1      39.415  23.314  26.858  1.00  0.00     0.020 A 
ENDBRANCH  86  87
ENDBRANCH  85  86
ENDBRANCH  77  85
ENDBRANCH  75  77
ENDBRANCH  74  75
ENDBRANCH  73  74
ENDBRANCH  72  73
ENDBRANCH  71  72
ENDBRANCH  70  71
ENDBRANCH   1  70
TORSDOF 24
ENDMDL
MODEL 2
REMARK VINA RESULT:      -8.9      5.409      6.750
REMARK SMILES O=C(OCCOCCOCCOC(=O)[C@H](CCc1ccccn1)c1ccccc1Br)c1ccc(-c2c3nc(c(-c4ccc(S(=O)(=O)[O-])cc4)c4ccc([nH]4)c(-c4ccc(S(=O)(=O)[O-])cc4)c4nc(c(-c5ccc(S(=O)(=O)[O-])cc5)c5ccc2[nH]5)C=C4)C=C3)cc1
REMARK SMILES IDX 7 1 6 2 5 3 4 4 3 5 2 6 1 7 31 8 32 9 90 10 33 11 89 12
REMARK SMILES IDX 34 13 35 14 36 15 83 16 37 17 88 18 82 19 84 20 38 21 87 22
REMARK SMILES IDX 81 23 80 24 39 26 69 27 50 28 68 29 51 30 54 31 67 32 85 33
REMARK SMILES IDX 52 34 53 35 66 37 86 38 55 39 40 40 41 41 49 42 42 43 48 44
REMARK SMILES IDX 43 45 44 46 45 47 46 48 47 49 70 50 71 51 79 52 72 53 78 54
REMARK SMILES IDX 73 55 74 56 75 57 76 58 77 59 56 60 57 61 65 62 58 63 64 64
REMARK SMILES IDX 59 65 60 66 61 67 62 68 63 69 8 70 9 71 10 72 11 73 12 74
REMARK SMILES IDX 13 75 14 76 15 77 24 78 25 79 29 80 26 81 28 82 30 83 27 84
REMARK SMILES IDX 16 85 17 86 18 87 19 88 23 89 20 90 22 91 21 92
REMARK H PARENT 84 25 54 36
REMARK Flexibility Score: inf
ROOT
ATOM      1  C   UNL A   1      30.955  29.214  24.242  1.00  0.00     0.188 C 
ENDROOT
BRANCH   1   2
ATOM      2  O   UNL A   1      31.324  30.098  25.310  1.00  0.00    -0.376 OA
BRANCH   2   3
ATOM      3  C   UNL A   1      32.659  29.894  25.778  1.00  0.00     0.202 C 
BRANCH   3   4
ATOM      4  C   UNL A   1      32.927  30.393  27.202  1.00  0.00     0.261 C 
BRANCH   4   5
ATOM      5  O   UNL A   1      34.169  31.098  27.311  1.00  0.00    -0.460 OA
BRANCH   5   6
ATOM      6  C   UNL A   1      34.767  31.525  28.450  1.00  0.00     0.338 C 
ATOM      7  O   UNL A   1      34.229  32.447  29.063  1.00  0.00    -0.246 OA
BRANCH   6   8
ATOM      8  C   UNL A   1      36.054  30.964  28.998  1.00  0.00     0.060 A 
ATOM      9  C   UNL A   1      36.225  29.742  29.658  1.00  0.00     0.016 A 
ATOM     10  C   UNL A   1      37.208  31.734  28.773  1.00  0.00     0.016 A 
ATOM     11  C   UNL A   1      37.473  29.325  30.138  1.00  0.00     0.010 A 
ATOM     12  C   UNL A   1      38.472  31.294  29.183  1.00  0.00     0.010 A 
ATOM     13  C   UNL A   1      38.606  30.101  29.911  1.00  0.00    -0.014 A 
BRANCH  13  14
ATOM     14  C   UNL A   1      39.869  29.806  30.631  1.00  0.00     0.031 A 
ATOM     15  C   UNL A   1      40.750  28.757  30.019  1.00  0.00     0.074 A 
ATOM     16  C   UNL A   1      40.233  30.444  31.760  1.00  0.00     0.049 A 
ATOM     17  N   UNL A   1      41.806  28.170  30.507  1.00  0.00    -0.248 NA
ATOM     18  C   UNL A   1      40.335  28.250  28.697  1.00  0.00     0.031 C 
ATOM     19  C   UNL A   1      39.457  31.480  32.435  1.00  0.00     0.029 A 
ATOM     20  N   UNL A   1      41.353  30.319  32.543  1.00  0.00    -0.354 N 
ATOM     21  C   UNL A   1      42.118  27.169  29.595  1.00  0.00     0.074 A 
ATOM     22  C   UNL A   1      41.108  27.189  28.566  1.00  0.00     0.031 C 
ATOM     23  C   UNL A   1      40.132  31.924  33.509  1.00  0.00     0.029 A 
ATOM     24  C   UNL A   1      41.372  31.169  33.629  1.00  0.00     0.049 A 
ATOM     25  H   UNL A   1      42.078  29.682  32.347  1.00  0.00     0.167 HD
ATOM     26  C   UNL A   1      43.174  26.326  29.601  1.00  0.00     0.031 A 
ATOM     27  C   UNL A   1      42.285  31.305  34.612  1.00  0.00     0.031 A 
ATOM     28  C   UNL A   1      44.205  26.392  30.594  1.00  0.00     0.049 A 
ATOM     29  C   UNL A   1      43.496  30.411  34.565  1.00  0.00     0.074 A 
ATOM     30  C   UNL A   1      45.355  25.636  30.700  1.00  0.00     0.029 A 
ATOM     31  N   UNL A   1      44.217  27.304  31.643  1.00  0.00    -0.354 N 
ATOM     32  N   UNL A   1      43.782  29.463  33.700  1.00  0.00    -0.248 NA
ATOM     33  C   UNL A   1      44.507  30.594  35.615  1.00  0.00     0.031 C 
ATOM     34  C   UNL A   1      46.052  26.077  31.830  1.00  0.00     0.029 A 
ATOM     35  C   UNL A   1      45.359  27.139  32.400  1.00  0.00     0.049 A 
ATOM     36  H   UNL A   1      43.514  27.970  31.821  1.00  0.00     0.167 HD
ATOM     37  C   UNL A   1      45.009  28.944  34.092  1.00  0.00     0.074 A 
ATOM     38  C   UNL A   1      45.421  29.699  35.261  1.00  0.00     0.031 C 
ATOM     39  C   UNL A   1      45.729  27.933  33.546  1.00  0.00     0.031 A 
BRANCH  26  40
ATOM     40  C   UNL A   1      43.208  25.278  28.521  1.00  0.00    -0.014 A 
ATOM     41  C   UNL A   1      42.532  24.051  28.667  1.00  0.00     0.010 A 
ATOM     42  C   UNL A   1      44.022  25.478  27.393  1.00  0.00     0.010 A 
ATOM     43  C   UNL A   1      42.751  23.010  27.761  1.00  0.00     0.020 A 
ATOM     44  C   UNL A   1      44.208  24.454  26.460  1.00  0.00     0.020 A 
ATOM     45  C   UNL A   1      43.602  23.214  26.671  1.00  0.00     0.054 A 
BRANCH  45  46
ATOM     46  S   UNL A   1      43.915  21.832  25.540  1.00  0.00     0.124 S 
ATOM     47  O   UNL A   1      43.461  22.380  24.264  1.00  0.00    -0.237 OA
ATOM     48  O   UNL A   1      45.358  21.638  25.660  1.00  0.00    -0.237 OA
ATOM     49  O   UNL A   1      43.097  20.750  26.081  1.00  0.00    -0.744 OA
ENDBRANCH  45  46
ENDBRANCH  26  40
BRANCH  27  50
ATOM     50  C   UNL A   1      42.085  32.310  35.699  1.00  0.00    -0.014 A 
ATOM     51  C   UNL A   1      42.546  33.632  35.558  1.00  0.00     0.010 A 
ATOM     52  C   UNL A   1      41.394  31.960  36.875  1.00  0.00     0.010 A 
ATOM     53  C   UNL A   1      42.325  34.578  36.569  1.00  0.00     0.020 A 
ATOM     54  C   UNL A   1      41.147  32.909  37.876  1.00  0.00     0.020 A 
ATOM     55  C   UNL A   1      41.621  34.212  37.719  1.00  0.00     0.054 A 
BRANCH  55  56
ATOM     56  S   UNL A   1      41.288  35.474  38.984  1.00  0.00     0.124 S 
ATOM     57  O   UNL A   1      42.581  35.586  39.651  1.00  0.00    -0.237 OA
ATOM     58  O   UNL A   1      40.890  36.627  38.180  1.00  0.00    -0.237 OA
ATOM     59  O   UNL A   1      40.219  34.883  39.785  1.00  0.00    -0.744 OA
ENDBRANCH  55  56
ENDBRANCH  27  50
BRANCH  39  60
ATOM     60  C   UNL A   1      47.051  27.610  34.180  1.00  0.00    -0.014 A 
ATOM     61  C   UNL A   1      48.219  28.292  33.800  1.00  0.00     0.010 A 
ATOM     62  C   UNL A   1      47.091  26.703  35.254  1.00  0.00     0.010 A 
ATOM     63  C   UNL A   1      49.412  28.068  34.487  1.00  0.00     0.020 A 
ATOM     64  C   UNL A   1      48.276  26.497  35.959  1.00  0.00     0.020 A 
ATOM     65  C   UNL A   1      49.431  27.179  35.568  1.00  0.00     0.054 A 
BRANCH  65  66
ATOM     66  S   UNL A   1      50.969  26.982  36.505  1.00  0.00     0.124 S 
ATOM     67  O   UNL A   1      50.577  27.444  37.833  1.00  0.00    -0.237 OA
ATOM     68  O   UNL A   1      51.235  25.551  36.388  1.00  0.00    -0.237 OA
ATOM     69  O   UNL A   1      51.917  27.845  35.799  1.00  0.00    -0.744 OA
ENDBRANCH  65  66
ENDBRANCH  39  60
ENDBRANCH  13  14
ENDBRANCH   6   8
ENDBRANCH   5   6
ENDBRANCH   4   5
ENDBRANCH   3   4
ENDBRANCH   2   3
ENDBRANCH   1   2
BRANCH   1  70
ATOM     70  C   UNL A   1      32.128  28.909  23.304  1.00  0.00     0.188 C 
BRANCH  70  71
ATOM     71  O   UNL A   1      31.963  27.818  22.394  1.00  0.00    -0.376 OA
BRANCH  71  72
ATOM     72  C   UNL A   1      31.380  26.625  22.915  1.00  0.00     0.202 C 
BRANCH  72  73
ATOM     73  C   UNL A   1      32.257  25.693  23.771  1.00  0.00     0.261 C 
BRANCH  73  74
ATOM     74  O   UNL A   1      32.574  24.440  23.147  1.00  0.00    -0.463 OA
BRANCH  74  75
ATOM     75  C   UNL A   1      32.085  23.308  23.742  1.00  0.00     0.313 C 
ATOM     76  O   UNL A   1      30.973  23.235  24.252  1.00  0.00    -0.252 OA
BRANCH  75  77
ATOM     77  C   UNL A   1      33.082  22.127  23.684  1.00  0.00     0.131 C 
BRANCH  77  78
ATOM     78  C   UNL A   1      34.451  22.470  24.279  1.00  0.00    -0.020 A 
ATOM     79  C   UNL A   1      35.580  22.537  23.440  1.00  0.00     0.006 A 
ATOM     80  C   UNL A   1      34.607  22.909  25.607  1.00  0.00     0.022 A 
ATOM     81  C   UNL A   1      36.754  23.168  23.851  1.00  0.00     0.000 A 
ATOM     82  C   UNL A   1      35.764  23.592  26.000  1.00  0.00     0.016 A 
ATOM     83  Br  UNL A   1      33.291  22.622  26.959  1.00  0.00    -0.051 Br
ATOM     84  C   UNL A   1      36.824  23.748  25.111  1.00  0.00     0.001 A 
ENDBRANCH  77  78
BRANCH  77  85
ATOM     85  C   UNL A   1      32.474  20.836  24.308  1.00  0.00     0.026 C 
BRANCH  85  86
ATOM     86  C   UNL A   1      32.235  19.613  23.414  1.00  0.00     0.057 C 
BRANCH  86  87
ATOM     87  C   UNL A   1      32.708  18.285  23.970  1.00  0.00     0.040 A 
ATOM     88  C   UNL A   1      33.646  17.540  23.256  1.00  0.00     0.024 A 
ATOM     89  N   UNL A   1      32.201  17.849  25.145  1.00  0.00    -0.261 NA
ATOM     90  C   UNL A   1      34.049  16.302  23.749  1.00  0.00     0.003 A 
ATOM     91  C   UNL A   1      32.648  16.671  25.627  1.00  0.00     0.111 A 
ATOM     92  C   UNL A   1      33.550  15.860  24.965  1.00  0.00     0.020 A 
ENDBRANCH  86  87
ENDBRANCH  85  86
ENDBRANCH  77  85
ENDBRANCH  75  77
ENDBRANCH  74  75
ENDBRANCH  73  74
ENDBRANCH  72  73
ENDBRANCH  71  72
ENDBRANCH  70  71
ENDBRANCH   1  70
TORSDOF 24
ENDMDL
MODEL 3
REMARK VINA RESULT:      -8.9      6.921     12.203
REMARK SMILES O=C(OCCOCCOCCOC(=O)[C@H](CCc1ccccn1)c1ccccc1Br)c1ccc(-c2c3nc(c(-c4ccc(S(=O)(=O)[O-])cc4)c4ccc([nH]4)c(-c4ccc(S(=O)(=O)[O-])cc4)c4nc(c(-c5ccc(S(=O)(=O)[O-])cc5)c5ccc2[nH]5)C=C4)C=C3)cc1
REMARK SMILES IDX 7 1 6 2 5 3 4 4 3 5 2 6 1 7 31 8 32 9 90 10 33 11 89 12
REMARK SMILES IDX 34 13 35 14 36 15 83 16 37 17 88 18 82 19 84 20 38 21 87 22
REMARK SMILES IDX 81 23 80 24 39 26 69 27 50 28 68 29 51 30 54 31 67 32 85 33
REMARK SMILES IDX 52 34 53 35 66 37 86 38 55 39 40 40 41 41 49 42 42 43 48 44
REMARK SMILES IDX 43 45 44 46 45 47 46 48 47 49 70 50 71 51 79 52 72 53 78 54
REMARK SMILES IDX 73 55 74 56 75 57 76 58 77 59 56 60 57 61 65 62 58 63 64 64
REMARK SMILES IDX 59 65 60 66 61 67 62 68 63 69 8 70 9 71 10 72 11 73 12 74
REMARK SMILES IDX 13 75 14 76 15 77 24 78 25 79 29 80 26 81 28 82 30 83 27 84
REMARK SMILES IDX 16 85 17 86 18 87 19 88 23 89 20 90 22 91 21 92
REMARK H PARENT 84 25 54 36
REMARK Flexibility Score: inf
ROOT
ATOM      1  C   UNL A   1      38.121  21.455  25.889  1.00  0.00     0.188 C 
ENDROOT
BRANCH   1   2
ATOM      2  O   UNL A   1      39.393  20.859  25.600  1.00  0.00    -0.376 OA
BRANCH   2   3
ATOM      3  C   UNL A   1      40.402  21.186  26.559  1.00  0.00     0.202 C 
BRANCH   3   4
ATOM      4  C   UNL A   1      41.311  22.356  26.166  1.00  0.00     0.261 C 
BRANCH   4   5
ATOM      5  O   UNL A   1      41.223  23.451  27.085  1.00  0.00    -0.460 OA
BRANCH   5   6
ATOM      6  C   UNL A   1      40.445  24.555  26.965  1.00  0.00     0.338 C 
ATOM      7  O   UNL A   1      39.709  24.627  25.980  1.00  0.00    -0.246 OA
BRANCH   6   8
ATOM      8  C   UNL A   1      40.442  25.704  27.940  1.00  0.00     0.060 A 
ATOM      9  C   UNL A   1      41.345  26.772  27.983  1.00  0.00     0.016 A 
ATOM     10  C   UNL A   1      39.387  25.721  28.869  1.00  0.00     0.016 A 
ATOM     11  C   UNL A   1      41.252  27.784  28.947  1.00  0.00     0.010 A 
ATOM     12  C   UNL A   1      39.242  26.766  29.790  1.00  0.00     0.010 A 
ATOM     13  C   UNL A   1      40.204  27.786  29.863  1.00  0.00    -0.014 A 
BRANCH  13  14
ATOM     14  C   UNL A   1      40.241  28.691  31.038  1.00  0.00     0.031 A 
ATOM     15  C   UNL A   1      39.168  29.738  31.101  1.00  0.00     0.074 A 
ATOM     16  C   UNL A   1      41.164  28.586  32.013  1.00  0.00     0.049 A 
ATOM     17  N   UNL A   1      39.053  30.764  31.896  1.00  0.00    -0.248 NA
ATOM     18  C   UNL A   1      38.114  29.650  30.072  1.00  0.00     0.031 C 
ATOM     19  C   UNL A   1      42.245  27.604  32.055  1.00  0.00     0.029 A 
ATOM     20  N   UNL A   1      41.344  29.309  33.165  1.00  0.00    -0.354 N 
ATOM     21  C   UNL A   1      37.973  31.485  31.402  1.00  0.00     0.074 A 
ATOM     22  C   UNL A   1      37.513  30.817  30.209  1.00  0.00     0.031 C 
ATOM     23  C   UNL A   1      42.955  27.760  33.185  1.00  0.00     0.029 A 
ATOM     24  C   UNL A   1      42.410  28.887  33.930  1.00  0.00     0.049 A 
ATOM     25  H   UNL A   1      40.763  30.062  33.422  1.00  0.00     0.167 HD
ATOM     26  C   UNL A   1      37.398  32.594  31.916  1.00  0.00     0.031 A 
ATOM     27  C   UNL A   1      42.892  29.369  35.093  1.00  0.00     0.031 A 
ATOM     28  C   UNL A   1      37.827  33.182  33.151  1.00  0.00     0.049 A 
ATOM     29  C   UNL A   1      42.194  30.559  35.696  1.00  0.00     0.074 A 
ATOM     30  C   UNL A   1      37.309  34.274  33.816  1.00  0.00     0.029 A 
ATOM     31  N   UNL A   1      38.873  32.689  33.924  1.00  0.00    -0.354 N 
ATOM     32  N   UNL A   1      41.174  31.239  35.219  1.00  0.00    -0.248 NA
ATOM     33  C   UNL A   1      42.699  31.053  36.984  1.00  0.00     0.031 C 
ATOM     34  C   UNL A   1      38.059  34.456  34.983  1.00  0.00     0.029 A 
ATOM     35  C   UNL A   1      39.013  33.449  35.067  1.00  0.00     0.049 A 
ATOM     36  H   UNL A   1      39.431  31.913  33.690  1.00  0.00     0.167 HD
ATOM     37  C   UNL A   1      40.907  32.233  36.152  1.00  0.00     0.074 A 
ATOM     38  C   UNL A   1      41.860  32.051  37.231  1.00  0.00     0.031 C 
ATOM     39  C   UNL A   1      39.969  33.211  36.120  1.00  0.00     0.031 A 
BRANCH  26  40
ATOM     40  C   UNL A   1      36.286  33.214  31.112  1.00  0.00    -0.014 A 
ATOM     41  C   UNL A   1      36.516  33.739  29.825  1.00  0.00     0.010 A 
ATOM     42  C   UNL A   1      35.019  33.374  31.697  1.00  0.00     0.010 A 
ATOM     43  C   UNL A   1      35.535  34.501  29.186  1.00  0.00     0.020 A 
ATOM     44  C   UNL A   1      34.019  34.099  31.041  1.00  0.00     0.020 A 
ATOM     45  C   UNL A   1      34.297  34.690  29.807  1.00  0.00     0.054 A 
BRANCH  45  46
ATOM     46  S   UNL A   1      33.059  35.728  28.984  1.00  0.00     0.124 S 
ATOM     47  O   UNL A   1      33.899  36.705  28.294  1.00  0.00    -0.237 OA
ATOM     48  O   UNL A   1      32.365  34.777  28.119  1.00  0.00    -0.237 OA
ATOM     49  O   UNL A   1      32.263  36.258  30.088  1.00  0.00    -0.744 OA
ENDBRANCH  45  46
ENDBRANCH  26  40
BRANCH  27  50
ATOM     50  C   UNL A   1      44.078  28.734  35.744  1.00  0.00    -0.014 A 
ATOM     51  C   UNL A   1      43.921  27.701  36.687  1.00  0.00     0.010 A 
ATOM     52  C   UNL A   1      45.382  29.134  35.395  1.00  0.00     0.010 A 
ATOM     53  C   UNL A   1      45.039  27.088  37.268  1.00  0.00     0.020 A 
ATOM     54  C   UNL A   1      46.503  28.505  35.953  1.00  0.00     0.020 A 
ATOM     55  C   UNL A   1      46.324  27.489  36.892  1.00  0.00     0.054 A 
BRANCH  55  56
ATOM     56  S   UNL A   1      47.757  26.631  37.609  1.00  0.00     0.124 S 
ATOM     57  O   UNL A   1      48.595  26.405  36.437  1.00  0.00    -0.237 OA
ATOM     58  O   UNL A   1      48.262  27.611  38.567  1.00  0.00    -0.237 OA
ATOM     59  O   UNL A   1      47.175  25.430  38.204  1.00  0.00    -0.744 OA
ENDBRANCH  55  56
ENDBRANCH  27  50
BRANCH  39  60
ATOM     60  C   UNL A   1      39.901  34.136  37.301  1.00  0.00    -0.014 A 
ATOM     61  C   UNL A   1      39.086  33.835  38.407  1.00  0.00     0.010 A 
ATOM     62  C   UNL A   1      40.759  35.248  37.351  1.00  0.00     0.010 A 
ATOM     63  C   UNL A   1      39.132  34.639  39.545  1.00  0.00     0.020 A 
ATOM     64  C   UNL A   1      40.825  36.038  38.498  1.00  0.00     0.020 A 
ATOM     65  C   UNL A   1      40.007  35.729  39.587  1.00  0.00     0.054 A 
BRANCH  65  66
ATOM     66  S   UNL A   1      40.118  36.697  41.116  1.00  0.00     0.124 S 
ATOM     67  O   UNL A   1      38.958  37.576  41.003  1.00  0.00    -0.237 OA
ATOM     68  O   UNL A   1      40.035  35.671  42.152  1.00  0.00    -0.237 OA
ATOM     69  O   UNL A   1      41.418  37.362  41.010  1.00  0.00    -0.744 OA
ENDBRANCH  65  66
ENDBRANCH  39  60
ENDBRANCH  13  14
ENDBRANCH   6   8
ENDBRANCH   5   6
ENDBRANCH   4   5
ENDBRANCH   3   4
ENDBRANCH   2   3
ENDBRANCH   1   2
BRANCH   1  70
ATOM     70  C   UNL A   1      37.530  22.190  24.680  1.00  0.00     0.188 C 
BRANCH  70  71
ATOM     71  O   UNL A   1      36.518  23.164  24.945  1.00  0.00    -0.376 OA
BRANCH  71  72
ATOM     72  C   UNL A   1      35.176  22.691  25.047  1.00  0.00     0.202 C 
BRANCH  72  73
ATOM     73  C   UNL A   1      34.044  23.725  25.193  1.00  0.00     0.261 C 
BRANCH  73  74
ATOM     74  O   UNL A   1      33.856  24.564  24.044  1.00  0.00    -0.463 OA
BRANCH  74  75
ATOM     75  C   UNL A   1      32.574  24.953  23.762  1.00  0.00     0.313 C 
ATOM     76  O   UNL A   1      31.838  24.356  22.986  1.00  0.00    -0.252 OA
BRANCH  75  77
ATOM     77  C   UNL A   1      32.151  26.220  24.543  1.00  0.00     0.131 C 
BRANCH  77  78
ATOM     78  C   UNL A   1      31.211  27.129  23.744  1.00  0.00    -0.020 A 
ATOM     79  C   UNL A   1      29.842  26.813  23.655  1.00  0.00     0.006 A 
ATOM     80  C   UNL A   1      31.619  28.381  23.245  1.00  0.00     0.022 A 
ATOM     81  C   UNL A   1      28.903  27.760  23.248  1.00  0.00     0.000 A 
ATOM     82  C   UNL A   1      30.671  29.349  22.893  1.00  0.00     0.016 A 
ATOM     83  Br  UNL A   1      33.450  28.862  23.011  1.00  0.00    -0.051 Br
ATOM     84  C   UNL A   1      29.312  29.048  22.924  1.00  0.00     0.001 A 
ENDBRANCH  77  78
BRANCH  77  85
ATOM     85  C   UNL A   1      31.576  25.862  25.944  1.00  0.00     0.026 C 
BRANCH  85  86
ATOM     86  C   UNL A   1      31.281  26.987  26.944  1.00  0.00     0.057 C 
BRANCH  86  87
ATOM     87  C   UNL A   1      32.258  28.145  26.943  1.00  0.00     0.040 A 
ATOM     88  C   UNL A   1      31.770  29.451  26.912  1.00  0.00     0.024 A 
ATOM     89  N   UNL A   1      33.585  27.882  26.967  1.00  0.00    -0.261 NA
ATOM     90  C   UNL A   1      32.671  30.512  26.871  1.00  0.00     0.003 A 
ATOM     91  C   UNL A   1      34.434  28.931  26.980  1.00  0.00     0.111 A 
ATOM     92  C   UNL A   1      34.032  30.251  26.918  1.00  0.00     0.020 A 
ENDBRANCH  86  87
ENDBRANCH  85  86
ENDBRANCH  77  85
ENDBRANCH  75  77
ENDBRANCH  74  75
ENDBRANCH  73  74
ENDBRANCH  72  73
ENDBRANCH  71  72
ENDBRANCH  70  71
ENDBRANCH   1  70
TORSDOF 24
ENDMDL
