MODEL 1
REMARK VINA RESULT:      -6.1      0.000      0.000
REMARK SMILES C[C@H](Cc1cccs1)N(C)C(=O)N1CC[C@@H](CC(=O)OCCOCCOCCOC(=O)c2ccc(-c3c4nc(c(-c5ccc(S(=O)(=O)[O-])cc5)c5ccc([nH]5)c(-c5ccc(S(=O)(=O)[O-])cc5)c5nc(c(-c6ccc(S(=O)(=O)[O-])cc6)c6ccc3[nH]6)C=C5)C=C4)cc2)C1
REMARK SMILES IDX 23 1 22 2 21 3 20 4 18 5 19 6 17 7 16 8 13 9 14 10 92 11
REMARK SMILES IDX 15 12 11 13 12 14 9 15 10 16 2 17 1 18 3 19 4 20 5 21 8 22
REMARK SMILES IDX 6 23 7 24 24 25 25 26 26 27 27 28 28 29 29 30 30 31 31 32
REMARK SMILES IDX 32 33 33 34 91 35 34 36 90 37 35 38 36 39 37 40 84 41 38 42
REMARK SMILES IDX 89 43 83 44 85 45 39 46 88 47 82 48 81 49 40 51 70 52 51 53
REMARK SMILES IDX 69 54 52 55 55 56 68 57 86 58 53 59 54 60 67 62 87 63 56 64
REMARK SMILES IDX 41 65 42 66 50 67 43 68 49 69 44 70 45 71 46 72 47 73 48 74
REMARK SMILES IDX 71 75 72 76 80 77 73 78 79 79 74 80 75 81 76 82 77 83 78 84
REMARK SMILES IDX 57 85 58 86 66 87 59 88 65 89 60 90 61 91 62 92 63 93 64 94
REMARK H PARENT 85 50 55 61
REMARK Flexibility Score: inf
ROOT
ATOM      1  O   UNL A   1      44.225  35.903  35.519  1.00  0.00    -0.376 OA
ENDROOT
BRANCH   1   2
ATOM      2  C   UNL A   1      43.322  35.012  34.858  1.00  0.00     0.202 C 
BRANCH   2   3
ATOM      3  C   UNL A   1      42.802  33.794  35.652  1.00  0.00     0.261 C 
BRANCH   3   4
ATOM      4  O   UNL A   1      42.126  32.811  34.837  1.00  0.00    -0.463 OA
BRANCH   4   5
ATOM      5  C   UNL A   1      41.218  32.014  35.459  1.00  0.00     0.306 C 
ATOM      6  O   UNL A   1      40.702  32.259  36.542  1.00  0.00    -0.252 OA
BRANCH   5   7
ATOM      7  C   UNL A   1      40.759  30.867  34.568  1.00  0.00     0.128 C 
BRANCH   7   8
ATOM      8  C   UNL A   1      41.655  29.657  34.302  1.00  0.00     0.021 C 
ATOM      9  N   UNL A   1      41.639  27.309  34.629  1.00  0.00    -0.324 N 
ATOM     10  C   UNL A   1      40.907  27.540  33.402  1.00  0.00     0.122 C 
ATOM     11  C   UNL A   1      41.724  28.558  35.364  1.00  0.00     0.125 C 
ATOM     12  C   UNL A   1      41.352  28.927  32.982  1.00  0.00     0.027 C 
BRANCH   9  13
ATOM     13  C   UNL A   1      41.625  26.122  35.332  1.00  0.00     0.320 C 
ATOM     14  O   UNL A   1      40.553  25.654  35.706  1.00  0.00    -0.248 OA
BRANCH  13  15
ATOM     15  N   UNL A   1      42.851  25.534  35.623  1.00  0.00    -0.325 N 
ATOM     16  C   UNL A   1      43.428  25.534  36.963  1.00  0.00     0.149 C 
BRANCH  15  17
ATOM     17  C   UNL A   1      43.556  24.702  34.617  1.00  0.00     0.088 C 
ATOM     18  C   UNL A   1      43.237  23.205  34.668  1.00  0.00     0.031 C 
BRANCH  17  19
ATOM     19  C   UNL A   1      45.052  25.047  34.390  1.00  0.00     0.071 C 
BRANCH  19  20
ATOM     20  C   UNL A   1      45.461  26.047  33.344  1.00  0.00     0.007 A 
ATOM     21  C   UNL A   1      44.632  26.950  32.700  1.00  0.00     0.015 A 
ATOM     22  S   UNL A   1      47.031  26.077  32.655  1.00  0.00    -0.149 S 
ATOM     23  C   UNL A   1      45.332  27.776  31.777  1.00  0.00     0.012 A 
ATOM     24  C   UNL A   1      46.666  27.452  31.715  1.00  0.00     0.065 A 
ENDBRANCH  19  20
ENDBRANCH  17  19
ENDBRANCH  15  17
ENDBRANCH  13  15
ENDBRANCH   9  13
ENDBRANCH   7   8
ENDBRANCH   5   7
ENDBRANCH   4   5
ENDBRANCH   3   4
ENDBRANCH   2   3
ENDBRANCH   1   2
BRANCH   1  25
ATOM     25  C   UNL A   1      44.181  37.272  35.133  1.00  0.00     0.188 C 
BRANCH  25  26
ATOM     26  C   UNL A   1      42.983  37.727  34.284  1.00  0.00     0.188 C 
BRANCH  26  27
ATOM     27  O   UNL A   1      43.022  39.094  33.918  1.00  0.00    -0.376 OA
BRANCH  27  28
ATOM     28  C   UNL A   1      44.236  39.811  34.121  1.00  0.00     0.202 C 
BRANCH  28  29
ATOM     29  C   UNL A   1      45.122  39.942  32.866  1.00  0.00     0.261 C 
BRANCH  29  30
ATOM     30  O   UNL A   1      46.407  39.285  32.915  1.00  0.00    -0.460 OA
BRANCH  30  31
ATOM     31  C   UNL A   1      46.970  38.882  31.754  1.00  0.00     0.338 C 
ATOM     32  O   UNL A   1      47.976  39.329  31.227  1.00  0.00    -0.246 OA
BRANCH  31  33
ATOM     33  C   UNL A   1      46.333  37.615  31.336  1.00  0.00     0.060 A 
ATOM     34  C   UNL A   1      46.243  36.576  32.275  1.00  0.00     0.016 A 
ATOM     35  C   UNL A   1      45.773  37.468  30.065  1.00  0.00     0.016 A 
ATOM     36  C   UNL A   1      45.629  35.372  31.930  1.00  0.00     0.010 A 
ATOM     37  C   UNL A   1      45.166  36.259  29.719  1.00  0.00     0.010 A 
ATOM     38  C   UNL A   1      45.121  35.194  30.637  1.00  0.00    -0.014 A 
BRANCH  38  39
ATOM     39  C   UNL A   1      44.716  33.843  30.175  1.00  0.00     0.031 A 
ATOM     40  C   UNL A   1      43.259  33.472  30.260  1.00  0.00     0.074 A 
ATOM     41  C   UNL A   1      45.610  32.967  29.680  1.00  0.00     0.049 A 
ATOM     42  N   UNL A   1      42.675  32.336  29.982  1.00  0.00    -0.248 NA
ATOM     43  C   UNL A   1      42.340  34.524  30.729  1.00  0.00     0.031 C 
ATOM     44  C   UNL A   1      47.039  33.217  29.510  1.00  0.00     0.029 A 
ATOM     45  N   UNL A   1      45.438  31.677  29.241  1.00  0.00    -0.354 N 
ATOM     46  C   UNL A   1      41.325  32.534  30.244  1.00  0.00     0.074 A 
ATOM     47  C   UNL A   1      41.181  33.884  30.742  1.00  0.00     0.031 C 
ATOM     48  C   UNL A   1      47.619  32.108  29.014  1.00  0.00     0.029 A 
ATOM     49  C   UNL A   1      46.609  31.060  28.867  1.00  0.00     0.049 A 
ATOM     50  H   UNL A   1      44.560  31.235  29.197  1.00  0.00     0.167 HD
ATOM     51  C   UNL A   1      40.292  31.675  30.076  1.00  0.00     0.031 A 
ATOM     52  C   UNL A   1      46.843  29.790  28.478  1.00  0.00     0.031 A 
ATOM     53  C   UNL A   1      40.437  30.327  29.598  1.00  0.00     0.049 A 
ATOM     54  C   UNL A   1      45.689  28.823  28.374  1.00  0.00     0.074 A 
ATOM     55  C   UNL A   1      39.452  29.376  29.397  1.00  0.00     0.029 A 
ATOM     56  N   UNL A   1      41.641  29.734  29.253  1.00  0.00    -0.354 N 
ATOM     57  N   UNL A   1      44.414  29.031  28.608  1.00  0.00    -0.248 NA
ATOM     58  C   UNL A   1      46.003  27.454  27.940  1.00  0.00     0.031 C 
ATOM     59  C   UNL A   1      40.068  28.191  28.982  1.00  0.00     0.029 A 
ATOM     60  C   UNL A   1      41.428  28.424  28.858  1.00  0.00     0.049 A 
ATOM     61  H   UNL A   1      42.520  30.178  29.284  1.00  0.00     0.167 HD
ATOM     62  C   UNL A   1      43.774  27.829  28.322  1.00  0.00     0.074 A 
ATOM     63  C   UNL A   1      44.797  26.905  27.880  1.00  0.00     0.031 C 
ATOM     64  C   UNL A   1      42.456  27.516  28.415  1.00  0.00     0.031 A 
BRANCH  51  65
ATOM     65  C   UNL A   1      38.914  32.168  30.430  1.00  0.00    -0.014 A 
ATOM     66  C   UNL A   1      38.120  32.845  29.487  1.00  0.00     0.010 A 
ATOM     67  C   UNL A   1      38.389  31.915  31.711  1.00  0.00     0.010 A 
ATOM     68  C   UNL A   1      36.841  33.290  29.828  1.00  0.00     0.020 A 
ATOM     69  C   UNL A   1      37.099  32.331  32.046  1.00  0.00     0.020 A 
ATOM     70  C   UNL A   1      36.337  33.028  31.106  1.00  0.00     0.054 A 
BRANCH  70  71
ATOM     71  S   UNL A   1      34.660  33.588  31.508  1.00  0.00     0.124 S 
ATOM     72  O   UNL A   1      34.917  34.880  32.139  1.00  0.00    -0.237 OA
ATOM     73  O   UNL A   1      34.021  33.648  30.195  1.00  0.00    -0.237 OA
ATOM     74  O   UNL A   1      34.150  32.549  32.399  1.00  0.00    -0.744 OA
ENDBRANCH  70  71
ENDBRANCH  51  65
BRANCH  52  75
ATOM     75  C   UNL A   1      48.235  29.341  28.188  1.00  0.00    -0.014 A 
ATOM     76  C   UNL A   1      49.060  28.833  29.207  1.00  0.00     0.010 A 
ATOM     77  C   UNL A   1      48.751  29.442  26.882  1.00  0.00     0.010 A 
ATOM     78  C   UNL A   1      50.379  28.455  28.930  1.00  0.00     0.020 A 
ATOM     79  C   UNL A   1      50.057  29.035  26.594  1.00  0.00     0.020 A 
ATOM     80  C   UNL A   1      50.868  28.557  27.624  1.00  0.00     0.054 A 
BRANCH  80  81
ATOM     81  S   UNL A   1      52.568  28.023  27.282  1.00  0.00     0.124 S 
ATOM     82  O   UNL A   1      52.647  26.768  28.022  1.00  0.00    -0.237 OA
ATOM     83  O   UNL A   1      52.571  27.901  25.826  1.00  0.00    -0.237 OA
ATOM     84  O   UNL A   1      53.383  29.115  27.810  1.00  0.00    -0.744 OA
ENDBRANCH  80  81
ENDBRANCH  52  75
BRANCH  64  85
ATOM     85  C   UNL A   1      42.030  26.134  27.987  1.00  0.00    -0.014 A 
ATOM     86  C   UNL A   1      42.238  25.014  28.810  1.00  0.00     0.010 A 
ATOM     87  C   UNL A   1      41.348  25.969  26.766  1.00  0.00     0.010 A 
ATOM     88  C   UNL A   1      41.802  23.748  28.404  1.00  0.00     0.020 A 
ATOM     89  C   UNL A   1      40.883  24.712  26.371  1.00  0.00     0.020 A 
ATOM     90  C   UNL A   1      41.126  23.606  27.187  1.00  0.00     0.054 A 
BRANCH  90  91
ATOM     91  S   UNL A   1      40.533  21.961  26.706  1.00  0.00     0.124 S 
ATOM     92  O   UNL A   1      41.510  21.569  25.694  1.00  0.00    -0.237 OA
ATOM     93  O   UNL A   1      40.596  21.218  27.962  1.00  0.00    -0.237 OA
ATOM     94  O   UNL A   1      39.183  22.212  26.205  1.00  0.00    -0.744 OA
ENDBRANCH  90  91
ENDBRANCH  64  85
ENDBRANCH  38  39
ENDBRANCH  31  33
ENDBRANCH  30  31
ENDBRANCH  29  30
ENDBRANCH  28  29
ENDBRANCH  27  28
ENDBRANCH  26  27
ENDBRANCH  25  26
ENDBRANCH   1  25
TORSDOF 26
ENDMDL
MODEL 2
REMARK VINA RESULT:      -5.9      5.438     11.368
REMARK SMILES C[C@H](Cc1cccs1)N(C)C(=O)N1CC[C@@H](CC(=O)OCCOCCOCCOC(=O)c2ccc(-c3c4nc(c(-c5ccc(S(=O)(=O)[O-])cc5)c5ccc([nH]5)c(-c5ccc(S(=O)(=O)[O-])cc5)c5nc(c(-c6ccc(S(=O)(=O)[O-])cc6)c6ccc3[nH]6)C=C5)C=C4)cc2)C1
REMARK SMILES IDX 23 1 22 2 21 3 20 4 18 5 19 6 17 7 16 8 13 9 14 10 92 11
REMARK SMILES IDX 15 12 11 13 12 14 9 15 10 16 2 17 1 18 3 19 4 20 5 21 8 22
REMARK SMILES IDX 6 23 7 24 24 25 25 26 26 27 27 28 28 29 29 30 30 31 31 32
REMARK SMILES IDX 32 33 33 34 91 35 34 36 90 37 35 38 36 39 37 40 84 41 38 42
REMARK SMILES IDX 89 43 83 44 85 45 39 46 88 47 82 48 81 49 40 51 70 52 51 53
REMARK SMILES IDX 69 54 52 55 55 56 68 57 86 58 53 59 54 60 67 62 87 63 56 64
REMARK SMILES IDX 41 65 42 66 50 67 43 68 49 69 44 70 45 71 46 72 47 73 48 74
REMARK SMILES IDX 71 75 72 76 80 77 73 78 79 79 74 80 75 81 76 82 77 83 78 84
REMARK SMILES IDX 57 85 58 86 66 87 59 88 65 89 60 90 61 91 62 92 63 93 64 94
REMARK H PARENT 85 50 55 61
REMARK Flexibility Score: inf
ROOT
ATOM      1  O   UNL A   1      39.514  28.289  27.482  1.00  0.00    -0.376 OA
ENDROOT
BRANCH   1   2
ATOM      2  C   UNL A   1      39.892  27.592  28.673  1.00  0.00     0.202 C 
BRANCH   2   3
ATOM      3  C   UNL A   1      40.219  26.088  28.553  1.00  0.00     0.261 C 
BRANCH   3   4
ATOM      4  O   UNL A   1      41.199  25.783  27.537  1.00  0.00    -0.463 OA
BRANCH   4   5
ATOM      5  C   UNL A   1      40.910  24.761  26.689  1.00  0.00     0.306 C 
ATOM      6  O   UNL A   1      41.636  23.794  26.492  1.00  0.00    -0.252 OA
BRANCH   5   7
ATOM      7  C   UNL A   1      39.489  24.848  26.151  1.00  0.00     0.128 C 
BRANCH   7   8
ATOM      8  C   UNL A   1      38.441  23.788  26.492  1.00  0.00     0.021 C 
ATOM      9  N   UNL A   1      36.754  22.523  25.410  1.00  0.00    -0.324 N 
ATOM     10  C   UNL A   1      37.989  21.803  25.186  1.00  0.00     0.122 C 
ATOM     11  C   UNL A   1      37.071  23.880  25.817  1.00  0.00     0.125 C 
ATOM     12  C   UNL A   1      38.910  22.342  26.263  1.00  0.00     0.027 C 
BRANCH   9  13
ATOM     13  C   UNL A   1      35.581  22.292  24.719  1.00  0.00     0.320 C 
ATOM     14  O   UNL A   1      35.552  22.468  23.504  1.00  0.00    -0.248 OA
BRANCH  13  15
ATOM     15  N   UNL A   1      34.466  21.910  25.456  1.00  0.00    -0.325 N 
ATOM     16  C   UNL A   1      34.553  21.451  26.838  1.00  0.00     0.149 C 
BRANCH  15  17
ATOM     17  C   UNL A   1      33.095  22.130  24.934  1.00  0.00     0.088 C 
ATOM     18  C   UNL A   1      32.488  23.500  25.250  1.00  0.00     0.031 C 
BRANCH  17  19
ATOM     19  C   UNL A   1      32.120  20.931  25.079  1.00  0.00     0.071 C 
BRANCH  19  20
ATOM     20  C   UNL A   1      32.456  19.591  24.488  1.00  0.00     0.007 A 
ATOM     21  C   UNL A   1      32.364  19.233  23.152  1.00  0.00     0.015 A 
ATOM     22  S   UNL A   1      32.837  18.224  25.449  1.00  0.00    -0.149 S 
ATOM     23  C   UNL A   1      32.778  17.893  22.913  1.00  0.00     0.012 A 
ATOM     24  C   UNL A   1      33.135  17.256  24.077  1.00  0.00     0.065 A 
ENDBRANCH  19  20
ENDBRANCH  17  19
ENDBRANCH  15  17
ENDBRANCH  13  15
ENDBRANCH   9  13
ENDBRANCH   7   8
ENDBRANCH   5   7
ENDBRANCH   4   5
ENDBRANCH   3   4
ENDBRANCH   2   3
ENDBRANCH   1   2
BRANCH   1  25
ATOM     25  C   UNL A   1      38.853  29.539  27.647  1.00  0.00     0.188 C 
BRANCH  25  26
ATOM     26  C   UNL A   1      37.586  29.557  28.516  1.00  0.00     0.188 C 
BRANCH  26  27
ATOM     27  O   UNL A   1      36.754  30.683  28.298  1.00  0.00    -0.376 OA
BRANCH  27  28
ATOM     28  C   UNL A   1      35.528  30.763  29.018  1.00  0.00     0.202 C 
BRANCH  28  29
ATOM     29  C   UNL A   1      35.013  32.197  29.252  1.00  0.00     0.261 C 
BRANCH  29  30
ATOM     30  O   UNL A   1      34.448  32.473  30.553  1.00  0.00    -0.460 OA
BRANCH  30  31
ATOM     31  C   UNL A   1      35.055  33.392  31.336  1.00  0.00     0.338 C 
ATOM     32  O   UNL A   1      34.583  34.441  31.745  1.00  0.00    -0.246 OA
BRANCH  31  33
ATOM     33  C   UNL A   1      36.308  32.811  31.863  1.00  0.00     0.060 A 
ATOM     34  C   UNL A   1      36.219  31.668  32.673  1.00  0.00     0.016 A 
ATOM     35  C   UNL A   1      37.555  33.334  31.516  1.00  0.00     0.016 A 
ATOM     36  C   UNL A   1      37.378  31.072  33.172  1.00  0.00     0.010 A 
ATOM     37  C   UNL A   1      38.713  32.742  32.023  1.00  0.00     0.010 A 
ATOM     38  C   UNL A   1      38.629  31.629  32.881  1.00  0.00    -0.014 A 
BRANCH  38  39
ATOM     39  C   UNL A   1      39.836  31.177  33.616  1.00  0.00     0.031 A 
ATOM     40  C   UNL A   1      40.101  31.767  34.976  1.00  0.00     0.074 A 
ATOM     41  C   UNL A   1      40.676  30.259  33.103  1.00  0.00     0.049 A 
ATOM     42  N   UNL A   1      41.116  31.583  35.777  1.00  0.00    -0.248 NA
ATOM     43  C   UNL A   1      39.082  32.696  35.497  1.00  0.00     0.031 C 
ATOM     44  C   UNL A   1      40.512  29.585  31.816  1.00  0.00     0.029 A 
ATOM     45  N   UNL A   1      41.846  29.746  33.606  1.00  0.00    -0.354 N 
ATOM     46  C   UNL A   1      40.863  32.372  36.893  1.00  0.00     0.074 A 
ATOM     47  C   UNL A   1      39.620  33.068  36.649  1.00  0.00     0.031 C 
ATOM     48  C   UNL A   1      41.555  28.756  31.625  1.00  0.00     0.029 A 
ATOM     49  C   UNL A   1      42.475  28.867  32.756  1.00  0.00     0.049 A 
ATOM     50  H   UNL A   1      42.201  29.985  34.492  1.00  0.00     0.167 HD
ATOM     51  C   UNL A   1      41.592  32.499  38.027  1.00  0.00     0.031 A 
ATOM     52  C   UNL A   1      43.667  28.246  32.866  1.00  0.00     0.031 A 
ATOM     53  C   UNL A   1      42.838  31.821  38.261  1.00  0.00     0.049 A 
ATOM     54  C   UNL A   1      44.504  28.464  34.103  1.00  0.00     0.074 A 
ATOM     55  C   UNL A   1      43.655  31.887  39.377  1.00  0.00     0.029 A 
ATOM     56  N   UNL A   1      43.451  30.958  37.367  1.00  0.00    -0.354 N 
ATOM     57  N   UNL A   1      44.242  29.200  35.158  1.00  0.00    -0.248 NA
ATOM     58  C   UNL A   1      45.792  27.757  34.170  1.00  0.00     0.031 C 
ATOM     59  C   UNL A   1      44.789  31.106  39.133  1.00  0.00     0.029 A 
ATOM     60  C   UNL A   1      44.646  30.499  37.896  1.00  0.00     0.049 A 
ATOM     61  H   UNL A   1      43.091  30.707  36.485  1.00  0.00     0.167 HD
ATOM     62  C   UNL A   1      45.317  29.020  36.023  1.00  0.00     0.074 A 
ATOM     63  C   UNL A   1      46.223  28.093  35.378  1.00  0.00     0.031 C 
ATOM     64  C   UNL A   1      45.536  29.571  37.244  1.00  0.00     0.031 A 
BRANCH  51  65
ATOM     65  C   UNL A   1      41.065  33.424  39.092  1.00  0.00    -0.014 A 
ATOM     66  C   UNL A   1      41.454  34.775  39.136  1.00  0.00     0.010 A 
ATOM     67  C   UNL A   1      40.139  32.946  40.037  1.00  0.00     0.010 A 
ATOM     68  C   UNL A   1      40.951  35.623  40.125  1.00  0.00     0.020 A 
ATOM     69  C   UNL A   1      39.611  33.798  41.010  1.00  0.00     0.020 A 
ATOM     70  C   UNL A   1      40.031  35.129  41.056  1.00  0.00     0.054 A 
BRANCH  70  71
ATOM     71  S   UNL A   1      39.370  36.263  42.307  1.00  0.00     0.124 S 
ATOM     72  O   UNL A   1      40.303  36.066  43.414  1.00  0.00    -0.237 OA
ATOM     73  O   UNL A   1      39.455  37.560  41.639  1.00  0.00    -0.237 OA
ATOM     74  O   UNL A   1      38.014  35.773  42.540  1.00  0.00    -0.744 OA
ENDBRANCH  70  71
ENDBRANCH  51  65
BRANCH  52  75
ATOM     75  C   UNL A   1      44.164  27.381  31.758  1.00  0.00    -0.014 A 
ATOM     76  C   UNL A   1      44.822  27.934  30.645  1.00  0.00     0.010 A 
ATOM     77  C   UNL A   1      43.960  25.989  31.805  1.00  0.00     0.010 A 
ATOM     78  C   UNL A   1      45.246  27.116  29.592  1.00  0.00     0.020 A 
ATOM     79  C   UNL A   1      44.411  25.163  30.770  1.00  0.00     0.020 A 
ATOM     80  C   UNL A   1      45.039  25.735  29.663  1.00  0.00     0.054 A 
BRANCH  80  81
ATOM     81  S   UNL A   1      45.634  24.690  28.303  1.00  0.00     0.124 S 
ATOM     82  O   UNL A   1      47.079  24.871  28.390  1.00  0.00    -0.237 OA
ATOM     83  O   UNL A   1      45.137  23.369  28.683  1.00  0.00    -0.237 OA
ATOM     84  O   UNL A   1      44.998  25.271  27.122  1.00  0.00    -0.744 OA
ENDBRANCH  80  81
ENDBRANCH  52  75
BRANCH  64  85
ATOM     85  C   UNL A   1      46.779  29.155  37.991  1.00  0.00    -0.014 A 
ATOM     86  C   UNL A   1      46.781  28.044  38.851  1.00  0.00     0.010 A 
ATOM     87  C   UNL A   1      47.981  29.855  37.773  1.00  0.00     0.010 A 
ATOM     88  C   UNL A   1      47.957  27.660  39.506  1.00  0.00     0.020 A 
ATOM     89  C   UNL A   1      49.164  29.455  38.401  1.00  0.00     0.020 A 
ATOM     90  C   UNL A   1      49.141  28.367  39.276  1.00  0.00     0.054 A 
BRANCH  90  91
ATOM     91  S   UNL A   1      50.659  27.821  40.103  1.00  0.00     0.124 S 
ATOM     92  O   UNL A   1      50.150  26.844  41.062  1.00  0.00    -0.237 OA
ATOM     93  O   UNL A   1      51.443  27.269  39.000  1.00  0.00    -0.237 OA
ATOM     94  O   UNL A   1      51.197  29.047  40.688  1.00  0.00    -0.744 OA
ENDBRANCH  90  91
ENDBRANCH  64  85
ENDBRANCH  38  39
ENDBRANCH  31  33
ENDBRANCH  30  31
ENDBRANCH  29  30
ENDBRANCH  28  29
ENDBRANCH  27  28
ENDBRANCH  26  27
ENDBRANCH  25  26
ENDBRANCH   1  25
TORSDOF 26
ENDMDL
MODEL 3
REMARK VINA RESULT:      -5.8      6.267     12.795
REMARK SMILES C[C@H](Cc1cccs1)N(C)C(=O)N1CC[C@@H](CC(=O)OCCOCCOCCOC(=O)c2ccc(-c3c4nc(c(-c5ccc(S(=O)(=O)[O-])cc5)c5ccc([nH]5)c(-c5ccc(S(=O)(=O)[O-])cc5)c5nc(c(-c6ccc(S(=O)(=O)[O-])cc6)c6ccc3[nH]6)C=C5)C=C4)cc2)C1
REMARK SMILES IDX 23 1 22 2 21 3 20 4 18 5 19 6 17 7 16 8 13 9 14 10 92 11
REMARK SMILES IDX 15 12 11 13 12 14 9 15 10 16 2 17 1 18 3 19 4 20 5 21 8 22
REMARK SMILES IDX 6 23 7 24 24 25 25 26 26 27 27 28 28 29 29 30 30 31 31 32
REMARK SMILES IDX 32 33 33 34 91 35 34 36 90 37 35 38 36 39 37 40 84 41 38 42
REMARK SMILES IDX 89 43 83 44 85 45 39 46 88 47 82 48 81 49 40 51 70 52 51 53
REMARK SMILES IDX 69 54 52 55 55 56 68 57 86 58 53 59 54 60 67 62 87 63 56 64
REMARK SMILES IDX 41 65 42 66 50 67 43 68 49 69 44 70 45 71 46 72 47 73 48 74
REMARK SMILES IDX 71 75 72 76 80 77 73 78 79 79 74 80 75 81 76 82 77 83 78 84
REMARK SMILES IDX 57 85 58 86 66 87 59 88 65 89 60 90 61 91 62 92 63 93 64 94
REMARK H PARENT 85 50 55 61
REMARK Flexibility Score: inf
ROOT
ATOM      1  O   UNL A   1      39.069  28.391  27.742  1.00  0.00    -0.376 OA
ENDROOT
BRANCH   1   2
ATOM      2  C   UNL A   1      39.386  27.623  28.907  1.00  0.00     0.202 C 
BRANCH   2   3
ATOM      3  C   UNL A   1      39.113  26.104  28.864  1.00  0.00     0.261 C 
BRANCH   3   4
ATOM      4  O   UNL A   1      40.068  25.361  28.075  1.00  0.00    -0.463 OA
BRANCH   4   5
ATOM      5  C   UNL A   1      39.620  24.230  27.469  1.00  0.00     0.306 C 
ATOM      6  O   UNL A   1      40.029  23.101  27.714  1.00  0.00    -0.252 OA
BRANCH   5   7
ATOM      7  C   UNL A   1      38.409  24.494  26.586  1.00  0.00     0.128 C 
BRANCH   7   8
ATOM      8  C   UNL A   1      37.372  23.405  26.308  1.00  0.00     0.021 C 
ATOM      9  N   UNL A   1      35.861  22.763  24.598  1.00  0.00    -0.324 N 
ATOM     10  C   UNL A   1      37.141  22.201  24.223  1.00  0.00     0.122 C 
ATOM     11  C   UNL A   1      36.080  23.800  25.591  1.00  0.00     0.125 C 
ATOM     12  C   UNL A   1      37.920  22.200  25.524  1.00  0.00     0.027 C 
BRANCH   9  13
ATOM     13  C   UNL A   1      34.780  22.874  23.748  1.00  0.00     0.320 C 
ATOM     14  O   UNL A   1      34.905  23.481  22.687  1.00  0.00    -0.248 OA
BRANCH  13  15
ATOM     15  N   UNL A   1      33.574  22.321  24.167  1.00  0.00    -0.325 N 
ATOM     16  C   UNL A   1      33.383  20.886  24.342  1.00  0.00     0.149 C 
BRANCH  15  17
ATOM     17  C   UNL A   1      32.465  23.183  24.645  1.00  0.00     0.088 C 
ATOM     18  C   UNL A   1      31.902  22.818  26.022  1.00  0.00     0.031 C 
BRANCH  17  19
ATOM     19  C   UNL A   1      31.402  23.561  23.580  1.00  0.00     0.071 C 
BRANCH  19  20
ATOM     20  C   UNL A   1      31.086  25.001  23.286  1.00  0.00     0.007 A 
ATOM     21  C   UNL A   1      31.569  25.751  22.227  1.00  0.00     0.015 A 
ATOM     22  S   UNL A   1      30.196  25.993  24.366  1.00  0.00    -0.149 S 
ATOM     23  C   UNL A   1      31.061  27.080  22.218  1.00  0.00     0.012 A 
ATOM     24  C   UNL A   1      30.237  27.316  23.292  1.00  0.00     0.065 A 
ENDBRANCH  19  20
ENDBRANCH  17  19
ENDBRANCH  15  17
ENDBRANCH  13  15
ENDBRANCH   9  13
ENDBRANCH   7   8
ENDBRANCH   5   7
ENDBRANCH   4   5
ENDBRANCH   3   4
ENDBRANCH   2   3
ENDBRANCH   1   2
BRANCH   1  25
ATOM     25  C   UNL A   1      38.569  29.707  27.953  1.00  0.00     0.188 C 
BRANCH  25  26
ATOM     26  C   UNL A   1      38.028  30.041  29.351  1.00  0.00     0.188 C 
BRANCH  26  27
ATOM     27  O   UNL A   1      36.816  30.773  29.341  1.00  0.00    -0.376 OA
BRANCH  27  28
ATOM     28  C   UNL A   1      36.116  30.935  30.571  1.00  0.00     0.202 C 
BRANCH  28  29
ATOM     29  C   UNL A   1      35.172  32.153  30.617  1.00  0.00     0.261 C 
BRANCH  29  30
ATOM     30  O   UNL A   1      34.984  32.773  31.908  1.00  0.00    -0.460 OA
BRANCH  30  31
ATOM     31  C   UNL A   1      35.750  33.839  32.229  1.00  0.00     0.338 C 
ATOM     32  O   UNL A   1      35.470  35.019  32.085  1.00  0.00    -0.246 OA
BRANCH  31  33
ATOM     33  C   UNL A   1      36.890  33.372  33.045  1.00  0.00     0.060 A 
ATOM     34  C   UNL A   1      36.625  32.530  34.136  1.00  0.00     0.016 A 
ATOM     35  C   UNL A   1      38.206  33.699  32.711  1.00  0.00     0.016 A 
ATOM     36  C   UNL A   1      37.673  32.047  34.919  1.00  0.00     0.010 A 
ATOM     37  C   UNL A   1      39.253  33.222  33.501  1.00  0.00     0.010 A 
ATOM     38  C   UNL A   1      38.991  32.422  34.628  1.00  0.00    -0.014 A 
BRANCH  38  39
ATOM     39  C   UNL A   1      40.077  32.144  35.600  1.00  0.00     0.031 A 
ATOM     40  C   UNL A   1      40.388  33.191  36.635  1.00  0.00     0.074 A 
ATOM     41  C   UNL A   1      40.768  30.989  35.578  1.00  0.00     0.049 A 
ATOM     42  N   UNL A   1      41.328  33.208  37.542  1.00  0.00    -0.248 NA
ATOM     43  C   UNL A   1      39.522  34.384  36.642  1.00  0.00     0.031 C 
ATOM     44  C   UNL A   1      40.539  29.880  34.653  1.00  0.00     0.029 A 
ATOM     45  N   UNL A   1      41.816  30.566  36.358  1.00  0.00    -0.354 N 
ATOM     46  C   UNL A   1      41.172  34.409  38.224  1.00  0.00     0.074 A 
ATOM     47  C   UNL A   1      40.073  35.112  37.602  1.00  0.00     0.031 C 
ATOM     48  C   UNL A   1      41.434  28.908  34.911  1.00  0.00     0.029 A 
ATOM     49  C   UNL A   1      42.318  29.339  35.992  1.00  0.00     0.049 A 
ATOM     50  H   UNL A   1      42.175  31.092  37.109  1.00  0.00     0.167 HD
ATOM     51  C   UNL A   1      41.871  34.882  39.283  1.00  0.00     0.031 A 
ATOM     52  C   UNL A   1      43.384  28.657  36.458  1.00  0.00     0.031 A 
ATOM     53  C   UNL A   1      42.975  34.191  39.891  1.00  0.00     0.049 A 
ATOM     54  C   UNL A   1      44.201  29.239  37.586  1.00  0.00     0.074 A 
ATOM     55  C   UNL A   1      43.751  34.589  40.966  1.00  0.00     0.029 A 
ATOM     56  N   UNL A   1      43.466  32.963  39.477  1.00  0.00    -0.354 N 
ATOM     57  N   UNL A   1      44.028  30.368  38.233  1.00  0.00    -0.248 NA
ATOM     58  C   UNL A   1      45.348  28.448  38.056  1.00  0.00     0.031 C 
ATOM     59  C   UNL A   1      44.745  33.627  41.166  1.00  0.00     0.029 A 
ATOM     60  C   UNL A   1      44.547  32.596  40.261  1.00  0.00     0.049 A 
ATOM     61  H   UNL A   1      43.101  32.429  38.733  1.00  0.00     0.167 HD
ATOM     62  C   UNL A   1      45.026  30.407  39.202  1.00  0.00     0.074 A 
ATOM     63  C   UNL A   1      45.786  29.181  39.070  1.00  0.00     0.031 C 
ATOM     64  C   UNL A   1      45.291  31.369  40.122  1.00  0.00     0.031 A 
BRANCH  51  65
ATOM     65  C   UNL A   1      41.469  36.223  39.837  1.00  0.00    -0.014 A 
ATOM     66  C   UNL A   1      42.166  37.393  39.483  1.00  0.00     0.010 A 
ATOM     67  C   UNL A   1      40.357  36.321  40.693  1.00  0.00     0.010 A 
ATOM     68  C   UNL A   1      41.777  38.631  39.999  1.00  0.00     0.020 A 
ATOM     69  C   UNL A   1      39.946  37.561  41.188  1.00  0.00     0.020 A 
ATOM     70  C   UNL A   1      40.668  38.708  40.848  1.00  0.00     0.054 A 
BRANCH  70  71
ATOM     71  S   UNL A   1      40.168  40.334  41.475  1.00  0.00     0.124 S 
ATOM     72  O   UNL A   1      39.561  40.939  40.292  1.00  0.00    -0.237 OA
ATOM     73  O   UNL A   1      39.239  39.988  42.549  1.00  0.00    -0.237 OA
ATOM     74  O   UNL A   1      41.423  40.940  41.912  1.00  0.00    -0.744 OA
ENDBRANCH  70  71
ENDBRANCH  51  65
BRANCH  52  75
ATOM     75  C   UNL A   1      43.768  27.356  35.838  1.00  0.00    -0.014 A 
ATOM     76  C   UNL A   1      44.646  27.306  34.741  1.00  0.00     0.010 A 
ATOM     77  C   UNL A   1      43.234  26.153  36.336  1.00  0.00     0.010 A 
ATOM     78  C   UNL A   1      44.965  26.083  34.141  1.00  0.00     0.020 A 
ATOM     79  C   UNL A   1      43.575  24.925  35.761  1.00  0.00     0.020 A 
ATOM     80  C   UNL A   1      44.428  24.900  34.657  1.00  0.00     0.054 A 
BRANCH  80  81
ATOM     81  S   UNL A   1      44.888  23.322  33.888  1.00  0.00     0.124 S 
ATOM     82  O   UNL A   1      46.317  23.249  34.175  1.00  0.00    -0.237 OA
ATOM     83  O   UNL A   1      44.047  22.366  34.605  1.00  0.00    -0.237 OA
ATOM     84  O   UNL A   1      44.541  23.513  32.481  1.00  0.00    -0.744 OA
ENDBRANCH  80  81
ENDBRANCH  52  75
BRANCH  64  85
ATOM     85  C   UNL A   1      46.418  31.123  41.093  1.00  0.00    -0.014 A 
ATOM     86  C   UNL A   1      47.723  31.573  40.833  1.00  0.00     0.010 A 
ATOM     87  C   UNL A   1      46.145  30.487  42.320  1.00  0.00     0.010 A 
ATOM     88  C   UNL A   1      48.744  31.361  41.767  1.00  0.00     0.020 A 
ATOM     89  C   UNL A   1      47.155  30.301  43.268  1.00  0.00     0.020 A 
ATOM     90  C   UNL A   1      48.452  30.727  42.979  1.00  0.00     0.054 A 
BRANCH  90  91
ATOM     91  S   UNL A   1      49.783  30.505  44.190  1.00  0.00     0.124 S 
ATOM     92  O   UNL A   1      50.543  29.401  43.609  1.00  0.00    -0.237 OA
ATOM     93  O   UNL A   1      50.451  31.804  44.174  1.00  0.00    -0.237 OA
ATOM     94  O   UNL A   1      49.077  30.190  45.430  1.00  0.00    -0.744 OA
ENDBRANCH  90  91
ENDBRANCH  64  85
ENDBRANCH  38  39
ENDBRANCH  31  33
ENDBRANCH  30  31
ENDBRANCH  29  30
ENDBRANCH  28  29
ENDBRANCH  27  28
ENDBRANCH  26  27
ENDBRANCH  25  26
ENDBRANCH   1  25
TORSDOF 26
ENDMDL
