MODEL 1
REMARK VINA RESULT:      -9.1      0.000      0.000
REMARK SMILES C[C@@H](C(=O)OCCOCCOCCOC(=O)c1ccc(-c2c3nc(c(-c4ccc(S(=O)(=O)[O-])cc4)c4ccc([nH]4)c(-c4ccc(S(=O)(=O)[O-])cc4)c4nc(c(-c5ccc(S(=O)(=O)[O-])cc5)c5ccc2[nH]5)C=C4)C=C3)cc1)S(=O)(=O)N[C@@]12C[C@@H]3C[C@@](C)(C[C@@](C)(C3)C1)C2
REMARK SMILES IDX 9 1 8 2 7 3 6 4 5 5 3 6 4 7 2 8 1 9 77 10 78 11 79 12 80 13
REMARK SMILES IDX 81 15 82 16 91 17 92 18 83 19 88 20 85 21 90 22 84 23 87 24
REMARK SMILES IDX 89 25 86 26 10 27 11 28 12 29 13 30 14 31 15 32 16 33 17 34
REMARK SMILES IDX 18 35 76 36 19 37 75 38 20 39 21 40 22 41 69 42 23 43 74 44
REMARK SMILES IDX 68 45 70 46 24 47 73 48 67 49 66 50 25 52 55 53 36 54 54 55
REMARK SMILES IDX 37 56 40 57 53 58 71 59 38 60 39 61 52 63 72 64 41 65 26 66
REMARK SMILES IDX 27 67 35 68 28 69 34 70 29 71 30 72 31 73 32 74 33 75 56 76
REMARK SMILES IDX 57 77 65 78 58 79 64 80 59 81 60 82 61 83 62 84 63 85 42 86
REMARK SMILES IDX 43 87 51 88 44 89 50 90 45 91 46 92 47 93 48 94 49 95
REMARK H PARENT 80 14 70 51 40 62
REMARK Flexibility Score: inf
ROOT
ATOM      1  C   UNL A   1      41.024  20.988  27.195  1.00  0.00     0.188 C 
ENDROOT
BRANCH   1   2
ATOM      2  O   UNL A   1      39.660  21.234  26.896  1.00  0.00    -0.376 OA
BRANCH   2   3
ATOM      3  C   UNL A   1      39.207  22.579  26.874  1.00  0.00     0.202 C 
BRANCH   3   4
ATOM      4  C   UNL A   1      38.672  23.144  25.550  1.00  0.00     0.261 C 
BRANCH   4   5
ATOM      5  O   UNL A   1      37.454  23.918  25.672  1.00  0.00    -0.462 OA
BRANCH   5   6
ATOM      6  C   UNL A   1      36.298  23.242  25.964  1.00  0.00     0.325 C 
ATOM      7  O   UNL A   1      35.812  23.220  27.086  1.00  0.00    -0.251 OA
BRANCH   6   8
ATOM      8  C   UNL A   1      35.783  22.415  24.804  1.00  0.00     0.230 C 
ATOM      9  C   UNL A   1      36.209  22.873  23.423  1.00  0.00     0.039 C 
BRANCH   8  10
ATOM     10  S   UNL A   1      34.058  21.881  24.988  1.00  0.00     0.225 S 
ATOM     11  O   UNL A   1      33.599  21.411  23.693  1.00  0.00    -0.212 OA
ATOM     12  O   UNL A   1      33.976  21.003  26.130  1.00  0.00    -0.212 OA
BRANCH  10  13
ATOM     13  N   UNL A   1      33.040  23.128  25.448  1.00  0.00    -0.208 NA
ATOM     14  H   UNL A   1      33.332  23.355  26.398  1.00  0.00     0.141 HD
BRANCH  13  15
ATOM     15  C   UNL A   1      32.816  24.467  24.797  1.00  0.00     0.034 C 
ATOM     16  C   UNL A   1      33.602  25.622  25.418  1.00  0.00     0.027 C 
ATOM     17  C   UNL A   1      33.089  24.483  23.263  1.00  0.00     0.030 C 
ATOM     18  C   UNL A   1      31.304  24.718  24.958  1.00  0.00     0.030 C 
ATOM     19  C   UNL A   1      33.128  26.972  24.868  1.00  0.00    -0.008 C 
ATOM     20  C   UNL A   1      32.651  25.863  22.648  1.00  0.00    -0.030 C 
ATOM     21  C   UNL A   1      30.828  26.054  24.399  1.00  0.00    -0.030 C 
ATOM     22  C   UNL A   1      33.405  27.009  23.361  1.00  0.00     0.010 C 
ATOM     23  C   UNL A   1      31.622  27.144  25.139  1.00  0.00     0.010 C 
ATOM     24  C   UNL A   1      31.142  26.089  22.893  1.00  0.00     0.013 C 
ATOM     25  C   UNL A   1      32.925  25.928  21.141  1.00  0.00     0.011 C 
ATOM     26  C   UNL A   1      29.318  26.195  24.628  1.00  0.00     0.011 C 
ENDBRANCH  13  15
ENDBRANCH  10  13
ENDBRANCH   8  10
ENDBRANCH   6   8
ENDBRANCH   5   6
ENDBRANCH   4   5
ENDBRANCH   3   4
ENDBRANCH   2   3
ENDBRANCH   1   2
BRANCH   1  27
ATOM     27  C   UNL A   1      42.056  21.062  26.054  1.00  0.00     0.188 C 
BRANCH  27  28
ATOM     28  O   UNL A   1      42.146  22.288  25.375  1.00  0.00    -0.376 OA
BRANCH  28  29
ATOM     29  C   UNL A   1      43.427  22.833  25.115  1.00  0.00     0.202 C 
BRANCH  29  30
ATOM     30  C   UNL A   1      44.095  23.944  25.958  1.00  0.00     0.261 C 
BRANCH  30  31
ATOM     31  O   UNL A   1      43.936  25.301  25.508  1.00  0.00    -0.460 OA
BRANCH  31  32
ATOM     32  C   UNL A   1      42.721  25.867  25.706  1.00  0.00     0.338 C 
ATOM     33  O   UNL A   1      41.835  25.956  24.870  1.00  0.00    -0.246 OA
BRANCH  32  34
ATOM     34  C   UNL A   1      42.539  26.363  27.099  1.00  0.00     0.060 A 
ATOM     35  C   UNL A   1      41.627  25.798  27.989  1.00  0.00     0.016 A 
ATOM     36  C   UNL A   1      43.177  27.545  27.474  1.00  0.00     0.016 A 
ATOM     37  C   UNL A   1      41.253  26.458  29.161  1.00  0.00     0.010 A 
ATOM     38  C   UNL A   1      42.883  28.152  28.705  1.00  0.00     0.010 A 
ATOM     39  C   UNL A   1      41.884  27.639  29.551  1.00  0.00    -0.014 A 
BRANCH  39  40
ATOM     40  C   UNL A   1      41.479  28.353  30.799  1.00  0.00     0.031 A 
ATOM     41  C   UNL A   1      40.286  29.277  30.783  1.00  0.00     0.074 A 
ATOM     42  C   UNL A   1      42.152  28.180  31.957  1.00  0.00     0.049 A 
ATOM     43  N   UNL A   1      39.946  30.204  31.641  1.00  0.00    -0.248 NA
ATOM     44  C   UNL A   1      39.359  29.145  29.647  1.00  0.00     0.031 C 
ATOM     45  C   UNL A   1      43.247  27.232  32.182  1.00  0.00     0.029 A 
ATOM     46  N   UNL A   1      42.011  28.806  33.174  1.00  0.00    -0.354 N 
ATOM     47  C   UNL A   1      38.815  30.820  31.110  1.00  0.00     0.074 A 
ATOM     48  C   UNL A   1      38.517  30.145  29.865  1.00  0.00     0.031 C 
ATOM     49  C   UNL A   1      43.650  27.313  33.459  1.00  0.00     0.029 A 
ATOM     50  C   UNL A   1      42.946  28.412  34.105  1.00  0.00     0.049 A 
ATOM     51  H   UNL A   1      41.310  29.471  33.361  1.00  0.00     0.167 HD
ATOM     52  C   UNL A   1      38.113  31.867  31.608  1.00  0.00     0.031 A 
ATOM     53  C   UNL A   1      43.271  28.922  35.309  1.00  0.00     0.031 A 
ATOM     54  C   UNL A   1      38.402  32.502  32.869  1.00  0.00     0.049 A 
ATOM     55  C   UNL A   1      42.550  30.147  35.798  1.00  0.00     0.074 A 
ATOM     56  C   UNL A   1      37.760  33.579  33.459  1.00  0.00     0.029 A 
ATOM     57  N   UNL A   1      39.407  32.114  33.743  1.00  0.00    -0.354 N 
ATOM     58  N   UNL A   1      41.559  30.798  35.237  1.00  0.00    -0.248 NA
ATOM     59  C   UNL A   1      43.011  30.723  37.068  1.00  0.00     0.031 C 
ATOM     60  C   UNL A   1      38.417  33.878  34.657  1.00  0.00     0.029 A 
ATOM     61  C   UNL A   1      39.420  32.943  34.852  1.00  0.00     0.049 A 
ATOM     62  H   UNL A   1      40.021  31.357  33.596  1.00  0.00     0.167 HD
ATOM     63  C   UNL A   1      41.263  31.849  36.098  1.00  0.00     0.074 A 
ATOM     64  C   UNL A   1      42.169  31.735  37.224  1.00  0.00     0.031 C 
ATOM     65  C   UNL A   1      40.327  32.821  35.967  1.00  0.00     0.031 A 
BRANCH  52  66
ATOM     66  C   UNL A   1      37.016  32.452  30.753  1.00  0.00    -0.014 A 
ATOM     67  C   UNL A   1      37.272  33.400  29.747  1.00  0.00     0.010 A 
ATOM     68  C   UNL A   1      35.695  32.000  30.940  1.00  0.00     0.010 A 
ATOM     69  C   UNL A   1      36.222  33.915  28.976  1.00  0.00     0.020 A 
ATOM     70  C   UNL A   1      34.648  32.488  30.152  1.00  0.00     0.020 A 
ATOM     71  C   UNL A   1      34.916  33.458  29.188  1.00  0.00     0.054 A 
BRANCH  71  72
ATOM     72  S   UNL A   1      33.576  34.136  28.168  1.00  0.00     0.124 S 
ATOM     73  O   UNL A   1      32.809  34.899  29.150  1.00  0.00    -0.237 OA
ATOM     74  O   UNL A   1      34.299  34.932  27.179  1.00  0.00    -0.237 OA
ATOM     75  O   UNL A   1      32.906  32.949  27.641  1.00  0.00    -0.744 OA
ENDBRANCH  71  72
ENDBRANCH  52  66
BRANCH  53  76
ATOM     76  C   UNL A   1      44.398  28.333  36.089  1.00  0.00    -0.014 A 
ATOM     77  C   UNL A   1      45.713  28.795  35.917  1.00  0.00     0.010 A 
ATOM     78  C   UNL A   1      44.154  27.309  37.026  1.00  0.00     0.010 A 
ATOM     79  C   UNL A   1      46.762  28.243  36.660  1.00  0.00     0.020 A 
ATOM     80  C   UNL A   1      45.191  26.782  37.798  1.00  0.00     0.020 A 
ATOM     81  C   UNL A   1      46.493  27.245  37.602  1.00  0.00     0.054 A 
BRANCH  81  82
ATOM     82  S   UNL A   1      47.860  26.584  38.595  1.00  0.00     0.124 S 
ATOM     83  O   UNL A   1      48.369  25.518  37.738  1.00  0.00    -0.237 OA
ATOM     84  O   UNL A   1      48.732  27.745  38.746  1.00  0.00    -0.237 OA
ATOM     85  O   UNL A   1      47.206  26.140  39.825  1.00  0.00    -0.744 OA
ENDBRANCH  81  82
ENDBRANCH  53  76
BRANCH  65  86
ATOM     86  C   UNL A   1      40.196  33.812  37.093  1.00  0.00    -0.014 A 
ATOM     87  C   UNL A   1      39.884  33.401  38.401  1.00  0.00     0.010 A 
ATOM     88  C   UNL A   1      40.432  35.177  36.841  1.00  0.00     0.010 A 
ATOM     89  C   UNL A   1      39.775  34.341  39.429  1.00  0.00     0.020 A 
ATOM     90  C   UNL A   1      40.355  36.115  37.873  1.00  0.00     0.020 A 
ATOM     91  C   UNL A   1      40.013  35.692  39.159  1.00  0.00     0.054 A 
BRANCH  91  92
ATOM     92  S   UNL A   1      39.909  36.888  40.519  1.00  0.00     0.124 S 
ATOM     93  O   UNL A   1      38.523  37.336  40.426  1.00  0.00    -0.237 OA
ATOM     94  O   UNL A   1      40.228  36.069  41.687  1.00  0.00    -0.237 OA
ATOM     95  O   UNL A   1      40.913  37.892  40.177  1.00  0.00    -0.744 OA
ENDBRANCH  91  92
ENDBRANCH  65  86
ENDBRANCH  39  40
ENDBRANCH  32  34
ENDBRANCH  31  32
ENDBRANCH  30  31
ENDBRANCH  29  30
ENDBRANCH  28  29
ENDBRANCH  27  28
ENDBRANCH   1  27
TORSDOF 23
ENDMDL
MODEL 2
REMARK VINA RESULT:      -9.0      6.434      7.888
REMARK SMILES C[C@@H](C(=O)OCCOCCOCCOC(=O)c1ccc(-c2c3nc(c(-c4ccc(S(=O)(=O)[O-])cc4)c4ccc([nH]4)c(-c4ccc(S(=O)(=O)[O-])cc4)c4nc(c(-c5ccc(S(=O)(=O)[O-])cc5)c5ccc2[nH]5)C=C4)C=C3)cc1)S(=O)(=O)N[C@@]12C[C@@H]3C[C@@](C)(C[C@@](C)(C3)C1)C2
REMARK SMILES IDX 9 1 8 2 7 3 6 4 5 5 3 6 4 7 2 8 1 9 77 10 78 11 79 12 80 13
REMARK SMILES IDX 81 15 82 16 91 17 92 18 83 19 88 20 85 21 90 22 84 23 87 24
REMARK SMILES IDX 89 25 86 26 10 27 11 28 12 29 13 30 14 31 15 32 16 33 17 34
REMARK SMILES IDX 18 35 76 36 19 37 75 38 20 39 21 40 22 41 69 42 23 43 74 44
REMARK SMILES IDX 68 45 70 46 24 47 73 48 67 49 66 50 25 52 55 53 36 54 54 55
REMARK SMILES IDX 37 56 40 57 53 58 71 59 38 60 39 61 52 63 72 64 41 65 26 66
REMARK SMILES IDX 27 67 35 68 28 69 34 70 29 71 30 72 31 73 32 74 33 75 56 76
REMARK SMILES IDX 57 77 65 78 58 79 64 80 59 81 60 82 61 83 62 84 63 85 42 86
REMARK SMILES IDX 43 87 51 88 44 89 50 90 45 91 46 92 47 93 48 94 49 95
REMARK H PARENT 80 14 70 51 40 62
REMARK Flexibility Score: inf
ROOT
ATOM      1  C   UNL A   1      42.955  22.182  26.854  1.00  0.00     0.188 C 
ENDROOT
BRANCH   1   2
ATOM      2  O   UNL A   1      41.966  22.558  27.798  1.00  0.00    -0.376 OA
BRANCH   2   3
ATOM      3  C   UNL A   1      40.838  21.713  27.965  1.00  0.00     0.202 C 
BRANCH   3   4
ATOM      4  C   UNL A   1      40.321  20.942  26.741  1.00  0.00     0.261 C 
BRANCH   4   5
ATOM      5  O   UNL A   1      39.699  21.768  25.726  1.00  0.00    -0.462 OA
BRANCH   5   6
ATOM      6  C   UNL A   1      38.382  21.528  25.430  1.00  0.00     0.325 C 
ATOM      7  O   UNL A   1      37.967  20.421  25.118  1.00  0.00    -0.251 OA
BRANCH   6   8
ATOM      8  C   UNL A   1      37.545  22.790  25.381  1.00  0.00     0.230 C 
ATOM      9  C   UNL A   1      38.048  23.952  26.214  1.00  0.00     0.039 C 
BRANCH   8  10
ATOM     10  S   UNL A   1      35.756  22.487  25.402  1.00  0.00     0.225 S 
ATOM     11  O   UNL A   1      35.356  22.104  24.060  1.00  0.00    -0.212 OA
ATOM     12  O   UNL A   1      35.458  21.610  26.508  1.00  0.00    -0.212 OA
BRANCH  10  13
ATOM     13  N   UNL A   1      34.873  23.852  25.807  1.00  0.00    -0.208 NA
ATOM     14  H   UNL A   1      35.467  24.630  25.520  1.00  0.00     0.141 HD
BRANCH  13  15
ATOM     15  C   UNL A   1      33.491  24.258  25.371  1.00  0.00     0.034 C 
ATOM     16  C   UNL A   1      32.447  23.143  25.422  1.00  0.00     0.027 C 
ATOM     17  C   UNL A   1      32.913  25.481  26.145  1.00  0.00     0.030 C 
ATOM     18  C   UNL A   1      33.678  24.733  23.916  1.00  0.00     0.030 C 
ATOM     19  C   UNL A   1      31.148  23.570  24.730  1.00  0.00    -0.008 C 
ATOM     20  C   UNL A   1      31.556  25.943  25.497  1.00  0.00    -0.030 C 
ATOM     21  C   UNL A   1      32.388  25.170  23.230  1.00  0.00    -0.030 C 
ATOM     22  C   UNL A   1      30.558  24.763  25.491  1.00  0.00     0.010 C 
ATOM     23  C   UNL A   1      31.441  23.961  23.270  1.00  0.00     0.010 C 
ATOM     24  C   UNL A   1      31.793  26.347  24.024  1.00  0.00     0.013 C 
ATOM     25  C   UNL A   1      30.942  27.132  26.245  1.00  0.00     0.011 C 
ATOM     26  C   UNL A   1      32.698  25.606  21.792  1.00  0.00     0.011 C 
ENDBRANCH  13  15
ENDBRANCH  10  13
ENDBRANCH   8  10
ENDBRANCH   6   8
ENDBRANCH   5   6
ENDBRANCH   4   5
ENDBRANCH   3   4
ENDBRANCH   2   3
ENDBRANCH   1   2
BRANCH   1  27
ATOM     27  C   UNL A   1      43.094  23.007  25.561  1.00  0.00     0.188 C 
BRANCH  27  28
ATOM     28  O   UNL A   1      43.398  22.286  24.394  1.00  0.00    -0.376 OA
BRANCH  28  29
ATOM     29  C   UNL A   1      44.731  22.286  23.918  1.00  0.00     0.202 C 
BRANCH  29  30
ATOM     30  C   UNL A   1      45.976  22.019  24.797  1.00  0.00     0.261 C 
BRANCH  30  31
ATOM     31  O   UNL A   1      46.473  23.113  25.586  1.00  0.00    -0.460 OA
BRANCH  31  32
ATOM     32  C   UNL A   1      46.778  24.253  24.919  1.00  0.00     0.338 C 
ATOM     33  O   UNL A   1      47.283  24.310  23.808  1.00  0.00    -0.246 OA
BRANCH  32  34
ATOM     34  C   UNL A   1      46.398  25.479  25.675  1.00  0.00     0.060 A 
ATOM     35  C   UNL A   1      45.641  26.507  25.116  1.00  0.00     0.016 A 
ATOM     36  C   UNL A   1      46.967  25.691  26.931  1.00  0.00     0.016 A 
ATOM     37  C   UNL A   1      45.560  27.762  25.721  1.00  0.00     0.010 A 
ATOM     38  C   UNL A   1      46.793  26.917  27.592  1.00  0.00     0.010 A 
ATOM     39  C   UNL A   1      46.120  27.988  26.978  1.00  0.00    -0.014 A 
BRANCH  39  40
ATOM     40  C   UNL A   1      46.045  29.332  27.625  1.00  0.00     0.031 A 
ATOM     41  C   UNL A   1      44.839  29.703  28.452  1.00  0.00     0.074 A 
ATOM     42  C   UNL A   1      47.047  30.230  27.498  1.00  0.00     0.049 A 
ATOM     43  N   UNL A   1      44.435  30.884  28.843  1.00  0.00    -0.248 NA
ATOM     44  C   UNL A   1      43.971  28.598  28.891  1.00  0.00     0.031 C 
ATOM     45  C   UNL A   1      48.336  29.992  26.842  1.00  0.00     0.029 A 
ATOM     46  N   UNL A   1      47.135  31.536  27.919  1.00  0.00    -0.354 N 
ATOM     47  C   UNL A   1      43.225  30.675  29.501  1.00  0.00     0.074 A 
ATOM     48  C   UNL A   1      42.974  29.250  29.474  1.00  0.00     0.031 C 
ATOM     49  C   UNL A   1      49.093  31.095  26.937  1.00  0.00     0.029 A 
ATOM     50  C   UNL A   1      48.298  32.161  27.530  1.00  0.00     0.049 A 
ATOM     51  H   UNL A   1      46.434  31.981  28.448  1.00  0.00     0.167 HD
ATOM     52  C   UNL A   1      42.394  31.595  30.051  1.00  0.00     0.031 A 
ATOM     53  C   UNL A   1      48.663  33.458  27.560  1.00  0.00     0.031 A 
ATOM     54  C   UNL A   1      42.678  33.006  30.102  1.00  0.00     0.049 A 
ATOM     55  C   UNL A   1      47.686  34.476  28.078  1.00  0.00     0.074 A 
ATOM     56  C   UNL A   1      41.898  34.024  30.625  1.00  0.00     0.029 A 
ATOM     57  N   UNL A   1      43.839  33.601  29.627  1.00  0.00    -0.354 N 
ATOM     58  N   UNL A   1      46.494  34.287  28.591  1.00  0.00    -0.248 NA
ATOM     59  C   UNL A   1      48.092  35.885  27.994  1.00  0.00     0.031 C 
ATOM     60  C   UNL A   1      42.559  35.238  30.409  1.00  0.00     0.029 A 
ATOM     61  C   UNL A   1      43.784  34.972  29.820  1.00  0.00     0.049 A 
ATOM     62  H   UNL A   1      44.592  33.119  29.214  1.00  0.00     0.167 HD
ATOM     63  C   UNL A   1      46.016  35.553  28.912  1.00  0.00     0.074 A 
ATOM     64  C   UNL A   1      47.055  36.496  28.550  1.00  0.00     0.031 C 
ATOM     65  C   UNL A   1      44.824  35.901  29.455  1.00  0.00     0.031 A 
BRANCH  52  66
ATOM     66  C   UNL A   1      41.058  31.120  30.565  1.00  0.00    -0.014 A 
ATOM     67  C   UNL A   1      40.009  30.750  29.706  1.00  0.00     0.010 A 
ATOM     68  C   UNL A   1      40.868  31.002  31.956  1.00  0.00     0.010 A 
ATOM     69  C   UNL A   1      38.785  30.314  30.227  1.00  0.00     0.020 A 
ATOM     70  C   UNL A   1      39.659  30.538  32.482  1.00  0.00     0.020 A 
ATOM     71  C   UNL A   1      38.617  30.215  31.614  1.00  0.00     0.054 A 
BRANCH  71  72
ATOM     72  S   UNL A   1      37.024  29.638  32.263  1.00  0.00     0.124 S 
ATOM     73  O   UNL A   1      36.574  30.799  33.028  1.00  0.00    -0.237 OA
ATOM     74  O   UNL A   1      36.266  29.356  31.047  1.00  0.00    -0.237 OA
ATOM     75  O   UNL A   1      37.377  28.466  33.061  1.00  0.00    -0.744 OA
ENDBRANCH  71  72
ENDBRANCH  52  66
BRANCH  53  76
ATOM     76  C   UNL A   1      49.977  33.877  26.991  1.00  0.00    -0.014 A 
ATOM     77  C   UNL A   1      50.097  34.231  25.637  1.00  0.00     0.010 A 
ATOM     78  C   UNL A   1      51.120  33.936  27.813  1.00  0.00     0.010 A 
ATOM     79  C   UNL A   1      51.332  34.631  25.116  1.00  0.00     0.020 A 
ATOM     80  C   UNL A   1      52.346  34.372  27.307  1.00  0.00     0.020 A 
ATOM     81  C   UNL A   1      52.447  34.707  25.955  1.00  0.00     0.054 A 
BRANCH  81  82
ATOM     82  S   UNL A   1      54.025  35.283  25.271  1.00  0.00     0.124 S 
ATOM     83  O   UNL A   1      54.891  35.260  26.446  1.00  0.00    -0.237 OA
ATOM     84  O   UNL A   1      54.314  34.277  24.253  1.00  0.00    -0.237 OA
ATOM     85  O   UNL A   1      53.709  36.612  24.753  1.00  0.00    -0.744 OA
ENDBRANCH  81  82
ENDBRANCH  53  76
BRANCH  65  86
ATOM     86  C   UNL A   1      44.596  37.362  29.742  1.00  0.00    -0.014 A 
ATOM     87  C   UNL A   1      44.098  38.235  28.759  1.00  0.00     0.010 A 
ATOM     88  C   UNL A   1      44.848  37.858  31.035  1.00  0.00     0.010 A 
ATOM     89  C   UNL A   1      43.889  39.585  29.054  1.00  0.00     0.020 A 
ATOM     90  C   UNL A   1      44.611  39.199  31.342  1.00  0.00     0.020 A 
ATOM     91  C   UNL A   1      44.146  40.058  30.345  1.00  0.00     0.054 A 
BRANCH  91  92
ATOM     92  S   UNL A   1      43.825  41.805  30.714  1.00  0.00     0.124 S 
ATOM     93  O   UNL A   1      42.439  41.771  31.170  1.00  0.00    -0.237 OA
ATOM     94  O   UNL A   1      44.819  42.101  31.743  1.00  0.00    -0.237 OA
ATOM     95  O   UNL A   1      44.044  42.477  29.435  1.00  0.00    -0.744 OA
ENDBRANCH  91  92
ENDBRANCH  65  86
ENDBRANCH  39  40
ENDBRANCH  32  34
ENDBRANCH  31  32
ENDBRANCH  30  31
ENDBRANCH  29  30
ENDBRANCH  28  29
ENDBRANCH  27  28
ENDBRANCH   1  27
TORSDOF 23
ENDMDL
MODEL 3
REMARK VINA RESULT:      -8.6      5.789      9.008
REMARK SMILES C[C@@H](C(=O)OCCOCCOCCOC(=O)c1ccc(-c2c3nc(c(-c4ccc(S(=O)(=O)[O-])cc4)c4ccc([nH]4)c(-c4ccc(S(=O)(=O)[O-])cc4)c4nc(c(-c5ccc(S(=O)(=O)[O-])cc5)c5ccc2[nH]5)C=C4)C=C3)cc1)S(=O)(=O)N[C@@]12C[C@@H]3C[C@@](C)(C[C@@](C)(C3)C1)C2
REMARK SMILES IDX 9 1 8 2 7 3 6 4 5 5 3 6 4 7 2 8 1 9 77 10 78 11 79 12 80 13
REMARK SMILES IDX 81 15 82 16 91 17 92 18 83 19 88 20 85 21 90 22 84 23 87 24
REMARK SMILES IDX 89 25 86 26 10 27 11 28 12 29 13 30 14 31 15 32 16 33 17 34
REMARK SMILES IDX 18 35 76 36 19 37 75 38 20 39 21 40 22 41 69 42 23 43 74 44
REMARK SMILES IDX 68 45 70 46 24 47 73 48 67 49 66 50 25 52 55 53 36 54 54 55
REMARK SMILES IDX 37 56 40 57 53 58 71 59 38 60 39 61 52 63 72 64 41 65 26 66
REMARK SMILES IDX 27 67 35 68 28 69 34 70 29 71 30 72 31 73 32 74 33 75 56 76
REMARK SMILES IDX 57 77 65 78 58 79 64 80 59 81 60 82 61 83 62 84 63 85 42 86
REMARK SMILES IDX 43 87 51 88 44 89 50 90 45 91 46 92 47 93 48 94 49 95
REMARK H PARENT 80 14 70 51 40 62
REMARK Flexibility Score: inf
ROOT
ATOM      1  C   UNL A   1      38.976  23.881  27.193  1.00  0.00     0.188 C 
ENDROOT
BRANCH   1   2
ATOM      2  O   UNL A   1      38.910  22.753  26.336  1.00  0.00    -0.376 OA
BRANCH   2   3
ATOM      3  C   UNL A   1      37.716  22.536  25.600  1.00  0.00     0.202 C 
BRANCH   3   4
ATOM      4  C   UNL A   1      36.747  23.714  25.423  1.00  0.00     0.261 C 
BRANCH   4   5
ATOM      5  O   UNL A   1      35.601  23.434  24.583  1.00  0.00    -0.462 OA
BRANCH   5   6
ATOM      6  C   UNL A   1      34.355  23.620  25.123  1.00  0.00     0.325 C 
ATOM      7  O   UNL A   1      34.160  24.323  26.105  1.00  0.00    -0.251 OA
BRANCH   6   8
ATOM      8  C   UNL A   1      33.293  22.754  24.479  1.00  0.00     0.230 C 
ATOM      9  C   UNL A   1      33.262  21.304  24.919  1.00  0.00     0.039 C 
BRANCH   8  10
ATOM     10  S   UNL A   1      33.058  23.072  22.707  1.00  0.00     0.225 S 
ATOM     11  O   UNL A   1      34.356  23.389  22.138  1.00  0.00    -0.212 OA
ATOM     12  O   UNL A   1      32.286  21.988  22.151  1.00  0.00    -0.212 OA
BRANCH  10  13
ATOM     13  N   UNL A   1      32.059  24.383  22.411  1.00  0.00    -0.208 NA
ATOM     14  H   UNL A   1      31.138  24.074  22.722  1.00  0.00     0.141 HD
BRANCH  13  15
ATOM     15  C   UNL A   1      32.165  25.798  22.916  1.00  0.00     0.034 C 
ATOM     16  C   UNL A   1      33.584  26.365  22.942  1.00  0.00     0.027 C 
ATOM     17  C   UNL A   1      31.264  26.816  22.154  1.00  0.00     0.030 C 
ATOM     18  C   UNL A   1      31.603  25.730  24.351  1.00  0.00     0.030 C 
ATOM     19  C   UNL A   1      33.633  27.698  23.699  1.00  0.00    -0.008 C 
ATOM     20  C   UNL A   1      31.302  28.216  22.869  1.00  0.00    -0.030 C 
ATOM     21  C   UNL A   1      31.638  27.058  25.099  1.00  0.00    -0.030 C 
ATOM     22  C   UNL A   1      32.763  28.715  22.951  1.00  0.00     0.010 C 
ATOM     23  C   UNL A   1      33.110  27.501  25.133  1.00  0.00     0.010 C 
ATOM     24  C   UNL A   1      30.787  28.076  24.320  1.00  0.00     0.013 C 
ATOM     25  C   UNL A   1      30.445  29.254  22.136  1.00  0.00     0.011 C 
ATOM     26  C   UNL A   1      31.069  26.863  26.510  1.00  0.00     0.011 C 
ENDBRANCH  13  15
ENDBRANCH  10  13
ENDBRANCH   8  10
ENDBRANCH   6   8
ENDBRANCH   5   6
ENDBRANCH   4   5
ENDBRANCH   3   4
ENDBRANCH   2   3
ENDBRANCH   1   2
BRANCH   1  27
ATOM     27  C   UNL A   1      40.342  24.554  27.425  1.00  0.00     0.188 C 
BRANCH  27  28
ATOM     28  O   UNL A   1      40.393  25.943  27.222  1.00  0.00    -0.376 OA
BRANCH  28  29
ATOM     29  C   UNL A   1      40.323  26.801  28.346  1.00  0.00     0.202 C 
BRANCH  29  30
ATOM     30  C   UNL A   1      39.052  27.562  28.792  1.00  0.00     0.261 C 
BRANCH  30  31
ATOM     31  O   UNL A   1      38.891  28.911  28.319  1.00  0.00    -0.460 OA
BRANCH  31  32
ATOM     32  C   UNL A   1      38.323  29.791  29.179  1.00  0.00     0.338 C 
ATOM     33  O   UNL A   1      37.188  29.716  29.623  1.00  0.00    -0.246 OA
BRANCH  32  34
ATOM     34  C   UNL A   1      39.253  30.885  29.577  1.00  0.00     0.060 A 
ATOM     35  C   UNL A   1      40.630  30.702  29.688  1.00  0.00     0.016 A 
ATOM     36  C   UNL A   1      38.712  32.089  30.027  1.00  0.00     0.016 A 
ATOM     37  C   UNL A   1      41.434  31.631  30.350  1.00  0.00     0.010 A 
ATOM     38  C   UNL A   1      39.538  33.072  30.593  1.00  0.00     0.010 A 
ATOM     39  C   UNL A   1      40.909  32.841  30.802  1.00  0.00    -0.014 A 
BRANCH  39  40
ATOM     40  C   UNL A   1      41.764  33.833  31.520  1.00  0.00     0.031 A 
ATOM     41  C   UNL A   1      41.837  33.811  33.027  1.00  0.00     0.074 A 
ATOM     42  C   UNL A   1      42.493  34.750  30.848  1.00  0.00     0.049 A 
ATOM     43  N   UNL A   1      42.261  34.735  33.849  1.00  0.00    -0.248 NA
ATOM     44  C   UNL A   1      41.363  32.587  33.696  1.00  0.00     0.031 C 
ATOM     45  C   UNL A   1      42.638  34.834  29.392  1.00  0.00     0.029 A 
ATOM     46  N   UNL A   1      43.253  35.799  31.309  1.00  0.00    -0.354 N 
ATOM     47  C   UNL A   1      42.030  34.243  35.131  1.00  0.00     0.074 A 
ATOM     48  C   UNL A   1      41.448  32.927  34.975  1.00  0.00     0.031 C 
ATOM     49  C   UNL A   1      43.461  35.847  29.085  1.00  0.00     0.029 A 
ATOM     50  C   UNL A   1      43.789  36.573  30.304  1.00  0.00     0.049 A 
ATOM     51  H   UNL A   1      43.401  35.980  32.266  1.00  0.00     0.167 HD
ATOM     52  C   UNL A   1      42.261  34.848  36.322  1.00  0.00     0.031 A 
ATOM     53  C   UNL A   1      44.399  37.774  30.335  1.00  0.00     0.031 A 
ATOM     54  C   UNL A   1      42.876  36.144  36.459  1.00  0.00     0.049 A 
ATOM     55  C   UNL A   1      44.553  38.477  31.654  1.00  0.00     0.074 A 
ATOM     56  C   UNL A   1      43.144  36.852  37.619  1.00  0.00     0.029 A 
ATOM     57  N   UNL A   1      43.335  36.921  35.406  1.00  0.00    -0.354 N 
ATOM     58  N   UNL A   1      44.226  38.058  32.854  1.00  0.00    -0.248 NA
ATOM     59  C   UNL A   1      45.131  39.826  31.622  1.00  0.00     0.031 C 
ATOM     60  C   UNL A   1      43.705  38.083  37.261  1.00  0.00     0.029 A 
ATOM     61  C   UNL A   1      43.858  38.112  35.884  1.00  0.00     0.049 A 
ATOM     62  H   UNL A   1      43.296  36.664  34.455  1.00  0.00     0.167 HD
ATOM     63  C   UNL A   1      44.579  39.085  33.722  1.00  0.00     0.074 A 
ATOM     64  C   UNL A   1      45.160  40.136  32.911  1.00  0.00     0.031 C 
ATOM     65  C   UNL A   1      44.434  39.151  35.068  1.00  0.00     0.031 A 
BRANCH  52  66
ATOM     66  C   UNL A   1      41.769  34.159  37.571  1.00  0.00    -0.014 A 
ATOM     67  C   UNL A   1      42.561  33.245  38.287  1.00  0.00     0.010 A 
ATOM     68  C   UNL A   1      40.486  34.475  38.061  1.00  0.00     0.010 A 
ATOM     69  C   UNL A   1      42.064  32.629  39.442  1.00  0.00     0.020 A 
ATOM     70  C   UNL A   1      39.997  33.887  39.231  1.00  0.00     0.020 A 
ATOM     71  C   UNL A   1      40.783  32.952  39.904  1.00  0.00     0.054 A 
BRANCH  71  72
ATOM     72  S   UNL A   1      40.166  32.146  41.409  1.00  0.00     0.124 S 
ATOM     73  O   UNL A   1      40.089  33.269  42.340  1.00  0.00    -0.237 OA
ATOM     74  O   UNL A   1      38.882  31.600  40.976  1.00  0.00    -0.237 OA
ATOM     75  O   UNL A   1      41.192  31.153  41.717  1.00  0.00    -0.744 OA
ENDBRANCH  71  72
ENDBRANCH  52  66
BRANCH  53  76
ATOM     76  C   UNL A   1      44.820  38.430  29.063  1.00  0.00    -0.014 A 
ATOM     77  C   UNL A   1      43.909  39.186  28.307  1.00  0.00     0.010 A 
ATOM     78  C   UNL A   1      46.148  38.312  28.608  1.00  0.00     0.010 A 
ATOM     79  C   UNL A   1      44.316  39.806  27.120  1.00  0.00     0.020 A 
ATOM     80  C   UNL A   1      46.568  38.960  27.446  1.00  0.00     0.020 A 
ATOM     81  C   UNL A   1      45.645  39.696  26.701  1.00  0.00     0.054 A 
BRANCH  81  82
ATOM     82  S   UNL A   1      46.164  40.555  25.190  1.00  0.00     0.124 S 
ATOM     83  O   UNL A   1      46.687  39.458  24.382  1.00  0.00    -0.237 OA
ATOM     84  O   UNL A   1      44.915  41.148  24.719  1.00  0.00    -0.237 OA
ATOM     85  O   UNL A   1      47.161  41.512  25.665  1.00  0.00    -0.744 OA
ENDBRANCH  81  82
ENDBRANCH  53  76
BRANCH  65  86
ATOM     86  C   UNL A   1      44.959  40.381  35.760  1.00  0.00    -0.014 A 
ATOM     87  C   UNL A   1      44.120  41.468  36.063  1.00  0.00     0.010 A 
ATOM     88  C   UNL A   1      46.311  40.429  36.149  1.00  0.00     0.010 A 
ATOM     89  C   UNL A   1      44.632  42.595  36.712  1.00  0.00     0.020 A 
ATOM     90  C   UNL A   1      46.818  41.540  36.826  1.00  0.00     0.020 A 
ATOM     91  C   UNL A   1      45.978  42.623  37.091  1.00  0.00     0.054 A 
BRANCH  91  92
ATOM     92  S   UNL A   1      46.608  44.079  37.971  1.00  0.00     0.124 S 
ATOM     93  O   UNL A   1      46.646  45.082  36.912  1.00  0.00    -0.237 OA
ATOM     94  O   UNL A   1      45.595  44.291  39.002  1.00  0.00    -0.237 OA
ATOM     95  O   UNL A   1      47.912  43.647  38.468  1.00  0.00    -0.744 OA
ENDBRANCH  91  92
ENDBRANCH  65  86
ENDBRANCH  39  40
ENDBRANCH  32  34
ENDBRANCH  31  32
ENDBRANCH  30  31
ENDBRANCH  29  30
ENDBRANCH  28  29
ENDBRANCH  27  28
ENDBRANCH   1  27
TORSDOF 23
ENDMDL
