MODEL 1
REMARK VINA RESULT:      -9.9      0.000      0.000
REMARK SMILES CC(C)COc1cccc(C(=O)Nc2ccc(O)c(C(=O)OCCOCCOCCOC(=O)c3ccc(-c4c5nc(c(-c6ccc(S(=O)(=O)[O-])cc6)c6ccc([nH]6)c(-c6ccc(S(=O)(=O)[O-])cc6)c6nc(c(-c7ccc(S(=O)(=O)[O-])cc7)c7ccc4[nH]7)C=C6)C=C5)cc3)c2)c1
REMARK SMILES IDX 26 1 25 2 24 3 23 4 22 5 20 6 21 7 19 8 14 9 15 10 94 11
REMARK SMILES IDX 16 12 17 13 13 14 11 15 12 16 10 18 6 19 7 20 95 21 8 22
REMARK SMILES IDX 9 23 5 24 4 25 2 26 1 27 3 28 18 29 27 31 28 32 29 33 30 34
REMARK SMILES IDX 31 35 32 36 33 37 34 38 35 39 93 40 36 41 92 42 37 43 38 44
REMARK SMILES IDX 39 45 86 46 40 47 91 48 85 49 87 50 41 51 90 52 84 53 83 54
REMARK SMILES IDX 42 56 72 57 53 58 71 59 54 60 57 61 70 62 88 63 55 64 56 65
REMARK SMILES IDX 69 67 89 68 58 69 43 70 44 71 52 72 45 73 51 74 46 75 47 76
REMARK SMILES IDX 48 77 49 78 50 79 73 80 74 81 82 82 75 83 81 84 76 85 77 86
REMARK SMILES IDX 78 87 79 88 80 89 59 90 60 91 68 92 61 93 67 94 62 95 63 96
REMARK SMILES IDX 64 97 65 98 66 99
REMARK H PARENT 13 17 18 30 87 55 57 66
REMARK Flexibility Score: inf
ROOT
ATOM      1  C   UNL A   1      31.079  30.672  25.416  1.00  0.00     0.188 C 
ENDROOT
BRANCH   1   2
ATOM      2  O   UNL A   1      30.083  31.140  24.536  1.00  0.00    -0.376 OA
BRANCH   2   3
ATOM      3  C   UNL A   1      29.411  30.277  23.633  1.00  0.00     0.202 C 
BRANCH   3   4
ATOM      4  C   UNL A   1      29.968  29.747  22.302  1.00  0.00     0.261 C 
BRANCH   4   5
ATOM      5  O   UNL A   1      31.255  29.131  22.343  1.00  0.00    -0.460 OA
BRANCH   5   6
ATOM      6  C   UNL A   1      31.222  27.805  22.616  1.00  0.00     0.342 C 
ATOM      7  O   UNL A   1      30.859  26.908  21.865  1.00  0.00    -0.246 OA
BRANCH   6   8
ATOM      8  C   UNL A   1      31.879  27.495  23.900  1.00  0.00     0.103 A 
ATOM      9  C   UNL A   1      31.801  26.307  25.971  1.00  0.00     0.042 A 
ATOM     10  C   UNL A   1      33.186  26.461  26.121  1.00  0.00     0.030 A 
ATOM     11  C   UNL A   1      31.133  26.982  24.955  1.00  0.00     0.045 A 
ATOM     12  C   UNL A   1      33.924  27.135  25.144  1.00  0.00     0.049 A 
ATOM     13  C   UNL A   1      33.276  27.591  24.004  1.00  0.00     0.130 A 
BRANCH   9  14
ATOM     14  N   UNL A   1      31.149  25.336  26.752  1.00  0.00    -0.322 N 
ATOM     15  C   UNL A   1      30.877  23.998  26.485  1.00  0.00     0.255 C 
ATOM     16  O   UNL A   1      30.104  23.396  27.233  1.00  0.00    -0.269 OA
ATOM     17  H   UNL A   1      30.835  25.655  27.629  1.00  0.00     0.170 HD
BRANCH  15  18
ATOM     18  C   UNL A   1      31.550  23.218  25.390  1.00  0.00     0.043 A 
ATOM     19  C   UNL A   1      33.332  21.735  24.606  1.00  0.00     0.120 A 
ATOM     20  C   UNL A   1      32.891  21.905  23.298  1.00  0.00     0.046 A 
ATOM     21  C   UNL A   1      32.624  22.353  25.631  1.00  0.00     0.060 A 
ATOM     22  C   UNL A   1      31.746  22.668  23.038  1.00  0.00     0.005 A 
ATOM     23  C   UNL A   1      31.085  23.334  24.078  1.00  0.00     0.014 A 
BRANCH  19  24
ATOM     24  O   UNL A   1      34.570  21.193  24.805  1.00  0.00    -0.493 OA
BRANCH  24  25
ATOM     25  C   UNL A   1      35.539  21.906  25.602  1.00  0.00     0.232 C 
BRANCH  25  26
ATOM     26  C   UNL A   1      36.172  23.145  24.936  1.00  0.00     0.020 C 
ATOM     27  C   UNL A   1      37.343  23.720  25.738  1.00  0.00     0.011 C 
ATOM     28  C   UNL A   1      36.659  22.880  23.507  1.00  0.00     0.011 C 
ENDBRANCH  25  26
ENDBRANCH  24  25
ENDBRANCH  19  24
ENDBRANCH  15  18
ENDBRANCH   9  14
BRANCH  13  29
ATOM     29  O   UNL A   1      34.060  28.091  23.000  1.00  0.00    -0.507 OA
ATOM     30  H   UNL A   1      34.960  27.836  22.937  1.00  0.00     0.293 HD
ENDBRANCH  13  29
ENDBRANCH   6   8
ENDBRANCH   5   6
ENDBRANCH   4   5
ENDBRANCH   3   4
ENDBRANCH   2   3
ENDBRANCH   1   2
BRANCH   1  31
ATOM     31  C   UNL A   1      31.473  31.572  26.605  1.00  0.00     0.188 C 
BRANCH  31  32
ATOM     32  O   UNL A   1      32.732  31.438  27.221  1.00  0.00    -0.376 OA
BRANCH  32  33
ATOM     33  C   UNL A   1      33.484  30.285  26.887  1.00  0.00     0.202 C 
BRANCH  33  34
ATOM     34  C   UNL A   1      34.393  29.598  27.931  1.00  0.00     0.261 C 
BRANCH  34  35
ATOM     35  O   UNL A   1      35.818  29.654  27.701  1.00  0.00    -0.460 OA
BRANCH  35  36
ATOM     36  C   UNL A   1      36.603  29.586  28.817  1.00  0.00     0.338 C 
ATOM     37  O   UNL A   1      36.236  29.728  29.967  1.00  0.00    -0.246 OA
BRANCH  36  38
ATOM     38  C   UNL A   1      37.955  29.070  28.468  1.00  0.00     0.060 A 
ATOM     39  C   UNL A   1      38.682  28.354  29.438  1.00  0.00     0.016 A 
ATOM     40  C   UNL A   1      38.533  29.337  27.230  1.00  0.00     0.016 A 
ATOM     41  C   UNL A   1      39.991  27.932  29.182  1.00  0.00     0.010 A 
ATOM     42  C   UNL A   1      39.859  28.945  26.989  1.00  0.00     0.010 A 
ATOM     43  C   UNL A   1      40.609  28.274  27.975  1.00  0.00    -0.014 A 
BRANCH  43  44
ATOM     44  C   UNL A   1      42.081  28.123  27.819  1.00  0.00     0.031 A 
ATOM     45  C   UNL A   1      42.964  29.291  28.184  1.00  0.00     0.074 A 
ATOM     46  C   UNL A   1      42.642  26.983  27.374  1.00  0.00     0.049 A 
ATOM     47  N   UNL A   1      44.260  29.425  28.066  1.00  0.00    -0.248 NA
ATOM     48  C   UNL A   1      42.287  30.467  28.758  1.00  0.00     0.031 C 
ATOM     49  C   UNL A   1      41.923  25.755  27.041  1.00  0.00     0.029 A 
ATOM     50  N   UNL A   1      43.959  26.683  27.112  1.00  0.00    -0.354 N 
ATOM     51  C   UNL A   1      44.553  30.702  28.536  1.00  0.00     0.074 A 
ATOM     52  C   UNL A   1      43.296  31.311  28.915  1.00  0.00     0.031 C 
ATOM     53  C   UNL A   1      42.805  24.839  26.602  1.00  0.00     0.029 A 
ATOM     54  C   UNL A   1      44.146  25.424  26.588  1.00  0.00     0.049 A 
ATOM     55  H   UNL A   1      44.698  27.309  27.284  1.00  0.00     0.167 HD
ATOM     56  C   UNL A   1      45.756  31.315  28.644  1.00  0.00     0.031 A 
ATOM     57  C   UNL A   1      45.263  24.822  26.129  1.00  0.00     0.031 A 
ATOM     58  C   UNL A   1      47.007  30.722  28.250  1.00  0.00     0.049 A 
ATOM     59  C   UNL A   1      46.582  25.556  26.182  1.00  0.00     0.074 A 
ATOM     60  C   UNL A   1      48.279  31.264  28.332  1.00  0.00     0.029 A 
ATOM     61  N   UNL A   1      47.148  29.460  27.693  1.00  0.00    -0.354 N 
ATOM     62  N   UNL A   1      46.845  26.756  26.641  1.00  0.00    -0.248 NA
ATOM     63  C   UNL A   1      47.759  24.842  25.662  1.00  0.00     0.031 C 
ATOM     64  C   UNL A   1      49.179  30.358  27.763  1.00  0.00     0.029 A 
ATOM     65  C   UNL A   1      48.480  29.218  27.399  1.00  0.00     0.049 A 
ATOM     66  H   UNL A   1      46.410  28.830  27.530  1.00  0.00     0.167 HD
ATOM     67  C   UNL A   1      48.220  26.926  26.500  1.00  0.00     0.074 A 
ATOM     68  C   UNL A   1      48.735  25.700  25.927  1.00  0.00     0.031 C 
ATOM     69  C   UNL A   1      48.988  27.997  26.823  1.00  0.00     0.031 A 
BRANCH  56  70
ATOM     70  C   UNL A   1      45.773  32.727  29.175  1.00  0.00    -0.014 A 
ATOM     71  C   UNL A   1      45.804  33.835  28.308  1.00  0.00     0.010 A 
ATOM     72  C   UNL A   1      45.719  32.948  30.563  1.00  0.00     0.010 A 
ATOM     73  C   UNL A   1      45.819  35.136  28.822  1.00  0.00     0.020 A 
ATOM     74  C   UNL A   1      45.702  34.247  31.079  1.00  0.00     0.020 A 
ATOM     75  C   UNL A   1      45.768  35.332  30.205  1.00  0.00     0.054 A 
BRANCH  75  76
ATOM     76  S   UNL A   1      45.765  37.031  30.842  1.00  0.00     0.124 S 
ATOM     77  O   UNL A   1      47.186  37.263  31.090  1.00  0.00    -0.237 OA
ATOM     78  O   UNL A   1      45.190  37.786  29.732  1.00  0.00    -0.237 OA
ATOM     79  O   UNL A   1      44.930  36.952  32.038  1.00  0.00    -0.744 OA
ENDBRANCH  75  76
ENDBRANCH  56  70
BRANCH  57  80
ATOM     80  C   UNL A   1      45.190  23.447  25.557  1.00  0.00    -0.014 A 
ATOM     81  C   UNL A   1      45.398  22.317  26.369  1.00  0.00     0.010 A 
ATOM     82  C   UNL A   1      44.929  23.260  24.188  1.00  0.00     0.010 A 
ATOM     83  C   UNL A   1      45.361  21.030  25.820  1.00  0.00     0.020 A 
ATOM     84  C   UNL A   1      44.859  21.975  23.640  1.00  0.00     0.020 A 
ATOM     85  C   UNL A   1      45.085  20.868  24.459  1.00  0.00     0.054 A 
BRANCH  85  86
ATOM     86  S   UNL A   1      44.983  19.187  23.783  1.00  0.00     0.124 S 
ATOM     87  O   UNL A   1      46.391  18.829  23.643  1.00  0.00    -0.237 OA
ATOM     88  O   UNL A   1      44.248  18.475  24.824  1.00  0.00    -0.237 OA
ATOM     89  O   UNL A   1      44.255  19.367  22.529  1.00  0.00    -0.744 OA
ENDBRANCH  85  86
ENDBRANCH  57  80
BRANCH  69  90
ATOM     90  C   UNL A   1      50.480  27.880  26.615  1.00  0.00    -0.014 A 
ATOM     91  C   UNL A   1      51.088  28.245  25.400  1.00  0.00     0.010 A 
ATOM     92  C   UNL A   1      51.291  27.427  27.671  1.00  0.00     0.010 A 
ATOM     93  C   UNL A   1      52.469  28.109  25.230  1.00  0.00     0.020 A 
ATOM     94  C   UNL A   1      52.676  27.322  27.518  1.00  0.00     0.020 A 
ATOM     95  C   UNL A   1      53.255  27.645  26.290  1.00  0.00     0.054 A 
BRANCH  95  96
ATOM     96  S   UNL A   1      55.046  27.489  26.049  1.00  0.00     0.124 S 
ATOM     97  O   UNL A   1      55.213  27.970  24.681  1.00  0.00    -0.237 OA
ATOM     98  O   UNL A   1      55.587  28.358  27.091  1.00  0.00    -0.237 OA
ATOM     99  O   UNL A   1      55.300  26.062  26.242  1.00  0.00    -0.744 OA
ENDBRANCH  95  96
ENDBRANCH  69  90
ENDBRANCH  43  44
ENDBRANCH  36  38
ENDBRANCH  35  36
ENDBRANCH  34  35
ENDBRANCH  33  34
ENDBRANCH  32  33
ENDBRANCH  31  32
ENDBRANCH   1  31
TORSDOF 26
ENDMDL
MODEL 2
REMARK VINA RESULT:      -9.6      6.191     11.601
REMARK SMILES CC(C)COc1cccc(C(=O)Nc2ccc(O)c(C(=O)OCCOCCOCCOC(=O)c3ccc(-c4c5nc(c(-c6ccc(S(=O)(=O)[O-])cc6)c6ccc([nH]6)c(-c6ccc(S(=O)(=O)[O-])cc6)c6nc(c(-c7ccc(S(=O)(=O)[O-])cc7)c7ccc4[nH]7)C=C6)C=C5)cc3)c2)c1
REMARK SMILES IDX 26 1 25 2 24 3 23 4 22 5 20 6 21 7 19 8 14 9 15 10 94 11
REMARK SMILES IDX 16 12 17 13 13 14 11 15 12 16 10 18 6 19 7 20 95 21 8 22
REMARK SMILES IDX 9 23 5 24 4 25 2 26 1 27 3 28 18 29 27 31 28 32 29 33 30 34
REMARK SMILES IDX 31 35 32 36 33 37 34 38 35 39 93 40 36 41 92 42 37 43 38 44
REMARK SMILES IDX 39 45 86 46 40 47 91 48 85 49 87 50 41 51 90 52 84 53 83 54
REMARK SMILES IDX 42 56 72 57 53 58 71 59 54 60 57 61 70 62 88 63 55 64 56 65
REMARK SMILES IDX 69 67 89 68 58 69 43 70 44 71 52 72 45 73 51 74 46 75 47 76
REMARK SMILES IDX 48 77 49 78 50 79 73 80 74 81 82 82 75 83 81 84 76 85 77 86
REMARK SMILES IDX 78 87 79 88 80 89 59 90 60 91 68 92 61 93 67 94 62 95 63 96
REMARK SMILES IDX 64 97 65 98 66 99
REMARK H PARENT 13 17 18 30 87 55 57 66
REMARK Flexibility Score: inf
ROOT
ATOM      1  C   UNL A   1      41.455  20.790  27.033  1.00  0.00     0.188 C 
ENDROOT
BRANCH   1   2
ATOM      2  O   UNL A   1      40.135  20.560  26.598  1.00  0.00    -0.376 OA
BRANCH   2   3
ATOM      3  C   UNL A   1      39.357  21.576  25.986  1.00  0.00     0.202 C 
BRANCH   3   4
ATOM      4  C   UNL A   1      37.984  21.388  25.321  1.00  0.00     0.261 C 
BRANCH   4   5
ATOM      5  O   UNL A   1      37.424  22.528  24.669  1.00  0.00    -0.460 OA
BRANCH   5   6
ATOM      6  C   UNL A   1      36.420  23.119  25.360  1.00  0.00     0.342 C 
ATOM      7  O   UNL A   1      36.530  23.957  26.245  1.00  0.00    -0.246 OA
BRANCH   6   8
ATOM      8  C   UNL A   1      35.098  22.789  24.792  1.00  0.00     0.103 A 
ATOM      9  C   UNL A   1      32.741  22.611  25.139  1.00  0.00     0.042 A 
ATOM     10  C   UNL A   1      32.526  22.657  23.754  1.00  0.00     0.030 A 
ATOM     11  C   UNL A   1      34.035  22.493  25.637  1.00  0.00     0.045 A 
ATOM     12  C   UNL A   1      33.612  22.778  22.882  1.00  0.00     0.049 A 
ATOM     13  C   UNL A   1      34.889  22.911  23.409  1.00  0.00     0.130 A 
BRANCH   9  14
ATOM     14  N   UNL A   1      31.651  22.856  25.992  1.00  0.00    -0.322 N 
ATOM     15  C   UNL A   1      30.929  24.023  26.220  1.00  0.00     0.255 C 
ATOM     16  O   UNL A   1      30.147  24.053  27.173  1.00  0.00    -0.269 OA
ATOM     17  H   UNL A   1      31.350  22.076  26.511  1.00  0.00     0.170 HD
BRANCH  15  18
ATOM     18  C   UNL A   1      30.977  25.218  25.309  1.00  0.00     0.043 A 
ATOM     19  C   UNL A   1      31.981  27.340  24.618  1.00  0.00     0.120 A 
ATOM     20  C   UNL A   1      30.948  27.526  23.705  1.00  0.00     0.046 A 
ATOM     21  C   UNL A   1      32.004  26.168  25.365  1.00  0.00     0.060 A 
ATOM     22  C   UNL A   1      29.972  26.535  23.540  1.00  0.00     0.005 A 
ATOM     23  C   UNL A   1      29.978  25.392  24.349  1.00  0.00     0.014 A 
BRANCH  19  24
ATOM     24  O   UNL A   1      32.772  28.411  24.925  1.00  0.00    -0.493 OA
BRANCH  24  25
ATOM     25  C   UNL A   1      32.160  29.668  25.283  1.00  0.00     0.232 C 
BRANCH  25  26
ATOM     26  C   UNL A   1      32.110  29.981  26.793  1.00  0.00     0.020 C 
ATOM     27  C   UNL A   1      31.710  28.770  27.640  1.00  0.00     0.011 C 
ATOM     28  C   UNL A   1      33.434  30.527  27.340  1.00  0.00     0.011 C 
ENDBRANCH  25  26
ENDBRANCH  24  25
ENDBRANCH  19  24
ENDBRANCH  15  18
ENDBRANCH   9  14
BRANCH  13  29
ATOM     29  O   UNL A   1      35.899  23.196  22.531  1.00  0.00    -0.507 OA
ATOM     30  H   UNL A   1      36.070  24.085  22.286  1.00  0.00     0.293 HD
ENDBRANCH  13  29
ENDBRANCH   6   8
ENDBRANCH   5   6
ENDBRANCH   4   5
ENDBRANCH   3   4
ENDBRANCH   2   3
ENDBRANCH   1   2
BRANCH   1  31
ATOM     31  C   UNL A   1      42.601  20.525  26.035  1.00  0.00     0.188 C 
BRANCH  31  32
ATOM     32  O   UNL A   1      43.701  21.401  25.956  1.00  0.00    -0.376 OA
BRANCH  32  33
ATOM     33  C   UNL A   1      43.425  22.735  25.570  1.00  0.00     0.202 C 
BRANCH  33  34
ATOM     34  C   UNL A   1      43.132  23.825  26.626  1.00  0.00     0.261 C 
BRANCH  34  35
ATOM     35  O   UNL A   1      41.826  24.440  26.594  1.00  0.00    -0.460 OA
BRANCH  35  36
ATOM     36  C   UNL A   1      41.786  25.727  26.134  1.00  0.00     0.338 C 
ATOM     37  O   UNL A   1      41.910  26.084  24.980  1.00  0.00    -0.246 OA
BRANCH  36  38
ATOM     38  C   UNL A   1      41.324  26.646  27.210  1.00  0.00     0.060 A 
ATOM     39  C   UNL A   1      41.944  27.902  27.345  1.00  0.00     0.016 A 
ATOM     40  C   UNL A   1      40.339  26.261  28.115  1.00  0.00     0.016 A 
ATOM     41  C   UNL A   1      41.603  28.758  28.398  1.00  0.00     0.010 A 
ATOM     42  C   UNL A   1      40.025  27.105  29.192  1.00  0.00     0.010 A 
ATOM     43  C   UNL A   1      40.680  28.340  29.362  1.00  0.00    -0.014 A 
BRANCH  43  44
ATOM     44  C   UNL A   1      40.550  29.084  30.645  1.00  0.00     0.031 A 
ATOM     45  C   UNL A   1      39.501  30.165  30.744  1.00  0.00     0.074 A 
ATOM     46  C   UNL A   1      41.329  28.817  31.710  1.00  0.00     0.049 A 
ATOM     47  N   UNL A   1      39.248  30.993  31.724  1.00  0.00    -0.248 NA
ATOM     48  C   UNL A   1      38.622  30.330  29.575  1.00  0.00     0.031 C 
ATOM     49  C   UNL A   1      42.340  27.765  31.782  1.00  0.00     0.029 A 
ATOM     50  N   UNL A   1      41.394  29.431  32.940  1.00  0.00    -0.354 N 
ATOM     51  C   UNL A   1      38.193  31.788  31.286  1.00  0.00     0.074 A 
ATOM     52  C   UNL A   1      37.873  31.359  29.942  1.00  0.00     0.031 C 
ATOM     53  C   UNL A   1      42.938  27.817  32.986  1.00  0.00     0.029 A 
ATOM     54  C   UNL A   1      42.379  28.927  33.758  1.00  0.00     0.049 A 
ATOM     55  H   UNL A   1      40.793  30.161  33.210  1.00  0.00     0.167 HD
ATOM     56  C   UNL A   1      37.547  32.783  31.940  1.00  0.00     0.031 A 
ATOM     57  C   UNL A   1      42.798  29.328  34.977  1.00  0.00     0.031 A 
ATOM     58  C   UNL A   1      37.875  33.227  33.269  1.00  0.00     0.049 A 
ATOM     59  C   UNL A   1      42.119  30.495  35.652  1.00  0.00     0.074 A 
ATOM     60  C   UNL A   1      37.270  34.223  34.016  1.00  0.00     0.029 A 
ATOM     61  N   UNL A   1      38.901  32.714  34.048  1.00  0.00    -0.354 N 
ATOM     62  N   UNL A   1      41.114  31.226  35.232  1.00  0.00    -0.248 NA
ATOM     63  C   UNL A   1      42.626  30.881  36.978  1.00  0.00     0.031 C 
ATOM     64  C   UNL A   1      37.971  34.357  35.219  1.00  0.00     0.029 A 
ATOM     65  C   UNL A   1      38.964  33.392  35.255  1.00  0.00     0.049 A 
ATOM     66  H   UNL A   1      39.497  31.978  33.782  1.00  0.00     0.167 HD
ATOM     67  C   UNL A   1      40.847  32.133  36.256  1.00  0.00     0.074 A 
ATOM     68  C   UNL A   1      41.785  31.848  37.320  1.00  0.00     0.031 C 
ATOM     69  C   UNL A   1      39.904  33.108  36.311  1.00  0.00     0.031 A 
BRANCH  56  70
ATOM     70  C   UNL A   1      36.440  33.496  31.203  1.00  0.00    -0.014 A 
ATOM     71  C   UNL A   1      36.588  33.888  29.861  1.00  0.00     0.010 A 
ATOM     72  C   UNL A   1      35.219  33.743  31.857  1.00  0.00     0.010 A 
ATOM     73  C   UNL A   1      35.548  34.548  29.198  1.00  0.00     0.020 A 
ATOM     74  C   UNL A   1      34.166  34.373  31.188  1.00  0.00     0.020 A 
ATOM     75  C   UNL A   1      34.344  34.786  29.867  1.00  0.00     0.054 A 
BRANCH  75  76
ATOM     76  S   UNL A   1      33.005  35.622  28.974  1.00  0.00     0.124 S 
ATOM     77  O   UNL A   1      33.734  36.639  28.218  1.00  0.00    -0.237 OA
ATOM     78  O   UNL A   1      32.428  34.542  28.178  1.00  0.00    -0.237 OA
ATOM     79  O   UNL A   1      32.145  36.137  30.038  1.00  0.00    -0.744 OA
ENDBRANCH  75  76
ENDBRANCH  56  70
BRANCH  57  80
ATOM     80  C   UNL A   1      43.937  28.632  35.642  1.00  0.00    -0.014 A 
ATOM     81  C   UNL A   1      45.266  29.002  35.369  1.00  0.00     0.010 A 
ATOM     82  C   UNL A   1      43.696  27.578  36.542  1.00  0.00     0.010 A 
ATOM     83  C   UNL A   1      46.331  28.322  35.971  1.00  0.00     0.020 A 
ATOM     84  C   UNL A   1      44.756  26.917  37.171  1.00  0.00     0.020 A 
ATOM     85  C   UNL A   1      46.068  27.288  36.874  1.00  0.00     0.054 A 
BRANCH  85  86
ATOM     86  S   UNL A   1      47.464  26.462  37.687  1.00  0.00     0.124 S 
ATOM     87  O   UNL A   1      47.476  25.160  37.026  1.00  0.00    -0.237 OA
ATOM     88  O   UNL A   1      48.581  27.346  37.366  1.00  0.00    -0.237 OA
ATOM     89  O   UNL A   1      47.078  26.445  39.096  1.00  0.00    -0.744 OA
ENDBRANCH  85  86
ENDBRANCH  57  80
BRANCH  69  90
ATOM     90  C   UNL A   1      39.801  33.911  37.586  1.00  0.00    -0.014 A 
ATOM     91  C   UNL A   1      40.520  35.106  37.768  1.00  0.00     0.010 A 
ATOM     92  C   UNL A   1      38.937  33.476  38.609  1.00  0.00     0.010 A 
ATOM     93  C   UNL A   1      40.417  35.820  38.966  1.00  0.00     0.020 A 
ATOM     94  C   UNL A   1      38.805  34.204  39.793  1.00  0.00     0.020 A 
ATOM     95  C   UNL A   1      39.562  35.362  39.974  1.00  0.00     0.054 A 
BRANCH  95  96
ATOM     96  S   UNL A   1      39.437  36.312  41.514  1.00  0.00     0.124 S 
ATOM     97  O   UNL A   1      39.181  37.662  41.020  1.00  0.00    -0.237 OA
ATOM     98  O   UNL A   1      38.316  35.670  42.196  1.00  0.00    -0.237 OA
ATOM     99  O   UNL A   1      40.739  36.118  42.149  1.00  0.00    -0.744 OA
ENDBRANCH  95  96
ENDBRANCH  69  90
ENDBRANCH  43  44
ENDBRANCH  36  38
ENDBRANCH  35  36
ENDBRANCH  34  35
ENDBRANCH  33  34
ENDBRANCH  32  33
ENDBRANCH  31  32
ENDBRANCH   1  31
TORSDOF 26
ENDMDL
MODEL 3
REMARK VINA RESULT:      -9.6      1.767      2.386
REMARK SMILES CC(C)COc1cccc(C(=O)Nc2ccc(O)c(C(=O)OCCOCCOCCOC(=O)c3ccc(-c4c5nc(c(-c6ccc(S(=O)(=O)[O-])cc6)c6ccc([nH]6)c(-c6ccc(S(=O)(=O)[O-])cc6)c6nc(c(-c7ccc(S(=O)(=O)[O-])cc7)c7ccc4[nH]7)C=C6)C=C5)cc3)c2)c1
REMARK SMILES IDX 26 1 25 2 24 3 23 4 22 5 20 6 21 7 19 8 14 9 15 10 94 11
REMARK SMILES IDX 16 12 17 13 13 14 11 15 12 16 10 18 6 19 7 20 95 21 8 22
REMARK SMILES IDX 9 23 5 24 4 25 2 26 1 27 3 28 18 29 27 31 28 32 29 33 30 34
REMARK SMILES IDX 31 35 32 36 33 37 34 38 35 39 93 40 36 41 92 42 37 43 38 44
REMARK SMILES IDX 39 45 86 46 40 47 91 48 85 49 87 50 41 51 90 52 84 53 83 54
REMARK SMILES IDX 42 56 72 57 53 58 71 59 54 60 57 61 70 62 88 63 55 64 56 65
REMARK SMILES IDX 69 67 89 68 58 69 43 70 44 71 52 72 45 73 51 74 46 75 47 76
REMARK SMILES IDX 48 77 49 78 50 79 73 80 74 81 82 82 75 83 81 84 76 85 77 86
REMARK SMILES IDX 78 87 79 88 80 89 59 90 60 91 68 92 61 93 67 94 62 95 63 96
REMARK SMILES IDX 64 97 65 98 66 99
REMARK H PARENT 13 17 18 30 87 55 57 66
REMARK Flexibility Score: inf
ROOT
ATOM      1  C   UNL A   1      31.673  30.078  25.546  1.00  0.00     0.188 C 
ENDROOT
BRANCH   1   2
ATOM      2  O   UNL A   1      30.654  30.615  24.735  1.00  0.00    -0.376 OA
BRANCH   2   3
ATOM      3  C   UNL A   1      29.920  29.817  23.820  1.00  0.00     0.202 C 
BRANCH   3   4
ATOM      4  C   UNL A   1      30.405  29.344  22.441  1.00  0.00     0.261 C 
BRANCH   4   5
ATOM      5  O   UNL A   1      31.568  28.517  22.416  1.00  0.00    -0.460 OA
BRANCH   5   6
ATOM      6  C   UNL A   1      31.320  27.209  22.666  1.00  0.00     0.342 C 
ATOM      7  O   UNL A   1      31.025  26.346  21.849  1.00  0.00    -0.246 OA
BRANCH   6   8
ATOM      8  C   UNL A   1      31.639  26.850  24.061  1.00  0.00     0.103 A 
ATOM      9  C   UNL A   1      31.048  25.598  26.008  1.00  0.00     0.042 A 
ATOM     10  C   UNL A   1      32.355  25.729  26.499  1.00  0.00     0.030 A 
ATOM     11  C   UNL A   1      30.654  26.314  24.883  1.00  0.00     0.045 A 
ATOM     12  C   UNL A   1      33.314  26.424  25.756  1.00  0.00     0.049 A 
ATOM     13  C   UNL A   1      32.968  26.924  24.508  1.00  0.00     0.130 A 
BRANCH   9  14
ATOM     14  N   UNL A   1      30.220  24.612  26.572  1.00  0.00    -0.322 N 
ATOM     15  C   UNL A   1      30.420  23.243  26.720  1.00  0.00     0.255 C 
ATOM     16  O   UNL A   1      29.462  22.542  27.053  1.00  0.00    -0.269 OA
ATOM     17  H   UNL A   1      29.360  24.944  26.918  1.00  0.00     0.170 HD
BRANCH  15  18
ATOM     18  C   UNL A   1      31.765  22.584  26.590  1.00  0.00     0.043 A 
ATOM     19  C   UNL A   1      33.383  21.260  25.319  1.00  0.00     0.120 A 
ATOM     20  C   UNL A   1      34.215  21.216  26.432  1.00  0.00     0.046 A 
ATOM     21  C   UNL A   1      32.199  21.984  25.402  1.00  0.00     0.060 A 
ATOM     22  C   UNL A   1      33.863  21.909  27.598  1.00  0.00     0.005 A 
ATOM     23  C   UNL A   1      32.636  22.579  27.682  1.00  0.00     0.014 A 
BRANCH  19  24
ATOM     24  O   UNL A   1      33.631  20.392  24.294  1.00  0.00    -0.493 OA
BRANCH  24  25
ATOM     25  C   UNL A   1      34.124  19.067  24.586  1.00  0.00     0.232 C 
BRANCH  25  26
ATOM     26  C   UNL A   1      33.214  17.902  24.143  1.00  0.00     0.020 C 
ATOM     27  C   UNL A   1      33.943  16.877  23.268  1.00  0.00     0.011 C 
ATOM     28  C   UNL A   1      32.576  17.154  25.319  1.00  0.00     0.011 C 
ENDBRANCH  25  26
ENDBRANCH  24  25
ENDBRANCH  19  24
ENDBRANCH  15  18
ENDBRANCH   9  14
BRANCH  13  29
ATOM     29  O   UNL A   1      33.977  27.445  23.745  1.00  0.00    -0.507 OA
ATOM     30  H   UNL A   1      34.863  27.177  23.893  1.00  0.00     0.293 HD
ENDBRANCH  13  29
ENDBRANCH   6   8
ENDBRANCH   5   6
ENDBRANCH   4   5
ENDBRANCH   3   4
ENDBRANCH   2   3
ENDBRANCH   1   2
BRANCH   1  31
ATOM     31  C   UNL A   1      32.032  30.826  26.845  1.00  0.00     0.188 C 
BRANCH  31  32
ATOM     32  O   UNL A   1      33.179  30.474  27.584  1.00  0.00    -0.376 OA
BRANCH  32  33
ATOM     33  C   UNL A   1      33.983  31.540  28.056  1.00  0.00     0.202 C 
BRANCH  33  34
ATOM     34  C   UNL A   1      35.512  31.543  27.833  1.00  0.00     0.261 C 
BRANCH  34  35
ATOM     35  O   UNL A   1      36.334  32.054  28.905  1.00  0.00    -0.460 OA
BRANCH  35  36
ATOM     36  C   UNL A   1      36.634  31.165  29.898  1.00  0.00     0.338 C 
ATOM     37  O   UNL A   1      35.951  30.912  30.871  1.00  0.00    -0.246 OA
BRANCH  36  38
ATOM     38  C   UNL A   1      37.818  30.346  29.519  1.00  0.00     0.060 A 
ATOM     39  C   UNL A   1      38.641  29.828  30.536  1.00  0.00     0.016 A 
ATOM     40  C   UNL A   1      38.156  30.140  28.185  1.00  0.00     0.016 A 
ATOM     41  C   UNL A   1      39.813  29.132  30.221  1.00  0.00     0.010 A 
ATOM     42  C   UNL A   1      39.351  29.474  27.871  1.00  0.00     0.010 A 
ATOM     43  C   UNL A   1      40.205  28.998  28.885  1.00  0.00    -0.014 A 
BRANCH  43  44
ATOM     44  C   UNL A   1      41.587  28.558  28.552  1.00  0.00     0.031 A 
ATOM     45  C   UNL A   1      42.684  29.595  28.530  1.00  0.00     0.074 A 
ATOM     46  C   UNL A   1      41.885  27.273  28.280  1.00  0.00     0.049 A 
ATOM     47  N   UNL A   1      43.943  29.469  28.199  1.00  0.00    -0.248 NA
ATOM     48  C   UNL A   1      42.302  30.958  28.935  1.00  0.00     0.031 C 
ATOM     49  C   UNL A   1      40.945  26.156  28.323  1.00  0.00     0.029 A 
ATOM     50  N   UNL A   1      43.075  26.698  27.899  1.00  0.00    -0.354 N 
ATOM     51  C   UNL A   1      44.501  30.737  28.341  1.00  0.00     0.074 A 
ATOM     52  C   UNL A   1      43.435  31.621  28.762  1.00  0.00     0.031 C 
ATOM     53  C   UNL A   1      41.590  25.031  27.963  1.00  0.00     0.029 A 
ATOM     54  C   UNL A   1      42.978  25.352  27.630  1.00  0.00     0.049 A 
ATOM     55  H   UNL A   1      43.918  27.201  27.825  1.00  0.00     0.167 HD
ATOM     56  C   UNL A   1      45.781  31.132  28.141  1.00  0.00     0.031 A 
ATOM     57  C   UNL A   1      43.894  24.484  27.151  1.00  0.00     0.031 A 
ATOM     58  C   UNL A   1      46.840  30.261  27.703  1.00  0.00     0.049 A 
ATOM     59  C   UNL A   1      45.294  24.965  26.855  1.00  0.00     0.074 A 
ATOM     60  C   UNL A   1      48.171  30.570  27.483  1.00  0.00     0.029 A 
ATOM     61  N   UNL A   1      46.691  28.914  27.410  1.00  0.00    -0.354 N 
ATOM     62  N   UNL A   1      45.809  26.162  27.008  1.00  0.00    -0.248 NA
ATOM     63  C   UNL A   1      46.241  23.968  26.332  1.00  0.00     0.031 C 
ATOM     64  C   UNL A   1      48.812  29.427  26.993  1.00  0.00     0.029 A 
ATOM     65  C   UNL A   1      47.899  28.385  26.983  1.00  0.00     0.049 A 
ATOM     66  H   UNL A   1      45.851  28.408  27.493  1.00  0.00     0.167 HD
ATOM     67  C   UNL A   1      47.147  26.052  26.635  1.00  0.00     0.074 A 
ATOM     68  C   UNL A   1      47.364  24.670  26.264  1.00  0.00     0.031 C 
ATOM     69  C   UNL A   1      48.110  27.009  26.609  1.00  0.00     0.031 A 
BRANCH  56  70
ATOM     70  C   UNL A   1      46.100  32.591  28.354  1.00  0.00    -0.014 A 
ATOM     71  C   UNL A   1      45.724  33.567  27.414  1.00  0.00     0.010 A 
ATOM     72  C   UNL A   1      46.755  32.993  29.532  1.00  0.00     0.010 A 
ATOM     73  C   UNL A   1      46.030  34.914  27.632  1.00  0.00     0.020 A 
ATOM     74  C   UNL A   1      47.035  34.342  29.768  1.00  0.00     0.020 A 
ATOM     75  C   UNL A   1      46.685  35.292  28.808  1.00  0.00     0.054 A 
BRANCH  75  76
ATOM     76  S   UNL A   1      47.048  37.050  29.074  1.00  0.00     0.124 S 
ATOM     77  O   UNL A   1      46.404  37.299  30.362  1.00  0.00    -0.237 OA
ATOM     78  O   UNL A   1      48.508  37.076  29.086  1.00  0.00    -0.237 OA
ATOM     79  O   UNL A   1      46.424  37.710  27.929  1.00  0.00    -0.744 OA
ENDBRANCH  75  76
ENDBRANCH  56  70
BRANCH  57  80
ATOM     80  C   UNL A   1      43.517  23.063  26.899  1.00  0.00    -0.014 A 
ATOM     81  C   UNL A   1      42.871  22.303  27.890  1.00  0.00     0.010 A 
ATOM     82  C   UNL A   1      43.822  22.456  25.667  1.00  0.00     0.010 A 
ATOM     83  C   UNL A   1      42.550  20.960  27.660  1.00  0.00     0.020 A 
ATOM     84  C   UNL A   1      43.474  21.124  25.421  1.00  0.00     0.020 A 
ATOM     85  C   UNL A   1      42.849  20.381  26.423  1.00  0.00     0.054 A 
BRANCH  85  86
ATOM     86  S   UNL A   1      42.369  18.656  26.127  1.00  0.00     0.124 S 
ATOM     87  O   UNL A   1      42.632  18.040  27.424  1.00  0.00    -0.237 OA
ATOM     88  O   UNL A   1      40.962  18.782  25.758  1.00  0.00    -0.237 OA
ATOM     89  O   UNL A   1      43.255  18.237  25.043  1.00  0.00    -0.744 OA
ENDBRANCH  85  86
ENDBRANCH  57  80
BRANCH  69  90
ATOM     90  C   UNL A   1      49.506  26.588  26.216  1.00  0.00    -0.014 A 
ATOM     91  C   UNL A   1      50.014  26.826  24.926  1.00  0.00     0.010 A 
ATOM     92  C   UNL A   1      50.337  25.972  27.170  1.00  0.00     0.010 A 
ATOM     93  C   UNL A   1      51.305  26.409  24.584  1.00  0.00     0.020 A 
ATOM     94  C   UNL A   1      51.639  25.585  26.844  1.00  0.00     0.020 A 
ATOM     95  C   UNL A   1      52.109  25.788  25.545  1.00  0.00     0.054 A 
BRANCH  95  96
ATOM     96  S   UNL A   1      53.784  25.269  25.082  1.00  0.00     0.124 S 
ATOM     97  O   UNL A   1      54.579  25.770  26.199  1.00  0.00    -0.237 OA
ATOM     98  O   UNL A   1      53.658  23.815  25.003  1.00  0.00    -0.237 OA
ATOM     99  O   UNL A   1      54.015  25.939  23.803  1.00  0.00    -0.744 OA
ENDBRANCH  95  96
ENDBRANCH  69  90
ENDBRANCH  43  44
ENDBRANCH  36  38
ENDBRANCH  35  36
ENDBRANCH  34  35
ENDBRANCH  33  34
ENDBRANCH  32  33
ENDBRANCH  31  32
ENDBRANCH   1  31
TORSDOF 26
ENDMDL
