MODEL 1
REMARK VINA RESULT:      -9.8      0.000      0.000
REMARK SMILES CO[C@@H]1C[C@H](C(=O)OCCOCCOCCOC(=O)c2ccc(-c3c4nc(c(-c5ccc(S(=O)(=O)[O-])cc5)c5ccc([nH]5)c(-c5ccc(S(=O)(=O)[O-])cc5)c5nc(c(-c6ccc(S(=O)(=O)[O-])cc6)c6ccc3[nH]6)C=C5)C=C4)cc2)N(C(=O)c2ncc(Cl)c(Cl)c2Cl)C1
REMARK SMILES IDX 13 1 12 2 11 3 10 4 9 5 8 6 6 7 7 8 5 9 3 10 4 11 92 12
REMARK SMILES IDX 80 13 2 14 1 15 81 16 82 17 83 18 84 19 90 20 85 21 88 22
REMARK SMILES IDX 91 23 86 24 89 25 87 26 14 27 15 28 16 29 17 30 18 31 19 32
REMARK SMILES IDX 20 33 21 34 79 35 22 36 78 37 23 38 24 39 25 40 72 41 26 42
REMARK SMILES IDX 77 43 71 44 73 45 27 46 76 47 70 48 69 49 28 51 58 52 39 53
REMARK SMILES IDX 57 54 40 55 43 56 56 57 74 58 41 59 42 60 55 62 75 63 44 64
REMARK SMILES IDX 29 65 30 66 38 67 31 68 37 69 32 70 33 71 34 72 35 73 36 74
REMARK SMILES IDX 59 75 60 76 68 77 61 78 67 79 62 80 63 81 64 82 65 83 66 84
REMARK SMILES IDX 45 85 46 86 54 87 47 88 53 89 48 90 49 91 50 92 51 93 52 94
REMARK H PARENT 73 50 43 61
REMARK Flexibility Score: inf
ROOT
ATOM      1  C   UNL A   1      40.038  21.633  26.976  1.00  0.00     0.188 C 
ENDROOT
BRANCH   1   2
ATOM      2  C   UNL A   1      39.151  21.583  25.726  1.00  0.00     0.188 C 
BRANCH   2   3
ATOM      3  O   UNL A   1      37.764  21.827  25.913  1.00  0.00    -0.376 OA
BRANCH   3   4
ATOM      4  C   UNL A   1      36.934  21.849  24.748  1.00  0.00     0.202 C 
BRANCH   4   5
ATOM      5  C   UNL A   1      36.976  23.100  23.853  1.00  0.00     0.261 C 
BRANCH   5   6
ATOM      6  O   UNL A   1      35.844  23.204  22.962  1.00  0.00    -0.462 OA
BRANCH   6   7
ATOM      7  C   UNL A   1      34.726  23.765  23.484  1.00  0.00     0.329 C 
ATOM      8  O   UNL A   1      34.714  24.415  24.526  1.00  0.00    -0.250 OA
BRANCH   7   9
ATOM      9  C   UNL A   1      33.492  23.670  22.560  1.00  0.00     0.198 C 
ATOM     10  C   UNL A   1      31.605  23.095  23.940  1.00  0.00     0.140 C 
ATOM     11  C   UNL A   1      32.462  22.567  22.793  1.00  0.00     0.071 C 
ATOM     12  C   UNL A   1      31.702  24.623  23.816  1.00  0.00     0.153 C 
ATOM     13  N   UNL A   1      32.689  24.872  22.778  1.00  0.00    -0.321 N 
BRANCH  10  14
ATOM     14  O   UNL A   1      32.192  22.645  25.162  1.00  0.00    -0.380 OA
ATOM     15  C   UNL A   1      31.584  23.232  26.304  1.00  0.00     0.195 C 
ENDBRANCH  10  14
BRANCH  13  16
ATOM     16  C   UNL A   1      32.835  26.125  22.205  1.00  0.00     0.274 C 
ATOM     17  O   UNL A   1      33.682  26.355  21.343  1.00  0.00    -0.267 OA
BRANCH  16  18
ATOM     18  C   UNL A   1      31.988  27.252  22.695  1.00  0.00     0.148 A 
ATOM     19  N   UNL A   1      30.858  27.483  21.975  1.00  0.00    -0.248 NA
ATOM     20  C   UNL A   1      32.386  28.030  23.782  1.00  0.00     0.092 A 
ATOM     21  C   UNL A   1      30.078  28.516  22.368  1.00  0.00     0.134 A 
ATOM     22  C   UNL A   1      31.541  29.083  24.169  1.00  0.00     0.082 A 
ATOM     23  Cl  UNL A   1      33.873  27.712  24.618  1.00  0.00    -0.080 Cl
ATOM     24  C   UNL A   1      30.367  29.335  23.449  1.00  0.00     0.079 A 
ATOM     25  Cl  UNL A   1      31.940  30.062  25.549  1.00  0.00    -0.081 Cl
ATOM     26  Cl  UNL A   1      29.271  30.604  23.840  1.00  0.00    -0.081 Cl
ENDBRANCH  16  18
ENDBRANCH  13  16
ENDBRANCH   7   9
ENDBRANCH   6   7
ENDBRANCH   5   6
ENDBRANCH   4   5
ENDBRANCH   3   4
ENDBRANCH   2   3
ENDBRANCH   1   2
BRANCH   1  27
ATOM     27  O   UNL A   1      41.416  21.522  26.709  1.00  0.00    -0.376 OA
BRANCH  27  28
ATOM     28  C   UNL A   1      42.064  22.380  25.780  1.00  0.00     0.202 C 
BRANCH  28  29
ATOM     29  C   UNL A   1      43.466  22.974  26.040  1.00  0.00     0.261 C 
BRANCH  29  30
ATOM     30  O   UNL A   1      43.573  24.120  26.898  1.00  0.00    -0.460 OA
BRANCH  30  31
ATOM     31  C   UNL A   1      43.265  25.332  26.373  1.00  0.00     0.338 C 
ATOM     32  O   UNL A   1      43.151  25.598  25.187  1.00  0.00    -0.246 OA
BRANCH  31  33
ATOM     33  C   UNL A   1      42.777  26.186  27.493  1.00  0.00     0.060 A 
ATOM     34  C   UNL A   1      43.373  27.445  27.679  1.00  0.00     0.016 A 
ATOM     35  C   UNL A   1      41.675  25.819  28.269  1.00  0.00     0.016 A 
ATOM     36  C   UNL A   1      42.897  28.317  28.663  1.00  0.00     0.010 A 
ATOM     37  C   UNL A   1      41.214  26.682  29.270  1.00  0.00     0.010 A 
ATOM     38  C   UNL A   1      41.842  27.922  29.496  1.00  0.00    -0.014 A 
BRANCH  38  39
ATOM     39  C   UNL A   1      41.538  28.684  30.735  1.00  0.00     0.031 A 
ATOM     40  C   UNL A   1      40.373  29.639  30.700  1.00  0.00     0.074 A 
ATOM     41  C   UNL A   1      42.260  28.549  31.862  1.00  0.00     0.049 A 
ATOM     42  N   UNL A   1      39.955  30.478  31.612  1.00  0.00    -0.248 NA
ATOM     43  C   UNL A   1      39.573  29.650  29.462  1.00  0.00     0.031 C 
ATOM     44  C   UNL A   1      43.375  27.625  32.055  1.00  0.00     0.029 A 
ATOM     45  N   UNL A   1      42.162  29.211  33.063  1.00  0.00    -0.354 N 
ATOM     46  C   UNL A   1      38.858  31.125  31.054  1.00  0.00     0.074 A 
ATOM     47  C   UNL A   1      38.692  30.603  29.716  1.00  0.00     0.031 C 
ATOM     48  C   UNL A   1      43.867  27.787  33.297  1.00  0.00     0.029 A 
ATOM     49  C   UNL A   1      43.130  28.856  33.973  1.00  0.00     0.049 A 
ATOM     50  H   UNL A   1      41.463  29.878  33.255  1.00  0.00     0.167 HD
ATOM     51  C   UNL A   1      38.057  32.067  31.605  1.00  0.00     0.031 A 
ATOM     52  C   UNL A   1      43.408  29.354  35.196  1.00  0.00     0.031 A 
ATOM     53  C   UNL A   1      38.230  32.599  32.928  1.00  0.00     0.049 A 
ATOM     54  C   UNL A   1      42.557  30.470  35.757  1.00  0.00     0.074 A 
ATOM     55  C   UNL A   1      37.462  33.549  33.579  1.00  0.00     0.029 A 
ATOM     56  N   UNL A   1      39.244  32.238  33.801  1.00  0.00    -0.354 N 
ATOM     57  N   UNL A   1      41.514  31.061  35.225  1.00  0.00    -0.248 NA
ATOM     58  C   UNL A   1      42.920  30.980  37.089  1.00  0.00     0.031 C 
ATOM     59  C   UNL A   1      38.052  33.810  34.820  1.00  0.00     0.029 A 
ATOM     60  C   UNL A   1      39.140  32.967  34.973  1.00  0.00     0.049 A 
ATOM     61  H   UNL A   1      39.937  31.562  33.615  1.00  0.00     0.167 HD
ATOM     62  C   UNL A   1      41.073  31.982  36.172  1.00  0.00     0.074 A 
ATOM     63  C   UNL A   1      41.958  31.868  37.311  1.00  0.00     0.031 C 
ATOM     64  C   UNL A   1      40.023  32.840  36.107  1.00  0.00     0.031 A 
BRANCH  51  65
ATOM     65  C   UNL A   1      36.941  32.615  30.753  1.00  0.00    -0.014 A 
ATOM     66  C   UNL A   1      37.109  33.780  29.985  1.00  0.00     0.010 A 
ATOM     67  C   UNL A   1      35.713  31.929  30.697  1.00  0.00     0.010 A 
ATOM     68  C   UNL A   1      36.057  34.273  29.207  1.00  0.00     0.020 A 
ATOM     69  C   UNL A   1      34.670  32.400  29.896  1.00  0.00     0.020 A 
ATOM     70  C   UNL A   1      34.843  33.579  29.168  1.00  0.00     0.054 A 
BRANCH  70  71
ATOM     71  S   UNL A   1      33.503  34.229  28.134  1.00  0.00     0.124 S 
ATOM     72  O   UNL A   1      32.866  33.001  27.661  1.00  0.00    -0.237 OA
ATOM     73  O   UNL A   1      32.721  35.016  29.082  1.00  0.00    -0.237 OA
ATOM     74  O   UNL A   1      34.199  35.002  27.109  1.00  0.00    -0.744 OA
ENDBRANCH  70  71
ENDBRANCH  51  65
BRANCH  52  75
ATOM     75  C   UNL A   1      44.564  28.823  35.975  1.00  0.00    -0.014 A 
ATOM     76  C   UNL A   1      44.394  27.770  36.892  1.00  0.00     0.010 A 
ATOM     77  C   UNL A   1      45.846  29.380  35.809  1.00  0.00     0.010 A 
ATOM     78  C   UNL A   1      45.478  27.296  37.638  1.00  0.00     0.020 A 
ATOM     79  C   UNL A   1      46.939  28.888  36.531  1.00  0.00     0.020 A 
ATOM     80  C   UNL A   1      46.745  27.854  37.448  1.00  0.00     0.054 A 
BRANCH  80  81
ATOM     81  S   UNL A   1      48.146  27.187  38.390  1.00  0.00     0.124 S 
ATOM     82  O   UNL A   1      47.748  27.463  39.767  1.00  0.00    -0.237 OA
ATOM     83  O   UNL A   1      48.146  25.779  38.000  1.00  0.00    -0.237 OA
ATOM     84  O   UNL A   1      49.286  27.961  37.902  1.00  0.00    -0.744 OA
ENDBRANCH  80  81
ENDBRANCH  52  75
BRANCH  64  85
ATOM     85  C   UNL A   1      39.725  33.690  37.317  1.00  0.00    -0.014 A 
ATOM     86  C   UNL A   1      38.826  33.269  38.313  1.00  0.00     0.010 A 
ATOM     87  C   UNL A   1      40.423  34.900  37.495  1.00  0.00     0.010 A 
ATOM     88  C   UNL A   1      38.614  34.054  39.452  1.00  0.00     0.020 A 
ATOM     89  C   UNL A   1      40.238  35.671  38.645  1.00  0.00     0.020 A 
ATOM     90  C   UNL A   1      39.325  35.249  39.612  1.00  0.00     0.054 A 
BRANCH  90  91
ATOM     91  S   UNL A   1      39.074  36.219  41.126  1.00  0.00     0.124 S 
ATOM     92  O   UNL A   1      40.411  36.220  41.711  1.00  0.00    -0.237 OA
ATOM     93  O   UNL A   1      38.612  37.504  40.608  1.00  0.00    -0.237 OA
ATOM     94  O   UNL A   1      38.072  35.455  41.866  1.00  0.00    -0.744 OA
ENDBRANCH  90  91
ENDBRANCH  64  85
ENDBRANCH  38  39
ENDBRANCH  31  33
ENDBRANCH  30  31
ENDBRANCH  29  30
ENDBRANCH  28  29
ENDBRANCH  27  28
ENDBRANCH   1  27
TORSDOF 23
ENDMDL
MODEL 2
REMARK VINA RESULT:      -9.8      2.316      3.738
REMARK SMILES CO[C@@H]1C[C@H](C(=O)OCCOCCOCCOC(=O)c2ccc(-c3c4nc(c(-c5ccc(S(=O)(=O)[O-])cc5)c5ccc([nH]5)c(-c5ccc(S(=O)(=O)[O-])cc5)c5nc(c(-c6ccc(S(=O)(=O)[O-])cc6)c6ccc3[nH]6)C=C5)C=C4)cc2)N(C(=O)c2ncc(Cl)c(Cl)c2Cl)C1
REMARK SMILES IDX 13 1 12 2 11 3 10 4 9 5 8 6 6 7 7 8 5 9 3 10 4 11 92 12
REMARK SMILES IDX 80 13 2 14 1 15 81 16 82 17 83 18 84 19 90 20 85 21 88 22
REMARK SMILES IDX 91 23 86 24 89 25 87 26 14 27 15 28 16 29 17 30 18 31 19 32
REMARK SMILES IDX 20 33 21 34 79 35 22 36 78 37 23 38 24 39 25 40 72 41 26 42
REMARK SMILES IDX 77 43 71 44 73 45 27 46 76 47 70 48 69 49 28 51 58 52 39 53
REMARK SMILES IDX 57 54 40 55 43 56 56 57 74 58 41 59 42 60 55 62 75 63 44 64
REMARK SMILES IDX 29 65 30 66 38 67 31 68 37 69 32 70 33 71 34 72 35 73 36 74
REMARK SMILES IDX 59 75 60 76 68 77 61 78 67 79 62 80 63 81 64 82 65 83 66 84
REMARK SMILES IDX 45 85 46 86 54 87 47 88 53 89 48 90 49 91 50 92 51 93 52 94
REMARK H PARENT 73 50 43 61
REMARK Flexibility Score: inf
ROOT
ATOM      1  C   UNL A   1      36.533  23.678  25.603  1.00  0.00     0.188 C 
ENDROOT
BRANCH   1   2
ATOM      2  C   UNL A   1      35.550  23.521  24.438  1.00  0.00     0.188 C 
BRANCH   2   3
ATOM      3  O   UNL A   1      34.228  23.114  24.764  1.00  0.00    -0.376 OA
BRANCH   3   4
ATOM      4  C   UNL A   1      33.663  23.618  25.977  1.00  0.00     0.202 C 
BRANCH   4   5
ATOM      5  C   UNL A   1      32.633  24.757  25.879  1.00  0.00     0.261 C 
BRANCH   5   6
ATOM      6  O   UNL A   1      33.235  26.057  25.696  1.00  0.00    -0.462 OA
BRANCH   6   7
ATOM      7  C   UNL A   1      33.232  26.541  24.430  1.00  0.00     0.329 C 
ATOM      8  O   UNL A   1      32.968  25.861  23.442  1.00  0.00    -0.250 OA
BRANCH   7   9
ATOM      9  C   UNL A   1      33.412  28.073  24.349  1.00  0.00     0.198 C 
ATOM     10  C   UNL A   1      31.540  28.952  23.115  1.00  0.00     0.140 C 
ATOM     11  C   UNL A   1      33.058  28.804  23.056  1.00  0.00     0.071 C 
ATOM     12  C   UNL A   1      31.217  28.971  24.617  1.00  0.00     0.153 C 
ATOM     13  N   UNL A   1      32.471  28.675  25.292  1.00  0.00    -0.321 N 
BRANCH  10  14
ATOM     14  O   UNL A   1      30.969  27.804  22.487  1.00  0.00    -0.380 OA
ATOM     15  C   UNL A   1      29.773  27.374  23.124  1.00  0.00     0.195 C 
ENDBRANCH  10  14
BRANCH  13  16
ATOM     16  C   UNL A   1      32.623  28.879  26.654  1.00  0.00     0.274 C 
ATOM     17  O   UNL A   1      31.952  28.270  27.486  1.00  0.00    -0.267 OA
BRANCH  16  18
ATOM     18  C   UNL A   1      33.582  29.919  27.131  1.00  0.00     0.148 A 
ATOM     19  N   UNL A   1      34.817  29.459  27.465  1.00  0.00    -0.248 NA
ATOM     20  C   UNL A   1      33.187  31.250  27.269  1.00  0.00     0.092 A 
ATOM     21  C   UNL A   1      35.706  30.367  27.932  1.00  0.00     0.134 A 
ATOM     22  C   UNL A   1      34.144  32.164  27.741  1.00  0.00     0.082 A 
ATOM     23  Cl  UNL A   1      31.573  31.753  26.879  1.00  0.00    -0.080 Cl
ATOM     24  C   UNL A   1      35.426  31.717  28.082  1.00  0.00     0.079 A 
ATOM     25  Cl  UNL A   1      33.745  33.850  27.886  1.00  0.00    -0.081 Cl
ATOM     26  Cl  UNL A   1      36.664  32.755  28.676  1.00  0.00    -0.081 Cl
ENDBRANCH  16  18
ENDBRANCH  13  16
ENDBRANCH   7   9
ENDBRANCH   6   7
ENDBRANCH   5   6
ENDBRANCH   4   5
ENDBRANCH   3   4
ENDBRANCH   2   3
ENDBRANCH   1   2
BRANCH   1  27
ATOM     27  O   UNL A   1      37.563  22.717  25.622  1.00  0.00    -0.376 OA
BRANCH  27  28
ATOM     28  C   UNL A   1      38.665  22.827  26.510  1.00  0.00     0.202 C 
BRANCH  28  29
ATOM     29  C   UNL A   1      39.674  23.996  26.438  1.00  0.00     0.261 C 
BRANCH  29  30
ATOM     30  O   UNL A   1      39.378  25.199  27.162  1.00  0.00    -0.460 OA
BRANCH  30  31
ATOM     31  C   UNL A   1      40.238  26.239  27.036  1.00  0.00     0.338 C 
ATOM     32  O   UNL A   1      40.765  26.620  26.003  1.00  0.00    -0.246 OA
BRANCH  31  33
ATOM     33  C   UNL A   1      40.169  27.024  28.302  1.00  0.00     0.060 A 
ATOM     34  C   UNL A   1      40.918  28.209  28.392  1.00  0.00     0.016 A 
ATOM     35  C   UNL A   1      39.294  26.676  29.334  1.00  0.00     0.016 A 
ATOM     36  C   UNL A   1      40.824  29.023  29.526  1.00  0.00     0.010 A 
ATOM     37  C   UNL A   1      39.218  27.478  30.478  1.00  0.00     0.010 A 
ATOM     38  C   UNL A   1      40.006  28.638  30.596  1.00  0.00    -0.014 A 
BRANCH  38  39
ATOM     39  C   UNL A   1      40.137  29.306  31.917  1.00  0.00     0.031 A 
ATOM     40  C   UNL A   1      39.133  30.376  32.263  1.00  0.00     0.074 A 
ATOM     41  C   UNL A   1      41.107  28.990  32.795  1.00  0.00     0.049 A 
ATOM     42  N   UNL A   1      39.078  31.162  33.305  1.00  0.00    -0.248 NA
ATOM     43  C   UNL A   1      38.044  30.587  31.292  1.00  0.00     0.031 C 
ATOM     44  C   UNL A   1      42.109  27.941  32.617  1.00  0.00     0.029 A 
ATOM     45  N   UNL A   1      41.412  29.541  34.017  1.00  0.00    -0.354 N 
ATOM     46  C   UNL A   1      37.963  31.970  33.110  1.00  0.00     0.074 A 
ATOM     47  C   UNL A   1      37.387  31.598  31.837  1.00  0.00     0.031 C 
ATOM     48  C   UNL A   1      42.926  27.933  33.686  1.00  0.00     0.029 A 
ATOM     49  C   UNL A   1      42.533  29.003  34.605  1.00  0.00     0.049 A 
ATOM     50  H   UNL A   1      40.877  30.255  34.434  1.00  0.00     0.167 HD
ATOM     51  C   UNL A   1      37.459  32.933  33.917  1.00  0.00     0.031 A 
ATOM     52  C   UNL A   1      43.183  29.350  35.735  1.00  0.00     0.031 A 
ATOM     53  C   UNL A   1      38.040  33.316  35.175  1.00  0.00     0.049 A 
ATOM     54  C   UNL A   1      42.656  30.489  36.577  1.00  0.00     0.074 A 
ATOM     55  C   UNL A   1      37.595  34.273  36.070  1.00  0.00     0.029 A 
ATOM     56  N   UNL A   1      39.194  32.769  35.714  1.00  0.00    -0.354 N 
ATOM     57  N   UNL A   1      41.592  31.234  36.387  1.00  0.00    -0.248 NA
ATOM     58  C   UNL A   1      43.416  30.830  37.789  1.00  0.00     0.031 C 
ATOM     59  C   UNL A   1      38.518  34.352  37.117  1.00  0.00     0.029 A 
ATOM     60  C   UNL A   1      39.494  33.390  36.914  1.00  0.00     0.049 A 
ATOM     61  H   UNL A   1      39.723  32.046  35.303  1.00  0.00     0.167 HD
ATOM     62  C   UNL A   1      41.534  32.100  37.476  1.00  0.00     0.074 A 
ATOM     63  C   UNL A   1      42.667  31.787  38.321  1.00  0.00     0.031 C 
ATOM     64  C   UNL A   1      40.620  33.064  37.754  1.00  0.00     0.031 A 
BRANCH  51  65
ATOM     65  C   UNL A   1      36.237  33.672  33.438  1.00  0.00    -0.014 A 
ATOM     66  C   UNL A   1      36.341  34.891  32.745  1.00  0.00     0.010 A 
ATOM     67  C   UNL A   1      34.962  33.117  33.658  1.00  0.00     0.010 A 
ATOM     68  C   UNL A   1      35.192  35.561  32.316  1.00  0.00     0.020 A 
ATOM     69  C   UNL A   1      33.813  33.767  33.203  1.00  0.00     0.020 A 
ATOM     70  C   UNL A   1      33.934  34.994  32.549  1.00  0.00     0.054 A 
BRANCH  70  71
ATOM     71  S   UNL A   1      32.462  35.875  31.961  1.00  0.00     0.124 S 
ATOM     72  O   UNL A   1      32.646  37.197  32.557  1.00  0.00    -0.237 OA
ATOM     73  O   UNL A   1      32.613  35.816  30.510  1.00  0.00    -0.237 OA
ATOM     74  O   UNL A   1      31.351  35.098  32.503  1.00  0.00    -0.744 OA
ENDBRANCH  70  71
ENDBRANCH  51  65
BRANCH  52  75
ATOM     75  C   UNL A   1      44.427  28.630  36.134  1.00  0.00    -0.014 A 
ATOM     76  C   UNL A   1      44.372  27.513  36.986  1.00  0.00     0.010 A 
ATOM     77  C   UNL A   1      45.680  29.070  35.669  1.00  0.00     0.010 A 
ATOM     78  C   UNL A   1      45.546  26.860  37.377  1.00  0.00     0.020 A 
ATOM     79  C   UNL A   1      46.853  28.401  36.032  1.00  0.00     0.020 A 
ATOM     80  C   UNL A   1      46.778  27.305  36.893  1.00  0.00     0.054 A 
BRANCH  80  81
ATOM     81  S   UNL A   1      48.282  26.409  37.373  1.00  0.00     0.124 S 
ATOM     82  O   UNL A   1      49.323  27.170  36.689  1.00  0.00    -0.237 OA
ATOM     83  O   UNL A   1      48.266  26.524  38.829  1.00  0.00    -0.237 OA
ATOM     84  O   UNL A   1      48.055  25.059  36.860  1.00  0.00    -0.744 OA
ENDBRANCH  80  81
ENDBRANCH  52  75
BRANCH  64  85
ATOM     85  C   UNL A   1      40.760  33.822  39.052  1.00  0.00    -0.014 A 
ATOM     86  C   UNL A   1      40.217  33.335  40.254  1.00  0.00     0.010 A 
ATOM     87  C   UNL A   1      41.522  35.006  39.077  1.00  0.00     0.010 A 
ATOM     88  C   UNL A   1      40.412  34.032  41.451  1.00  0.00     0.020 A 
ATOM     89  C   UNL A   1      41.746  35.688  40.276  1.00  0.00     0.020 A 
ATOM     90  C   UNL A   1      41.179  35.202  41.455  1.00  0.00     0.054 A 
BRANCH  90  91
ATOM     91  S   UNL A   1      41.465  36.054  43.032  1.00  0.00     0.124 S 
ATOM     92  O   UNL A   1      40.128  36.066  43.618  1.00  0.00    -0.237 OA
ATOM     93  O   UNL A   1      42.434  35.185  43.693  1.00  0.00    -0.237 OA
ATOM     94  O   UNL A   1      41.980  37.362  42.632  1.00  0.00    -0.744 OA
ENDBRANCH  90  91
ENDBRANCH  64  85
ENDBRANCH  38  39
ENDBRANCH  31  33
ENDBRANCH  30  31
ENDBRANCH  29  30
ENDBRANCH  28  29
ENDBRANCH  27  28
ENDBRANCH   1  27
TORSDOF 23
ENDMDL
MODEL 3
REMARK VINA RESULT:      -9.6      5.968     11.844
REMARK SMILES CO[C@@H]1C[C@H](C(=O)OCCOCCOCCOC(=O)c2ccc(-c3c4nc(c(-c5ccc(S(=O)(=O)[O-])cc5)c5ccc([nH]5)c(-c5ccc(S(=O)(=O)[O-])cc5)c5nc(c(-c6ccc(S(=O)(=O)[O-])cc6)c6ccc3[nH]6)C=C5)C=C4)cc2)N(C(=O)c2ncc(Cl)c(Cl)c2Cl)C1
REMARK SMILES IDX 13 1 12 2 11 3 10 4 9 5 8 6 6 7 7 8 5 9 3 10 4 11 92 12
REMARK SMILES IDX 80 13 2 14 1 15 81 16 82 17 83 18 84 19 90 20 85 21 88 22
REMARK SMILES IDX 91 23 86 24 89 25 87 26 14 27 15 28 16 29 17 30 18 31 19 32
REMARK SMILES IDX 20 33 21 34 79 35 22 36 78 37 23 38 24 39 25 40 72 41 26 42
REMARK SMILES IDX 77 43 71 44 73 45 27 46 76 47 70 48 69 49 28 51 58 52 39 53
REMARK SMILES IDX 57 54 40 55 43 56 56 57 74 58 41 59 42 60 55 62 75 63 44 64
REMARK SMILES IDX 29 65 30 66 38 67 31 68 37 69 32 70 33 71 34 72 35 73 36 74
REMARK SMILES IDX 59 75 60 76 68 77 61 78 67 79 62 80 63 81 64 82 65 83 66 84
REMARK SMILES IDX 45 85 46 86 54 87 47 88 53 89 48 90 49 91 50 92 51 93 52 94
REMARK H PARENT 73 50 43 61
REMARK Flexibility Score: inf
ROOT
ATOM      1  C   UNL A   1      34.193  31.082  27.481  1.00  0.00     0.188 C 
ENDROOT
BRANCH   1   2
ATOM      2  C   UNL A   1      32.732  30.675  27.253  1.00  0.00     0.188 C 
BRANCH   2   3
ATOM      3  O   UNL A   1      32.432  29.288  27.341  1.00  0.00    -0.376 OA
BRANCH   3   4
ATOM      4  C   UNL A   1      33.513  28.367  27.168  1.00  0.00     0.202 C 
BRANCH   4   5
ATOM      5  C   UNL A   1      33.437  27.374  25.994  1.00  0.00     0.261 C 
BRANCH   5   6
ATOM      6  O   UNL A   1      32.876  26.096  26.362  1.00  0.00    -0.462 OA
BRANCH   6   7
ATOM      7  C   UNL A   1      31.559  25.924  26.092  1.00  0.00     0.329 C 
ATOM      8  O   UNL A   1      30.667  26.595  26.602  1.00  0.00    -0.250 OA
BRANCH   7   9
ATOM      9  C   UNL A   1      31.285  24.927  24.944  1.00  0.00     0.198 C 
ATOM     10  C   UNL A   1      31.117  26.204  22.909  1.00  0.00     0.140 C 
ATOM     11  C   UNL A   1      30.303  25.307  23.838  1.00  0.00     0.071 C 
ATOM     12  C   UNL A   1      32.567  25.734  23.101  1.00  0.00     0.153 C 
ATOM     13  N   UNL A   1      32.528  24.773  24.192  1.00  0.00    -0.321 N 
BRANCH  10  14
ATOM     14  O   UNL A   1      30.955  27.551  23.357  1.00  0.00    -0.380 OA
ATOM     15  C   UNL A   1      29.670  28.074  23.050  1.00  0.00     0.195 C 
ENDBRANCH  10  14
BRANCH  13  16
ATOM     16  C   UNL A   1      33.603  23.939  24.458  1.00  0.00     0.274 C 
ATOM     17  O   UNL A   1      34.765  24.338  24.416  1.00  0.00    -0.267 OA
BRANCH  16  18
ATOM     18  C   UNL A   1      33.350  22.495  24.738  1.00  0.00     0.148 A 
ATOM     19  N   UNL A   1      33.613  22.097  26.011  1.00  0.00    -0.248 NA
ATOM     20  C   UNL A   1      32.931  21.630  23.728  1.00  0.00     0.092 A 
ATOM     21  C   UNL A   1      33.427  20.788  26.298  1.00  0.00     0.134 A 
ATOM     22  C   UNL A   1      32.734  20.282  24.069  1.00  0.00     0.082 A 
ATOM     23  Cl  UNL A   1      32.673  22.198  22.108  1.00  0.00    -0.080 Cl
ATOM     24  C   UNL A   1      32.988  19.849  25.376  1.00  0.00     0.079 A 
ATOM     25  Cl  UNL A   1      32.158  19.154  22.878  1.00  0.00    -0.081 Cl
ATOM     26  Cl  UNL A   1      32.784  18.219  25.891  1.00  0.00    -0.081 Cl
ENDBRANCH  16  18
ENDBRANCH  13  16
ENDBRANCH   7   9
ENDBRANCH   6   7
ENDBRANCH   5   6
ENDBRANCH   4   5
ENDBRANCH   3   4
ENDBRANCH   2   3
ENDBRANCH   1   2
BRANCH   1  27
ATOM     27  O   UNL A   1      34.497  31.411  28.816  1.00  0.00    -0.376 OA
BRANCH  27  28
ATOM     28  C   UNL A   1      35.068  32.666  29.159  1.00  0.00     0.202 C 
BRANCH  28  29
ATOM     29  C   UNL A   1      35.721  32.932  30.534  1.00  0.00     0.261 C 
BRANCH  29  30
ATOM     30  O   UNL A   1      37.083  32.527  30.731  1.00  0.00    -0.460 OA
BRANCH  30  31
ATOM     31  C   UNL A   1      37.308  31.288  31.233  1.00  0.00     0.338 C 
ATOM     32  O   UNL A   1      36.513  30.610  31.865  1.00  0.00    -0.246 OA
BRANCH  31  33
ATOM     33  C   UNL A   1      38.560  30.777  30.605  1.00  0.00     0.060 A 
ATOM     34  C   UNL A   1      39.618  30.393  31.446  1.00  0.00     0.016 A 
ATOM     35  C   UNL A   1      38.653  30.561  29.228  1.00  0.00     0.016 A 
ATOM     36  C   UNL A   1      40.781  29.832  30.910  1.00  0.00     0.010 A 
ATOM     37  C   UNL A   1      39.827  30.021  28.691  1.00  0.00     0.010 A 
ATOM     38  C   UNL A   1      40.911  29.684  29.523  1.00  0.00    -0.014 A 
BRANCH  38  39
ATOM     39  C   UNL A   1      42.239  29.397  28.921  1.00  0.00     0.031 A 
ATOM     40  C   UNL A   1      42.492  27.999  28.417  1.00  0.00     0.074 A 
ATOM     41  C   UNL A   1      43.202  30.331  28.816  1.00  0.00     0.049 A 
ATOM     42  N   UNL A   1      43.585  27.473  27.932  1.00  0.00    -0.248 NA
ATOM     43  C   UNL A   1      41.350  27.068  28.476  1.00  0.00     0.031 C 
ATOM     44  C   UNL A   1      43.077  31.732  29.209  1.00  0.00     0.029 A 
ATOM     45  N   UNL A   1      44.493  30.226  28.351  1.00  0.00    -0.354 N 
ATOM     46  C   UNL A   1      43.270  26.149  27.642  1.00  0.00     0.074 A 
ATOM     47  C   UNL A   1      41.893  25.946  28.033  1.00  0.00     0.031 C 
ATOM     48  C   UNL A   1      44.248  32.355  28.981  1.00  0.00     0.029 A 
ATOM     49  C   UNL A   1      45.219  31.388  28.466  1.00  0.00     0.049 A 
ATOM     50  H   UNL A   1      44.862  29.396  27.972  1.00  0.00     0.167 HD
ATOM     51  C   UNL A   1      44.053  25.189  27.098  1.00  0.00     0.031 A 
ATOM     52  C   UNL A   1      46.521  31.636  28.213  1.00  0.00     0.031 A 
ATOM     53  C   UNL A   1      45.427  25.385  26.725  1.00  0.00     0.049 A 
ATOM     54  C   UNL A   1      47.403  30.525  27.691  1.00  0.00     0.074 A 
ATOM     55  C   UNL A   1      46.300  24.475  26.155  1.00  0.00     0.029 A 
ATOM     56  N   UNL A   1      46.133  26.566  26.891  1.00  0.00    -0.354 N 
ATOM     57  N   UNL A   1      47.088  29.283  27.408  1.00  0.00    -0.248 NA
ATOM     58  C   UNL A   1      48.817  30.854  27.448  1.00  0.00     0.031 C 
ATOM     59  C   UNL A   1      47.552  25.086  26.039  1.00  0.00     0.029 A 
ATOM     60  C   UNL A   1      47.439  26.400  26.463  1.00  0.00     0.049 A 
ATOM     61  H   UNL A   1      45.760  27.401  27.260  1.00  0.00     0.167 HD
ATOM     62  C   UNL A   1      48.252  28.697  26.916  1.00  0.00     0.074 A 
ATOM     63  C   UNL A   1      49.276  29.719  26.937  1.00  0.00     0.031 C 
ATOM     64  C   UNL A   1      48.451  27.428  26.479  1.00  0.00     0.031 A 
BRANCH  51  65
ATOM     65  C   UNL A   1      43.449  23.821  26.913  1.00  0.00    -0.014 A 
ATOM     66  C   UNL A   1      43.061  23.356  25.644  1.00  0.00     0.010 A 
ATOM     67  C   UNL A   1      43.296  22.975  28.028  1.00  0.00     0.010 A 
ATOM     68  C   UNL A   1      42.497  22.086  25.498  1.00  0.00     0.020 A 
ATOM     69  C   UNL A   1      42.762  21.693  27.882  1.00  0.00     0.020 A 
ATOM     70  C   UNL A   1      42.350  21.262  26.620  1.00  0.00     0.054 A 
BRANCH  70  71
ATOM     71  S   UNL A   1      41.635  19.611  26.397  1.00  0.00     0.124 S 
ATOM     72  O   UNL A   1      41.979  18.961  27.660  1.00  0.00    -0.237 OA
ATOM     73  O   UNL A   1      40.216  19.901  26.207  1.00  0.00    -0.237 OA
ATOM     74  O   UNL A   1      42.325  19.088  25.220  1.00  0.00    -0.744 OA
ENDBRANCH  70  71
ENDBRANCH  51  65
BRANCH  52  75
ATOM     75  C   UNL A   1      47.089  32.991  28.473  1.00  0.00    -0.014 A 
ATOM     76  C   UNL A   1      47.177  33.945  27.445  1.00  0.00     0.010 A 
ATOM     77  C   UNL A   1      47.557  33.328  29.756  1.00  0.00     0.010 A 
ATOM     78  C   UNL A   1      47.736  35.204  27.690  1.00  0.00     0.020 A 
ATOM     79  C   UNL A   1      48.088  34.596  30.014  1.00  0.00     0.020 A 
ATOM     80  C   UNL A   1      48.183  35.524  28.975  1.00  0.00     0.054 A 
BRANCH  80  81
ATOM     81  S   UNL A   1      48.856  37.181  29.281  1.00  0.00     0.124 S 
ATOM     82  O   UNL A   1      48.969  37.201  30.737  1.00  0.00    -0.237 OA
ATOM     83  O   UNL A   1      50.118  37.149  28.547  1.00  0.00    -0.237 OA
ATOM     84  O   UNL A   1      47.841  38.072  28.721  1.00  0.00    -0.744 OA
ENDBRANCH  80  81
ENDBRANCH  52  75
BRANCH  64  85
ATOM     85  C   UNL A   1      49.810  27.071  25.930  1.00  0.00    -0.014 A 
ATOM     86  C   UNL A   1      50.164  27.346  24.598  1.00  0.00     0.010 A 
ATOM     87  C   UNL A   1      50.778  26.522  26.794  1.00  0.00     0.010 A 
ATOM     88  C   UNL A   1      51.451  27.055  24.133  1.00  0.00     0.020 A 
ATOM     89  C   UNL A   1      52.074  26.260  26.343  1.00  0.00     0.020 A 
ATOM     90  C   UNL A   1      52.400  26.518  25.010  1.00  0.00     0.054 A 
BRANCH  90  91
ATOM     91  S   UNL A   1      54.079  26.205  24.398  1.00  0.00     0.124 S 
ATOM     92  O   UNL A   1      53.910  26.358  22.955  1.00  0.00    -0.237 OA
ATOM     93  O   UNL A   1      54.859  27.251  25.054  1.00  0.00    -0.237 OA
ATOM     94  O   UNL A   1      54.367  24.845  24.850  1.00  0.00    -0.744 OA
ENDBRANCH  90  91
ENDBRANCH  64  85
ENDBRANCH  38  39
ENDBRANCH  31  33
ENDBRANCH  30  31
ENDBRANCH  29  30
ENDBRANCH  28  29
ENDBRANCH  27  28
ENDBRANCH   1  27
TORSDOF 23
ENDMDL
