MODEL 1
REMARK VINA RESULT:     -10.7      0.000      0.000
REMARK SMILES O=C(Nc1ccccc1C(=O)OCCOCCOCCOC(=O)c1ccc(-c2c3nc(c(-c4ccc(S(=O)(=O)[O-])cc4)c4ccc([nH]4)c(-c4ccc(S(=O)(=O)[O-])cc4)c4nc(c(-c5ccc(S(=O)(=O)[O-])cc5)c5ccc2[nH]5)C=C4)C=C3)cc1)c1ccc2c(c1)C(=O)N(Cc1ccccc1)C2=O
REMARK SMILES IDX 16 1 15 2 14 3 13 4 12 5 10 6 11 7 9 8 4 9 5 10 6 11 8 12
REMARK SMILES IDX 7 13 3 14 1 15 2 16 84 18 85 19 89 20 86 21 88 22 87 23
REMARK SMILES IDX 90 24 100 25 91 26 92 27 101 28 93 29 94 30 95 31 99 32
REMARK SMILES IDX 96 33 98 34 97 35 17 36 18 37 19 38 20 39 21 40 22 41 23 42
REMARK SMILES IDX 24 43 25 44 83 45 26 46 82 47 27 48 28 49 29 50 76 51 30 52
REMARK SMILES IDX 81 53 75 54 77 55 31 56 80 57 74 58 73 59 32 61 62 62 43 63
REMARK SMILES IDX 61 64 44 65 47 66 60 67 78 68 45 69 46 70 59 72 79 73 48 74
REMARK SMILES IDX 33 75 34 76 42 77 35 78 41 79 36 80 37 81 38 82 39 83 40 84
REMARK SMILES IDX 63 85 64 86 72 87 65 88 71 89 66 90 67 91 68 92 69 93 70 94
REMARK SMILES IDX 49 95 50 96 58 97 51 98 57 99 52 100 53 101 54 102 55 103
REMARK SMILES IDX 56 104
REMARK H PARENT 3 17 77 60 47 71
REMARK Flexibility Score: inf
ROOT
ATOM      1  C   UNL A   1      35.321  23.852  23.401  1.00  0.00     0.188 C 
ENDROOT
BRANCH   1   2
ATOM      2  O   UNL A   1      34.359  23.727  22.366  1.00  0.00    -0.376 OA
BRANCH   2   3
ATOM      3  C   UNL A   1      33.111  24.365  22.603  1.00  0.00     0.202 C 
BRANCH   3   4
ATOM      4  C   UNL A   1      32.644  25.443  21.622  1.00  0.00     0.261 C 
BRANCH   4   5
ATOM      5  O   UNL A   1      32.057  26.668  22.130  1.00  0.00    -0.460 OA
BRANCH   5   6
ATOM      6  C   UNL A   1      32.775  27.647  22.725  1.00  0.00     0.340 C 
ATOM      7  O   UNL A   1      33.981  27.683  22.883  1.00  0.00    -0.246 OA
BRANCH   6   8
ATOM      8  C   UNL A   1      31.850  28.777  23.000  1.00  0.00     0.083 A 
ATOM      9  C   UNL A   1      31.591  29.278  24.286  1.00  0.00     0.056 A 
ATOM     10  C   UNL A   1      30.389  29.987  24.485  1.00  0.00     0.027 A 
ATOM     11  C   UNL A   1      29.541  30.308  23.422  1.00  0.00     0.002 A 
ATOM     12  C   UNL A   1      31.025  29.155  21.919  1.00  0.00     0.018 A 
ATOM     13  C   UNL A   1      29.881  29.929  22.131  1.00  0.00     0.001 A 
BRANCH   9  14
ATOM     14  N   UNL A   1      32.391  29.164  25.446  1.00  0.00    -0.321 N 
ATOM     15  O   UNL A   1      33.353  28.403  27.331  1.00  0.00    -0.269 OA
ATOM     16  C   UNL A   1      32.660  28.159  26.343  1.00  0.00     0.255 C 
ATOM     17  H   UNL A   1      32.865  29.999  25.661  1.00  0.00     0.170 HD
BRANCH  16  18
ATOM     18  C   UNL A   1      32.164  26.782  26.191  1.00  0.00     0.041 A 
ATOM     19  C   UNL A   1      30.796  26.440  26.153  1.00  0.00     0.015 A 
ATOM     20  C   UNL A   1      33.149  25.797  26.104  1.00  0.00     0.028 A 
ATOM     21  C   UNL A   1      30.407  25.085  26.102  1.00  0.00     0.015 A 
ATOM     22  C   UNL A   1      32.737  24.484  26.201  1.00  0.00     0.054 A 
ATOM     23  C   UNL A   1      31.407  24.124  26.177  1.00  0.00     0.053 A 
ATOM     24  C   UNL A   1      33.528  23.287  26.459  1.00  0.00     0.261 C 
ATOM     25  C   UNL A   1      31.371  22.658  26.265  1.00  0.00     0.261 C 
ATOM     26  O   UNL A   1      34.743  23.287  26.556  1.00  0.00    -0.269 OA
ATOM     27  N   UNL A   1      32.652  22.246  26.539  1.00  0.00    -0.270 N 
ATOM     28  O   UNL A   1      30.389  21.991  26.006  1.00  0.00    -0.269 OA
BRANCH  27  29
ATOM     29  C   UNL A   1      33.088  20.866  26.608  1.00  0.00     0.164 C 
BRANCH  29  30
ATOM     30  C   UNL A   1      32.851  19.979  25.399  1.00  0.00    -0.028 A 
ATOM     31  C   UNL A   1      32.708  20.441  24.085  1.00  0.00     0.005 A 
ATOM     32  C   UNL A   1      32.822  18.586  25.616  1.00  0.00     0.005 A 
ATOM     33  C   UNL A   1      32.516  19.536  23.029  1.00  0.00     0.000 A 
ATOM     34  C   UNL A   1      32.641  17.686  24.564  1.00  0.00     0.000 A 
ATOM     35  C   UNL A   1      32.485  18.162  23.267  1.00  0.00     0.000 A 
ENDBRANCH  29  30
ENDBRANCH  27  29
ENDBRANCH  16  18
ENDBRANCH   9  14
ENDBRANCH   6   8
ENDBRANCH   5   6
ENDBRANCH   4   5
ENDBRANCH   3   4
ENDBRANCH   2   3
ENDBRANCH   1   2
BRANCH   1  36
ATOM     36  C   UNL A   1      36.419  22.777  23.315  1.00  0.00     0.188 C 
BRANCH  36  37
ATOM     37  O   UNL A   1      36.223  21.707  24.225  1.00  0.00    -0.376 OA
BRANCH  37  38
ATOM     38  C   UNL A   1      37.324  21.244  24.995  1.00  0.00     0.202 C 
BRANCH  38  39
ATOM     39  C   UNL A   1      38.336  22.207  25.652  1.00  0.00     0.261 C 
BRANCH  39  40
ATOM     40  O   UNL A   1      39.346  21.646  26.503  1.00  0.00    -0.460 OA
BRANCH  40  41
ATOM     41  C   UNL A   1      40.641  21.939  26.266  1.00  0.00     0.338 C 
ATOM     42  O   UNL A   1      41.405  21.340  25.533  1.00  0.00    -0.246 OA
BRANCH  41  43
ATOM     43  C   UNL A   1      40.877  23.289  26.843  1.00  0.00     0.060 A 
ATOM     44  C   UNL A   1      40.533  24.415  26.080  1.00  0.00     0.016 A 
ATOM     45  C   UNL A   1      41.323  23.444  28.160  1.00  0.00     0.016 A 
ATOM     46  C   UNL A   1      40.659  25.695  26.620  1.00  0.00     0.010 A 
ATOM     47  C   UNL A   1      41.490  24.727  28.688  1.00  0.00     0.010 A 
ATOM     48  C   UNL A   1      41.196  25.857  27.904  1.00  0.00    -0.014 A 
BRANCH  48  49
ATOM     49  C   UNL A   1      41.749  27.179  28.284  1.00  0.00     0.031 A 
ATOM     50  C   UNL A   1      43.221  27.391  28.052  1.00  0.00     0.074 A 
ATOM     51  C   UNL A   1      40.988  28.166  28.787  1.00  0.00     0.049 A 
ATOM     52  N   UNL A   1      43.961  28.437  28.306  1.00  0.00    -0.248 NA
ATOM     53  C   UNL A   1      43.954  26.265  27.445  1.00  0.00     0.031 C 
ATOM     54  C   UNL A   1      39.545  28.104  29.012  1.00  0.00     0.029 A 
ATOM     55  N   UNL A   1      41.342  29.426  29.206  1.00  0.00    -0.354 N 
ATOM     56  C   UNL A   1      45.243  28.095  27.891  1.00  0.00     0.074 A 
ATOM     57  C   UNL A   1      45.188  26.738  27.398  1.00  0.00     0.031 C 
ATOM     58  C   UNL A   1      39.138  29.272  29.543  1.00  0.00     0.029 A 
ATOM     59  C   UNL A   1      40.294  30.151  29.722  1.00  0.00     0.049 A 
ATOM     60  H   UNL A   1      42.259  29.777  29.141  1.00  0.00     0.167 HD
ATOM     61  C   UNL A   1      46.371  28.841  27.915  1.00  0.00     0.031 A 
ATOM     62  C   UNL A   1      40.280  31.373  30.293  1.00  0.00     0.031 A 
ATOM     63  C   UNL A   1      46.436  30.174  28.443  1.00  0.00     0.049 A 
ATOM     64  C   UNL A   1      41.567  32.156  30.396  1.00  0.00     0.074 A 
ATOM     65  C   UNL A   1      47.531  31.014  28.526  1.00  0.00     0.029 A 
ATOM     66  N   UNL A   1      45.362  30.855  28.997  1.00  0.00    -0.354 N 
ATOM     67  N   UNL A   1      42.768  31.831  29.980  1.00  0.00    -0.248 NA
ATOM     68  C   UNL A   1      41.493  33.477  31.040  1.00  0.00     0.031 C 
ATOM     69  C   UNL A   1      47.131  32.184  29.180  1.00  0.00     0.029 A 
ATOM     70  C   UNL A   1      45.772  32.097  29.445  1.00  0.00     0.049 A 
ATOM     71  H   UNL A   1      44.444  30.506  29.060  1.00  0.00     0.167 HD
ATOM     72  C   UNL A   1      43.586  32.915  30.287  1.00  0.00     0.074 A 
ATOM     73  C   UNL A   1      42.740  33.911  30.913  1.00  0.00     0.031 C 
ATOM     74  C   UNL A   1      44.916  33.075  30.067  1.00  0.00     0.031 A 
BRANCH  61  75
ATOM     75  C   UNL A   1      47.626  28.199  27.393  1.00  0.00    -0.014 A 
ATOM     76  C   UNL A   1      48.554  27.599  28.264  1.00  0.00     0.010 A 
ATOM     77  C   UNL A   1      47.886  28.203  26.012  1.00  0.00     0.010 A 
ATOM     78  C   UNL A   1      49.740  27.055  27.767  1.00  0.00     0.020 A 
ATOM     79  C   UNL A   1      49.058  27.635  25.507  1.00  0.00     0.020 A 
ATOM     80  C   UNL A   1      49.986  27.081  26.391  1.00  0.00     0.054 A 
BRANCH  80  81
ATOM     81  S   UNL A   1      51.531  26.361  25.771  1.00  0.00     0.124 S 
ATOM     82  O   UNL A   1      51.409  24.971  26.204  1.00  0.00    -0.237 OA
ATOM     83  O   UNL A   1      51.430  26.580  24.330  1.00  0.00    -0.237 OA
ATOM     84  O   UNL A   1      52.570  27.134  26.445  1.00  0.00    -0.744 OA
ENDBRANCH  80  81
ENDBRANCH  61  75
BRANCH  62  85
ATOM     85  C   UNL A   1      39.008  31.927  30.835  1.00  0.00    -0.014 A 
ATOM     86  C   UNL A   1      38.129  32.652  30.011  1.00  0.00     0.010 A 
ATOM     87  C   UNL A   1      38.669  31.729  32.186  1.00  0.00     0.010 A 
ATOM     88  C   UNL A   1      36.939  33.175  30.530  1.00  0.00     0.020 A 
ATOM     89  C   UNL A   1      37.468  32.228  32.703  1.00  0.00     0.020 A 
ATOM     90  C   UNL A   1      36.614  32.954  31.872  1.00  0.00     0.054 A 
BRANCH  90  91
ATOM     91  S   UNL A   1      35.035  33.588  32.504  1.00  0.00     0.124 S 
ATOM     92  O   UNL A   1      35.224  35.031  32.402  1.00  0.00    -0.237 OA
ATOM     93  O   UNL A   1      34.070  33.008  31.573  1.00  0.00    -0.237 OA
ATOM     94  O   UNL A   1      34.974  33.057  33.864  1.00  0.00    -0.744 OA
ENDBRANCH  90  91
ENDBRANCH  62  85
BRANCH  74  95
ATOM     95  C   UNL A   1      45.539  34.386  30.470  1.00  0.00    -0.014 A 
ATOM     96  C   UNL A   1      46.121  34.564  31.736  1.00  0.00     0.010 A 
ATOM     97  C   UNL A   1      45.608  35.435  29.532  1.00  0.00     0.010 A 
ATOM     98  C   UNL A   1      46.733  35.775  32.069  1.00  0.00     0.020 A 
ATOM     99  C   UNL A   1      46.244  36.637  29.850  1.00  0.00     0.020 A 
ATOM    100  C   UNL A   1      46.792  36.804  31.123  1.00  0.00     0.054 A 
BRANCH 100 101
ATOM    101  S   UNL A   1      47.633  38.350  31.562  1.00  0.00     0.124 S 
ATOM    102  O   UNL A   1      49.015  38.059  31.193  1.00  0.00    -0.237 OA
ATOM    103  O   UNL A   1      46.952  39.336  30.725  1.00  0.00    -0.237 OA
ATOM    104  O   UNL A   1      47.386  38.483  32.996  1.00  0.00    -0.744 OA
ENDBRANCH 100 101
ENDBRANCH  74  95
ENDBRANCH  48  49
ENDBRANCH  41  43
ENDBRANCH  40  41
ENDBRANCH  39  40
ENDBRANCH  38  39
ENDBRANCH  37  38
ENDBRANCH  36  37
ENDBRANCH   1  36
TORSDOF 24
ENDMDL
MODEL 2
REMARK VINA RESULT:     -10.7      4.680      8.805
REMARK SMILES O=C(Nc1ccccc1C(=O)OCCOCCOCCOC(=O)c1ccc(-c2c3nc(c(-c4ccc(S(=O)(=O)[O-])cc4)c4ccc([nH]4)c(-c4ccc(S(=O)(=O)[O-])cc4)c4nc(c(-c5ccc(S(=O)(=O)[O-])cc5)c5ccc2[nH]5)C=C4)C=C3)cc1)c1ccc2c(c1)C(=O)N(Cc1ccccc1)C2=O
REMARK SMILES IDX 16 1 15 2 14 3 13 4 12 5 10 6 11 7 9 8 4 9 5 10 6 11 8 12
REMARK SMILES IDX 7 13 3 14 1 15 2 16 84 18 85 19 89 20 86 21 88 22 87 23
REMARK SMILES IDX 90 24 100 25 91 26 92 27 101 28 93 29 94 30 95 31 99 32
REMARK SMILES IDX 96 33 98 34 97 35 17 36 18 37 19 38 20 39 21 40 22 41 23 42
REMARK SMILES IDX 24 43 25 44 83 45 26 46 82 47 27 48 28 49 29 50 76 51 30 52
REMARK SMILES IDX 81 53 75 54 77 55 31 56 80 57 74 58 73 59 32 61 62 62 43 63
REMARK SMILES IDX 61 64 44 65 47 66 60 67 78 68 45 69 46 70 59 72 79 73 48 74
REMARK SMILES IDX 33 75 34 76 42 77 35 78 41 79 36 80 37 81 38 82 39 83 40 84
REMARK SMILES IDX 63 85 64 86 72 87 65 88 71 89 66 90 67 91 68 92 69 93 70 94
REMARK SMILES IDX 49 95 50 96 58 97 51 98 57 99 52 100 53 101 54 102 55 103
REMARK SMILES IDX 56 104
REMARK H PARENT 3 17 77 60 47 71
REMARK Flexibility Score: inf
ROOT
ATOM      1  C   UNL A   1      37.596  22.695  25.707  1.00  0.00     0.188 C 
ENDROOT
BRANCH   1   2
ATOM      2  O   UNL A   1      36.604  22.558  24.702  1.00  0.00    -0.376 OA
BRANCH   2   3
ATOM      3  C   UNL A   1      36.089  23.773  24.174  1.00  0.00     0.202 C 
BRANCH   3   4
ATOM      4  C   UNL A   1      34.985  24.497  24.950  1.00  0.00     0.261 C 
BRANCH   4   5
ATOM      5  O   UNL A   1      34.854  25.937  24.832  1.00  0.00    -0.460 OA
BRANCH   5   6
ATOM      6  C   UNL A   1      33.746  26.547  24.352  1.00  0.00     0.340 C 
ATOM      7  O   UNL A   1      33.244  26.404  23.253  1.00  0.00    -0.246 OA
BRANCH   6   8
ATOM      8  C   UNL A   1      33.130  27.300  25.474  1.00  0.00     0.083 A 
ATOM      9  C   UNL A   1      31.768  27.638  25.532  1.00  0.00     0.056 A 
ATOM     10  C   UNL A   1      31.395  28.722  26.353  1.00  0.00     0.027 A 
ATOM     11  C   UNL A   1      32.313  29.358  27.192  1.00  0.00     0.002 A 
ATOM     12  C   UNL A   1      34.042  27.902  26.368  1.00  0.00     0.018 A 
ATOM     13  C   UNL A   1      33.629  28.920  27.232  1.00  0.00     0.001 A 
BRANCH   9  14
ATOM     14  N   UNL A   1      30.686  27.028  24.858  1.00  0.00    -0.321 N 
ATOM     15  O   UNL A   1      29.316  25.516  23.912  1.00  0.00    -0.269 OA
ATOM     16  C   UNL A   1      30.290  25.731  24.633  1.00  0.00     0.255 C 
ATOM     17  H   UNL A   1      30.073  27.684  24.456  1.00  0.00     0.170 HD
BRANCH  16  18
ATOM     18  C   UNL A   1      30.970  24.564  25.216  1.00  0.00     0.041 A 
ATOM     19  C   UNL A   1      31.238  24.419  26.594  1.00  0.00     0.015 A 
ATOM     20  C   UNL A   1      31.366  23.584  24.305  1.00  0.00     0.028 A 
ATOM     21  C   UNL A   1      31.981  23.312  27.057  1.00  0.00     0.015 A 
ATOM     22  C   UNL A   1      32.210  22.597  24.768  1.00  0.00     0.054 A 
ATOM     23  C   UNL A   1      32.497  22.440  26.108  1.00  0.00     0.053 A 
ATOM     24  C   UNL A   1      33.025  21.652  24.015  1.00  0.00     0.261 C 
ATOM     25  C   UNL A   1      33.387  21.276  26.208  1.00  0.00     0.261 C 
ATOM     26  O   UNL A   1      33.008  21.564  22.798  1.00  0.00    -0.269 OA
ATOM     27  N   UNL A   1      33.740  20.934  24.925  1.00  0.00    -0.270 N 
ATOM     28  O   UNL A   1      33.624  20.695  27.249  1.00  0.00    -0.269 OA
BRANCH  27  29
ATOM     29  C   UNL A   1      34.530  19.776  24.558  1.00  0.00     0.164 C 
BRANCH  29  30
ATOM     30  C   UNL A   1      33.929  18.401  24.781  1.00  0.00    -0.028 A 
ATOM     31  C   UNL A   1      32.603  18.158  25.159  1.00  0.00     0.005 A 
ATOM     32  C   UNL A   1      34.761  17.287  24.542  1.00  0.00     0.005 A 
ATOM     33  C   UNL A   1      32.135  16.845  25.316  1.00  0.00     0.000 A 
ATOM     34  C   UNL A   1      34.292  15.979  24.689  1.00  0.00     0.000 A 
ATOM     35  C   UNL A   1      32.977  15.758  25.080  1.00  0.00     0.000 A 
ENDBRANCH  29  30
ENDBRANCH  27  29
ENDBRANCH  16  18
ENDBRANCH   9  14
ENDBRANCH   6   8
ENDBRANCH   5   6
ENDBRANCH   4   5
ENDBRANCH   3   4
ENDBRANCH   2   3
ENDBRANCH   1   2
BRANCH   1  36
ATOM     36  C   UNL A   1      38.673  21.600  25.623  1.00  0.00     0.188 C 
BRANCH  36  37
ATOM     37  O   UNL A   1      39.619  21.667  26.677  1.00  0.00    -0.376 OA
BRANCH  37  38
ATOM     38  C   UNL A   1      41.003  21.568  26.370  1.00  0.00     0.202 C 
BRANCH  38  39
ATOM     39  C   UNL A   1      41.829  22.775  25.877  1.00  0.00     0.261 C 
BRANCH  39  40
ATOM     40  O   UNL A   1      41.352  24.091  26.190  1.00  0.00    -0.460 OA
BRANCH  40  41
ATOM     41  C   UNL A   1      42.198  25.137  26.090  1.00  0.00     0.338 C 
ATOM     42  O   UNL A   1      42.940  25.392  25.160  1.00  0.00    -0.246 OA
BRANCH  41  43
ATOM     43  C   UNL A   1      41.846  26.068  27.195  1.00  0.00     0.060 A 
ATOM     44  C   UNL A   1      42.545  27.280  27.299  1.00  0.00     0.016 A 
ATOM     45  C   UNL A   1      40.768  25.804  28.047  1.00  0.00     0.016 A 
ATOM     46  C   UNL A   1      42.185  28.217  28.268  1.00  0.00     0.010 A 
ATOM     47  C   UNL A   1      40.434  26.723  29.045  1.00  0.00     0.010 A 
ATOM     48  C   UNL A   1      41.168  27.914  29.184  1.00  0.00    -0.014 A 
BRANCH  48  49
ATOM     49  C   UNL A   1      41.103  28.674  30.455  1.00  0.00     0.031 A 
ATOM     50  C   UNL A   1      40.030  29.724  30.563  1.00  0.00     0.074 A 
ATOM     51  C   UNL A   1      41.932  28.436  31.486  1.00  0.00     0.049 A 
ATOM     52  N   UNL A   1      39.760  30.539  31.547  1.00  0.00    -0.248 NA
ATOM     53  C   UNL A   1      39.139  29.868  29.397  1.00  0.00     0.031 C 
ATOM     54  C   UNL A   1      42.976  27.415  31.525  1.00  0.00     0.029 A 
ATOM     55  N   UNL A   1      42.017  29.056  32.709  1.00  0.00    -0.354 N 
ATOM     56  C   UNL A   1      38.670  31.290  31.120  1.00  0.00     0.074 A 
ATOM     57  C   UNL A   1      38.348  30.857  29.779  1.00  0.00     0.031 C 
ATOM     58  C   UNL A   1      43.611  27.489  32.711  1.00  0.00     0.029 A 
ATOM     59  C   UNL A   1      43.036  28.579  33.500  1.00  0.00     0.049 A 
ATOM     60  H   UNL A   1      41.407  29.773  32.993  1.00  0.00     0.167 HD
ATOM     61  C   UNL A   1      37.993  32.255  31.781  1.00  0.00     0.031 A 
ATOM     62  C   UNL A   1      43.465  28.994  34.710  1.00  0.00     0.031 A 
ATOM     63  C   UNL A   1      38.337  32.716  33.097  1.00  0.00     0.049 A 
ATOM     64  C   UNL A   1      42.755  30.136  35.395  1.00  0.00     0.074 A 
ATOM     65  C   UNL A   1      37.723  33.696  33.852  1.00  0.00     0.029 A 
ATOM     66  N   UNL A   1      39.402  32.237  33.845  1.00  0.00    -0.354 N 
ATOM     67  N   UNL A   1      41.712  30.823  34.989  1.00  0.00    -0.248 NA
ATOM     68  C   UNL A   1      43.274  30.554  36.705  1.00  0.00     0.031 C 
ATOM     69  C   UNL A   1      38.451  33.849  35.037  1.00  0.00     0.029 A 
ATOM     70  C   UNL A   1      39.478  32.918  35.045  1.00  0.00     0.049 A 
ATOM     71  H   UNL A   1      40.013  31.518  33.563  1.00  0.00     0.167 HD
ATOM     72  C   UNL A   1      41.436  31.734  36.006  1.00  0.00     0.074 A 
ATOM     73  C   UNL A   1      42.414  31.503  37.050  1.00  0.00     0.031 C 
ATOM     74  C   UNL A   1      40.460  32.675  36.071  1.00  0.00     0.031 A 
BRANCH  61  75
ATOM     75  C   UNL A   1      36.843  32.900  31.058  1.00  0.00    -0.014 A 
ATOM     76  C   UNL A   1      37.059  33.759  29.964  1.00  0.00     0.010 A 
ATOM     77  C   UNL A   1      35.526  32.651  31.485  1.00  0.00     0.010 A 
ATOM     78  C   UNL A   1      35.982  34.391  29.339  1.00  0.00     0.020 A 
ATOM     79  C   UNL A   1      34.444  33.259  30.844  1.00  0.00     0.020 A 
ATOM     80  C   UNL A   1      34.682  34.140  29.786  1.00  0.00     0.054 A 
BRANCH  80  81
ATOM     81  S   UNL A   1      33.301  34.968  28.952  1.00  0.00     0.124 S 
ATOM     82  O   UNL A   1      32.384  35.216  30.062  1.00  0.00    -0.237 OA
ATOM     83  O   UNL A   1      33.934  36.156  28.385  1.00  0.00    -0.237 OA
ATOM     84  O   UNL A   1      32.844  33.983  27.975  1.00  0.00    -0.744 OA
ENDBRANCH  80  81
ENDBRANCH  61  75
BRANCH  62  85
ATOM     85  C   UNL A   1      44.644  28.341  35.346  1.00  0.00    -0.014 A 
ATOM     86  C   UNL A   1      44.511  27.117  36.024  1.00  0.00     0.010 A 
ATOM     87  C   UNL A   1      45.912  28.946  35.273  1.00  0.00     0.010 A 
ATOM     88  C   UNL A   1      45.622  26.514  36.624  1.00  0.00     0.020 A 
ATOM     89  C   UNL A   1      47.030  28.335  35.849  1.00  0.00     0.020 A 
ATOM     90  C   UNL A   1      46.876  27.125  36.528  1.00  0.00     0.054 A 
BRANCH  90  91
ATOM     91  S   UNL A   1      48.312  26.292  37.260  1.00  0.00     0.124 S 
ATOM     92  O   UNL A   1      48.440  26.977  38.542  1.00  0.00    -0.237 OA
ATOM     93  O   UNL A   1      47.867  24.902  37.327  1.00  0.00    -0.237 OA
ATOM     94  O   UNL A   1      49.383  26.549  36.301  1.00  0.00    -0.744 OA
ENDBRANCH  90  91
ENDBRANCH  62  85
BRANCH  74  95
ATOM     95  C   UNL A   1      40.370  33.503  37.327  1.00  0.00    -0.014 A 
ATOM     96  C   UNL A   1      41.041  34.733  37.444  1.00  0.00     0.010 A 
ATOM     97  C   UNL A   1      39.537  33.076  38.379  1.00  0.00     0.010 A 
ATOM     98  C   UNL A   1      40.906  35.505  38.601  1.00  0.00     0.020 A 
ATOM     99  C   UNL A   1      39.376  33.858  39.525  1.00  0.00     0.020 A 
ATOM    100  C   UNL A   1      40.072  35.062  39.634  1.00  0.00     0.054 A 
BRANCH 100 101
ATOM    101  S   UNL A   1      39.875  36.104  41.106  1.00  0.00     0.124 S 
ATOM    102  O   UNL A   1      38.431  36.321  41.134  1.00  0.00    -0.237 OA
ATOM    103  O   UNL A   1      40.404  35.256  42.173  1.00  0.00    -0.237 OA
ATOM    104  O   UNL A   1      40.677  37.286  40.803  1.00  0.00    -0.744 OA
ENDBRANCH 100 101
ENDBRANCH  74  95
ENDBRANCH  48  49
ENDBRANCH  41  43
ENDBRANCH  40  41
ENDBRANCH  39  40
ENDBRANCH  38  39
ENDBRANCH  37  38
ENDBRANCH  36  37
ENDBRANCH   1  36
TORSDOF 24
ENDMDL
MODEL 3
REMARK VINA RESULT:      -9.1      6.376     11.121
REMARK SMILES O=C(Nc1ccccc1C(=O)OCCOCCOCCOC(=O)c1ccc(-c2c3nc(c(-c4ccc(S(=O)(=O)[O-])cc4)c4ccc([nH]4)c(-c4ccc(S(=O)(=O)[O-])cc4)c4nc(c(-c5ccc(S(=O)(=O)[O-])cc5)c5ccc2[nH]5)C=C4)C=C3)cc1)c1ccc2c(c1)C(=O)N(Cc1ccccc1)C2=O
REMARK SMILES IDX 16 1 15 2 14 3 13 4 12 5 10 6 11 7 9 8 4 9 5 10 6 11 8 12
REMARK SMILES IDX 7 13 3 14 1 15 2 16 84 18 85 19 89 20 86 21 88 22 87 23
REMARK SMILES IDX 90 24 100 25 91 26 92 27 101 28 93 29 94 30 95 31 99 32
REMARK SMILES IDX 96 33 98 34 97 35 17 36 18 37 19 38 20 39 21 40 22 41 23 42
REMARK SMILES IDX 24 43 25 44 83 45 26 46 82 47 27 48 28 49 29 50 76 51 30 52
REMARK SMILES IDX 81 53 75 54 77 55 31 56 80 57 74 58 73 59 32 61 62 62 43 63
REMARK SMILES IDX 61 64 44 65 47 66 60 67 78 68 45 69 46 70 59 72 79 73 48 74
REMARK SMILES IDX 33 75 34 76 42 77 35 78 41 79 36 80 37 81 38 82 39 83 40 84
REMARK SMILES IDX 63 85 64 86 72 87 65 88 71 89 66 90 67 91 68 92 69 93 70 94
REMARK SMILES IDX 49 95 50 96 58 97 51 98 57 99 52 100 53 101 54 102 55 103
REMARK SMILES IDX 56 104
REMARK H PARENT 3 17 77 60 47 71
REMARK Flexibility Score: inf
ROOT
ATOM      1  C   UNL A   1      44.981  25.655  26.452  1.00  0.00     0.188 C 
ENDROOT
BRANCH   1   2
ATOM      2  O   UNL A   1      45.475  24.425  25.947  1.00  0.00    -0.376 OA
BRANCH   2   3
ATOM      3  C   UNL A   1      44.679  23.280  26.224  1.00  0.00     0.202 C 
BRANCH   3   4
ATOM      4  C   UNL A   1      43.871  22.659  25.082  1.00  0.00     0.261 C 
BRANCH   4   5
ATOM      5  O   UNL A   1      42.422  22.650  25.152  1.00  0.00    -0.460 OA
BRANCH   5   6
ATOM      6  C   UNL A   1      41.721  21.806  25.942  1.00  0.00     0.340 C 
ATOM      7  O   UNL A   1      42.028  20.674  26.266  1.00  0.00    -0.246 OA
BRANCH   6   8
ATOM      8  C   UNL A   1      40.575  22.567  26.503  1.00  0.00     0.083 A 
ATOM      9  C   UNL A   1      39.231  22.277  26.218  1.00  0.00     0.056 A 
ATOM     10  C   UNL A   1      38.285  23.307  26.396  1.00  0.00     0.027 A 
ATOM     11  C   UNL A   1      38.633  24.534  26.965  1.00  0.00     0.002 A 
ATOM     12  C   UNL A   1      40.913  23.783  27.135  1.00  0.00     0.018 A 
ATOM     13  C   UNL A   1      39.940  24.757  27.376  1.00  0.00     0.001 A 
BRANCH   9  14
ATOM     14  N   UNL A   1      38.677  21.060  25.760  1.00  0.00    -0.321 N 
ATOM     15  O   UNL A   1      37.280  19.514  24.913  1.00  0.00    -0.269 OA
ATOM     16  C   UNL A   1      37.524  20.706  25.101  1.00  0.00     0.255 C 
ATOM     17  H   UNL A   1      39.251  20.285  25.958  1.00  0.00     0.170 HD
BRANCH  16  18
ATOM     18  C   UNL A   1      36.548  21.683  24.593  1.00  0.00     0.041 A 
ATOM     19  C   UNL A   1      36.763  22.487  23.453  1.00  0.00     0.015 A 
ATOM     20  C   UNL A   1      35.370  21.792  25.332  1.00  0.00     0.028 A 
ATOM     21  C   UNL A   1      35.815  23.467  23.091  1.00  0.00     0.015 A 
ATOM     22  C   UNL A   1      34.538  22.852  25.038  1.00  0.00     0.054 A 
ATOM     23  C   UNL A   1      34.731  23.659  23.937  1.00  0.00     0.053 A 
ATOM     24  C   UNL A   1      33.436  23.402  25.817  1.00  0.00     0.261 C 
ATOM     25  C   UNL A   1      33.636  24.639  23.942  1.00  0.00     0.261 C 
ATOM     26  O   UNL A   1      33.038  22.917  26.864  1.00  0.00    -0.269 OA
ATOM     27  N   UNL A   1      32.979  24.492  25.139  1.00  0.00    -0.270 N 
ATOM     28  O   UNL A   1      33.343  25.327  22.985  1.00  0.00    -0.269 OA
BRANCH  27  29
ATOM     29  C   UNL A   1      31.769  25.194  25.518  1.00  0.00     0.164 C 
BRANCH  29  30
ATOM     30  C   UNL A   1      31.862  26.684  25.791  1.00  0.00    -0.028 A 
ATOM     31  C   UNL A   1      32.253  27.252  27.010  1.00  0.00     0.005 A 
ATOM     32  C   UNL A   1      31.579  27.555  24.719  1.00  0.00     0.005 A 
ATOM     33  C   UNL A   1      32.332  28.645  27.154  1.00  0.00     0.000 A 
ATOM     34  C   UNL A   1      31.667  28.942  24.860  1.00  0.00     0.000 A 
ATOM     35  C   UNL A   1      32.042  29.488  26.082  1.00  0.00     0.000 A 
ENDBRANCH  29  30
ENDBRANCH  27  29
ENDBRANCH  16  18
ENDBRANCH   9  14
ENDBRANCH   6   8
ENDBRANCH   5   6
ENDBRANCH   4   5
ENDBRANCH   3   4
ENDBRANCH   2   3
ENDBRANCH   1   2
BRANCH   1  36
ATOM     36  C   UNL A   1      45.730  26.114  27.716  1.00  0.00     0.188 C 
BRANCH  36  37
ATOM     37  O   UNL A   1      44.862  26.446  28.788  1.00  0.00    -0.376 OA
BRANCH  37  38
ATOM     38  C   UNL A   1      44.014  25.441  29.326  1.00  0.00     0.202 C 
BRANCH  38  39
ATOM     39  C   UNL A   1      44.536  24.335  30.268  1.00  0.00     0.261 C 
BRANCH  39  40
ATOM     40  O   UNL A   1      45.099  24.732  31.526  1.00  0.00    -0.460 OA
BRANCH  40  41
ATOM     41  C   UNL A   1      44.500  24.336  32.667  1.00  0.00     0.338 C 
ATOM     42  O   UNL A   1      44.559  23.234  33.180  1.00  0.00    -0.246 OA
BRANCH  41  43
ATOM     43  C   UNL A   1      43.992  25.569  33.325  1.00  0.00     0.060 A 
ATOM     44  C   UNL A   1      44.412  26.814  32.833  1.00  0.00     0.016 A 
ATOM     45  C   UNL A   1      43.027  25.503  34.336  1.00  0.00     0.016 A 
ATOM     46  C   UNL A   1      43.890  27.993  33.367  1.00  0.00     0.010 A 
ATOM     47  C   UNL A   1      42.535  26.683  34.901  1.00  0.00     0.010 A 
ATOM     48  C   UNL A   1      42.996  27.931  34.445  1.00  0.00    -0.014 A 
BRANCH  48  49
ATOM     49  C   UNL A   1      42.810  29.136  35.287  1.00  0.00     0.031 A 
ATOM     50  C   UNL A   1      41.684  30.061  34.910  1.00  0.00     0.074 A 
ATOM     51  C   UNL A   1      43.579  29.398  36.359  1.00  0.00     0.049 A 
ATOM     52  N   UNL A   1      41.310  31.184  35.461  1.00  0.00    -0.248 NA
ATOM     53  C   UNL A   1      40.867  29.654  33.752  1.00  0.00     0.031 C 
ATOM     54  C   UNL A   1      44.665  28.558  36.857  1.00  0.00     0.029 A 
ATOM     55  N   UNL A   1      43.553  30.467  37.222  1.00  0.00    -0.354 N 
ATOM     56  C   UNL A   1      40.218  31.617  34.717  1.00  0.00     0.074 A 
ATOM     57  C   UNL A   1      40.007  30.654  33.661  1.00  0.00     0.031 C 
ATOM     58  C   UNL A   1      45.215  29.153  37.933  1.00  0.00     0.029 A 
ATOM     59  C   UNL A   1      44.538  30.426  38.180  1.00  0.00     0.049 A 
ATOM     60  H   UNL A   1      42.892  31.192  37.161  1.00  0.00     0.167 HD
ATOM     61  C   UNL A   1      39.453  32.718  34.895  1.00  0.00     0.031 A 
ATOM     62  C   UNL A   1      44.866  31.327  39.129  1.00  0.00     0.031 A 
ATOM     63  C   UNL A   1      39.686  33.697  35.919  1.00  0.00     0.049 A 
ATOM     64  C   UNL A   1      44.058  32.596  39.254  1.00  0.00     0.074 A 
ATOM     65  C   UNL A   1      38.977  34.855  36.178  1.00  0.00     0.029 A 
ATOM     66  N   UNL A   1      40.721  33.641  36.841  1.00  0.00    -0.354 N 
ATOM     67  N   UNL A   1      43.013  32.983  38.560  1.00  0.00    -0.248 NA
ATOM     68  C   UNL A   1      44.469  33.547  40.298  1.00  0.00     0.031 C 
ATOM     69  C   UNL A   1      39.617  35.528  37.224  1.00  0.00     0.029 A 
ATOM     70  C   UNL A   1      40.684  34.756  37.657  1.00  0.00     0.049 A 
ATOM     71  H   UNL A   1      41.382  32.915  36.904  1.00  0.00     0.167 HD
ATOM     72  C   UNL A   1      42.628  34.208  39.100  1.00  0.00     0.074 A 
ATOM     73  C   UNL A   1      43.543  34.491  40.186  1.00  0.00     0.031 C 
ATOM     74  C   UNL A   1      41.606  35.022  38.733  1.00  0.00     0.031 A 
BRANCH  61  75
ATOM     75  C   UNL A   1      38.324  32.930  33.924  1.00  0.00    -0.014 A 
ATOM     76  C   UNL A   1      38.488  33.734  32.781  1.00  0.00     0.010 A 
ATOM     77  C   UNL A   1      37.079  32.322  34.163  1.00  0.00     0.010 A 
ATOM     78  C   UNL A   1      37.413  33.963  31.919  1.00  0.00     0.020 A 
ATOM     79  C   UNL A   1      36.010  32.525  33.288  1.00  0.00     0.020 A 
ATOM     80  C   UNL A   1      36.180  33.360  32.181  1.00  0.00     0.054 A 
BRANCH  80  81
ATOM     81  S   UNL A   1      34.803  33.668  31.041  1.00  0.00     0.124 S 
ATOM     82  O   UNL A   1      35.465  34.389  29.957  1.00  0.00    -0.237 OA
ATOM     83  O   UNL A   1      34.352  32.318  30.712  1.00  0.00    -0.237 OA
ATOM     84  O   UNL A   1      33.866  34.459  31.834  1.00  0.00    -0.744 OA
ENDBRANCH  80  81
ENDBRANCH  61  75
BRANCH  62  85
ATOM     85  C   UNL A   1      46.029  31.075  40.025  1.00  0.00    -0.014 A 
ATOM     86  C   UNL A   1      47.321  31.495  39.664  1.00  0.00     0.010 A 
ATOM     87  C   UNL A   1      45.845  30.411  41.252  1.00  0.00     0.010 A 
ATOM     88  C   UNL A   1      48.409  31.248  40.509  1.00  0.00     0.020 A 
ATOM     89  C   UNL A   1      46.926  30.185  42.111  1.00  0.00     0.020 A 
ATOM     90  C   UNL A   1      48.203  30.599  41.730  1.00  0.00     0.054 A 
BRANCH  90  91
ATOM     91  S   UNL A   1      49.620  30.347  42.836  1.00  0.00     0.124 S 
ATOM     92  O   UNL A   1      50.053  31.716  43.092  1.00  0.00    -0.237 OA
ATOM     93  O   UNL A   1      49.013  29.652  43.968  1.00  0.00    -0.237 OA
ATOM     94  O   UNL A   1      50.537  29.538  42.037  1.00  0.00    -0.744 OA
ENDBRANCH  90  91
ENDBRANCH  62  85
BRANCH  74  95
ATOM     95  C   UNL A   1      41.393  36.281  39.532  1.00  0.00    -0.014 A 
ATOM     96  C   UNL A   1      41.993  37.497  39.160  1.00  0.00     0.010 A 
ATOM     97  C   UNL A   1      40.516  36.261  40.633  1.00  0.00     0.010 A 
ATOM     98  C   UNL A   1      41.745  38.661  39.891  1.00  0.00     0.020 A 
ATOM     99  C   UNL A   1      40.242  37.428  41.349  1.00  0.00     0.020 A 
ATOM    100  C   UNL A   1      40.869  38.619  40.982  1.00  0.00     0.054 A 
BRANCH 100 101
ATOM    101  S   UNL A   1      40.525  40.153  41.886  1.00  0.00     0.124 S 
ATOM    102  O   UNL A   1      40.470  41.137  40.808  1.00  0.00    -0.237 OA
ATOM    103  O   UNL A   1      39.250  39.864  42.538  1.00  0.00    -0.237 OA
ATOM    104  O   UNL A   1      41.664  40.285  42.791  1.00  0.00    -0.744 OA
ENDBRANCH 100 101
ENDBRANCH  74  95
ENDBRANCH  48  49
ENDBRANCH  41  43
ENDBRANCH  40  41
ENDBRANCH  39  40
ENDBRANCH  38  39
ENDBRANCH  37  38
ENDBRANCH  36  37
ENDBRANCH   1  36
TORSDOF 24
ENDMDL
