MODEL 1
REMARK VINA RESULT:      -9.0      0.000      0.000
REMARK SMILES C[C@@](NC(=O)CCOC1CC[NH2+]CC1)(C(=O)OCCOCCOCCOC(=O)c1ccc(-c2c3nc(c(-c4ccc(S(=O)(=O)[O-])cc4)c4ccc([nH]4)c(-c4ccc(S(=O)(=O)[O-])cc4)c4nc(c(-c5ccc(S(=O)(=O)[O-])cc5)c5ccc2[nH]5)C=C4)C=C3)cc1)C(F)(F)F
REMARK SMILES IDX 21 1 20 2 19 3 18 4 17 5 15 6 16 7 2 8 1 9 3 10 4 11 5 13
REMARK SMILES IDX 6 14 7 15 8 16 9 17 10 18 14 19 11 20 13 21 12 22 89 25
REMARK SMILES IDX 90 26 91 27 92 28 22 29 23 30 24 31 25 32 26 33 27 34 28 35
REMARK SMILES IDX 29 36 30 37 88 38 31 39 87 40 32 41 33 42 34 43 81 44 35 45
REMARK SMILES IDX 86 46 80 47 82 48 36 49 85 50 79 51 78 52 37 54 67 55 48 56
REMARK SMILES IDX 66 57 49 58 52 59 65 60 83 61 50 62 51 63 64 65 84 66 53 67
REMARK SMILES IDX 38 68 39 69 47 70 40 71 46 72 41 73 42 74 43 75 44 76 45 77
REMARK SMILES IDX 68 78 69 79 77 80 70 81 76 82 71 83 72 84 73 85 74 86 75 87
REMARK SMILES IDX 54 88 55 89 63 90 56 91 62 92 57 93 58 94 59 95 60 96 61 97
REMARK H PARENT 3 12 12 23 12 24 82 53 52 64
REMARK Flexibility Score: inf
ROOT
ATOM      1  C   UNL A   1      42.513  21.008  25.709  1.00  0.00     0.188 C 
ENDROOT
BRANCH   1   2
ATOM      2  O   UNL A   1      41.716  20.199  26.554  1.00  0.00    -0.376 OA
BRANCH   2   3
ATOM      3  C   UNL A   1      40.309  20.325  26.406  1.00  0.00     0.202 C 
BRANCH   3   4
ATOM      4  C   UNL A   1      39.749  21.752  26.430  1.00  0.00     0.261 C 
BRANCH   4   5
ATOM      5  O   UNL A   1      38.536  21.831  25.648  1.00  0.00    -0.461 OA
BRANCH   5   6
ATOM      6  C   UNL A   1      37.615  22.834  25.686  1.00  0.00     0.341 C 
ATOM      7  O   UNL A   1      37.946  23.994  25.881  1.00  0.00    -0.249 OA
BRANCH   6   8
ATOM      8  C   UNL A   1      36.098  22.288  25.415  1.00  0.00     0.231 C 
ATOM      9  C   UNL A   1      36.082  20.748  25.202  1.00  0.00     0.058 C 
BRANCH   8  10
ATOM     10  N   UNL A   1      34.627  22.708  26.366  1.00  0.00    -0.333 N 
ATOM     11  C   UNL A   1      32.870  23.326  26.496  1.00  0.00     0.223 C 
ATOM     12  H   UNL A   1      34.880  22.509  27.297  1.00  0.00     0.164 HD
ATOM     13  O   UNL A   1      32.142  23.246  27.524  1.00  0.00    -0.275 OA
BRANCH  11  14
ATOM     14  C   UNL A   1      31.883  23.996  25.332  1.00  0.00     0.128 C 
BRANCH  14  15
ATOM     15  C   UNL A   1      32.072  23.548  23.922  1.00  0.00     0.170 C 
BRANCH  15  16
ATOM     16  O   UNL A   1      32.035  24.712  23.157  1.00  0.00    -0.377 OA
BRANCH  16  17
ATOM     17  C   UNL A   1      31.972  25.804  24.067  1.00  0.00     0.129 C 
ATOM     18  C   UNL A   1      30.317  26.929  23.830  1.00  0.00     0.093 C 
ATOM     19  C   UNL A   1      33.673  26.729  24.264  1.00  0.00     0.093 C 
ATOM     20  C   UNL A   1      30.538  28.872  23.892  1.00  0.00     0.263 C 
ATOM     21  C   UNL A   1      33.696  28.628  24.443  1.00  0.00     0.263 C 
ATOM     22  N   UNL A   1      32.152  29.665  24.385  1.00  0.00    -0.346 N 
ATOM     23  H   UNL A   1      32.019  30.053  25.318  1.00  0.00     0.346 HD
ATOM     24  H   UNL A   1      32.334  30.328  23.632  1.00  0.00     0.346 HD
ENDBRANCH  16  17
ENDBRANCH  15  16
ENDBRANCH  14  15
ENDBRANCH  11  14
ENDBRANCH   8  10
BRANCH   8  25
ATOM     25  C   UNL A   1      35.894  22.834  23.954  1.00  0.00     0.422 C 
ATOM     26  F   UNL A   1      34.839  22.260  23.328  1.00  0.00    -0.168 F 
ATOM     27  F   UNL A   1      35.628  24.164  23.986  1.00  0.00    -0.168 F 
ATOM     28  F   UNL A   1      36.984  22.662  23.180  1.00  0.00    -0.168 F 
ENDBRANCH   8  25
ENDBRANCH   6   8
ENDBRANCH   5   6
ENDBRANCH   4   5
ENDBRANCH   3   4
ENDBRANCH   2   3
ENDBRANCH   1   2
BRANCH   1  29
ATOM     29  C   UNL A   1      43.562  21.926  26.367  1.00  0.00     0.188 C 
BRANCH  29  30
ATOM     30  O   UNL A   1      43.467  23.328  26.273  1.00  0.00    -0.376 OA
BRANCH  30  31
ATOM     31  C   UNL A   1      44.397  24.017  25.457  1.00  0.00     0.202 C 
BRANCH  31  32
ATOM     32  C   UNL A   1      45.020  25.375  25.863  1.00  0.00     0.261 C 
BRANCH  32  33
ATOM     33  O   UNL A   1      44.543  26.545  25.175  1.00  0.00    -0.460 OA
BRANCH  33  34
ATOM     34  C   UNL A   1      43.241  26.880  25.374  1.00  0.00     0.338 C 
ATOM     35  O   UNL A   1      42.286  26.519  24.686  1.00  0.00    -0.246 OA
BRANCH  34  36
ATOM     36  C   UNL A   1      43.081  27.481  26.725  1.00  0.00     0.060 A 
ATOM     37  C   UNL A   1      42.256  26.821  27.656  1.00  0.00     0.016 A 
ATOM     38  C   UNL A   1      43.797  28.614  27.119  1.00  0.00     0.016 A 
ATOM     39  C   UNL A   1      42.115  27.307  28.958  1.00  0.00     0.010 A 
ATOM     40  C   UNL A   1      43.629  29.122  28.416  1.00  0.00     0.010 A 
ATOM     41  C   UNL A   1      42.749  28.500  29.324  1.00  0.00    -0.014 A 
BRANCH  41  42
ATOM     42  C   UNL A   1      42.226  29.263  30.491  1.00  0.00     0.031 A 
ATOM     43  C   UNL A   1      43.031  29.187  31.766  1.00  0.00     0.074 A 
ATOM     44  C   UNL A   1      41.120  30.029  30.445  1.00  0.00     0.049 A 
ATOM     45  N   UNL A   1      42.806  29.735  32.932  1.00  0.00    -0.248 NA
ATOM     46  C   UNL A   1      44.260  28.374  31.713  1.00  0.00     0.031 C 
ATOM     47  C   UNL A   1      40.284  30.256  29.269  1.00  0.00     0.029 A 
ATOM     48  N   UNL A   1      40.515  30.768  31.435  1.00  0.00    -0.354 N 
ATOM     49  C   UNL A   1      43.854  29.322  33.748  1.00  0.00     0.074 A 
ATOM     50  C   UNL A   1      44.696  28.454  32.957  1.00  0.00     0.031 C 
ATOM     51  C   UNL A   1      39.270  31.077  29.607  1.00  0.00     0.029 A 
ATOM     52  C   UNL A   1      39.368  31.411  31.029  1.00  0.00     0.049 A 
ATOM     53  H   UNL A   1      40.869  30.831  32.351  1.00  0.00     0.167 HD
ATOM     54  C   UNL A   1      44.105  29.637  35.040  1.00  0.00     0.031 A 
ATOM     55  C   UNL A   1      38.496  32.171  31.727  1.00  0.00     0.031 A 
ATOM     56  C   UNL A   1      43.265  30.485  35.840  1.00  0.00     0.049 A 
ATOM     57  C   UNL A   1      38.745  32.433  33.195  1.00  0.00     0.074 A 
ATOM     58  C   UNL A   1      43.441  30.872  37.156  1.00  0.00     0.029 A 
ATOM     59  N   UNL A   1      42.085  31.065  35.404  1.00  0.00    -0.354 N 
ATOM     60  N   UNL A   1      39.752  32.055  33.947  1.00  0.00    -0.248 NA
ATOM     61  C   UNL A   1      37.738  33.237  33.906  1.00  0.00     0.031 C 
ATOM     62  C   UNL A   1      42.330  31.631  37.538  1.00  0.00     0.029 A 
ATOM     63  C   UNL A   1      41.503  31.781  36.435  1.00  0.00     0.049 A 
ATOM     64  H   UNL A   1      41.716  30.982  34.496  1.00  0.00     0.167 HD
ATOM     65  C   UNL A   1      39.521  32.612  35.204  1.00  0.00     0.074 A 
ATOM     66  C   UNL A   1      38.284  33.356  35.109  1.00  0.00     0.031 C 
ATOM     67  C   UNL A   1      40.271  32.523  36.332  1.00  0.00     0.031 A 
BRANCH  54  68
ATOM     68  C   UNL A   1      45.314  29.005  35.680  1.00  0.00    -0.014 A 
ATOM     69  C   UNL A   1      45.239  27.755  36.321  1.00  0.00     0.010 A 
ATOM     70  C   UNL A   1      46.548  29.679  35.635  1.00  0.00     0.010 A 
ATOM     71  C   UNL A   1      46.364  27.215  36.949  1.00  0.00     0.020 A 
ATOM     72  C   UNL A   1      47.683  29.125  36.231  1.00  0.00     0.020 A 
ATOM     73  C   UNL A   1      47.579  27.905  36.902  1.00  0.00     0.054 A 
BRANCH  73  74
ATOM     74  S   UNL A   1      49.026  27.177  37.715  1.00  0.00     0.124 S 
ATOM     75  O   UNL A   1      50.007  28.255  37.607  1.00  0.00    -0.237 OA
ATOM     76  O   UNL A   1      48.534  26.911  39.064  1.00  0.00    -0.237 OA
ATOM     77  O   UNL A   1      49.315  25.990  36.915  1.00  0.00    -0.744 OA
ENDBRANCH  73  74
ENDBRANCH  54  68
BRANCH  55  78
ATOM     78  C   UNL A   1      37.291  32.745  31.059  1.00  0.00    -0.014 A 
ATOM     79  C   UNL A   1      37.368  33.967  30.365  1.00  0.00     0.010 A 
ATOM     80  C   UNL A   1      36.049  32.088  31.140  1.00  0.00     0.010 A 
ATOM     81  C   UNL A   1      36.227  34.527  29.781  1.00  0.00     0.020 A 
ATOM     82  C   UNL A   1      34.912  32.632  30.532  1.00  0.00     0.020 A 
ATOM     83  C   UNL A   1      35.006  33.854  29.864  1.00  0.00     0.054 A 
BRANCH  83  84
ATOM     84  S   UNL A   1      33.550  34.576  29.054  1.00  0.00     0.124 S 
ATOM     85  O   UNL A   1      34.123  35.725  28.362  1.00  0.00    -0.237 OA
ATOM     86  O   UNL A   1      33.093  33.484  28.198  1.00  0.00    -0.237 OA
ATOM     87  O   UNL A   1      32.661  34.896  30.169  1.00  0.00    -0.744 OA
ENDBRANCH  83  84
ENDBRANCH  55  78
BRANCH  67  88
ATOM     88  C   UNL A   1      39.811  33.289  37.547  1.00  0.00    -0.014 A 
ATOM     89  C   UNL A   1      38.843  32.774  38.427  1.00  0.00     0.010 A 
ATOM     90  C   UNL A   1      40.404  34.533  37.841  1.00  0.00     0.010 A 
ATOM     91  C   UNL A   1      38.445  33.506  39.550  1.00  0.00     0.020 A 
ATOM     92  C   UNL A   1      40.034  35.253  38.979  1.00  0.00     0.020 A 
ATOM     93  C   UNL A   1      39.042  34.742  39.818  1.00  0.00     0.054 A 
BRANCH  93  94
ATOM     94  S   UNL A   1      38.527  35.661  41.295  1.00  0.00     0.124 S 
ATOM     95  O   UNL A   1      37.310  34.955  41.684  1.00  0.00    -0.237 OA
ATOM     96  O   UNL A   1      39.667  35.489  42.193  1.00  0.00    -0.237 OA
ATOM     97  O   UNL A   1      38.327  37.023  40.805  1.00  0.00    -0.744 OA
ENDBRANCH  93  94
ENDBRANCH  67  88
ENDBRANCH  41  42
ENDBRANCH  34  36
ENDBRANCH  33  34
ENDBRANCH  32  33
ENDBRANCH  31  32
ENDBRANCH  30  31
ENDBRANCH  29  30
ENDBRANCH   1  29
TORSDOF 26
ENDMDL
MODEL 2
REMARK VINA RESULT:      -8.9      5.895     11.936
REMARK SMILES C[C@@](NC(=O)CCOC1CC[NH2+]CC1)(C(=O)OCCOCCOCCOC(=O)c1ccc(-c2c3nc(c(-c4ccc(S(=O)(=O)[O-])cc4)c4ccc([nH]4)c(-c4ccc(S(=O)(=O)[O-])cc4)c4nc(c(-c5ccc(S(=O)(=O)[O-])cc5)c5ccc2[nH]5)C=C4)C=C3)cc1)C(F)(F)F
REMARK SMILES IDX 21 1 20 2 19 3 18 4 17 5 15 6 16 7 2 8 1 9 3 10 4 11 5 13
REMARK SMILES IDX 6 14 7 15 8 16 9 17 10 18 14 19 11 20 13 21 12 22 89 25
REMARK SMILES IDX 90 26 91 27 92 28 22 29 23 30 24 31 25 32 26 33 27 34 28 35
REMARK SMILES IDX 29 36 30 37 88 38 31 39 87 40 32 41 33 42 34 43 81 44 35 45
REMARK SMILES IDX 86 46 80 47 82 48 36 49 85 50 79 51 78 52 37 54 67 55 48 56
REMARK SMILES IDX 66 57 49 58 52 59 65 60 83 61 50 62 51 63 64 65 84 66 53 67
REMARK SMILES IDX 38 68 39 69 47 70 40 71 46 72 41 73 42 74 43 75 44 76 45 77
REMARK SMILES IDX 68 78 69 79 77 80 70 81 76 82 71 83 72 84 73 85 74 86 75 87
REMARK SMILES IDX 54 88 55 89 63 90 56 91 62 92 57 93 58 94 59 95 60 96 61 97
REMARK H PARENT 3 12 12 23 12 24 82 53 52 64
REMARK Flexibility Score: inf
ROOT
ATOM      1  C   UNL A   1      34.209  33.547  28.030  1.00  0.00     0.188 C 
ENDROOT
BRANCH   1   2
ATOM      2  O   UNL A   1      34.700  32.265  27.685  1.00  0.00    -0.376 OA
BRANCH   2   3
ATOM      3  C   UNL A   1      33.741  31.219  27.618  1.00  0.00     0.202 C 
BRANCH   3   4
ATOM      4  C   UNL A   1      34.262  29.847  27.175  1.00  0.00     0.261 C 
BRANCH   4   5
ATOM      5  O   UNL A   1      33.285  29.181  26.344  1.00  0.00    -0.461 OA
BRANCH   5   6
ATOM      6  C   UNL A   1      32.209  28.468  26.777  1.00  0.00     0.341 C 
ATOM      7  O   UNL A   1      31.457  28.909  27.633  1.00  0.00    -0.249 OA
BRANCH   6   8
ATOM      8  C   UNL A   1      32.065  27.036  26.001  1.00  0.00     0.231 C 
ATOM      9  C   UNL A   1      33.437  26.551  25.452  1.00  0.00     0.058 C 
BRANCH   8  10
ATOM     10  N   UNL A   1      31.188  25.581  26.601  1.00  0.00    -0.333 N 
ATOM     11  C   UNL A   1      30.856  23.744  26.605  1.00  0.00     0.223 C 
ATOM     12  H   UNL A   1      30.562  25.939  27.271  1.00  0.00     0.164 HD
ATOM     13  O   UNL A   1      30.164  23.129  27.464  1.00  0.00    -0.275 OA
BRANCH  11  14
ATOM     14  C   UNL A   1      31.435  22.549  25.599  1.00  0.00     0.128 C 
BRANCH  14  15
ATOM     15  C   UNL A   1      32.596  21.743  26.077  1.00  0.00     0.170 C 
BRANCH  15  16
ATOM     16  O   UNL A   1      33.590  21.922  25.116  1.00  0.00    -0.377 OA
BRANCH  16  17
ATOM     17  C   UNL A   1      34.839  21.750  25.774  1.00  0.00     0.129 C 
ATOM     18  C   UNL A   1      35.776  23.495  26.146  1.00  0.00     0.093 C 
ATOM     19  C   UNL A   1      35.897  20.297  25.030  1.00  0.00     0.093 C 
ATOM     20  C   UNL A   1      37.700  23.570  25.800  1.00  0.00     0.263 C 
ATOM     21  C   UNL A   1      37.789  20.489  24.882  1.00  0.00     0.263 C 
ATOM     22  N   UNL A   1      38.685  22.044  25.375  1.00  0.00    -0.346 N 
ATOM     23  H   UNL A   1      39.248  21.816  26.194  1.00  0.00     0.346 HD
ATOM     24  H   UNL A   1      39.190  22.311  24.529  1.00  0.00     0.346 HD
ENDBRANCH  16  17
ENDBRANCH  15  16
ENDBRANCH  14  15
ENDBRANCH  11  14
ENDBRANCH   8  10
BRANCH   8  25
ATOM     25  C   UNL A   1      31.335  27.530  24.698  1.00  0.00     0.422 C 
ATOM     26  F   UNL A   1      31.612  28.823  24.407  1.00  0.00    -0.168 F 
ATOM     27  F   UNL A   1      31.753  26.809  23.628  1.00  0.00    -0.168 F 
ATOM     28  F   UNL A   1      29.996  27.396  24.774  1.00  0.00    -0.168 F 
ENDBRANCH   8  25
ENDBRANCH   6   8
ENDBRANCH   5   6
ENDBRANCH   4   5
ENDBRANCH   3   4
ENDBRANCH   2   3
ENDBRANCH   1   2
BRANCH   1  29
ATOM     29  C   UNL A   1      35.146  34.498  28.801  1.00  0.00     0.188 C 
BRANCH  29  30
ATOM     30  O   UNL A   1      35.975  34.025  29.836  1.00  0.00    -0.376 OA
BRANCH  30  31
ATOM     31  C   UNL A   1      35.368  33.517  31.011  1.00  0.00     0.202 C 
BRANCH  31  32
ATOM     32  C   UNL A   1      35.320  32.006  31.342  1.00  0.00     0.261 C 
BRANCH  32  33
ATOM     33  O   UNL A   1      36.547  31.392  31.776  1.00  0.00    -0.460 OA
BRANCH  33  34
ATOM     34  C   UNL A   1      36.900  30.235  31.157  1.00  0.00     0.338 C 
ATOM     35  O   UNL A   1      36.127  29.390  30.704  1.00  0.00    -0.246 OA
BRANCH  34  36
ATOM     36  C   UNL A   1      38.346  30.274  30.812  1.00  0.00     0.060 A 
ATOM     37  C   UNL A   1      38.726  30.877  29.597  1.00  0.00     0.016 A 
ATOM     38  C   UNL A   1      39.330  29.824  31.695  1.00  0.00     0.016 A 
ATOM     39  C   UNL A   1      40.073  30.996  29.248  1.00  0.00     0.010 A 
ATOM     40  C   UNL A   1      40.681  29.911  31.329  1.00  0.00     0.010 A 
ATOM     41  C   UNL A   1      41.055  30.451  30.083  1.00  0.00    -0.014 A 
BRANCH  41  42
ATOM     42  C   UNL A   1      42.391  30.134  29.508  1.00  0.00     0.031 A 
ATOM     43  C   UNL A   1      42.594  28.726  28.999  1.00  0.00     0.074 A 
ATOM     44  C   UNL A   1      43.383  31.036  29.386  1.00  0.00     0.049 A 
ATOM     45  N   UNL A   1      43.651  28.173  28.466  1.00  0.00    -0.248 NA
ATOM     46  C   UNL A   1      41.436  27.820  29.115  1.00  0.00     0.031 C 
ATOM     47  C   UNL A   1      43.311  32.445  29.765  1.00  0.00     0.029 A 
ATOM     48  N   UNL A   1      44.660  30.885  28.897  1.00  0.00    -0.354 N 
ATOM     49  C   UNL A   1      43.290  26.856  28.198  1.00  0.00     0.074 A 
ATOM     50  C   UNL A   1      41.931  26.684  28.656  1.00  0.00     0.031 C 
ATOM     51  C   UNL A   1      44.495  33.029  29.496  1.00  0.00     0.029 A 
ATOM     52  C   UNL A   1      45.419  32.031  28.954  1.00  0.00     0.049 A 
ATOM     53  H   UNL A   1      45.002  30.033  28.538  1.00  0.00     0.167 HD
ATOM     54  C   UNL A   1      44.016  25.873  27.618  1.00  0.00     0.031 A 
ATOM     55  C   UNL A   1      46.709  32.245  28.618  1.00  0.00     0.031 A 
ATOM     56  C   UNL A   1      45.374  26.029  27.175  1.00  0.00     0.049 A 
ATOM     57  C   UNL A   1      47.533  31.107  28.059  1.00  0.00     0.074 A 
ATOM     58  C   UNL A   1      46.191  25.095  26.566  1.00  0.00     0.029 A 
ATOM     59  N   UNL A   1      46.119  27.190  27.307  1.00  0.00    -0.354 N 
ATOM     60  N   UNL A   1      47.171  29.874  27.789  1.00  0.00    -0.248 NA
ATOM     61  C   UNL A   1      48.942  31.397  27.747  1.00  0.00     0.031 C 
ATOM     62  C   UNL A   1      47.454  25.669  26.391  1.00  0.00     0.029 A 
ATOM     63  C   UNL A   1      47.399  26.986  26.820  1.00  0.00     0.049 A 
ATOM     64  H   UNL A   1      45.788  28.034  27.689  1.00  0.00     0.167 HD
ATOM     65  C   UNL A   1      48.293  29.258  27.238  1.00  0.00     0.074 A 
ATOM     66  C   UNL A   1      49.342  30.253  27.207  1.00  0.00     0.031 C 
ATOM     67  C   UNL A   1      48.438  27.985  26.790  1.00  0.00     0.031 A 
BRANCH  54  68
ATOM     68  C   UNL A   1      43.364  24.521  27.487  1.00  0.00    -0.014 A 
ATOM     69  C   UNL A   1      43.462  23.554  28.504  1.00  0.00     0.010 A 
ATOM     70  C   UNL A   1      42.638  24.217  26.322  1.00  0.00     0.010 A 
ATOM     71  C   UNL A   1      42.889  22.291  28.336  1.00  0.00     0.020 A 
ATOM     72  C   UNL A   1      42.033  22.968  26.165  1.00  0.00     0.020 A 
ATOM     73  C   UNL A   1      42.179  22.005  27.166  1.00  0.00     0.054 A 
BRANCH  73  74
ATOM     74  S   UNL A   1      41.436  20.363  26.978  1.00  0.00     0.124 S 
ATOM     75  O   UNL A   1      40.118  20.558  27.577  1.00  0.00    -0.237 OA
ATOM     76  O   UNL A   1      41.445  20.173  25.529  1.00  0.00    -0.237 OA
ATOM     77  O   UNL A   1      42.335  19.486  27.724  1.00  0.00    -0.744 OA
ENDBRANCH  73  74
ENDBRANCH  54  68
BRANCH  55  78
ATOM     78  C   UNL A   1      47.324  33.593  28.801  1.00  0.00    -0.014 A 
ATOM     79  C   UNL A   1      47.929  33.947  30.021  1.00  0.00     0.010 A 
ATOM     80  C   UNL A   1      47.279  34.545  27.765  1.00  0.00     0.010 A 
ATOM     81  C   UNL A   1      48.462  35.227  30.207  1.00  0.00     0.020 A 
ATOM     82  C   UNL A   1      47.836  35.816  27.938  1.00  0.00     0.020 A 
ATOM     83  C   UNL A   1      48.416  36.154  29.162  1.00  0.00     0.054 A 
BRANCH  83  84
ATOM     84  S   UNL A   1      49.159  37.792  29.409  1.00  0.00     0.124 S 
ATOM     85  O   UNL A   1      50.209  37.507  30.382  1.00  0.00    -0.237 OA
ATOM     86  O   UNL A   1      49.616  38.136  28.065  1.00  0.00    -0.237 OA
ATOM     87  O   UNL A   1      48.048  38.600  29.907  1.00  0.00    -0.744 OA
ENDBRANCH  83  84
ENDBRANCH  55  78
BRANCH  67  88
ATOM     88  C   UNL A   1      49.760  27.600  26.174  1.00  0.00    -0.014 A 
ATOM     89  C   UNL A   1      49.909  27.427  24.786  1.00  0.00     0.010 A 
ATOM     90  C   UNL A   1      50.891  27.462  27.001  1.00  0.00     0.010 A 
ATOM     91  C   UNL A   1      51.150  27.079  24.245  1.00  0.00     0.020 A 
ATOM     92  C   UNL A   1      52.141  27.147  26.461  1.00  0.00     0.020 A 
ATOM     93  C   UNL A   1      52.259  26.939  25.087  1.00  0.00     0.054 A 
BRANCH  93  94
ATOM     94  S   UNL A   1      53.863  26.513  24.357  1.00  0.00     0.124 S 
ATOM     95  O   UNL A   1      54.306  25.417  25.214  1.00  0.00    -0.237 OA
ATOM     96  O   UNL A   1      53.505  26.137  22.991  1.00  0.00    -0.237 OA
ATOM     97  O   UNL A   1      54.638  27.747  24.475  1.00  0.00    -0.744 OA
ENDBRANCH  93  94
ENDBRANCH  67  88
ENDBRANCH  41  42
ENDBRANCH  34  36
ENDBRANCH  33  34
ENDBRANCH  32  33
ENDBRANCH  31  32
ENDBRANCH  30  31
ENDBRANCH  29  30
ENDBRANCH   1  29
TORSDOF 26
ENDMDL
MODEL 3
REMARK VINA RESULT:      -8.0      5.888     11.417
REMARK SMILES C[C@@](NC(=O)CCOC1CC[NH2+]CC1)(C(=O)OCCOCCOCCOC(=O)c1ccc(-c2c3nc(c(-c4ccc(S(=O)(=O)[O-])cc4)c4ccc([nH]4)c(-c4ccc(S(=O)(=O)[O-])cc4)c4nc(c(-c5ccc(S(=O)(=O)[O-])cc5)c5ccc2[nH]5)C=C4)C=C3)cc1)C(F)(F)F
REMARK SMILES IDX 21 1 20 2 19 3 18 4 17 5 15 6 16 7 2 8 1 9 3 10 4 11 5 13
REMARK SMILES IDX 6 14 7 15 8 16 9 17 10 18 14 19 11 20 13 21 12 22 89 25
REMARK SMILES IDX 90 26 91 27 92 28 22 29 23 30 24 31 25 32 26 33 27 34 28 35
REMARK SMILES IDX 29 36 30 37 88 38 31 39 87 40 32 41 33 42 34 43 81 44 35 45
REMARK SMILES IDX 86 46 80 47 82 48 36 49 85 50 79 51 78 52 37 54 67 55 48 56
REMARK SMILES IDX 66 57 49 58 52 59 65 60 83 61 50 62 51 63 64 65 84 66 53 67
REMARK SMILES IDX 38 68 39 69 47 70 40 71 46 72 41 73 42 74 43 75 44 76 45 77
REMARK SMILES IDX 68 78 69 79 77 80 70 81 76 82 71 83 72 84 73 85 74 86 75 87
REMARK SMILES IDX 54 88 55 89 63 90 56 91 62 92 57 93 58 94 59 95 60 96 61 97
REMARK H PARENT 3 12 12 23 12 24 82 53 52 64
REMARK Flexibility Score: inf
ROOT
ATOM      1  C   UNL A   1      41.483  34.592  30.164  1.00  0.00     0.188 C 
ENDROOT
BRANCH   1   2
ATOM      2  O   UNL A   1      40.423  33.766  30.610  1.00  0.00    -0.376 OA
BRANCH   2   3
ATOM      3  C   UNL A   1      40.761  32.758  31.552  1.00  0.00     0.202 C 
BRANCH   3   4
ATOM      4  C   UNL A   1      42.143  32.114  31.392  1.00  0.00     0.261 C 
BRANCH   4   5
ATOM      5  O   UNL A   1      42.136  30.768  31.918  1.00  0.00    -0.461 OA
BRANCH   5   6
ATOM      6  C   UNL A   1      42.682  30.360  33.097  1.00  0.00     0.341 C 
ATOM      7  O   UNL A   1      43.674  30.903  33.560  1.00  0.00    -0.249 OA
BRANCH   6   8
ATOM      8  C   UNL A   1      41.841  29.132  33.773  1.00  0.00     0.231 C 
ATOM      9  C   UNL A   1      42.208  28.955  35.274  1.00  0.00     0.058 C 
BRANCH   8  10
ATOM     10  N   UNL A   1      40.070  28.840  33.621  1.00  0.00    -0.333 N 
ATOM     11  C   UNL A   1      38.472  28.872  32.656  1.00  0.00     0.223 C 
ATOM     12  H   UNL A   1      39.811  28.476  34.499  1.00  0.00     0.164 HD
ATOM     13  O   UNL A   1      37.397  28.311  33.005  1.00  0.00    -0.275 OA
BRANCH  11  14
ATOM     14  C   UNL A   1      38.140  29.522  31.158  1.00  0.00     0.128 C 
BRANCH  14  15
ATOM     15  C   UNL A   1      39.279  29.696  30.210  1.00  0.00     0.170 C 
BRANCH  15  16
ATOM     16  O   UNL A   1      38.853  29.119  29.014  1.00  0.00    -0.377 OA
BRANCH  16  17
ATOM     17  C   UNL A   1      39.885  28.238  28.589  1.00  0.00     0.129 C 
ATOM     18  C   UNL A   1      40.992  28.995  27.084  1.00  0.00     0.093 C 
ATOM     19  C   UNL A   1      39.293  26.391  28.433  1.00  0.00     0.093 C 
ATOM     20  C   UNL A   1      41.451  27.788  25.615  1.00  0.00     0.263 C 
ATOM     21  C   UNL A   1      39.944  25.311  27.003  1.00  0.00     0.263 C 
ATOM     22  N   UNL A   1      41.097  25.959  25.694  1.00  0.00    -0.346 N 
ATOM     23  H   UNL A   1      41.992  25.488  25.827  1.00  0.00     0.346 HD
ATOM     24  H   UNL A   1      40.604  25.771  24.822  1.00  0.00     0.346 HD
ENDBRANCH  16  17
ENDBRANCH  15  16
ENDBRANCH  14  15
ENDBRANCH  11  14
ENDBRANCH   8  10
BRANCH   8  25
ATOM     25  C   UNL A   1      42.584  27.919  33.099  1.00  0.00     0.422 C 
ATOM     26  F   UNL A   1      42.370  26.752  33.750  1.00  0.00    -0.168 F 
ATOM     27  F   UNL A   1      42.121  27.733  31.838  1.00  0.00    -0.168 F 
ATOM     28  F   UNL A   1      43.915  28.112  33.013  1.00  0.00    -0.168 F 
ENDBRANCH   8  25
ENDBRANCH   6   8
ENDBRANCH   5   6
ENDBRANCH   4   5
ENDBRANCH   3   4
ENDBRANCH   2   3
ENDBRANCH   1   2
BRANCH   1  29
ATOM     29  C   UNL A   1      41.394  35.179  28.741  1.00  0.00     0.188 C 
BRANCH  29  30
ATOM     30  O   UNL A   1      41.951  36.435  28.433  1.00  0.00    -0.376 OA
BRANCH  30  31
ATOM     31  C   UNL A   1      42.390  36.674  27.107  1.00  0.00     0.202 C 
BRANCH  31  32
ATOM     32  C   UNL A   1      43.698  36.074  26.539  1.00  0.00     0.261 C 
BRANCH  32  33
ATOM     33  O   UNL A   1      43.616  34.760  25.957  1.00  0.00    -0.460 OA
BRANCH  33  34
ATOM     34  C   UNL A   1      44.794  34.130  25.709  1.00  0.00     0.338 C 
ATOM     35  O   UNL A   1      45.735  34.583  25.057  1.00  0.00    -0.246 OA
BRANCH  34  36
ATOM     36  C   UNL A   1      44.925  32.947  26.601  1.00  0.00     0.060 A 
ATOM     37  C   UNL A   1      43.858  32.645  27.469  1.00  0.00     0.016 A 
ATOM     38  C   UNL A   1      46.021  32.085  26.529  1.00  0.00     0.016 A 
ATOM     39  C   UNL A   1      43.900  31.513  28.287  1.00  0.00     0.010 A 
ATOM     40  C   UNL A   1      46.079  30.968  27.375  1.00  0.00     0.010 A 
ATOM     41  C   UNL A   1      45.043  30.705  28.293  1.00  0.00    -0.014 A 
BRANCH  41  42
ATOM     42  C   UNL A   1      45.298  29.831  29.471  1.00  0.00     0.031 A 
ATOM     43  C   UNL A   1      44.879  28.385  29.345  1.00  0.00     0.074 A 
ATOM     44  C   UNL A   1      45.907  30.253  30.594  1.00  0.00     0.049 A 
ATOM     45  N   UNL A   1      44.967  27.409  30.211  1.00  0.00    -0.248 NA
ATOM     46  C   UNL A   1      44.274  27.992  28.059  1.00  0.00     0.031 C 
ATOM     47  C   UNL A   1      46.430  31.596  30.832  1.00  0.00     0.029 A 
ATOM     48  N   UNL A   1      46.192  29.571  31.755  1.00  0.00    -0.354 N 
ATOM     49  C   UNL A   1      44.417  26.298  29.580  1.00  0.00     0.074 A 
ATOM     50  C   UNL A   1      43.970  26.725  28.274  1.00  0.00     0.031 C 
ATOM     51  C   UNL A   1      46.969  31.641  32.066  1.00  0.00     0.029 A 
ATOM     52  C   UNL A   1      46.805  30.340  32.717  1.00  0.00     0.049 A 
ATOM     53  H   UNL A   1      45.976  28.619  31.886  1.00  0.00     0.167 HD
ATOM     54  C   UNL A   1      44.296  25.030  30.037  1.00  0.00     0.031 A 
ATOM     55  C   UNL A   1      47.180  30.032  33.977  1.00  0.00     0.031 A 
ATOM     56  C   UNL A   1      44.722  24.600  31.340  1.00  0.00     0.049 A 
ATOM     57  C   UNL A   1      46.949  28.633  34.502  1.00  0.00     0.074 A 
ATOM     58  C   UNL A   1      44.652  23.334  31.891  1.00  0.00     0.029 A 
ATOM     59  N   UNL A   1      45.283  25.426  32.300  1.00  0.00    -0.354 N 
ATOM     60  N   UNL A   1      46.450  27.587  33.886  1.00  0.00    -0.248 NA
ATOM     61  C   UNL A   1      47.346  28.372  35.895  1.00  0.00     0.031 C 
ATOM     62  C   UNL A   1      45.108  23.408  33.211  1.00  0.00     0.029 A 
ATOM     63  C   UNL A   1      45.534  24.704  33.454  1.00  0.00     0.049 A 
ATOM     64  H   UNL A   1      45.476  26.384  32.180  1.00  0.00     0.167 HD
ATOM     65  C   UNL A   1      46.514  26.537  34.801  1.00  0.00     0.074 A 
ATOM     66  C   UNL A   1      47.105  27.072  36.009  1.00  0.00     0.031 C 
ATOM     67  C   UNL A   1      46.127  25.245  34.652  1.00  0.00     0.031 A 
BRANCH  54  68
ATOM     68  C   UNL A   1      43.620  24.034  29.131  1.00  0.00    -0.014 A 
ATOM     69  C   UNL A   1      42.264  23.694  29.292  1.00  0.00     0.010 A 
ATOM     70  C   UNL A   1      44.360  23.429  28.099  1.00  0.00     0.010 A 
ATOM     71  C   UNL A   1      41.675  22.731  28.469  1.00  0.00     0.020 A 
ATOM     72  C   UNL A   1      43.765  22.491  27.252  1.00  0.00     0.020 A 
ATOM     73  C   UNL A   1      42.431  22.134  27.455  1.00  0.00     0.054 A 
BRANCH  73  74
ATOM     74  S   UNL A   1      41.640  20.895  26.395  1.00  0.00     0.124 S 
ATOM     75  O   UNL A   1      42.687  20.626  25.411  1.00  0.00    -0.237 OA
ATOM     76  O   UNL A   1      41.362  19.806  27.328  1.00  0.00    -0.237 OA
ATOM     77  O   UNL A   1      40.460  21.582  25.875  1.00  0.00    -0.744 OA
ENDBRANCH  73  74
ENDBRANCH  54  68
BRANCH  55  78
ATOM     78  C   UNL A   1      47.812  31.063  34.851  1.00  0.00    -0.014 A 
ATOM     79  C   UNL A   1      47.024  31.887  35.677  1.00  0.00     0.010 A 
ATOM     80  C   UNL A   1      49.207  31.252  34.839  1.00  0.00     0.010 A 
ATOM     81  C   UNL A   1      47.614  32.885  36.459  1.00  0.00     0.020 A 
ATOM     82  C   UNL A   1      49.803  32.230  35.642  1.00  0.00     0.020 A 
ATOM     83  C   UNL A   1      49.001  33.049  36.440  1.00  0.00     0.054 A 
BRANCH  83  84
ATOM     84  S   UNL A   1      49.749  34.317  37.502  1.00  0.00     0.124 S 
ATOM     85  O   UNL A   1      49.267  35.551  36.891  1.00  0.00    -0.237 OA
ATOM     86  O   UNL A   1      49.190  33.998  38.814  1.00  0.00    -0.237 OA
ATOM     87  O   UNL A   1      51.184  34.072  37.369  1.00  0.00    -0.744 OA
ENDBRANCH  83  84
ENDBRANCH  55  78
BRANCH  67  88
ATOM     88  C   UNL A   1      46.376  24.297  35.798  1.00  0.00    -0.014 A 
ATOM     89  C   UNL A   1      45.435  24.114  36.828  1.00  0.00     0.010 A 
ATOM     90  C   UNL A   1      47.559  23.533  35.815  1.00  0.00     0.010 A 
ATOM     91  C   UNL A   1      45.693  23.220  37.872  1.00  0.00     0.020 A 
ATOM     92  C   UNL A   1      47.806  22.614  36.838  1.00  0.00     0.020 A 
ATOM     93  C   UNL A   1      46.878  22.477  37.872  1.00  0.00     0.054 A 
BRANCH  93  94
ATOM     94  S   UNL A   1      47.177  21.305  39.224  1.00  0.00     0.124 S 
ATOM     95  O   UNL A   1      47.805  22.156  40.231  1.00  0.00    -0.237 OA
ATOM     96  O   UNL A   1      45.831  20.838  39.547  1.00  0.00    -0.237 OA
ATOM     97  O   UNL A   1      48.053  20.300  38.625  1.00  0.00    -0.744 OA
ENDBRANCH  93  94
ENDBRANCH  67  88
ENDBRANCH  41  42
ENDBRANCH  34  36
ENDBRANCH  33  34
ENDBRANCH  32  33
ENDBRANCH  31  32
ENDBRANCH  30  31
ENDBRANCH  29  30
ENDBRANCH   1  29
TORSDOF 26
ENDMDL
