MODEL 1
REMARK VINA RESULT:      -9.3      0.000      0.000
REMARK SMILES Nc1ccc(O)c(C(=O)OCCOCCOCCOC(=O)c2ccc(-c3c4nc(c(-c5ccc(S(=O)(=O)[O-])cc5)c5ccc([nH]5)c(-c5ccc(S(=O)(=O)[O-])cc5)c5nc(c(-c6ccc(S(=O)(=O)[O-])cc6)c6ccc3[nH]6)C=C5)C=C4)cc2)c1
REMARK SMILES IDX 15 1 14 2 13 3 12 4 11 5 10 6 8 7 9 8 7 9 2 10 3 11 82 12
REMARK SMILES IDX 4 13 5 14 1 15 6 18 16 20 17 21 18 22 19 23 20 24 21 25
REMARK SMILES IDX 22 26 23 27 81 28 24 29 80 30 25 31 26 32 27 33 74 34 28 35
REMARK SMILES IDX 79 36 73 37 75 38 29 39 78 40 72 41 71 42 30 44 60 45 41 46
REMARK SMILES IDX 59 47 42 48 45 49 58 50 76 51 43 52 44 53 57 55 77 56 46 57
REMARK SMILES IDX 31 58 32 59 40 60 33 61 39 62 34 63 35 64 36 65 37 66 38 67
REMARK SMILES IDX 61 68 62 69 70 70 63 71 69 72 64 73 65 74 66 75 67 76 68 77
REMARK SMILES IDX 47 78 48 79 56 80 49 81 55 82 50 83 51 84 52 85 53 86 54 87
REMARK H PARENT 1 16 1 17 6 19 75 43 45 54
REMARK Flexibility Score: inf
ROOT
ATOM      1  C   UNL A   1      33.794  27.185  24.691  1.00  0.00     0.188 C 
ENDROOT
BRANCH   1   2
ATOM      2  C   UNL A   1      33.391  26.555  26.039  1.00  0.00     0.188 C 
BRANCH   2   3
ATOM      3  O   UNL A   1      32.869  25.245  26.081  1.00  0.00    -0.376 OA
BRANCH   3   4
ATOM      4  C   UNL A   1      31.502  25.005  26.357  1.00  0.00     0.202 C 
BRANCH   4   5
ATOM      5  C   UNL A   1      30.364  25.994  26.060  1.00  0.00     0.261 C 
BRANCH   5   6
ATOM      6  O   UNL A   1      29.573  25.745  24.895  1.00  0.00    -0.460 OA
BRANCH   6   7
ATOM      7  C   UNL A   1      30.082  26.251  23.744  1.00  0.00     0.342 C 
ATOM      8  O   UNL A   1      30.910  25.724  23.016  1.00  0.00    -0.246 OA
BRANCH   7   9
ATOM      9  C   UNL A   1      29.329  27.444  23.317  1.00  0.00     0.103 A 
ATOM     10  C   UNL A   1      29.244  29.692  22.408  1.00  0.00     0.032 A 
ATOM     11  C   UNL A   1      27.856  29.687  22.586  1.00  0.00     0.029 A 
ATOM     12  C   UNL A   1      29.977  28.555  22.762  1.00  0.00     0.045 A 
ATOM     13  C   UNL A   1      27.209  28.590  23.158  1.00  0.00     0.049 A 
ATOM     14  C   UNL A   1      27.943  27.469  23.514  1.00  0.00     0.130 A 
BRANCH  10  15
ATOM     15  N   UNL A   1      29.860  30.761  21.777  1.00  0.00    -0.399 N 
ATOM     16  H   UNL A   1      29.336  31.560  21.537  1.00  0.00     0.156 HD
ATOM     17  H   UNL A   1      30.822  30.722  21.569  1.00  0.00     0.156 HD
ENDBRANCH  10  15
BRANCH  14  18
ATOM     18  O   UNL A   1      27.247  26.436  24.082  1.00  0.00    -0.507 OA
ATOM     19  H   UNL A   1      26.592  26.613  24.728  1.00  0.00     0.293 HD
ENDBRANCH  14  18
ENDBRANCH   7   9
ENDBRANCH   6   7
ENDBRANCH   5   6
ENDBRANCH   4   5
ENDBRANCH   3   4
ENDBRANCH   2   3
ENDBRANCH   1   2
BRANCH   1  20
ATOM     20  O   UNL A   1      33.978  28.581  24.580  1.00  0.00    -0.376 OA
BRANCH  20  21
ATOM     21  C   UNL A   1      32.904  29.468  24.834  1.00  0.00     0.202 C 
BRANCH  21  22
ATOM     22  C   UNL A   1      32.564  30.050  26.216  1.00  0.00     0.261 C 
BRANCH  22  23
ATOM     23  O   UNL A   1      33.561  29.946  27.234  1.00  0.00    -0.460 OA
BRANCH  23  24
ATOM     24  C   UNL A   1      34.218  31.094  27.520  1.00  0.00     0.338 C 
ATOM     25  O   UNL A   1      33.758  32.233  27.506  1.00  0.00    -0.246 OA
BRANCH  24  26
ATOM     26  C   UNL A   1      35.562  30.776  28.024  1.00  0.00     0.060 A 
ATOM     27  C   UNL A   1      35.869  29.445  28.337  1.00  0.00     0.016 A 
ATOM     28  C   UNL A   1      36.498  31.789  28.233  1.00  0.00     0.016 A 
ATOM     29  C   UNL A   1      37.113  29.125  28.878  1.00  0.00     0.010 A 
ATOM     30  C   UNL A   1      37.737  31.469  28.796  1.00  0.00     0.010 A 
ATOM     31  C   UNL A   1      38.040  30.140  29.147  1.00  0.00    -0.014 A 
BRANCH  31  32
ATOM     32  C   UNL A   1      39.255  29.843  29.944  1.00  0.00     0.031 A 
ATOM     33  C   UNL A   1      40.156  28.724  29.496  1.00  0.00     0.074 A 
ATOM     34  C   UNL A   1      39.560  30.558  31.043  1.00  0.00     0.049 A 
ATOM     35  N   UNL A   1      41.230  28.244  30.068  1.00  0.00    -0.248 NA
ATOM     36  C   UNL A   1      39.796  28.055  28.234  1.00  0.00     0.031 C 
ATOM     37  C   UNL A   1      38.799  31.698  31.552  1.00  0.00     0.029 A 
ATOM     38  N   UNL A   1      40.594  30.418  31.935  1.00  0.00    -0.354 N 
ATOM     39  C   UNL A   1      41.669  27.215  29.243  1.00  0.00     0.074 A 
ATOM     40  C   UNL A   1      40.731  27.121  28.145  1.00  0.00     0.031 C 
ATOM     41  C   UNL A   1      39.385  32.144  32.677  1.00  0.00     0.029 A 
ATOM     42  C   UNL A   1      40.539  31.302  32.987  1.00  0.00     0.049 A 
ATOM     43  H   UNL A   1      41.308  29.747  31.832  1.00  0.00     0.167 HD
ATOM     44  C   UNL A   1      42.759  26.423  29.382  1.00  0.00     0.031 A 
ATOM     45  C   UNL A   1      41.315  31.402  34.086  1.00  0.00     0.031 A 
ATOM     46  C   UNL A   1      43.682  26.508  30.482  1.00  0.00     0.049 A 
ATOM     47  C   UNL A   1      42.472  30.450  34.263  1.00  0.00     0.074 A 
ATOM     48  C   UNL A   1      44.821  25.755  30.708  1.00  0.00     0.029 A 
ATOM     49  N   UNL A   1      43.572  27.393  31.543  1.00  0.00    -0.354 N 
ATOM     50  N   UNL A   1      42.888  29.496  33.464  1.00  0.00    -0.248 NA
ATOM     51  C   UNL A   1      43.270  30.594  35.490  1.00  0.00     0.031 C 
ATOM     52  C   UNL A   1      45.366  26.143  31.935  1.00  0.00     0.029 A 
ATOM     53  C   UNL A   1      44.607  27.185  32.441  1.00  0.00     0.049 A 
ATOM     54  H   UNL A   1      42.863  28.069  31.645  1.00  0.00     0.167 HD
ATOM     55  C   UNL A   1      44.014  28.952  34.075  1.00  0.00     0.074 A 
ATOM     56  C   UNL A   1      44.222  29.690  35.303  1.00  0.00     0.031 C 
ATOM     57  C   UNL A   1      44.807  27.933  33.657  1.00  0.00     0.031 A 
BRANCH  44  58
ATOM     58  C   UNL A   1      42.996  25.370  28.333  1.00  0.00    -0.014 A 
ATOM     59  C   UNL A   1      43.909  25.580  27.284  1.00  0.00     0.010 A 
ATOM     60  C   UNL A   1      42.335  24.132  28.428  1.00  0.00     0.010 A 
ATOM     61  C   UNL A   1      44.135  24.580  26.334  1.00  0.00     0.020 A 
ATOM     62  C   UNL A   1      42.580  23.119  27.496  1.00  0.00     0.020 A 
ATOM     63  C   UNL A   1      43.470  23.355  26.447  1.00  0.00     0.054 A 
BRANCH  63  64
ATOM     64  S   UNL A   1      43.814  22.062  25.222  1.00  0.00     0.124 S 
ATOM     65  O   UNL A   1      43.395  22.705  23.979  1.00  0.00    -0.237 OA
ATOM     66  O   UNL A   1      45.253  21.859  25.369  1.00  0.00    -0.237 OA
ATOM     67  O   UNL A   1      42.982  20.943  25.654  1.00  0.00    -0.744 OA
ENDBRANCH  63  64
ENDBRANCH  44  58
BRANCH  45  68
ATOM     68  C   UNL A   1      41.011  32.423  35.128  1.00  0.00    -0.014 A 
ATOM     69  C   UNL A   1      40.067  32.163  36.139  1.00  0.00     0.010 A 
ATOM     70  C   UNL A   1      41.647  33.677  35.097  1.00  0.00     0.010 A 
ATOM     71  C   UNL A   1      39.746  33.147  37.079  1.00  0.00     0.020 A 
ATOM     72  C   UNL A   1      41.350  34.653  36.054  1.00  0.00     0.020 A 
ATOM     73  C   UNL A   1      40.390  34.387  37.030  1.00  0.00     0.054 A 
BRANCH  73  74
ATOM     74  S   UNL A   1      39.977  35.638  38.277  1.00  0.00     0.124 S 
ATOM     75  O   UNL A   1      39.677  36.803  37.451  1.00  0.00    -0.237 OA
ATOM     76  O   UNL A   1      38.836  35.037  38.962  1.00  0.00    -0.237 OA
ATOM     77  O   UNL A   1      41.195  35.737  39.079  1.00  0.00    -0.744 OA
ENDBRANCH  73  74
ENDBRANCH  45  68
BRANCH  57  78
ATOM     78  C   UNL A   1      46.002  27.581  34.506  1.00  0.00    -0.014 A 
ATOM     79  C   UNL A   1      45.927  26.601  35.511  1.00  0.00     0.010 A 
ATOM     80  C   UNL A   1      47.240  28.200  34.248  1.00  0.00     0.010 A 
ATOM     81  C   UNL A   1      47.057  26.272  36.265  1.00  0.00     0.020 A 
ATOM     82  C   UNL A   1      48.379  27.852  34.978  1.00  0.00     0.020 A 
ATOM     83  C   UNL A   1      48.278  26.899  35.993  1.00  0.00     0.054 A 
BRANCH  83  84
ATOM     84  S   UNL A   1      49.739  26.422  36.954  1.00  0.00     0.124 S 
ATOM     85  O   UNL A   1      50.626  25.898  35.919  1.00  0.00    -0.237 OA
ATOM     86  O   UNL A   1      50.155  27.687  37.555  1.00  0.00    -0.237 OA
ATOM     87  O   UNL A   1      49.228  25.430  37.896  1.00  0.00    -0.744 OA
ENDBRANCH  83  84
ENDBRANCH  57  78
ENDBRANCH  31  32
ENDBRANCH  24  26
ENDBRANCH  23  24
ENDBRANCH  22  23
ENDBRANCH  21  22
ENDBRANCH  20  21
ENDBRANCH   1  20
TORSDOF 22
ENDMDL
MODEL 2
REMARK VINA RESULT:      -9.3      3.771      9.311
REMARK SMILES Nc1ccc(O)c(C(=O)OCCOCCOCCOC(=O)c2ccc(-c3c4nc(c(-c5ccc(S(=O)(=O)[O-])cc5)c5ccc([nH]5)c(-c5ccc(S(=O)(=O)[O-])cc5)c5nc(c(-c6ccc(S(=O)(=O)[O-])cc6)c6ccc3[nH]6)C=C5)C=C4)cc2)c1
REMARK SMILES IDX 15 1 14 2 13 3 12 4 11 5 10 6 8 7 9 8 7 9 2 10 3 11 82 12
REMARK SMILES IDX 4 13 5 14 1 15 6 18 16 20 17 21 18 22 19 23 20 24 21 25
REMARK SMILES IDX 22 26 23 27 81 28 24 29 80 30 25 31 26 32 27 33 74 34 28 35
REMARK SMILES IDX 79 36 73 37 75 38 29 39 78 40 72 41 71 42 30 44 60 45 41 46
REMARK SMILES IDX 59 47 42 48 45 49 58 50 76 51 43 52 44 53 57 55 77 56 46 57
REMARK SMILES IDX 31 58 32 59 40 60 33 61 39 62 34 63 35 64 36 65 37 66 38 67
REMARK SMILES IDX 61 68 62 69 70 70 63 71 69 72 64 73 65 74 66 75 67 76 68 77
REMARK SMILES IDX 47 78 48 79 56 80 49 81 55 82 50 83 51 84 52 85 53 86 54 87
REMARK H PARENT 1 16 1 17 6 19 75 43 45 54
REMARK Flexibility Score: inf
ROOT
ATOM      1  C   UNL A   1      30.399  28.085  24.082  1.00  0.00     0.188 C 
ENDROOT
BRANCH   1   2
ATOM      2  C   UNL A   1      30.672  27.088  22.939  1.00  0.00     0.188 C 
BRANCH   2   3
ATOM      3  O   UNL A   1      30.720  25.703  23.203  1.00  0.00    -0.376 OA
BRANCH   3   4
ATOM      4  C   UNL A   1      31.944  25.045  23.466  1.00  0.00     0.202 C 
BRANCH   4   5
ATOM      5  C   UNL A   1      32.218  24.169  24.699  1.00  0.00     0.261 C 
BRANCH   5   6
ATOM      6  O   UNL A   1      32.037  22.758  24.548  1.00  0.00    -0.460 OA
BRANCH   6   7
ATOM      7  C   UNL A   1      33.175  22.061  24.305  1.00  0.00     0.342 C 
ATOM      8  O   UNL A   1      34.312  22.508  24.267  1.00  0.00    -0.246 OA
BRANCH   7   9
ATOM      9  C   UNL A   1      32.917  20.610  24.325  1.00  0.00     0.103 A 
ATOM     10  C   UNL A   1      32.223  18.559  23.231  1.00  0.00     0.032 A 
ATOM     11  C   UNL A   1      32.390  17.882  24.444  1.00  0.00     0.029 A 
ATOM     12  C   UNL A   1      32.505  19.927  23.173  1.00  0.00     0.045 A 
ATOM     13  C   UNL A   1      32.780  18.563  25.599  1.00  0.00     0.049 A 
ATOM     14  C   UNL A   1      33.050  19.922  25.536  1.00  0.00     0.130 A 
BRANCH  10  15
ATOM     15  N   UNL A   1      31.902  17.855  22.081  1.00  0.00    -0.399 N 
ATOM     16  H   UNL A   1      30.958  17.702  21.844  1.00  0.00     0.156 HD
ATOM     17  H   UNL A   1      32.618  17.509  21.499  1.00  0.00     0.156 HD
ENDBRANCH  10  15
BRANCH  14  18
ATOM     18  O   UNL A   1      33.414  20.528  26.708  1.00  0.00    -0.507 OA
ATOM     19  H   UNL A   1      33.753  21.402  26.697  1.00  0.00     0.293 HD
ENDBRANCH  14  18
ENDBRANCH   7   9
ENDBRANCH   6   7
ENDBRANCH   5   6
ENDBRANCH   4   5
ENDBRANCH   3   4
ENDBRANCH   2   3
ENDBRANCH   1   2
BRANCH   1  20
ATOM     20  O   UNL A   1      31.469  28.705  24.763  1.00  0.00    -0.376 OA
BRANCH  20  21
ATOM     21  C   UNL A   1      32.195  27.998  25.751  1.00  0.00     0.202 C 
BRANCH  21  22
ATOM     22  C   UNL A   1      32.560  28.560  27.135  1.00  0.00     0.261 C 
BRANCH  22  23
ATOM     23  O   UNL A   1      33.946  28.611  27.477  1.00  0.00    -0.460 OA
BRANCH  23  24
ATOM     24  C   UNL A   1      34.441  29.850  27.702  1.00  0.00     0.338 C 
ATOM     25  O   UNL A   1      33.814  30.907  27.711  1.00  0.00    -0.246 OA
BRANCH  24  26
ATOM     26  C   UNL A   1      35.850  29.749  28.111  1.00  0.00     0.060 A 
ATOM     27  C   UNL A   1      36.848  29.924  27.142  1.00  0.00     0.016 A 
ATOM     28  C   UNL A   1      36.185  29.436  29.428  1.00  0.00     0.016 A 
ATOM     29  C   UNL A   1      38.190  29.769  27.487  1.00  0.00     0.010 A 
ATOM     30  C   UNL A   1      37.530  29.260  29.767  1.00  0.00     0.010 A 
ATOM     31  C   UNL A   1      38.536  29.398  28.792  1.00  0.00    -0.014 A 
BRANCH  31  32
ATOM     32  C   UNL A   1      39.929  28.991  29.103  1.00  0.00     0.031 A 
ATOM     33  C   UNL A   1      40.852  30.001  29.732  1.00  0.00     0.074 A 
ATOM     34  C   UNL A   1      40.367  27.746  28.839  1.00  0.00     0.049 A 
ATOM     35  N   UNL A   1      42.121  29.892  30.028  1.00  0.00    -0.248 NA
ATOM     36  C   UNL A   1      40.264  31.308  30.069  1.00  0.00     0.031 C 
ATOM     37  C   UNL A   1      39.559  26.663  28.282  1.00  0.00     0.029 A 
ATOM     38  N   UNL A   1      41.611  27.189  29.002  1.00  0.00    -0.354 N 
ATOM     39  C   UNL A   1      42.485  31.115  30.579  1.00  0.00     0.074 A 
ATOM     40  C   UNL A   1      41.312  31.962  30.549  1.00  0.00     0.031 C 
ATOM     41  C   UNL A   1      40.335  25.574  28.133  1.00  0.00     0.029 A 
ATOM     42  C   UNL A   1      41.699  25.893  28.552  1.00  0.00     0.049 A 
ATOM     43  H   UNL A   1      42.370  27.673  29.403  1.00  0.00     0.167 HD
ATOM     44  C   UNL A   1      43.688  31.499  31.070  1.00  0.00     0.031 A 
ATOM     45  C   UNL A   1      42.763  25.069  28.462  1.00  0.00     0.031 A 
ATOM     46  C   UNL A   1      44.857  30.662  31.084  1.00  0.00     0.049 A 
ATOM     47  C   UNL A   1      44.112  25.551  28.936  1.00  0.00     0.074 A 
ATOM     48  C   UNL A   1      46.120  30.958  31.569  1.00  0.00     0.029 A 
ATOM     49  N   UNL A   1      44.913  29.369  30.588  1.00  0.00    -0.354 N 
ATOM     50  N   UNL A   1      44.438  26.703  29.473  1.00  0.00    -0.248 NA
ATOM     51  C   UNL A   1      45.239  24.615  28.796  1.00  0.00     0.031 C 
ATOM     52  C   UNL A   1      46.954  29.867  31.311  1.00  0.00     0.029 A 
ATOM     53  C   UNL A   1      46.196  28.865  30.729  1.00  0.00     0.049 A 
ATOM     54  H   UNL A   1      44.154  28.882  30.194  1.00  0.00     0.167 HD
ATOM     55  C   UNL A   1      45.796  26.616  29.766  1.00  0.00     0.074 A 
ATOM     56  C   UNL A   1      46.229  25.296  29.359  1.00  0.00     0.031 C 
ATOM     57  C   UNL A   1      46.612  27.545  30.325  1.00  0.00     0.031 A 
BRANCH  44  58
ATOM     58  C   UNL A   1      43.809  32.901  31.605  1.00  0.00    -0.014 A 
ATOM     59  C   UNL A   1      43.685  33.169  32.980  1.00  0.00     0.010 A 
ATOM     60  C   UNL A   1      44.102  33.959  30.726  1.00  0.00     0.010 A 
ATOM     61  C   UNL A   1      43.826  34.474  33.462  1.00  0.00     0.020 A 
ATOM     62  C   UNL A   1      44.272  35.260  31.207  1.00  0.00     0.020 A 
ATOM     63  C   UNL A   1      44.121  35.511  32.572  1.00  0.00     0.054 A 
BRANCH  63  64
ATOM     64  S   UNL A   1      44.337  37.187  33.231  1.00  0.00     0.124 S 
ATOM     65  O   UNL A   1      42.966  37.557  33.570  1.00  0.00    -0.237 OA
ATOM     66  O   UNL A   1      45.228  36.969  34.368  1.00  0.00    -0.237 OA
ATOM     67  O   UNL A   1      44.924  37.926  32.116  1.00  0.00    -0.744 OA
ENDBRANCH  63  64
ENDBRANCH  44  58
BRANCH  45  68
ATOM     68  C   UNL A   1      42.611  23.709  27.874  1.00  0.00    -0.014 A 
ATOM     69  C   UNL A   1      42.748  23.503  26.489  1.00  0.00     0.010 A 
ATOM     70  C   UNL A   1      42.298  22.612  28.698  1.00  0.00     0.010 A 
ATOM     71  C   UNL A   1      42.547  22.234  25.938  1.00  0.00     0.020 A 
ATOM     72  C   UNL A   1      42.127  21.335  28.153  1.00  0.00     0.020 A 
ATOM     73  C   UNL A   1      42.237  21.157  26.774  1.00  0.00     0.054 A 
BRANCH  73  74
ATOM     74  S   UNL A   1      42.009  19.514  26.039  1.00  0.00     0.124 S 
ATOM     75  O   UNL A   1      40.573  19.495  25.778  1.00  0.00    -0.237 OA
ATOM     76  O   UNL A   1      42.866  19.575  24.858  1.00  0.00    -0.237 OA
ATOM     77  O   UNL A   1      42.467  18.604  27.087  1.00  0.00    -0.744 OA
ENDBRANCH  73  74
ENDBRANCH  45  68
BRANCH  57  78
ATOM     78  C   UNL A   1      48.048  27.158  30.573  1.00  0.00    -0.014 A 
ATOM     79  C   UNL A   1      49.038  27.336  29.591  1.00  0.00     0.010 A 
ATOM     80  C   UNL A   1      48.422  26.664  31.838  1.00  0.00     0.010 A 
ATOM     81  C   UNL A   1      50.368  26.996  29.857  1.00  0.00     0.020 A 
ATOM     82  C   UNL A   1      49.755  26.352  32.118  1.00  0.00     0.020 A 
ATOM     83  C   UNL A   1      50.719  26.507  31.120  1.00  0.00     0.054 A 
BRANCH  83  84
ATOM     84  S   UNL A   1      52.457  26.116  31.455  1.00  0.00     0.124 S 
ATOM     85  O   UNL A   1      53.053  26.213  30.125  1.00  0.00    -0.237 OA
ATOM     86  O   UNL A   1      52.847  27.164  32.395  1.00  0.00    -0.237 OA
ATOM     87  O   UNL A   1      52.409  24.769  32.018  1.00  0.00    -0.744 OA
ENDBRANCH  83  84
ENDBRANCH  57  78
ENDBRANCH  31  32
ENDBRANCH  24  26
ENDBRANCH  23  24
ENDBRANCH  22  23
ENDBRANCH  21  22
ENDBRANCH  20  21
ENDBRANCH   1  20
TORSDOF 22
ENDMDL
MODEL 3
REMARK VINA RESULT:      -9.0      3.235      8.454
REMARK SMILES Nc1ccc(O)c(C(=O)OCCOCCOCCOC(=O)c2ccc(-c3c4nc(c(-c5ccc(S(=O)(=O)[O-])cc5)c5ccc([nH]5)c(-c5ccc(S(=O)(=O)[O-])cc5)c5nc(c(-c6ccc(S(=O)(=O)[O-])cc6)c6ccc3[nH]6)C=C5)C=C4)cc2)c1
REMARK SMILES IDX 15 1 14 2 13 3 12 4 11 5 10 6 8 7 9 8 7 9 2 10 3 11 82 12
REMARK SMILES IDX 4 13 5 14 1 15 6 18 16 20 17 21 18 22 19 23 20 24 21 25
REMARK SMILES IDX 22 26 23 27 81 28 24 29 80 30 25 31 26 32 27 33 74 34 28 35
REMARK SMILES IDX 79 36 73 37 75 38 29 39 78 40 72 41 71 42 30 44 60 45 41 46
REMARK SMILES IDX 59 47 42 48 45 49 58 50 76 51 43 52 44 53 57 55 77 56 46 57
REMARK SMILES IDX 31 58 32 59 40 60 33 61 39 62 34 63 35 64 36 65 37 66 38 67
REMARK SMILES IDX 61 68 62 69 70 70 63 71 69 72 64 73 65 74 66 75 67 76 68 77
REMARK SMILES IDX 47 78 48 79 56 80 49 81 55 82 50 83 51 84 52 85 53 86 54 87
REMARK H PARENT 1 16 1 17 6 19 75 43 45 54
REMARK Flexibility Score: inf
ROOT
ATOM      1  C   UNL A   1      34.932  22.526  26.155  1.00  0.00     0.188 C 
ENDROOT
BRANCH   1   2
ATOM      2  C   UNL A   1      34.781  21.667  24.884  1.00  0.00     0.188 C 
BRANCH   2   3
ATOM      3  O   UNL A   1      33.529  21.565  24.241  1.00  0.00    -0.376 OA
BRANCH   3   4
ATOM      4  C   UNL A   1      32.358  21.222  24.959  1.00  0.00     0.202 C 
BRANCH   4   5
ATOM      5  C   UNL A   1      31.500  22.216  25.757  1.00  0.00     0.261 C 
BRANCH   5   6
ATOM      6  O   UNL A   1      30.683  23.118  25.007  1.00  0.00    -0.460 OA
BRANCH   6   7
ATOM      7  C   UNL A   1      30.844  24.428  25.323  1.00  0.00     0.342 C 
ATOM      8  O   UNL A   1      30.509  24.976  26.363  1.00  0.00    -0.246 OA
BRANCH   7   9
ATOM      9  C   UNL A   1      31.713  25.102  24.341  1.00  0.00     0.103 A 
ATOM     10  C   UNL A   1      32.239  25.759  22.066  1.00  0.00     0.032 A 
ATOM     11  C   UNL A   1      33.424  26.339  22.531  1.00  0.00     0.029 A 
ATOM     12  C   UNL A   1      31.374  25.153  22.983  1.00  0.00     0.045 A 
ATOM     13  C   UNL A   1      33.775  26.272  23.881  1.00  0.00     0.049 A 
ATOM     14  C   UNL A   1      32.917  25.662  24.784  1.00  0.00     0.130 A 
BRANCH  10  15
ATOM     15  N   UNL A   1      31.874  25.895  20.736  1.00  0.00    -0.399 N 
ATOM     16  H   UNL A   1      31.075  26.418  20.496  1.00  0.00     0.156 HD
ATOM     17  H   UNL A   1      32.414  25.469  20.030  1.00  0.00     0.156 HD
ENDBRANCH  10  15
BRANCH  14  18
ATOM     18  O   UNL A   1      33.330  25.620  26.088  1.00  0.00    -0.507 OA
ATOM     19  H   UNL A   1      32.907  25.043  26.694  1.00  0.00     0.293 HD
ENDBRANCH  14  18
ENDBRANCH   7   9
ENDBRANCH   6   7
ENDBRANCH   5   6
ENDBRANCH   4   5
ENDBRANCH   3   4
ENDBRANCH   2   3
ENDBRANCH   1   2
BRANCH   1  20
ATOM     20  O   UNL A   1      36.162  23.149  26.457  1.00  0.00    -0.376 OA
BRANCH  20  21
ATOM     21  C   UNL A   1      37.317  22.865  25.687  1.00  0.00     0.202 C 
BRANCH  21  22
ATOM     22  C   UNL A   1      38.488  23.840  25.481  1.00  0.00     0.261 C 
BRANCH  22  23
ATOM     23  O   UNL A   1      39.169  24.302  26.650  1.00  0.00    -0.460 OA
BRANCH  23  24
ATOM     24  C   UNL A   1      40.135  25.223  26.429  1.00  0.00     0.338 C 
ATOM     25  O   UNL A   1      40.731  25.433  25.375  1.00  0.00    -0.246 OA
BRANCH  24  26
ATOM     26  C   UNL A   1      40.274  26.081  27.615  1.00  0.00     0.060 A 
ATOM     27  C   UNL A   1      39.382  25.906  28.683  1.00  0.00     0.016 A 
ATOM     28  C   UNL A   1      41.245  27.081  27.657  1.00  0.00     0.016 A 
ATOM     29  C   UNL A   1      39.449  26.748  29.792  1.00  0.00     0.010 A 
ATOM     30  C   UNL A   1      41.296  27.938  28.760  1.00  0.00     0.010 A 
ATOM     31  C   UNL A   1      40.381  27.794  29.820  1.00  0.00    -0.014 A 
BRANCH  31  32
ATOM     32  C   UNL A   1      40.294  28.837  30.871  1.00  0.00     0.031 A 
ATOM     33  C   UNL A   1      41.184  28.718  32.080  1.00  0.00     0.074 A 
ATOM     34  C   UNL A   1      39.448  29.876  30.755  1.00  0.00     0.049 A 
ATOM     35  N   UNL A   1      41.235  29.469  33.149  1.00  0.00    -0.248 NA
ATOM     36  C   UNL A   1      42.144  27.600  32.082  1.00  0.00     0.031 C 
ATOM     37  C   UNL A   1      38.573  30.134  29.612  1.00  0.00     0.029 A 
ATOM     38  N   UNL A   1      39.182  30.907  31.621  1.00  0.00    -0.354 N 
ATOM     39  C   UNL A   1      42.223  28.914  33.954  1.00  0.00     0.074 A 
ATOM     40  C   UNL A   1      42.727  27.745  33.263  1.00  0.00     0.031 C 
ATOM     41  C   UNL A   1      37.854  31.244  29.856  1.00  0.00     0.029 A 
ATOM     42  C   UNL A   1      38.192  31.755  31.184  1.00  0.00     0.049 A 
ATOM     43  H   UNL A   1      39.656  31.029  32.476  1.00  0.00     0.167 HD
ATOM     44  C   UNL A   1      42.675  29.339  35.157  1.00  0.00     0.031 A 
ATOM     45  C   UNL A   1      37.607  32.806  31.795  1.00  0.00     0.031 A 
ATOM     46  C   UNL A   1      42.162  30.491  35.849  1.00  0.00     0.049 A 
ATOM     47  C   UNL A   1      38.069  33.208  33.175  1.00  0.00     0.074 A 
ATOM     48  C   UNL A   1      42.562  31.008  37.070  1.00  0.00     0.029 A 
ATOM     49  N   UNL A   1      41.137  31.303  35.388  1.00  0.00    -0.354 N 
ATOM     50  N   UNL A   1      39.018  32.686  33.914  1.00  0.00    -0.248 NA
ATOM     51  C   UNL A   1      37.381  34.349  33.799  1.00  0.00     0.031 C 
ATOM     52  C   UNL A   1      41.737  32.095  37.375  1.00  0.00     0.029 A 
ATOM     53  C   UNL A   1      40.871  32.298  36.314  1.00  0.00     0.049 A 
ATOM     54  H   UNL A   1      40.667  31.187  34.531  1.00  0.00     0.167 HD
ATOM     55  C   UNL A   1      39.064  33.456  35.073  1.00  0.00     0.074 A 
ATOM     56  C   UNL A   1      38.057  34.486  34.932  1.00  0.00     0.031 C 
ATOM     57  C   UNL A   1      39.869  33.323  36.157  1.00  0.00     0.031 A 
BRANCH  44  58
ATOM     58  C   UNL A   1      43.761  28.535  35.820  1.00  0.00    -0.014 A 
ATOM     59  C   UNL A   1      45.118  28.856  35.641  1.00  0.00     0.010 A 
ATOM     60  C   UNL A   1      43.416  27.474  36.678  1.00  0.00     0.010 A 
ATOM     61  C   UNL A   1      46.111  28.113  36.286  1.00  0.00     0.020 A 
ATOM     62  C   UNL A   1      44.405  26.747  37.347  1.00  0.00     0.020 A 
ATOM     63  C   UNL A   1      45.748  27.064  37.136  1.00  0.00     0.054 A 
BRANCH  63  64
ATOM     64  S   UNL A   1      47.057  26.144  37.990  1.00  0.00     0.124 S 
ATOM     65  O   UNL A   1      46.565  26.124  39.365  1.00  0.00    -0.237 OA
ATOM     66  O   UNL A   1      47.043  24.857  37.300  1.00  0.00    -0.237 OA
ATOM     67  O   UNL A   1      48.253  26.954  37.769  1.00  0.00    -0.744 OA
ENDBRANCH  63  64
ENDBRANCH  44  58
BRANCH  45  68
ATOM     68  C   UNL A   1      36.497  33.540  31.126  1.00  0.00    -0.014 A 
ATOM     69  C   UNL A   1      35.309  33.836  31.818  1.00  0.00     0.010 A 
ATOM     70  C   UNL A   1      36.613  33.924  29.777  1.00  0.00     0.010 A 
ATOM     71  C   UNL A   1      34.249  34.475  31.166  1.00  0.00     0.020 A 
ATOM     72  C   UNL A   1      35.567  34.590  29.131  1.00  0.00     0.020 A 
ATOM     73  C   UNL A   1      34.386  34.848  29.826  1.00  0.00     0.054 A 
BRANCH  73  74
ATOM     74  S   UNL A   1      33.008  35.701  29.009  1.00  0.00     0.124 S 
ATOM     75  O   UNL A   1      32.205  36.138  30.147  1.00  0.00    -0.237 OA
ATOM     76  O   UNL A   1      33.687  36.762  28.270  1.00  0.00    -0.237 OA
ATOM     77  O   UNL A   1      32.404  34.661  28.180  1.00  0.00    -0.744 OA
ENDBRANCH  73  74
ENDBRANCH  45  68
BRANCH  57  78
ATOM     78  C   UNL A   1      39.731  34.341  37.262  1.00  0.00    -0.014 A 
ATOM     79  C   UNL A   1      39.005  34.061  38.433  1.00  0.00     0.010 A 
ATOM     80  C   UNL A   1      40.395  35.577  37.149  1.00  0.00     0.010 A 
ATOM     81  C   UNL A   1      38.917  35.011  39.454  1.00  0.00     0.020 A 
ATOM     82  C   UNL A   1      40.334  36.518  38.181  1.00  0.00     0.020 A 
ATOM     83  C   UNL A   1      39.584  36.234  39.323  1.00  0.00     0.054 A 
BRANCH  83  84
ATOM     84  S   UNL A   1      39.491  37.431  40.681  1.00  0.00     0.124 S 
ATOM     85  O   UNL A   1      39.046  36.596  41.793  1.00  0.00    -0.237 OA
ATOM     86  O   UNL A   1      40.865  37.919  40.773  1.00  0.00    -0.237 OA
ATOM     87  O   UNL A   1      38.517  38.414  40.213  1.00  0.00    -0.744 OA
ENDBRANCH  83  84
ENDBRANCH  57  78
ENDBRANCH  31  32
ENDBRANCH  24  26
ENDBRANCH  23  24
ENDBRANCH  22  23
ENDBRANCH  21  22
ENDBRANCH  20  21
ENDBRANCH   1  20
TORSDOF 22
ENDMDL
