MODEL 1
REMARK VINA RESULT:     -12.0      0.000      0.000
REMARK SMILES Cc1ccnc(C(=O)c2[nH]c3cc(Cl)c(F)cc3c2CC(=O)OCCOCCOCCOC(=O)c2ccc(-c3c4nc(c(-c5ccc(S(=O)(=O)[O-])cc5)c5ccc([nH]5)c(-c5ccc(S(=O)(=O)[O-])cc5)c5nc(c(-c6ccc(S(=O)(=O)[O-])cc6)c6ccc3[nH]6)C=C5)C=C4)cc2)c1
REMARK SMILES IDX 27 1 26 2 25 3 24 4 23 5 21 6 22 7 20 8 19 9 9 10 10 11
REMARK SMILES IDX 11 12 18 14 12 15 17 16 13 17 15 18 14 19 16 20 7 21 8 22
REMARK SMILES IDX 6 23 1 24 2 25 3 26 95 27 4 28 5 29 28 30 29 31 30 32 31 33
REMARK SMILES IDX 32 34 33 35 34 36 35 37 36 38 94 39 37 40 93 41 38 42 39 43
REMARK SMILES IDX 40 44 87 45 41 46 92 47 86 48 88 49 42 50 91 51 85 52 84 53
REMARK SMILES IDX 43 55 73 56 54 57 72 58 55 59 58 60 71 61 89 62 56 63 57 64
REMARK SMILES IDX 70 66 90 67 59 68 44 69 45 70 53 71 46 72 52 73 47 74 48 75
REMARK SMILES IDX 49 76 50 77 51 78 74 79 75 80 83 81 76 82 82 83 77 84 78 85
REMARK SMILES IDX 79 86 80 87 81 88 60 89 61 90 69 91 62 92 68 93 63 94 64 95
REMARK SMILES IDX 65 96 66 97 67 98
REMARK H PARENT 10 13 88 54 58 65
REMARK Flexibility Score: inf
ROOT
ATOM      1  C   UNL A   1      39.812  22.233  26.971  1.00  0.00     0.188 C 
ENDROOT
BRANCH   1   2
ATOM      2  O   UNL A   1      39.897  23.587  27.445  1.00  0.00    -0.376 OA
BRANCH   2   3
ATOM      3  C   UNL A   1      38.926  24.463  26.750  1.00  0.00     0.202 C 
BRANCH   3   4
ATOM      4  C   UNL A   1      37.686  23.659  26.314  1.00  0.00     0.261 C 
BRANCH   4   5
ATOM      5  O   UNL A   1      37.415  23.888  24.915  1.00  0.00    -0.463 OA
BRANCH   5   6
ATOM      6  C   UNL A   1      36.668  22.938  24.348  1.00  0.00     0.310 C 
ATOM      7  O   UNL A   1      37.064  21.775  24.216  1.00  0.00    -0.252 OA
BRANCH   6   8
ATOM      8  C   UNL A   1      35.251  23.274  24.039  1.00  0.00     0.161 C 
BRANCH   8   9
ATOM      9  C   UNL A   1      34.033  23.482  24.885  1.00  0.00     0.000 A 
ATOM     10  C   UNL A   1      32.944  22.611  25.072  1.00  0.00     0.093 A 
ATOM     11  N   UNL A   1      31.914  23.492  25.489  1.00  0.00    -0.351 N 
ATOM     12  C   UNL A   1      32.331  24.735  25.828  1.00  0.00     0.048 A 
ATOM     13  H   UNL A   1      30.967  23.220  25.528  1.00  0.00     0.167 HD
ATOM     14  C   UNL A   1      33.650  24.797  25.411  1.00  0.00     0.007 A 
ATOM     15  C   UNL A   1      31.624  25.802  26.413  1.00  0.00     0.050 A 
ATOM     16  C   UNL A   1      34.289  26.052  25.511  1.00  0.00     0.051 A 
ATOM     17  C   UNL A   1      32.316  27.000  26.585  1.00  0.00     0.078 A 
ATOM     18  C   UNL A   1      33.620  27.124  26.120  1.00  0.00     0.142 A 
ATOM     19  Cl  UNL A   1      31.534  28.313  27.388  1.00  0.00    -0.081 Cl
ATOM     20  F   UNL A   1      34.278  28.285  26.265  1.00  0.00    -0.205 F 
BRANCH  10  21
ATOM     21  C   UNL A   1      32.447  21.185  24.947  1.00  0.00     0.227 C 
ATOM     22  O   UNL A   1      31.675  21.061  25.891  1.00  0.00    -0.285 OA
BRANCH  21  23
ATOM     23  C   UNL A   1      32.844  19.755  24.149  1.00  0.00     0.113 A 
ATOM     24  C   UNL A   1      34.452  16.321  24.778  1.00  0.00     0.044 C 
ATOM     25  C   UNL A   1      33.609  17.348  24.067  1.00  0.00    -0.047 A 
ATOM     26  C   UNL A   1      33.077  17.207  22.822  1.00  0.00     0.023 A 
ATOM     27  C   UNL A   1      33.356  18.567  24.715  1.00  0.00     0.036 A 
ATOM     28  C   UNL A   1      32.461  18.335  22.301  1.00  0.00     0.112 A 
ATOM     29  N   UNL A   1      32.385  19.584  22.898  1.00  0.00    -0.253 NA
ENDBRANCH  21  23
ENDBRANCH  10  21
ENDBRANCH   8   9
ENDBRANCH   6   8
ENDBRANCH   5   6
ENDBRANCH   4   5
ENDBRANCH   3   4
ENDBRANCH   2   3
ENDBRANCH   1   2
BRANCH   1  30
ATOM     30  C   UNL A   1      41.022  21.156  27.046  1.00  0.00     0.188 C 
BRANCH  30  31
ATOM     31  O   UNL A   1      41.451  20.317  25.917  1.00  0.00    -0.376 OA
BRANCH  31  32
ATOM     32  C   UNL A   1      42.719  19.604  25.784  1.00  0.00     0.202 C 
BRANCH  32  33
ATOM     33  C   UNL A   1      44.155  20.435  25.418  1.00  0.00     0.261 C 
BRANCH  33  34
ATOM     34  O   UNL A   1      44.399  21.912  25.713  1.00  0.00    -0.460 OA
BRANCH  34  35
ATOM     35  C   UNL A   1      43.903  22.971  24.939  1.00  0.00     0.338 C 
ATOM     36  O   UNL A   1      43.843  22.933  23.715  1.00  0.00    -0.246 OA
BRANCH  35  37
ATOM     37  C   UNL A   1      43.122  24.077  25.750  1.00  0.00     0.060 A 
ATOM     38  C   UNL A   1      42.318  25.068  25.192  1.00  0.00     0.016 A 
ATOM     39  C   UNL A   1      43.473  24.286  27.107  1.00  0.00     0.016 A 
ATOM     40  C   UNL A   1      42.101  26.317  25.864  1.00  0.00     0.010 A 
ATOM     41  C   UNL A   1      43.251  25.530  27.782  1.00  0.00     0.010 A 
ATOM     42  C   UNL A   1      42.610  26.600  27.152  1.00  0.00    -0.014 A 
BRANCH  42  43
ATOM     43  C   UNL A   1      42.159  27.841  27.887  1.00  0.00     0.031 A 
ATOM     44  C   UNL A   1      43.187  28.882  27.895  1.00  0.00     0.074 A 
ATOM     45  C   UNL A   1      41.007  28.281  28.463  1.00  0.00     0.049 A 
ATOM     46  N   UNL A   1      43.863  29.274  28.919  1.00  0.00    -0.248 NA
ATOM     47  C   UNL A   1      43.557  29.474  26.613  1.00  0.00     0.031 C 
ATOM     48  C   UNL A   1      39.816  27.502  28.619  1.00  0.00     0.029 A 
ATOM     49  N   UNL A   1      40.614  29.457  29.080  1.00  0.00    -0.354 N 
ATOM     50  C   UNL A   1      44.614  30.331  28.452  1.00  0.00     0.074 A 
ATOM     51  C   UNL A   1      44.527  30.296  27.009  1.00  0.00     0.031 C 
ATOM     52  C   UNL A   1      38.731  28.234  28.952  1.00  0.00     0.029 A 
ATOM     53  C   UNL A   1      39.235  29.548  29.318  1.00  0.00     0.049 A 
ATOM     54  H   UNL A   1      41.247  30.168  29.330  1.00  0.00     0.167 HD
ATOM     55  C   UNL A   1      45.037  31.318  29.281  1.00  0.00     0.031 A 
ATOM     56  C   UNL A   1      38.480  30.458  29.988  1.00  0.00     0.031 A 
ATOM     57  C   UNL A   1      44.933  30.976  30.674  1.00  0.00     0.049 A 
ATOM     58  C   UNL A   1      39.346  31.147  30.956  1.00  0.00     0.074 A 
ATOM     59  C   UNL A   1      45.501  30.022  31.490  1.00  0.00     0.029 A 
ATOM     60  N   UNL A   1      43.855  31.492  31.349  1.00  0.00    -0.354 N 
ATOM     61  N   UNL A   1      39.804  30.592  32.043  1.00  0.00    -0.248 NA
ATOM     62  C   UNL A   1      39.976  32.395  30.567  1.00  0.00     0.031 C 
ATOM     63  C   UNL A   1      44.556  29.778  32.525  1.00  0.00     0.029 A 
ATOM     64  C   UNL A   1      43.452  30.610  32.323  1.00  0.00     0.049 A 
ATOM     65  H   UNL A   1      43.435  32.363  31.164  1.00  0.00     0.167 HD
ATOM     66  C   UNL A   1      41.043  31.177  32.225  1.00  0.00     0.074 A 
ATOM     67  C   UNL A   1      41.028  32.368  31.385  1.00  0.00     0.031 C 
ATOM     68  C   UNL A   1      42.075  30.488  32.785  1.00  0.00     0.031 A 
BRANCH  55  69
ATOM     69  C   UNL A   1      45.216  32.721  28.790  1.00  0.00    -0.014 A 
ATOM     70  C   UNL A   1      44.118  33.583  28.579  1.00  0.00     0.010 A 
ATOM     71  C   UNL A   1      46.503  33.276  28.709  1.00  0.00     0.010 A 
ATOM     72  C   UNL A   1      44.285  34.904  28.183  1.00  0.00     0.020 A 
ATOM     73  C   UNL A   1      46.682  34.622  28.365  1.00  0.00     0.020 A 
ATOM     74  C   UNL A   1      45.571  35.416  28.074  1.00  0.00     0.054 A 
BRANCH  74  75
ATOM     75  S   UNL A   1      45.750  37.148  27.593  1.00  0.00     0.124 S 
ATOM     76  O   UNL A   1      45.972  37.794  28.884  1.00  0.00    -0.237 OA
ATOM     77  O   UNL A   1      46.906  37.109  26.701  1.00  0.00    -0.237 OA
ATOM     78  O   UNL A   1      44.477  37.458  26.949  1.00  0.00    -0.744 OA
ENDBRANCH  74  75
ENDBRANCH  55  69
BRANCH  56  79
ATOM     79  C   UNL A   1      37.091  30.902  29.666  1.00  0.00    -0.014 A 
ATOM     80  C   UNL A   1      36.695  31.011  28.317  1.00  0.00     0.010 A 
ATOM     81  C   UNL A   1      36.266  31.512  30.635  1.00  0.00     0.010 A 
ATOM     82  C   UNL A   1      35.619  31.815  27.933  1.00  0.00     0.020 A 
ATOM     83  C   UNL A   1      35.180  32.325  30.256  1.00  0.00     0.020 A 
ATOM     84  C   UNL A   1      34.906  32.519  28.901  1.00  0.00     0.054 A 
BRANCH  84  85
ATOM     85  S   UNL A   1      33.728  33.782  28.341  1.00  0.00     0.124 S 
ATOM     86  O   UNL A   1      34.572  34.629  27.503  1.00  0.00    -0.237 OA
ATOM     87  O   UNL A   1      32.728  32.993  27.625  1.00  0.00    -0.237 OA
ATOM     88  O   UNL A   1      33.262  34.399  29.580  1.00  0.00    -0.744 OA
ENDBRANCH  84  85
ENDBRANCH  56  79
BRANCH  68  89
ATOM     89  C   UNL A   1      41.779  29.361  33.754  1.00  0.00    -0.014 A 
ATOM     90  C   UNL A   1      41.758  29.696  35.124  1.00  0.00     0.010 A 
ATOM     91  C   UNL A   1      41.677  28.003  33.401  1.00  0.00     0.010 A 
ATOM     92  C   UNL A   1      41.709  28.710  36.112  1.00  0.00     0.020 A 
ATOM     93  C   UNL A   1      41.598  27.006  34.390  1.00  0.00     0.020 A 
ATOM     94  C   UNL A   1      41.649  27.366  35.740  1.00  0.00     0.054 A 
BRANCH  94  95
ATOM     95  S   UNL A   1      41.698  26.115  37.053  1.00  0.00     0.124 S 
ATOM     96  O   UNL A   1      42.785  26.601  37.904  1.00  0.00    -0.237 OA
ATOM     97  O   UNL A   1      40.363  26.207  37.638  1.00  0.00    -0.237 OA
ATOM     98  O   UNL A   1      41.985  24.866  36.350  1.00  0.00    -0.744 OA
ENDBRANCH  94  95
ENDBRANCH  68  89
ENDBRANCH  42  43
ENDBRANCH  35  37
ENDBRANCH  34  35
ENDBRANCH  33  34
ENDBRANCH  32  33
ENDBRANCH  31  32
ENDBRANCH  30  31
ENDBRANCH   1  30
TORSDOF 23
ENDMDL
MODEL 2
REMARK VINA RESULT:     -11.9      2.487      5.241
REMARK SMILES Cc1ccnc(C(=O)c2[nH]c3cc(Cl)c(F)cc3c2CC(=O)OCCOCCOCCOC(=O)c2ccc(-c3c4nc(c(-c5ccc(S(=O)(=O)[O-])cc5)c5ccc([nH]5)c(-c5ccc(S(=O)(=O)[O-])cc5)c5nc(c(-c6ccc(S(=O)(=O)[O-])cc6)c6ccc3[nH]6)C=C5)C=C4)cc2)c1
REMARK SMILES IDX 27 1 26 2 25 3 24 4 23 5 21 6 22 7 20 8 19 9 9 10 10 11
REMARK SMILES IDX 11 12 18 14 12 15 17 16 13 17 15 18 14 19 16 20 7 21 8 22
REMARK SMILES IDX 6 23 1 24 2 25 3 26 95 27 4 28 5 29 28 30 29 31 30 32 31 33
REMARK SMILES IDX 32 34 33 35 34 36 35 37 36 38 94 39 37 40 93 41 38 42 39 43
REMARK SMILES IDX 40 44 87 45 41 46 92 47 86 48 88 49 42 50 91 51 85 52 84 53
REMARK SMILES IDX 43 55 73 56 54 57 72 58 55 59 58 60 71 61 89 62 56 63 57 64
REMARK SMILES IDX 70 66 90 67 59 68 44 69 45 70 53 71 46 72 52 73 47 74 48 75
REMARK SMILES IDX 49 76 50 77 51 78 74 79 75 80 83 81 76 82 82 83 77 84 78 85
REMARK SMILES IDX 79 86 80 87 81 88 60 89 61 90 69 91 62 92 68 93 63 94 64 95
REMARK SMILES IDX 65 96 66 97 67 98
REMARK H PARENT 10 13 88 54 58 65
REMARK Flexibility Score: inf
ROOT
ATOM      1  C   UNL A   1      33.216  17.979  25.087  1.00  0.00     0.188 C 
ENDROOT
BRANCH   1   2
ATOM      2  O   UNL A   1      32.083  18.741  24.639  1.00  0.00    -0.376 OA
BRANCH   2   3
ATOM      3  C   UNL A   1      32.434  20.167  24.451  1.00  0.00     0.202 C 
BRANCH   3   4
ATOM      4  C   UNL A   1      32.483  20.897  25.808  1.00  0.00     0.261 C 
BRANCH   4   5
ATOM      5  O   UNL A   1      33.185  22.151  25.669  1.00  0.00    -0.463 OA
BRANCH   5   6
ATOM      6  C   UNL A   1      32.830  23.069  26.571  1.00  0.00     0.310 C 
ATOM      7  O   UNL A   1      32.154  22.792  27.567  1.00  0.00    -0.252 OA
BRANCH   6   8
ATOM      8  C   UNL A   1      33.434  24.424  26.442  1.00  0.00     0.161 C 
BRANCH   8   9
ATOM      9  C   UNL A   1      33.302  25.518  25.429  1.00  0.00     0.000 A 
ATOM     10  C   UNL A   1      33.024  26.880  25.648  1.00  0.00     0.093 A 
ATOM     11  N   UNL A   1      32.503  27.293  24.396  1.00  0.00    -0.351 N 
ATOM     12  C   UNL A   1      32.687  26.412  23.384  1.00  0.00     0.048 A 
ATOM     13  H   UNL A   1      32.042  28.156  24.273  1.00  0.00     0.167 HD
ATOM     14  C   UNL A   1      33.135  25.253  23.996  1.00  0.00     0.007 A 
ATOM     15  C   UNL A   1      32.436  26.548  22.006  1.00  0.00     0.050 A 
ATOM     16  C   UNL A   1      33.264  24.112  23.174  1.00  0.00     0.051 A 
ATOM     17  C   UNL A   1      32.667  25.427  21.209  1.00  0.00     0.078 A 
ATOM     18  C   UNL A   1      33.054  24.225  21.791  1.00  0.00     0.142 A 
ATOM     19  Cl  UNL A   1      32.475  25.559  19.499  1.00  0.00    -0.081 Cl
ATOM     20  F   UNL A   1      33.253  23.141  21.027  1.00  0.00    -0.205 F 
BRANCH  10  21
ATOM     21  C   UNL A   1      33.005  28.004  26.664  1.00  0.00     0.227 C 
ATOM     22  O   UNL A   1      31.815  28.141  26.926  1.00  0.00    -0.285 OA
BRANCH  21  23
ATOM     23  C   UNL A   1      34.015  29.218  27.253  1.00  0.00     0.113 A 
ATOM     24  C   UNL A   1      37.719  29.933  27.995  1.00  0.00     0.044 C 
ATOM     25  C   UNL A   1      36.273  30.254  27.714  1.00  0.00    -0.047 A 
ATOM     26  C   UNL A   1      35.698  31.482  27.845  1.00  0.00     0.023 A 
ATOM     27  C   UNL A   1      35.426  29.214  27.302  1.00  0.00     0.036 A 
ATOM     28  C   UNL A   1      34.322  31.520  27.678  1.00  0.00     0.112 A 
ATOM     29  N   UNL A   1      33.488  30.438  27.447  1.00  0.00    -0.253 NA
ENDBRANCH  21  23
ENDBRANCH  10  21
ENDBRANCH   8   9
ENDBRANCH   6   8
ENDBRANCH   5   6
ENDBRANCH   4   5
ENDBRANCH   3   4
ENDBRANCH   2   3
ENDBRANCH   1   2
BRANCH   1  30
ATOM     30  C   UNL A   1      34.735  18.196  24.561  1.00  0.00     0.188 C 
BRANCH  30  31
ATOM     31  O   UNL A   1      35.477  19.459  24.684  1.00  0.00    -0.376 OA
BRANCH  31  32
ATOM     32  C   UNL A   1      36.914  19.616  24.898  1.00  0.00     0.202 C 
BRANCH  32  33
ATOM     33  C   UNL A   1      37.583  21.135  25.259  1.00  0.00     0.261 C 
BRANCH  33  34
ATOM     34  O   UNL A   1      39.079  21.432  25.308  1.00  0.00    -0.460 OA
BRANCH  34  35
ATOM     35  C   UNL A   1      39.820  21.592  26.488  1.00  0.00     0.338 C 
ATOM     36  O   UNL A   1      40.367  20.658  27.064  1.00  0.00    -0.246 OA
BRANCH  35  37
ATOM     37  C   UNL A   1      40.184  23.085  26.846  1.00  0.00     0.060 A 
ATOM     38  C   UNL A   1      41.372  23.504  27.440  1.00  0.00     0.016 A 
ATOM     39  C   UNL A   1      39.143  24.046  26.848  1.00  0.00     0.016 A 
ATOM     40  C   UNL A   1      41.430  24.706  28.222  1.00  0.00     0.010 A 
ATOM     41  C   UNL A   1      39.202  25.250  27.622  1.00  0.00     0.010 A 
ATOM     42  C   UNL A   1      40.330  25.579  28.378  1.00  0.00    -0.014 A 
BRANCH  42  43
ATOM     43  C   UNL A   1      40.524  26.931  29.026  1.00  0.00     0.031 A 
ATOM     44  C   UNL A   1      41.600  27.695  28.396  1.00  0.00     0.074 A 
ATOM     45  C   UNL A   1      39.894  27.664  29.984  1.00  0.00     0.049 A 
ATOM     46  N   UNL A   1      42.745  27.971  28.920  1.00  0.00    -0.248 NA
ATOM     47  C   UNL A   1      41.411  28.110  27.009  1.00  0.00     0.031 C 
ATOM     48  C   UNL A   1      38.804  27.201  30.789  1.00  0.00     0.029 A 
ATOM     49  N   UNL A   1      40.069  28.933  30.512  1.00  0.00    -0.354 N 
ATOM     50  C   UNL A   1      43.358  28.791  27.998  1.00  0.00     0.074 A 
ATOM     51  C   UNL A   1      42.583  28.698  26.780  1.00  0.00     0.031 C 
ATOM     52  C   UNL A   1      38.168  28.189  31.456  1.00  0.00     0.029 A 
ATOM     53  C   UNL A   1      39.017  29.363  31.335  1.00  0.00     0.049 A 
ATOM     54  H   UNL A   1      40.863  29.484  30.327  1.00  0.00     0.167 HD
ATOM     55  C   UNL A   1      44.300  29.692  28.370  1.00  0.00     0.031 A 
ATOM     56  C   UNL A   1      38.859  30.462  32.117  1.00  0.00     0.031 A 
ATOM     57  C   UNL A   1      44.817  29.463  29.692  1.00  0.00     0.049 A 
ATOM     58  C   UNL A   1      40.193  30.977  32.458  1.00  0.00     0.074 A 
ATOM     59  C   UNL A   1      45.521  28.448  30.303  1.00  0.00     0.029 A 
ATOM     60  N   UNL A   1      44.312  30.258  30.691  1.00  0.00    -0.354 N 
ATOM     61  N   UNL A   1      41.006  30.391  33.290  1.00  0.00    -0.248 NA
ATOM     62  C   UNL A   1      40.775  32.016  31.627  1.00  0.00     0.031 C 
ATOM     63  C   UNL A   1      45.164  28.495  31.679  1.00  0.00     0.029 A 
ATOM     64  C   UNL A   1      44.273  29.553  31.870  1.00  0.00     0.049 A 
ATOM     65  H   UNL A   1      44.022  31.192  30.579  1.00  0.00     0.167 HD
ATOM     66  C   UNL A   1      42.263  30.672  32.790  1.00  0.00     0.074 A 
ATOM     67  C   UNL A   1      42.066  31.784  31.869  1.00  0.00     0.031 C 
ATOM     68  C   UNL A   1      43.292  29.789  32.922  1.00  0.00     0.031 A 
BRANCH  55  69
ATOM     69  C   UNL A   1      44.475  30.982  27.632  1.00  0.00    -0.014 A 
ATOM     70  C   UNL A   1      43.777  32.153  28.000  1.00  0.00     0.010 A 
ATOM     71  C   UNL A   1      45.487  31.106  26.667  1.00  0.00     0.010 A 
ATOM     72  C   UNL A   1      43.984  33.367  27.356  1.00  0.00     0.020 A 
ATOM     73  C   UNL A   1      45.744  32.337  26.051  1.00  0.00     0.020 A 
ATOM     74  C   UNL A   1      44.967  33.450  26.378  1.00  0.00     0.054 A 
BRANCH  74  75
ATOM     75  S   UNL A   1      45.233  35.053  25.588  1.00  0.00     0.124 S 
ATOM     76  O   UNL A   1      46.692  35.130  25.555  1.00  0.00    -0.237 OA
ATOM     77  O   UNL A   1      44.582  34.876  24.292  1.00  0.00    -0.237 OA
ATOM     78  O   UNL A   1      44.577  35.994  26.491  1.00  0.00    -0.744 OA
ENDBRANCH  74  75
ENDBRANCH  55  69
BRANCH  56  79
ATOM     79  C   UNL A   1      37.594  31.207  32.395  1.00  0.00    -0.014 A 
ATOM     80  C   UNL A   1      36.623  31.324  31.381  1.00  0.00     0.010 A 
ATOM     81  C   UNL A   1      37.467  32.055  33.516  1.00  0.00     0.010 A 
ATOM     82  C   UNL A   1      35.661  32.338  31.402  1.00  0.00     0.020 A 
ATOM     83  C   UNL A   1      36.501  33.081  33.545  1.00  0.00     0.020 A 
ATOM     84  C   UNL A   1      35.647  33.250  32.454  1.00  0.00     0.054 A 
BRANCH  84  85
ATOM     85  S   UNL A   1      34.597  34.723  32.290  1.00  0.00     0.124 S 
ATOM     86  O   UNL A   1      35.391  35.736  32.981  1.00  0.00    -0.237 OA
ATOM     87  O   UNL A   1      34.497  34.887  30.842  1.00  0.00    -0.237 OA
ATOM     88  O   UNL A   1      33.355  34.342  32.960  1.00  0.00    -0.744 OA
ENDBRANCH  84  85
ENDBRANCH  56  79
BRANCH  68  89
ATOM     89  C   UNL A   1      43.297  28.821  34.088  1.00  0.00    -0.014 A 
ATOM     90  C   UNL A   1      42.650  27.584  33.885  1.00  0.00     0.010 A 
ATOM     91  C   UNL A   1      43.758  29.124  35.382  1.00  0.00     0.010 A 
ATOM     92  C   UNL A   1      42.407  26.709  34.946  1.00  0.00     0.020 A 
ATOM     93  C   UNL A   1      43.543  28.235  36.450  1.00  0.00     0.020 A 
ATOM     94  C   UNL A   1      42.837  27.048  36.229  1.00  0.00     0.054 A 
BRANCH  94  95
ATOM     95  S   UNL A   1      42.404  25.935  37.595  1.00  0.00     0.124 S 
ATOM     96  O   UNL A   1      40.972  26.183  37.755  1.00  0.00    -0.237 OA
ATOM     97  O   UNL A   1      42.752  24.619  37.064  1.00  0.00    -0.237 OA
ATOM     98  O   UNL A   1      43.232  26.394  38.710  1.00  0.00    -0.744 OA
ENDBRANCH  94  95
ENDBRANCH  68  89
ENDBRANCH  42  43
ENDBRANCH  35  37
ENDBRANCH  34  35
ENDBRANCH  33  34
ENDBRANCH  32  33
ENDBRANCH  31  32
ENDBRANCH  30  31
ENDBRANCH   1  30
TORSDOF 23
ENDMDL
MODEL 3
REMARK VINA RESULT:     -10.9      1.743      2.254
REMARK SMILES Cc1ccnc(C(=O)c2[nH]c3cc(Cl)c(F)cc3c2CC(=O)OCCOCCOCCOC(=O)c2ccc(-c3c4nc(c(-c5ccc(S(=O)(=O)[O-])cc5)c5ccc([nH]5)c(-c5ccc(S(=O)(=O)[O-])cc5)c5nc(c(-c6ccc(S(=O)(=O)[O-])cc6)c6ccc3[nH]6)C=C5)C=C4)cc2)c1
REMARK SMILES IDX 27 1 26 2 25 3 24 4 23 5 21 6 22 7 20 8 19 9 9 10 10 11
REMARK SMILES IDX 11 12 18 14 12 15 17 16 13 17 15 18 14 19 16 20 7 21 8 22
REMARK SMILES IDX 6 23 1 24 2 25 3 26 95 27 4 28 5 29 28 30 29 31 30 32 31 33
REMARK SMILES IDX 32 34 33 35 34 36 35 37 36 38 94 39 37 40 93 41 38 42 39 43
REMARK SMILES IDX 40 44 87 45 41 46 92 47 86 48 88 49 42 50 91 51 85 52 84 53
REMARK SMILES IDX 43 55 73 56 54 57 72 58 55 59 58 60 71 61 89 62 56 63 57 64
REMARK SMILES IDX 70 66 90 67 59 68 44 69 45 70 53 71 46 72 52 73 47 74 48 75
REMARK SMILES IDX 49 76 50 77 51 78 74 79 75 80 83 81 76 82 82 83 77 84 78 85
REMARK SMILES IDX 79 86 80 87 81 88 60 89 61 90 69 91 62 92 68 93 63 94 64 95
REMARK SMILES IDX 65 96 66 97 67 98
REMARK H PARENT 10 13 88 54 58 65
REMARK Flexibility Score: inf
ROOT
ATOM      1  C   UNL A   1      40.094  21.611  26.871  1.00  0.00     0.188 C 
ENDROOT
BRANCH   1   2
ATOM      2  O   UNL A   1      40.121  22.943  27.410  1.00  0.00    -0.376 OA
BRANCH   2   3
ATOM      3  C   UNL A   1      39.484  23.910  26.488  1.00  0.00     0.202 C 
BRANCH   3   4
ATOM      4  C   UNL A   1      37.970  23.642  26.382  1.00  0.00     0.261 C 
BRANCH   4   5
ATOM      5  O   UNL A   1      37.507  23.940  25.048  1.00  0.00    -0.463 OA
BRANCH   5   6
ATOM      6  C   UNL A   1      36.270  23.504  24.797  1.00  0.00     0.310 C 
ATOM      7  O   UNL A   1      36.049  22.452  24.190  1.00  0.00    -0.252 OA
BRANCH   6   8
ATOM      8  C   UNL A   1      35.144  24.237  25.439  1.00  0.00     0.161 C 
BRANCH   8   9
ATOM      9  C   UNL A   1      33.654  24.149  25.316  1.00  0.00     0.000 A 
ATOM     10  C   UNL A   1      32.840  23.003  25.390  1.00  0.00     0.093 A 
ATOM     11  N   UNL A   1      31.672  23.411  24.698  1.00  0.00    -0.351 N 
ATOM     12  C   UNL A   1      31.588  24.742  24.458  1.00  0.00     0.048 A 
ATOM     13  H   UNL A   1      30.974  22.775  24.415  1.00  0.00     0.167 HD
ATOM     14  C   UNL A   1      32.839  25.243  24.777  1.00  0.00     0.007 A 
ATOM     15  C   UNL A   1      30.527  25.505  23.937  1.00  0.00     0.050 A 
ATOM     16  C   UNL A   1      33.075  26.601  24.473  1.00  0.00     0.051 A 
ATOM     17  C   UNL A   1      30.764  26.865  23.739  1.00  0.00     0.078 A 
ATOM     18  C   UNL A   1      32.026  27.395  23.984  1.00  0.00     0.142 A 
ATOM     19  Cl  UNL A   1      29.472  27.873  23.198  1.00  0.00    -0.081 Cl
ATOM     20  F   UNL A   1      32.260  28.698  23.772  1.00  0.00    -0.205 F 
BRANCH  10  21
ATOM     21  C   UNL A   1      32.752  21.559  25.838  1.00  0.00     0.227 C 
ATOM     22  O   UNL A   1      33.179  21.583  26.987  1.00  0.00    -0.285 OA
BRANCH  21  23
ATOM     23  C   UNL A   1      32.548  20.021  25.178  1.00  0.00     0.113 A 
ATOM     24  C   UNL A   1      32.220  18.237  21.789  1.00  0.00     0.044 C 
ATOM     25  C   UNL A   1      32.492  18.371  23.265  1.00  0.00    -0.047 A 
ATOM     26  C   UNL A   1      32.645  17.336  24.136  1.00  0.00     0.023 A 
ATOM     27  C   UNL A   1      32.579  19.660  23.814  1.00  0.00     0.036 A 
ATOM     28  C   UNL A   1      32.739  17.686  25.475  1.00  0.00     0.112 A 
ATOM     29  N   UNL A   1      32.640  18.965  26.002  1.00  0.00    -0.253 NA
ENDBRANCH  21  23
ENDBRANCH  10  21
ENDBRANCH   8   9
ENDBRANCH   6   8
ENDBRANCH   5   6
ENDBRANCH   4   5
ENDBRANCH   3   4
ENDBRANCH   2   3
ENDBRANCH   1   2
BRANCH   1  30
ATOM     30  C   UNL A   1      41.321  20.555  26.972  1.00  0.00     0.188 C 
BRANCH  30  31
ATOM     31  O   UNL A   1      41.635  19.556  25.938  1.00  0.00    -0.376 OA
BRANCH  31  32
ATOM     32  C   UNL A   1      42.661  18.518  26.005  1.00  0.00     0.202 C 
BRANCH  32  33
ATOM     33  C   UNL A   1      44.226  18.796  25.405  1.00  0.00     0.261 C 
BRANCH  33  34
ATOM     34  O   UNL A   1      44.956  20.133  25.479  1.00  0.00    -0.460 OA
BRANCH  34  35
ATOM     35  C   UNL A   1      44.618  21.267  24.725  1.00  0.00     0.338 C 
ATOM     36  O   UNL A   1      44.565  21.262  23.500  1.00  0.00    -0.246 OA
BRANCH  35  37
ATOM     37  C   UNL A   1      43.992  22.454  25.555  1.00  0.00     0.060 A 
ATOM     38  C   UNL A   1      43.141  23.431  25.046  1.00  0.00     0.016 A 
ATOM     39  C   UNL A   1      44.540  22.743  26.830  1.00  0.00     0.016 A 
ATOM     40  C   UNL A   1      43.055  24.731  25.648  1.00  0.00     0.010 A 
ATOM     41  C   UNL A   1      44.450  24.038  27.436  1.00  0.00     0.010 A 
ATOM     42  C   UNL A   1      43.752  25.084  26.826  1.00  0.00    -0.014 A 
BRANCH  42  43
ATOM     43  C   UNL A   1      43.443  26.388  27.525  1.00  0.00     0.031 A 
ATOM     44  C   UNL A   1      44.507  27.376  27.342  1.00  0.00     0.074 A 
ATOM     45  C   UNL A   1      42.388  26.918  28.201  1.00  0.00     0.049 A 
ATOM     46  N   UNL A   1      45.317  27.797  28.252  1.00  0.00    -0.248 NA
ATOM     47  C   UNL A   1      44.744  27.870  25.989  1.00  0.00     0.031 C 
ATOM     48  C   UNL A   1      41.193  26.208  28.547  1.00  0.00     0.029 A 
ATOM     49  N   UNL A   1      42.120  28.148  28.780  1.00  0.00    -0.354 N 
ATOM     50  C   UNL A   1      46.048  28.786  27.630  1.00  0.00     0.074 A 
ATOM     51  C   UNL A   1      45.787  28.667  26.213  1.00  0.00     0.031 C 
ATOM     52  C   UNL A   1      40.187  27.012  28.955  1.00  0.00     0.029 A 
ATOM     53  C   UNL A   1      40.784  28.320  29.172  1.00  0.00     0.049 A 
ATOM     54  H   UNL A   1      42.808  28.840  28.906  1.00  0.00     0.167 HD
ATOM     55  C   UNL A   1      46.608  29.800  28.336  1.00  0.00     0.031 A 
ATOM     56  C   UNL A   1      40.153  29.304  29.863  1.00  0.00     0.031 A 
ATOM     57  C   UNL A   1      46.658  29.550  29.751  1.00  0.00     0.049 A 
ATOM     58  C   UNL A   1      41.157  30.008  30.675  1.00  0.00     0.074 A 
ATOM     59  C   UNL A   1      47.280  28.621  30.557  1.00  0.00     0.029 A 
ATOM     60  N   UNL A   1      45.691  30.158  30.512  1.00  0.00    -0.354 N 
ATOM     61  N   UNL A   1      41.719  29.500  31.735  1.00  0.00    -0.248 NA
ATOM     62  C   UNL A   1      41.786  31.198  30.132  1.00  0.00     0.031 C 
ATOM     63  C   UNL A   1      46.457  28.488  31.711  1.00  0.00     0.029 A 
ATOM     64  C   UNL A   1      45.372  29.358  31.584  1.00  0.00     0.049 A 
ATOM     65  H   UNL A   1      45.287  31.035  30.321  1.00  0.00     0.167 HD
ATOM     66  C   UNL A   1      42.994  30.034  31.731  1.00  0.00     0.074 A 
ATOM     67  C   UNL A   1      42.927  31.171  30.821  1.00  0.00     0.031 C 
ATOM     68  C   UNL A   1      44.057  29.331  32.211  1.00  0.00     0.031 A 
BRANCH  55  69
ATOM     69  C   UNL A   1      46.784  31.160  27.736  1.00  0.00    -0.014 A 
ATOM     70  C   UNL A   1      45.733  32.103  27.703  1.00  0.00     0.010 A 
ATOM     71  C   UNL A   1      48.062  31.599  27.358  1.00  0.00     0.010 A 
ATOM     72  C   UNL A   1      45.912  33.387  27.202  1.00  0.00     0.020 A 
ATOM     73  C   UNL A   1      48.266  32.909  26.904  1.00  0.00     0.020 A 
ATOM     74  C   UNL A   1      47.181  33.781  26.800  1.00  0.00     0.054 A 
BRANCH  74  75
ATOM     75  S   UNL A   1      47.382  35.469  26.190  1.00  0.00     0.124 S 
ATOM     76  O   UNL A   1      46.001  35.944  26.163  1.00  0.00    -0.237 OA
ATOM     77  O   UNL A   1      48.236  36.072  27.210  1.00  0.00    -0.237 OA
ATOM     78  O   UNL A   1      48.007  35.288  24.883  1.00  0.00    -0.744 OA
ENDBRANCH  74  75
ENDBRANCH  55  69
BRANCH  56  79
ATOM     79  C   UNL A   1      38.755  29.795  29.677  1.00  0.00    -0.014 A 
ATOM     80  C   UNL A   1      38.294  30.093  28.379  1.00  0.00     0.010 A 
ATOM     81  C   UNL A   1      37.986  30.265  30.762  1.00  0.00     0.010 A 
ATOM     82  C   UNL A   1      37.209  30.947  28.165  1.00  0.00     0.020 A 
ATOM     83  C   UNL A   1      36.891  31.129  30.556  1.00  0.00     0.020 A 
ATOM     84  C   UNL A   1      36.553  31.511  29.257  1.00  0.00     0.054 A 
BRANCH  84  85
ATOM     85  S   UNL A   1      35.362  32.845  28.940  1.00  0.00     0.124 S 
ATOM     86  O   UNL A   1      34.375  32.624  29.994  1.00  0.00    -0.237 OA
ATOM     87  O   UNL A   1      36.179  34.047  29.090  1.00  0.00    -0.237 OA
ATOM     88  O   UNL A   1      34.893  32.578  27.582  1.00  0.00    -0.744 OA
ENDBRANCH  84  85
ENDBRANCH  56  79
BRANCH  68  89
ATOM     89  C   UNL A   1      43.833  28.282  33.281  1.00  0.00    -0.014 A 
ATOM     90  C   UNL A   1      43.501  26.986  32.836  1.00  0.00     0.010 A 
ATOM     91  C   UNL A   1      43.785  28.542  34.664  1.00  0.00     0.010 A 
ATOM     92  C   UNL A   1      43.067  26.002  33.725  1.00  0.00     0.020 A 
ATOM     93  C   UNL A   1      43.377  27.546  35.569  1.00  0.00     0.020 A 
ATOM     94  C   UNL A   1      42.987  26.293  35.088  1.00  0.00     0.054 A 
BRANCH  94  95
ATOM     95  S   UNL A   1      42.314  25.021  36.193  1.00  0.00     0.124 S 
ATOM     96  O   UNL A   1      42.929  25.366  37.474  1.00  0.00    -0.237 OA
ATOM     97  O   UNL A   1      40.873  25.252  36.114  1.00  0.00    -0.237 OA
ATOM     98  O   UNL A   1      42.774  23.760  35.614  1.00  0.00    -0.744 OA
ENDBRANCH  94  95
ENDBRANCH  68  89
ENDBRANCH  42  43
ENDBRANCH  35  37
ENDBRANCH  34  35
ENDBRANCH  33  34
ENDBRANCH  32  33
ENDBRANCH  31  32
ENDBRANCH  30  31
ENDBRANCH   1  30
TORSDOF 23
ENDMDL
