MODEL 1
REMARK VINA RESULT:     -10.5      0.000      0.000
REMARK SMILES COc1cccc([C@H]2CC(c3ccc(S(C)(=O)=O)cc3)=NN2c2ccc(C(=O)OCCOCCOCCOC(=O)c3ccc(-c4c5nc(c(-c6ccc(S(=O)(=O)[O-])cc6)c6ccc([nH]6)c(-c6ccc(S(=O)(=O)[O-])cc6)c6nc(c(-c7ccc(S(=O)(=O)[O-])cc7)c7ccc4[nH]7)C=C6)C=C5)cc3)cc2)c1
REMARK SMILES IDX 33 1 32 2 31 3 30 4 29 5 27 6 28 7 26 8 23 9 24 10 102 11
REMARK SMILES IDX 25 12 101 13 22 14 8 15 9 16 10 17 21 18 7 19 3 20 4 21
REMARK SMILES IDX 103 22 5 23 6 24 2 25 1 26 11 27 12 28 20 29 13 30 19 31
REMARK SMILES IDX 14 32 15 33 16 34 17 35 18 36 34 37 35 38 36 39 37 40 38 41
REMARK SMILES IDX 39 42 40 43 41 44 42 45 100 46 43 47 99 48 44 49 45 50 46 51
REMARK SMILES IDX 93 52 47 53 98 54 92 55 94 56 48 57 97 58 91 59 90 60 49 62
REMARK SMILES IDX 79 63 60 64 78 65 61 66 64 67 77 68 95 69 62 70 63 71 76 73
REMARK SMILES IDX 96 74 65 75 50 76 51 77 59 78 52 79 58 80 53 81 54 82 55 83
REMARK SMILES IDX 56 84 57 85 80 86 81 87 89 88 82 89 88 90 83 91 84 92 85 93
REMARK SMILES IDX 86 94 87 95 66 96 67 97 75 98 68 99 74 100 69 101 70 102
REMARK SMILES IDX 71 103 72 104 73 105
REMARK H PARENT 94 61 64 72
REMARK Flexibility Score: inf
ROOT
ATOM      1  C   UNL A   1      34.461  21.180  24.610  1.00  0.00     0.188 C 
ENDROOT
BRANCH   1   2
ATOM      2  O   UNL A   1      34.424  22.259  23.699  1.00  0.00    -0.376 OA
BRANCH   2   3
ATOM      3  C   UNL A   1      33.332  22.423  22.812  1.00  0.00     0.202 C 
BRANCH   3   4
ATOM      4  C   UNL A   1      32.883  23.770  22.219  1.00  0.00     0.261 C 
BRANCH   4   5
ATOM      5  O   UNL A   1      33.245  24.031  20.860  1.00  0.00    -0.460 OA
BRANCH   5   6
ATOM      6  C   UNL A   1      32.698  25.154  20.328  1.00  0.00     0.338 C 
ATOM      7  O   UNL A   1      32.322  25.306  19.178  1.00  0.00    -0.246 OA
BRANCH   6   8
ATOM      8  C   UNL A   1      32.466  26.155  21.391  1.00  0.00     0.060 A 
ATOM      9  C   UNL A   1      32.150  27.913  23.556  1.00  0.00     0.060 A 
ATOM     10  C   UNL A   1      33.394  27.782  22.928  1.00  0.00     0.029 A 
ATOM     11  C   UNL A   1      31.048  27.234  23.011  1.00  0.00     0.029 A 
ATOM     12  C   UNL A   1      33.562  26.881  21.872  1.00  0.00     0.018 A 
ATOM     13  C   UNL A   1      31.194  26.370  21.922  1.00  0.00     0.018 A 
BRANCH   9  14
ATOM     14  N   UNL A   1      32.033  28.555  24.789  1.00  0.00    -0.257 N 
ATOM     15  C   UNL A   1      31.506  27.831  25.954  1.00  0.00     0.144 C 
ATOM     16  C   UNL A   1      31.848  28.764  27.115  1.00  0.00     0.091 C 
ATOM     17  C   UNL A   1      32.600  29.842  26.381  1.00  0.00     0.071 C 
ATOM     18  N   UNL A   1      32.721  29.686  25.099  1.00  0.00    -0.176 NA
BRANCH  15  19
ATOM     19  C   UNL A   1      32.088  26.430  26.100  1.00  0.00    -0.019 A 
ATOM     20  C   UNL A   1      31.873  24.074  26.691  1.00  0.00     0.119 A 
ATOM     21  C   UNL A   1      33.249  23.913  26.539  1.00  0.00     0.046 A 
ATOM     22  C   UNL A   1      31.297  25.331  26.491  1.00  0.00     0.052 A 
ATOM     23  C   UNL A   1      34.047  24.988  26.155  1.00  0.00     0.004 A 
ATOM     24  C   UNL A   1      33.470  26.237  25.932  1.00  0.00     0.006 A 
BRANCH  20  25
ATOM     25  O   UNL A   1      31.201  22.958  27.106  1.00  0.00    -0.497 OA
ATOM     26  C   UNL A   1      29.862  22.835  26.641  1.00  0.00     0.278 C 
ENDBRANCH  20  25
ENDBRANCH  15  19
BRANCH  17  27
ATOM     27  C   UNL A   1      33.072  31.027  27.114  1.00  0.00    -0.002 A 
ATOM     28  C   UNL A   1      32.292  32.188  27.079  1.00  0.00     0.011 A 
ATOM     29  C   UNL A   1      34.230  30.968  27.896  1.00  0.00     0.011 A 
ATOM     30  C   UNL A   1      32.661  33.295  27.846  1.00  0.00     0.021 A 
ATOM     31  C   UNL A   1      34.616  32.085  28.643  1.00  0.00     0.021 A 
ATOM     32  C   UNL A   1      33.827  33.242  28.616  1.00  0.00     0.067 A 
BRANCH  32  33
ATOM     33  S   UNL A   1      34.275  34.648  29.609  1.00  0.00     0.175 S 
ATOM     34  C   UNL A   1      33.277  35.972  28.974  1.00  0.00     0.163 C 
ATOM     35  O   UNL A   1      33.846  34.353  30.963  1.00  0.00    -0.224 OA
ATOM     36  O   UNL A   1      35.664  34.962  29.327  1.00  0.00    -0.224 OA
ENDBRANCH  32  33
ENDBRANCH  17  27
ENDBRANCH   9  14
ENDBRANCH   6   8
ENDBRANCH   5   6
ENDBRANCH   4   5
ENDBRANCH   3   4
ENDBRANCH   2   3
ENDBRANCH   1   2
BRANCH   1  37
ATOM     37  C   UNL A   1      35.823  20.630  25.079  1.00  0.00     0.188 C 
BRANCH  37  38
ATOM     38  O   UNL A   1      36.736  21.514  25.689  1.00  0.00    -0.376 OA
BRANCH  38  39
ATOM     39  C   UNL A   1      38.105  21.499  25.325  1.00  0.00     0.202 C 
BRANCH  39  40
ATOM     40  C   UNL A   1      39.102  20.349  25.571  1.00  0.00     0.261 C 
BRANCH  40  41
ATOM     41  O   UNL A   1      40.013  20.462  26.666  1.00  0.00    -0.460 OA
BRANCH  41  42
ATOM     42  C   UNL A   1      41.315  20.234  26.367  1.00  0.00     0.338 C 
ATOM     43  O   UNL A   1      41.791  19.231  25.857  1.00  0.00    -0.246 OA
BRANCH  42  44
ATOM     44  C   UNL A   1      42.082  21.470  26.598  1.00  0.00     0.060 A 
ATOM     45  C   UNL A   1      42.591  21.718  27.880  1.00  0.00     0.016 A 
ATOM     46  C   UNL A   1      42.263  22.397  25.570  1.00  0.00     0.016 A 
ATOM     47  C   UNL A   1      43.270  22.906  28.143  1.00  0.00     0.010 A 
ATOM     48  C   UNL A   1      42.926  23.598  25.842  1.00  0.00     0.010 A 
ATOM     49  C   UNL A   1      43.407  23.871  27.137  1.00  0.00    -0.014 A 
BRANCH  49  50
ATOM     50  C   UNL A   1      43.902  25.226  27.483  1.00  0.00     0.031 A 
ATOM     51  C   UNL A   1      45.334  25.572  27.178  1.00  0.00     0.074 A 
ATOM     52  C   UNL A   1      43.088  26.144  28.033  1.00  0.00     0.049 A 
ATOM     53  N   UNL A   1      45.986  26.683  27.406  1.00  0.00    -0.248 NA
ATOM     54  C   UNL A   1      46.139  24.523  26.529  1.00  0.00     0.031 C 
ATOM     55  C   UNL A   1      41.671  25.948  28.337  1.00  0.00     0.029 A 
ATOM     56  N   UNL A   1      43.344  27.433  28.437  1.00  0.00    -0.354 N 
ATOM     57  C   UNL A   1      47.276  26.466  26.938  1.00  0.00     0.074 A 
ATOM     58  C   UNL A   1      47.325  25.107  26.442  1.00  0.00     0.031 C 
ATOM     59  C   UNL A   1      41.183  27.076  28.886  1.00  0.00     0.029 A 
ATOM     60  C   UNL A   1      42.259  28.059  29.004  1.00  0.00     0.049 A 
ATOM     61  H   UNL A   1      44.221  27.866  28.332  1.00  0.00     0.167 HD
ATOM     62  C   UNL A   1      48.327  27.322  26.917  1.00  0.00     0.031 A 
ATOM     63  C   UNL A   1      42.152  29.278  29.570  1.00  0.00     0.031 A 
ATOM     64  C   UNL A   1      48.281  28.667  27.427  1.00  0.00     0.049 A 
ATOM     65  C   UNL A   1      43.357  30.184  29.608  1.00  0.00     0.074 A 
ATOM     66  C   UNL A   1      49.288  29.617  27.434  1.00  0.00     0.029 A 
ATOM     67  N   UNL A   1      47.178  29.249  28.031  1.00  0.00    -0.354 N 
ATOM     68  N   UNL A   1      44.562  29.979  29.129  1.00  0.00    -0.248 NA
ATOM     69  C   UNL A   1      43.184  31.492  30.257  1.00  0.00     0.031 C 
ATOM     70  C   UNL A   1      48.813  30.750  28.103  1.00  0.00     0.029 A 
ATOM     71  C   UNL A   1      47.488  30.533  28.447  1.00  0.00     0.049 A 
ATOM     72  H   UNL A   1      46.302  28.813  28.149  1.00  0.00     0.167 HD
ATOM     73  C   UNL A   1      45.280  31.141  29.393  1.00  0.00     0.074 A 
ATOM     74  C   UNL A   1      44.370  32.052  30.057  1.00  0.00     0.031 C 
ATOM     75  C   UNL A   1      46.575  31.430  29.112  1.00  0.00     0.031 A 
BRANCH  62  76
ATOM     76  C   UNL A   1      49.628  26.812  26.353  1.00  0.00    -0.014 A 
ATOM     77  C   UNL A   1      50.415  25.880  27.053  1.00  0.00     0.010 A 
ATOM     78  C   UNL A   1      50.052  27.246  25.083  1.00  0.00     0.010 A 
ATOM     79  C   UNL A   1      51.618  25.420  26.512  1.00  0.00     0.020 A 
ATOM     80  C   UNL A   1      51.240  26.766  24.524  1.00  0.00     0.020 A 
ATOM     81  C   UNL A   1      52.023  25.868  25.251  1.00  0.00     0.054 A 
BRANCH  81  82
ATOM     82  S   UNL A   1      53.578  25.235  24.563  1.00  0.00     0.124 S 
ATOM     83  O   UNL A   1      54.572  25.976  25.336  1.00  0.00    -0.237 OA
ATOM     84  O   UNL A   1      53.495  23.806  24.852  1.00  0.00    -0.237 OA
ATOM     85  O   UNL A   1      53.501  25.588  23.148  1.00  0.00    -0.744 OA
ENDBRANCH  81  82
ENDBRANCH  62  76
BRANCH  63  86
ATOM     86  C   UNL A   1      40.858  29.712  30.167  1.00  0.00    -0.014 A 
ATOM     87  C   UNL A   1      39.889  30.369  29.389  1.00  0.00     0.010 A 
ATOM     88  C   UNL A   1      40.594  29.481  31.530  1.00  0.00     0.010 A 
ATOM     89  C   UNL A   1      38.691  30.803  29.965  1.00  0.00     0.020 A 
ATOM     90  C   UNL A   1      39.383  29.884  32.102  1.00  0.00     0.020 A 
ATOM     91  C   UNL A   1      38.444  30.555  31.318  1.00  0.00     0.054 A 
BRANCH  91  92
ATOM     92  S   UNL A   1      36.864  31.089  32.031  1.00  0.00     0.124 S 
ATOM     93  O   UNL A   1      36.630  32.354  31.340  1.00  0.00    -0.237 OA
ATOM     94  O   UNL A   1      35.968  29.995  31.666  1.00  0.00    -0.237 OA
ATOM     95  O   UNL A   1      37.152  31.201  33.459  1.00  0.00    -0.744 OA
ENDBRANCH  91  92
ENDBRANCH  63  86
BRANCH  75  96
ATOM     96  C   UNL A   1      47.084  32.800  29.488  1.00  0.00    -0.014 A 
ATOM     97  C   UNL A   1      47.001  33.884  28.595  1.00  0.00     0.010 A 
ATOM     98  C   UNL A   1      47.607  33.016  30.777  1.00  0.00     0.010 A 
ATOM     99  C   UNL A   1      47.468  35.147  28.971  1.00  0.00     0.020 A 
ATOM    100  C   UNL A   1      48.045  34.284  31.168  1.00  0.00     0.020 A 
ATOM    101  C   UNL A   1      47.987  35.340  30.255  1.00  0.00     0.054 A 
BRANCH 101 102
ATOM    102  S   UNL A   1      48.555  36.996  30.730  1.00  0.00     0.124 S 
ATOM    103  O   UNL A   1      49.725  37.173  29.875  1.00  0.00    -0.237 OA
ATOM    104  O   UNL A   1      47.404  37.834  30.401  1.00  0.00    -0.237 OA
ATOM    105  O   UNL A   1      48.838  36.870  32.157  1.00  0.00    -0.744 OA
ENDBRANCH 101 102
ENDBRANCH  75  96
ENDBRANCH  49  50
ENDBRANCH  42  44
ENDBRANCH  41  42
ENDBRANCH  40  41
ENDBRANCH  39  40
ENDBRANCH  38  39
ENDBRANCH  37  38
ENDBRANCH   1  37
TORSDOF 25
ENDMDL
MODEL 2
REMARK VINA RESULT:     -10.0      0.786      7.579
REMARK SMILES COc1cccc([C@H]2CC(c3ccc(S(C)(=O)=O)cc3)=NN2c2ccc(C(=O)OCCOCCOCCOC(=O)c3ccc(-c4c5nc(c(-c6ccc(S(=O)(=O)[O-])cc6)c6ccc([nH]6)c(-c6ccc(S(=O)(=O)[O-])cc6)c6nc(c(-c7ccc(S(=O)(=O)[O-])cc7)c7ccc4[nH]7)C=C6)C=C5)cc3)cc2)c1
REMARK SMILES IDX 33 1 32 2 31 3 30 4 29 5 27 6 28 7 26 8 23 9 24 10 102 11
REMARK SMILES IDX 25 12 101 13 22 14 8 15 9 16 10 17 21 18 7 19 3 20 4 21
REMARK SMILES IDX 103 22 5 23 6 24 2 25 1 26 11 27 12 28 20 29 13 30 19 31
REMARK SMILES IDX 14 32 15 33 16 34 17 35 18 36 34 37 35 38 36 39 37 40 38 41
REMARK SMILES IDX 39 42 40 43 41 44 42 45 100 46 43 47 99 48 44 49 45 50 46 51
REMARK SMILES IDX 93 52 47 53 98 54 92 55 94 56 48 57 97 58 91 59 90 60 49 62
REMARK SMILES IDX 79 63 60 64 78 65 61 66 64 67 77 68 95 69 62 70 63 71 76 73
REMARK SMILES IDX 96 74 65 75 50 76 51 77 59 78 52 79 58 80 53 81 54 82 55 83
REMARK SMILES IDX 56 84 57 85 80 86 81 87 89 88 82 89 88 90 83 91 84 92 85 93
REMARK SMILES IDX 86 94 87 95 66 96 67 97 75 98 68 99 74 100 69 101 70 102
REMARK SMILES IDX 71 103 72 104 73 105
REMARK H PARENT 94 61 64 72
REMARK Flexibility Score: inf
ROOT
ATOM      1  C   UNL A   1      34.906  21.169  24.674  1.00  0.00     0.188 C 
ENDROOT
BRANCH   1   2
ATOM      2  O   UNL A   1      34.546  22.214  23.794  1.00  0.00    -0.376 OA
BRANCH   2   3
ATOM      3  C   UNL A   1      33.265  22.248  23.192  1.00  0.00     0.202 C 
BRANCH   3   4
ATOM      4  C   UNL A   1      32.731  23.412  22.338  1.00  0.00     0.261 C 
BRANCH   4   5
ATOM      5  O   UNL A   1      33.488  23.762  21.176  1.00  0.00    -0.460 OA
BRANCH   5   6
ATOM      6  C   UNL A   1      33.030  24.847  20.500  1.00  0.00     0.338 C 
ATOM      7  O   UNL A   1      32.790  24.913  19.307  1.00  0.00    -0.246 OA
BRANCH   6   8
ATOM      8  C   UNL A   1      32.701  25.932  21.449  1.00  0.00     0.060 A 
ATOM      9  C   UNL A   1      32.158  27.848  23.427  1.00  0.00     0.060 A 
ATOM     10  C   UNL A   1      33.479  27.575  23.051  1.00  0.00     0.029 A 
ATOM     11  C   UNL A   1      31.116  27.227  22.718  1.00  0.00     0.029 A 
ATOM     12  C   UNL A   1      33.753  26.596  22.092  1.00  0.00     0.018 A 
ATOM     13  C   UNL A   1      31.379  26.285  21.721  1.00  0.00     0.018 A 
BRANCH   9  14
ATOM     14  N   UNL A   1      31.876  28.578  24.582  1.00  0.00    -0.257 N 
ATOM     15  C   UNL A   1      31.064  27.985  25.653  1.00  0.00     0.144 C 
ATOM     16  C   UNL A   1      31.276  28.955  26.815  1.00  0.00     0.091 C 
ATOM     17  C   UNL A   1      32.263  29.906  26.195  1.00  0.00     0.071 C 
ATOM     18  N   UNL A   1      32.609  29.656  24.969  1.00  0.00    -0.176 NA
BRANCH  15  19
ATOM     19  C   UNL A   1      31.455  26.547  25.974  1.00  0.00    -0.019 A 
ATOM     20  C   UNL A   1      33.133  24.831  26.402  1.00  0.00     0.119 A 
ATOM     21  C   UNL A   1      32.138  23.854  26.371  1.00  0.00     0.046 A 
ATOM     22  C   UNL A   1      32.796  26.168  26.185  1.00  0.00     0.052 A 
ATOM     23  C   UNL A   1      30.808  24.209  26.162  1.00  0.00     0.004 A 
ATOM     24  C   UNL A   1      30.468  25.547  25.968  1.00  0.00     0.006 A 
BRANCH  20  25
ATOM     25  O   UNL A   1      34.404  24.358  26.579  1.00  0.00    -0.497 OA
ATOM     26  C   UNL A   1      34.505  23.039  27.101  1.00  0.00     0.278 C 
ENDBRANCH  20  25
ENDBRANCH  15  19
BRANCH  17  27
ATOM     27  C   UNL A   1      32.710  31.086  26.951  1.00  0.00    -0.002 A 
ATOM     28  C   UNL A   1      33.967  31.048  27.565  1.00  0.00     0.011 A 
ATOM     29  C   UNL A   1      31.935  32.249  26.984  1.00  0.00     0.011 A 
ATOM     30  C   UNL A   1      34.462  32.187  28.204  1.00  0.00     0.021 A 
ATOM     31  C   UNL A   1      32.417  33.382  27.647  1.00  0.00     0.021 A 
ATOM     32  C   UNL A   1      33.680  33.345  28.250  1.00  0.00     0.067 A 
BRANCH  32  33
ATOM     33  S   UNL A   1      34.330  34.799  29.044  1.00  0.00     0.175 S 
ATOM     34  C   UNL A   1      32.926  35.529  29.846  1.00  0.00     0.163 C 
ATOM     35  O   UNL A   1      35.256  34.336  30.061  1.00  0.00    -0.224 OA
ATOM     36  O   UNL A   1      34.772  35.708  28.002  1.00  0.00    -0.224 OA
ENDBRANCH  32  33
ENDBRANCH  17  27
ENDBRANCH   9  14
ENDBRANCH   6   8
ENDBRANCH   5   6
ENDBRANCH   4   5
ENDBRANCH   3   4
ENDBRANCH   2   3
ENDBRANCH   1   2
BRANCH   1  37
ATOM     37  C   UNL A   1      36.379  20.720  24.757  1.00  0.00     0.188 C 
BRANCH  37  38
ATOM     38  O   UNL A   1      37.217  21.323  25.716  1.00  0.00    -0.376 OA
BRANCH  38  39
ATOM     39  C   UNL A   1      38.625  21.268  25.577  1.00  0.00     0.202 C 
BRANCH  39  40
ATOM     40  C   UNL A   1      39.493  19.994  25.572  1.00  0.00     0.261 C 
BRANCH  40  41
ATOM     41  O   UNL A   1      40.544  19.884  26.533  1.00  0.00    -0.460 OA
BRANCH  41  42
ATOM     42  C   UNL A   1      41.792  20.131  26.063  1.00  0.00     0.338 C 
ATOM     43  O   UNL A   1      42.422  19.465  25.255  1.00  0.00    -0.246 OA
BRANCH  42  44
ATOM     44  C   UNL A   1      42.234  21.449  26.552  1.00  0.00     0.060 A 
ATOM     45  C   UNL A   1      42.354  22.502  25.635  1.00  0.00     0.016 A 
ATOM     46  C   UNL A   1      42.566  21.634  27.894  1.00  0.00     0.016 A 
ATOM     47  C   UNL A   1      42.825  23.743  26.057  1.00  0.00     0.010 A 
ATOM     48  C   UNL A   1      43.060  22.874  28.311  1.00  0.00     0.010 A 
ATOM     49  C   UNL A   1      43.219  23.926  27.389  1.00  0.00    -0.014 A 
BRANCH  49  50
ATOM     50  C   UNL A   1      43.950  25.157  27.775  1.00  0.00     0.031 A 
ATOM     51  C   UNL A   1      43.197  26.253  28.480  1.00  0.00     0.074 A 
ATOM     52  C   UNL A   1      45.266  25.291  27.530  1.00  0.00     0.049 A 
ATOM     53  N   UNL A   1      43.623  27.418  28.895  1.00  0.00    -0.248 NA
ATOM     54  C   UNL A   1      41.772  26.001  28.753  1.00  0.00     0.031 C 
ATOM     55  C   UNL A   1      46.117  24.286  26.896  1.00  0.00     0.029 A 
ATOM     56  N   UNL A   1      46.117  26.339  27.789  1.00  0.00    -0.354 N 
ATOM     57  C   UNL A   1      42.521  28.040  29.469  1.00  0.00     0.074 A 
ATOM     58  C   UNL A   1      41.400  27.138  29.321  1.00  0.00     0.031 C 
ATOM     59  C   UNL A   1      47.369  24.769  26.808  1.00  0.00     0.029 A 
ATOM     60  C   UNL A   1      47.401  26.127  27.349  1.00  0.00     0.049 A 
ATOM     61  H   UNL A   1      45.833  27.163  28.246  1.00  0.00     0.167 HD
ATOM     62  C   UNL A   1      42.448  29.252  30.071  1.00  0.00     0.031 A 
ATOM     63  C   UNL A   1      48.475  26.943  27.362  1.00  0.00     0.031 A 
ATOM     64  C   UNL A   1      43.561  30.156  30.201  1.00  0.00     0.049 A 
ATOM     65  C   UNL A   1      48.350  28.319  27.964  1.00  0.00     0.074 A 
ATOM     66  C   UNL A   1      43.591  31.398  30.810  1.00  0.00     0.029 A 
ATOM     67  N   UNL A   1      44.834  29.923  29.704  1.00  0.00    -0.354 N 
ATOM     68  N   UNL A   1      47.310  28.881  28.537  1.00  0.00    -0.248 NA
ATOM     69  C   UNL A   1      49.548  29.170  27.931  1.00  0.00     0.031 C 
ATOM     70  C   UNL A   1      44.865  31.945  30.623  1.00  0.00     0.029 A 
ATOM     71  C   UNL A   1      45.649  31.013  29.962  1.00  0.00     0.049 A 
ATOM     72  H   UNL A   1      45.117  29.105  29.235  1.00  0.00     0.167 HD
ATOM     73  C   UNL A   1      47.738  30.137  28.955  1.00  0.00     0.074 A 
ATOM     74  C   UNL A   1      49.135  30.247  28.588  1.00  0.00     0.031 C 
ATOM     75  C   UNL A   1      47.039  31.113  29.587  1.00  0.00     0.031 A 
BRANCH  62  76
ATOM     76  C   UNL A   1      41.107  29.685  30.603  1.00  0.00    -0.014 A 
ATOM     77  C   UNL A   1      40.754  29.486  31.950  1.00  0.00     0.010 A 
ATOM     78  C   UNL A   1      40.197  30.336  29.749  1.00  0.00     0.010 A 
ATOM     79  C   UNL A   1      39.504  29.894  32.423  1.00  0.00     0.020 A 
ATOM     80  C   UNL A   1      38.959  30.775  30.225  1.00  0.00     0.020 A 
ATOM     81  C   UNL A   1      38.614  30.535  31.556  1.00  0.00     0.054 A 
BRANCH  81  82
ATOM     82  S   UNL A   1      37.009  31.077  32.205  1.00  0.00     0.124 S 
ATOM     83  O   UNL A   1      37.248  31.067  33.646  1.00  0.00    -0.237 OA
ATOM     84  O   UNL A   1      36.854  32.400  31.604  1.00  0.00    -0.237 OA
ATOM     85  O   UNL A   1      36.077  30.062  31.722  1.00  0.00    -0.744 OA
ENDBRANCH  81  82
ENDBRANCH  62  76
BRANCH  63  86
ATOM     86  C   UNL A   1      49.764  26.490  26.769  1.00  0.00    -0.014 A 
ATOM     87  C   UNL A   1      50.756  25.895  27.569  1.00  0.00     0.010 A 
ATOM     88  C   UNL A   1      50.012  26.665  25.394  1.00  0.00     0.010 A 
ATOM     89  C   UNL A   1      51.977  25.502  27.010  1.00  0.00     0.020 A 
ATOM     90  C   UNL A   1      51.219  26.244  24.826  1.00  0.00     0.020 A 
ATOM     91  C   UNL A   1      52.200  25.677  25.641  1.00  0.00     0.054 A 
BRANCH  91  92
ATOM     92  S   UNL A   1      53.774  25.120  24.933  1.00  0.00     0.124 S 
ATOM     93  O   UNL A   1      53.541  23.688  24.763  1.00  0.00    -0.237 OA
ATOM     94  O   UNL A   1      53.855  25.896  23.698  1.00  0.00    -0.237 OA
ATOM     95  O   UNL A   1      54.756  25.477  25.953  1.00  0.00    -0.744 OA
ENDBRANCH  91  92
ENDBRANCH  63  86
BRANCH  75  96
ATOM     96  C   UNL A   1      47.778  32.375  29.957  1.00  0.00    -0.014 A 
ATOM     97  C   UNL A   1      47.619  33.561  29.218  1.00  0.00     0.010 A 
ATOM     98  C   UNL A   1      48.607  32.386  31.095  1.00  0.00     0.010 A 
ATOM     99  C   UNL A   1      48.306  34.722  29.588  1.00  0.00     0.020 A 
ATOM    100  C   UNL A   1      49.269  33.552  31.486  1.00  0.00     0.020 A 
ATOM    101  C   UNL A   1      49.126  34.710  30.720  1.00  0.00     0.054 A 
BRANCH 101 102
ATOM    102  S   UNL A   1      49.979  36.239  31.197  1.00  0.00     0.124 S 
ATOM    103  O   UNL A   1      49.166  37.259  30.542  1.00  0.00    -0.237 OA
ATOM    104  O   UNL A   1      49.896  36.208  32.656  1.00  0.00    -0.237 OA
ATOM    105  O   UNL A   1      51.325  36.069  30.653  1.00  0.00    -0.744 OA
ENDBRANCH 101 102
ENDBRANCH  75  96
ENDBRANCH  49  50
ENDBRANCH  42  44
ENDBRANCH  41  42
ENDBRANCH  40  41
ENDBRANCH  39  40
ENDBRANCH  38  39
ENDBRANCH  37  38
ENDBRANCH   1  37
TORSDOF 25
ENDMDL
MODEL 3
REMARK VINA RESULT:      -9.5      5.353      9.436
REMARK SMILES COc1cccc([C@H]2CC(c3ccc(S(C)(=O)=O)cc3)=NN2c2ccc(C(=O)OCCOCCOCCOC(=O)c3ccc(-c4c5nc(c(-c6ccc(S(=O)(=O)[O-])cc6)c6ccc([nH]6)c(-c6ccc(S(=O)(=O)[O-])cc6)c6nc(c(-c7ccc(S(=O)(=O)[O-])cc7)c7ccc4[nH]7)C=C6)C=C5)cc3)cc2)c1
REMARK SMILES IDX 33 1 32 2 31 3 30 4 29 5 27 6 28 7 26 8 23 9 24 10 102 11
REMARK SMILES IDX 25 12 101 13 22 14 8 15 9 16 10 17 21 18 7 19 3 20 4 21
REMARK SMILES IDX 103 22 5 23 6 24 2 25 1 26 11 27 12 28 20 29 13 30 19 31
REMARK SMILES IDX 14 32 15 33 16 34 17 35 18 36 34 37 35 38 36 39 37 40 38 41
REMARK SMILES IDX 39 42 40 43 41 44 42 45 100 46 43 47 99 48 44 49 45 50 46 51
REMARK SMILES IDX 93 52 47 53 98 54 92 55 94 56 48 57 97 58 91 59 90 60 49 62
REMARK SMILES IDX 79 63 60 64 78 65 61 66 64 67 77 68 95 69 62 70 63 71 76 73
REMARK SMILES IDX 96 74 65 75 50 76 51 77 59 78 52 79 58 80 53 81 54 82 55 83
REMARK SMILES IDX 56 84 57 85 80 86 81 87 89 88 82 89 88 90 83 91 84 92 85 93
REMARK SMILES IDX 86 94 87 95 66 96 67 97 75 98 68 99 74 100 69 101 70 102
REMARK SMILES IDX 71 103 72 104 73 105
REMARK H PARENT 94 61 64 72
REMARK Flexibility Score: inf
ROOT
ATOM      1  C   UNL A   1      51.791  22.997  32.927  1.00  0.00     0.188 C 
ENDROOT
BRANCH   1   2
ATOM      2  O   UNL A   1      50.698  23.351  32.106  1.00  0.00    -0.376 OA
BRANCH   2   3
ATOM      3  C   UNL A   1      50.548  24.676  31.628  1.00  0.00     0.202 C 
BRANCH   3   4
ATOM      4  C   UNL A   1      50.448  25.063  30.141  1.00  0.00     0.261 C 
BRANCH   4   5
ATOM      5  O   UNL A   1      49.142  25.351  29.635  1.00  0.00    -0.460 OA
BRANCH   5   6
ATOM      6  C   UNL A   1      48.933  24.976  28.347  1.00  0.00     0.338 C 
ATOM      7  O   UNL A   1      49.706  24.361  27.632  1.00  0.00    -0.246 OA
BRANCH   6   8
ATOM      8  C   UNL A   1      47.542  25.285  27.951  1.00  0.00     0.060 A 
ATOM      9  C   UNL A   1      44.958  26.103  27.221  1.00  0.00     0.060 A 
ATOM     10  C   UNL A   1      46.028  26.269  26.335  1.00  0.00     0.029 A 
ATOM     11  C   UNL A   1      45.185  25.421  28.429  1.00  0.00     0.029 A 
ATOM     12  C   UNL A   1      47.322  25.895  26.710  1.00  0.00     0.018 A 
ATOM     13  C   UNL A   1      46.466  24.996  28.791  1.00  0.00     0.018 A 
BRANCH   9  14
ATOM     14  N   UNL A   1      43.738  26.744  27.003  1.00  0.00    -0.257 N 
ATOM     15  C   UNL A   1      42.847  26.293  25.926  1.00  0.00     0.144 C 
ATOM     16  C   UNL A   1      41.539  27.018  26.243  1.00  0.00     0.091 C 
ATOM     17  C   UNL A   1      41.918  27.707  27.525  1.00  0.00     0.071 C 
ATOM     18  N   UNL A   1      43.130  27.512  27.946  1.00  0.00    -0.176 NA
BRANCH  15  19
ATOM     19  C   UNL A   1      42.708  24.776  25.862  1.00  0.00    -0.019 A 
ATOM     20  C   UNL A   1      41.877  22.664  26.752  1.00  0.00     0.119 A 
ATOM     21  C   UNL A   1      42.642  21.970  25.815  1.00  0.00     0.046 A 
ATOM     22  C   UNL A   1      41.924  24.059  26.789  1.00  0.00     0.052 A 
ATOM     23  C   UNL A   1      43.423  22.662  24.893  1.00  0.00     0.004 A 
ATOM     24  C   UNL A   1      43.454  24.055  24.913  1.00  0.00     0.006 A 
BRANCH  20  25
ATOM     25  O   UNL A   1      41.179  21.877  27.627  1.00  0.00    -0.497 OA
ATOM     26  C   UNL A   1      41.111  20.496  27.296  1.00  0.00     0.278 C 
ENDBRANCH  20  25
ENDBRANCH  15  19
BRANCH  17  27
ATOM     27  C   UNL A   1      40.957  28.611  28.176  1.00  0.00    -0.002 A 
ATOM     28  C   UNL A   1      41.418  29.454  29.194  1.00  0.00     0.011 A 
ATOM     29  C   UNL A   1      39.634  28.687  27.732  1.00  0.00     0.011 A 
ATOM     30  C   UNL A   1      40.554  30.394  29.761  1.00  0.00     0.021 A 
ATOM     31  C   UNL A   1      38.760  29.608  28.317  1.00  0.00     0.021 A 
ATOM     32  C   UNL A   1      39.227  30.458  29.327  1.00  0.00     0.067 A 
BRANCH  32  33
ATOM     33  S   UNL A   1      38.141  31.676  30.037  1.00  0.00     0.175 S 
ATOM     34  C   UNL A   1      36.605  30.818  30.265  1.00  0.00     0.163 C 
ATOM     35  O   UNL A   1      38.685  32.005  31.341  1.00  0.00    -0.224 OA
ATOM     36  O   UNL A   1      37.931  32.712  29.042  1.00  0.00    -0.224 OA
ENDBRANCH  32  33
ENDBRANCH  17  27
ENDBRANCH   9  14
ENDBRANCH   6   8
ENDBRANCH   5   6
ENDBRANCH   4   5
ENDBRANCH   3   4
ENDBRANCH   2   3
ENDBRANCH   1   2
BRANCH   1  37
ATOM     37  C   UNL A   1      51.975  21.527  33.353  1.00  0.00     0.188 C 
BRANCH  37  38
ATOM     38  O   UNL A   1      51.159  21.014  34.382  1.00  0.00    -0.376 OA
BRANCH  38  39
ATOM     39  C   UNL A   1      50.199  21.839  35.017  1.00  0.00     0.202 C 
BRANCH  39  40
ATOM     40  C   UNL A   1      48.699  21.527  35.191  1.00  0.00     0.261 C 
BRANCH  40  41
ATOM     41  O   UNL A   1      47.750  22.364  34.529  1.00  0.00    -0.460 OA
BRANCH  41  42
ATOM     42  C   UNL A   1      46.589  22.572  35.199  1.00  0.00     0.338 C 
ATOM     43  O   UNL A   1      46.110  21.874  36.079  1.00  0.00    -0.246 OA
BRANCH  42  44
ATOM     44  C   UNL A   1      46.049  23.890  34.821  1.00  0.00     0.060 A 
ATOM     45  C   UNL A   1      45.045  23.951  33.845  1.00  0.00     0.016 A 
ATOM     46  C   UNL A   1      46.556  25.057  35.394  1.00  0.00     0.016 A 
ATOM     47  C   UNL A   1      44.556  25.187  33.426  1.00  0.00     0.010 A 
ATOM     48  C   UNL A   1      46.080  26.296  34.955  1.00  0.00     0.010 A 
ATOM     49  C   UNL A   1      45.098  26.368  33.948  1.00  0.00    -0.014 A 
BRANCH  49  50
ATOM     50  C   UNL A   1      44.759  27.670  33.324  1.00  0.00     0.031 A 
ATOM     51  C   UNL A   1      45.549  28.126  32.127  1.00  0.00     0.074 A 
ATOM     52  C   UNL A   1      43.748  28.424  33.792  1.00  0.00     0.049 A 
ATOM     53  N   UNL A   1      45.441  29.228  31.432  1.00  0.00    -0.248 NA
ATOM     54  C   UNL A   1      46.604  27.214  31.651  1.00  0.00     0.031 C 
ATOM     55  C   UNL A   1      42.880  28.075  34.915  1.00  0.00     0.029 A 
ATOM     56  N   UNL A   1      43.285  29.649  33.376  1.00  0.00    -0.354 N 
ATOM     57  C   UNL A   1      46.415  29.148  30.444  1.00  0.00     0.074 A 
ATOM     58  C   UNL A   1      47.126  27.904  30.649  1.00  0.00     0.031 C 
ATOM     59  C   UNL A   1      41.991  29.067  35.103  1.00  0.00     0.029 A 
ATOM     60  C   UNL A   1      42.249  30.134  34.138  1.00  0.00     0.049 A 
ATOM     61  H   UNL A   1      43.660  30.133  32.605  1.00  0.00     0.167 HD
ATOM     62  C   UNL A   1      46.692  30.028  29.452  1.00  0.00     0.031 A 
ATOM     63  C   UNL A   1      41.597  31.314  34.076  1.00  0.00     0.031 A 
ATOM     64  C   UNL A   1      45.996  31.273  29.262  1.00  0.00     0.049 A 
ATOM     65  C   UNL A   1      41.977  32.313  33.012  1.00  0.00     0.074 A 
ATOM     66  C   UNL A   1      46.191  32.224  28.274  1.00  0.00     0.029 A 
ATOM     67  N   UNL A   1      44.983  31.749  30.079  1.00  0.00    -0.354 N 
ATOM     68  N   UNL A   1      42.876  32.208  32.061  1.00  0.00    -0.248 NA
ATOM     69  C   UNL A   1      41.245  33.588  33.008  1.00  0.00     0.031 C 
ATOM     70  C   UNL A   1      45.342  33.305  28.534  1.00  0.00     0.029 A 
ATOM     71  C   UNL A   1      44.566  32.995  29.640  1.00  0.00     0.049 A 
ATOM     72  H   UNL A   1      44.615  31.272  30.858  1.00  0.00     0.167 HD
ATOM     73  C   UNL A   1      42.798  33.391  31.331  1.00  0.00     0.074 A 
ATOM     74  C   UNL A   1      41.751  34.187  31.938  1.00  0.00     0.031 C 
ATOM     75  C   UNL A   1      43.525  33.782  30.255  1.00  0.00     0.031 A 
BRANCH  62  76
ATOM     76  C   UNL A   1      47.823  29.688  28.515  1.00  0.00    -0.014 A 
ATOM     77  C   UNL A   1      49.138  29.519  28.985  1.00  0.00     0.010 A 
ATOM     78  C   UNL A   1      47.558  29.497  27.147  1.00  0.00     0.010 A 
ATOM     79  C   UNL A   1      50.172  29.204  28.099  1.00  0.00     0.020 A 
ATOM     80  C   UNL A   1      48.582  29.151  26.262  1.00  0.00     0.020 A 
ATOM     81  C   UNL A   1      49.887  29.024  26.743  1.00  0.00     0.054 A 
BRANCH  81  82
ATOM     82  S   UNL A   1      51.244  28.590  25.621  1.00  0.00     0.124 S 
ATOM     83  O   UNL A   1      50.865  27.244  25.196  1.00  0.00    -0.237 OA
ATOM     84  O   UNL A   1      51.149  29.622  24.592  1.00  0.00    -0.237 OA
ATOM     85  O   UNL A   1      52.433  28.663  26.466  1.00  0.00    -0.744 OA
ENDBRANCH  81  82
ENDBRANCH  62  76
BRANCH  63  86
ATOM     86  C   UNL A   1      40.526  31.627  35.063  1.00  0.00    -0.014 A 
ATOM     87  C   UNL A   1      39.233  31.093  34.918  1.00  0.00     0.010 A 
ATOM     88  C   UNL A   1      40.793  32.478  36.152  1.00  0.00     0.010 A 
ATOM     89  C   UNL A   1      38.225  31.419  35.830  1.00  0.00     0.020 A 
ATOM     90  C   UNL A   1      39.796  32.780  37.084  1.00  0.00     0.020 A 
ATOM     91  C   UNL A   1      38.513  32.258  36.910  1.00  0.00     0.054 A 
BRANCH  91  92
ATOM     92  S   UNL A   1      37.200  32.631  38.104  1.00  0.00     0.124 S 
ATOM     93  O   UNL A   1      37.939  33.302  39.170  1.00  0.00    -0.237 OA
ATOM     94  O   UNL A   1      36.301  33.481  37.327  1.00  0.00    -0.237 OA
ATOM     95  O   UNL A   1      36.663  31.316  38.447  1.00  0.00    -0.744 OA
ENDBRANCH  91  92
ENDBRANCH  63  86
BRANCH  75  96
ATOM     96  C   UNL A   1      43.195  35.118  29.637  1.00  0.00    -0.014 A 
ATOM     97  C   UNL A   1      43.866  36.291  30.024  1.00  0.00     0.010 A 
ATOM     98  C   UNL A   1      42.231  35.189  28.613  1.00  0.00     0.010 A 
ATOM     99  C   UNL A   1      43.551  37.517  29.428  1.00  0.00     0.020 A 
ATOM    100  C   UNL A   1      41.937  36.406  27.992  1.00  0.00     0.020 A 
ATOM    101  C   UNL A   1      42.589  37.566  28.415  1.00  0.00     0.054 A 
BRANCH 101 102
ATOM    102  S   UNL A   1      42.223  39.162  27.634  1.00  0.00     0.124 S 
ATOM    103  O   UNL A   1      41.440  39.834  28.666  1.00  0.00    -0.237 OA
ATOM    104  O   UNL A   1      43.555  39.713  27.396  1.00  0.00    -0.237 OA
ATOM    105  O   UNL A   1      41.482  38.797  26.428  1.00  0.00    -0.744 OA
ENDBRANCH 101 102
ENDBRANCH  75  96
ENDBRANCH  49  50
ENDBRANCH  42  44
ENDBRANCH  41  42
ENDBRANCH  40  41
ENDBRANCH  39  40
ENDBRANCH  38  39
ENDBRANCH  37  38
ENDBRANCH   1  37
TORSDOF 25
ENDMDL
