MODEL 1
REMARK VINA RESULT:      -8.6      0.000      0.000
REMARK SMILES O=C(N[C@@H](Cc1ccc(O)cc1)C(=O)N[C@@H](CO)C(=O)OCCOCCOCCOC(=O)c1ccc(-c2c3nc(c(-c4ccc(S(=O)(=O)[O-])cc4)c4ccc([nH]4)c(-c4ccc(S(=O)(=O)[O-])cc4)c4nc(c(-c5ccc(S(=O)(=O)[O-])cc5)c5ccc2[nH]5)C=C4)C=C3)cc1)c1ccc(F)cc1
REMARK SMILES IDX 25 1 24 2 23 3 22 4 21 5 19 6 20 7 16 8 15 9 13 10 14 11
REMARK SMILES IDX 4 13 3 14 1 15 2 16 93 18 94 19 99 20 95 21 98 22 96 23
REMARK SMILES IDX 97 24 5 25 6 26 7 27 12 28 8 29 11 30 9 31 10 32 17 34 18 35
REMARK SMILES IDX 26 37 27 38 28 39 29 40 30 41 31 42 32 43 33 44 34 45 92 46
REMARK SMILES IDX 35 47 91 48 36 49 37 50 38 51 85 52 39 53 90 54 84 55 86 56
REMARK SMILES IDX 40 57 89 58 83 59 82 60 41 62 71 63 52 64 70 65 53 66 56 67
REMARK SMILES IDX 69 68 87 69 54 70 55 71 68 73 88 74 57 75 42 76 43 77 51 78
REMARK SMILES IDX 44 79 50 80 45 81 46 82 47 83 48 84 49 85 72 86 73 87 81 88
REMARK SMILES IDX 74 89 80 90 75 91 76 92 77 93 78 94 79 95 58 96 59 97 67 98
REMARK SMILES IDX 60 99 66 100 61 101 62 102 63 103 64 104 65 105
REMARK H PARENT 15 12 3 17 10 33 18 36 86 61 56 72
REMARK Flexibility Score: inf
ROOT
ATOM      1  C   UNL A   1      35.372  30.289  27.661  1.00  0.00     0.188 C 
ENDROOT
BRANCH   1   2
ATOM      2  O   UNL A   1      34.120  30.840  28.066  1.00  0.00    -0.376 OA
BRANCH   2   3
ATOM      3  C   UNL A   1      33.150  30.983  27.036  1.00  0.00     0.202 C 
BRANCH   3   4
ATOM      4  C   UNL A   1      32.830  29.666  26.330  1.00  0.00     0.261 C 
BRANCH   4   5
ATOM      5  O   UNL A   1      32.079  29.848  25.108  1.00  0.00    -0.462 OA
BRANCH   5   6
ATOM      6  C   UNL A   1      32.451  29.124  24.011  1.00  0.00     0.331 C 
ATOM      7  O   UNL A   1      33.613  28.970  23.656  1.00  0.00    -0.250 OA
BRANCH   6   8
ATOM      8  C   UNL A   1      31.219  28.523  23.267  1.00  0.00     0.218 C 
BRANCH   8   9
ATOM      9  N   UNL A   1      30.441  27.615  24.132  1.00  0.00    -0.339 N 
ATOM     10  C   UNL A   1      30.707  26.456  24.777  1.00  0.00     0.243 C 
ATOM     11  O   UNL A   1      29.867  26.129  25.627  1.00  0.00    -0.273 OA
ATOM     12  H   UNL A   1      29.517  27.924  24.270  1.00  0.00     0.164 HD
BRANCH  10  13
ATOM     13  C   UNL A   1      31.956  25.563  24.593  1.00  0.00     0.176 C 
BRANCH  13  14
ATOM     14  N   UNL A   1      32.335  25.286  23.211  1.00  0.00    -0.340 N 
ATOM     15  O   UNL A   1      33.096  24.007  21.512  1.00  0.00    -0.269 OA
ATOM     16  C   UNL A   1      32.687  24.064  22.668  1.00  0.00     0.251 C 
ATOM     17  H   UNL A   1      32.339  26.055  22.596  1.00  0.00     0.164 HD
BRANCH  16  18
ATOM     18  C   UNL A   1      32.616  22.816  23.475  1.00  0.00     0.040 A 
ATOM     19  C   UNL A   1      31.497  22.519  24.269  1.00  0.00     0.017 A 
ATOM     20  C   UNL A   1      33.684  21.908  23.408  1.00  0.00     0.017 A 
ATOM     21  C   UNL A   1      31.480  21.354  25.042  1.00  0.00     0.040 A 
ATOM     22  C   UNL A   1      33.653  20.737  24.173  1.00  0.00     0.040 A 
ATOM     23  C   UNL A   1      32.557  20.475  24.988  1.00  0.00     0.123 A 
ATOM     24  F   UNL A   1      32.532  19.358  25.726  1.00  0.00    -0.207 F 
ENDBRANCH  16  18
ENDBRANCH  13  14
BRANCH  13  25
ATOM     25  C   UNL A   1      33.147  25.752  25.551  1.00  0.00     0.070 C 
BRANCH  25  26
ATOM     26  C   UNL A   1      34.184  24.679  25.729  1.00  0.00    -0.045 A 
ATOM     27  C   UNL A   1      35.399  24.771  25.052  1.00  0.00     0.007 A 
ATOM     28  C   UNL A   1      34.030  23.655  26.672  1.00  0.00     0.007 A 
ATOM     29  C   UNL A   1      36.401  23.818  25.227  1.00  0.00     0.046 A 
ATOM     30  C   UNL A   1      35.049  22.717  26.880  1.00  0.00     0.046 A 
ATOM     31  C   UNL A   1      36.217  22.791  26.135  1.00  0.00     0.115 A 
BRANCH  31  32
ATOM     32  O   UNL A   1      37.174  21.842  26.324  1.00  0.00    -0.508 OA
ATOM     33  H   UNL A   1      37.370  21.540  27.189  1.00  0.00     0.293 HD
ENDBRANCH  31  32
ENDBRANCH  25  26
ENDBRANCH  13  25
ENDBRANCH  10  13
ENDBRANCH   8   9
BRANCH   8  34
ATOM     34  C   UNL A   1      30.350  29.694  22.798  1.00  0.00     0.193 C 
BRANCH  34  35
ATOM     35  O   UNL A   1      30.561  29.975  21.412  1.00  0.00    -0.394 OA
ATOM     36  H   UNL A   1      30.595  30.935  21.277  1.00  0.00     0.210 HD
ENDBRANCH  34  35
ENDBRANCH   8  34
ENDBRANCH   6   8
ENDBRANCH   5   6
ENDBRANCH   4   5
ENDBRANCH   3   4
ENDBRANCH   2   3
ENDBRANCH   1   2
BRANCH   1  37
ATOM     37  C   UNL A   1      36.220  29.831  28.857  1.00  0.00     0.188 C 
BRANCH  37  38
ATOM     38  O   UNL A   1      35.891  30.379  30.132  1.00  0.00    -0.376 OA
BRANCH  38  39
ATOM     39  C   UNL A   1      36.936  30.454  31.095  1.00  0.00     0.202 C 
BRANCH  39  40
ATOM     40  C   UNL A   1      38.106  31.375  30.742  1.00  0.00     0.261 C 
BRANCH  40  41
ATOM     41  O   UNL A   1      38.484  32.256  31.819  1.00  0.00    -0.460 OA
BRANCH  41  42
ATOM     42  C   UNL A   1      38.254  33.567  31.594  1.00  0.00     0.338 C 
ATOM     43  O   UNL A   1      37.228  34.196  31.846  1.00  0.00    -0.246 OA
BRANCH  42  44
ATOM     44  C   UNL A   1      39.444  34.227  31.037  1.00  0.00     0.060 A 
ATOM     45  C   UNL A   1      39.405  34.679  29.714  1.00  0.00     0.016 A 
ATOM     46  C   UNL A   1      40.653  34.194  31.735  1.00  0.00     0.016 A 
ATOM     47  C   UNL A   1      40.586  35.053  29.067  1.00  0.00     0.010 A 
ATOM     48  C   UNL A   1      41.836  34.569  31.082  1.00  0.00     0.010 A 
ATOM     49  C   UNL A   1      41.814  34.962  29.732  1.00  0.00    -0.014 A 
BRANCH  49  50
ATOM     50  C   UNL A   1      43.083  35.040  28.961  1.00  0.00     0.031 A 
ATOM     51  C   UNL A   1      43.845  33.763  28.716  1.00  0.00     0.074 A 
ATOM     52  C   UNL A   1      43.548  36.192  28.445  1.00  0.00     0.049 A 
ATOM     53  N   UNL A   1      45.061  33.594  28.265  1.00  0.00    -0.248 NA
ATOM     54  C   UNL A   1      43.130  32.511  29.014  1.00  0.00     0.031 C 
ATOM     55  C   UNL A   1      42.856  37.479  28.468  1.00  0.00     0.029 A 
ATOM     56  N   UNL A   1      44.732  36.456  27.797  1.00  0.00    -0.354 N 
ATOM     57  C   UNL A   1      45.275  32.220  28.271  1.00  0.00     0.074 A 
ATOM     58  C   UNL A   1      44.059  31.603  28.757  1.00  0.00     0.031 C 
ATOM     59  C   UNL A   1      43.637  38.402  27.877  1.00  0.00     0.029 A 
ATOM     60  C   UNL A   1      44.908  37.786  27.495  1.00  0.00     0.049 A 
ATOM     61  H   UNL A   1      45.391  35.761  27.572  1.00  0.00     0.167 HD
ATOM     62  C   UNL A   1      46.388  31.532  27.922  1.00  0.00     0.031 A 
ATOM     63  C   UNL A   1      45.988  38.438  27.016  1.00  0.00     0.031 A 
ATOM     64  C   UNL A   1      47.596  32.144  27.438  1.00  0.00     0.049 A 
ATOM     65  C   UNL A   1      47.262  37.676  26.744  1.00  0.00     0.074 A 
ATOM     66  C   UNL A   1      48.796  31.539  27.108  1.00  0.00     0.029 A 
ATOM     67  N   UNL A   1      47.754  33.501  27.207  1.00  0.00    -0.354 N 
ATOM     68  N   UNL A   1      47.492  36.388  26.846  1.00  0.00    -0.248 NA
ATOM     69  C   UNL A   1      48.429  38.460  26.309  1.00  0.00     0.031 C 
ATOM     70  C   UNL A   1      49.694  32.538  26.717  1.00  0.00     0.029 A 
ATOM     71  C   UNL A   1      49.035  33.756  26.750  1.00  0.00     0.049 A 
ATOM     72  H   UNL A   1      47.057  34.183  27.348  1.00  0.00     0.167 HD
ATOM     73  C   UNL A   1      48.819  36.206  26.462  1.00  0.00     0.074 A 
ATOM     74  C   UNL A   1      49.339  37.513  26.119  1.00  0.00     0.031 C 
ATOM     75  C   UNL A   1      49.538  35.058  26.395  1.00  0.00     0.031 A 
BRANCH  62  76
ATOM     76  C   UNL A   1      46.369  30.044  28.134  1.00  0.00    -0.014 A 
ATOM     77  C   UNL A   1      46.714  29.469  29.369  1.00  0.00     0.010 A 
ATOM     78  C   UNL A   1      46.000  29.206  27.065  1.00  0.00     0.010 A 
ATOM     79  C   UNL A   1      46.740  28.079  29.517  1.00  0.00     0.020 A 
ATOM     80  C   UNL A   1      45.999  27.817  27.217  1.00  0.00     0.020 A 
ATOM     81  C   UNL A   1      46.391  27.263  28.436  1.00  0.00     0.054 A 
BRANCH  81  82
ATOM     82  S   UNL A   1      46.443  25.462  28.647  1.00  0.00     0.124 S 
ATOM     83  O   UNL A   1      45.748  25.289  29.920  1.00  0.00    -0.237 OA
ATOM     84  O   UNL A   1      45.728  24.978  27.470  1.00  0.00    -0.237 OA
ATOM     85  O   UNL A   1      47.872  25.159  28.673  1.00  0.00    -0.744 OA
ENDBRANCH  81  82
ENDBRANCH  62  76
BRANCH  63  86
ATOM     86  C   UNL A   1      45.943  39.915  26.823  1.00  0.00    -0.014 A 
ATOM     87  C   UNL A   1      46.311  40.786  27.863  1.00  0.00     0.010 A 
ATOM     88  C   UNL A   1      45.514  40.458  25.598  1.00  0.00     0.010 A 
ATOM     89  C   UNL A   1      46.242  42.172  27.685  1.00  0.00     0.020 A 
ATOM     90  C   UNL A   1      45.470  41.842  25.406  1.00  0.00     0.020 A 
ATOM     91  C   UNL A   1      45.826  42.691  26.455  1.00  0.00     0.054 A 
BRANCH  91  92
ATOM     92  S   UNL A   1      45.798  44.491  26.225  1.00  0.00     0.124 S 
ATOM     93  O   UNL A   1      45.380  44.958  27.543  1.00  0.00    -0.237 OA
ATOM     94  O   UNL A   1      47.181  44.782  25.858  1.00  0.00    -0.237 OA
ATOM     95  O   UNL A   1      44.824  44.682  25.154  1.00  0.00    -0.744 OA
ENDBRANCH  91  92
ENDBRANCH  63  86
BRANCH  75  96
ATOM     96  C   UNL A   1      50.951  35.138  25.881  1.00  0.00    -0.014 A 
ATOM     97  C   UNL A   1      52.043  35.283  26.754  1.00  0.00     0.010 A 
ATOM     98  C   UNL A   1      51.192  34.973  24.504  1.00  0.00     0.010 A 
ATOM     99  C   UNL A   1      53.350  35.276  26.258  1.00  0.00     0.020 A 
ATOM    100  C   UNL A   1      52.498  34.942  24.007  1.00  0.00     0.020 A 
ATOM    101  C   UNL A   1      53.570  35.102  24.887  1.00  0.00     0.054 A 
BRANCH 101 102
ATOM    102  S   UNL A   1      55.276  35.025  24.275  1.00  0.00     0.124 S 
ATOM    103  O   UNL A   1      55.622  36.438  24.156  1.00  0.00    -0.237 OA
ATOM    104  O   UNL A   1      55.967  34.297  25.337  1.00  0.00    -0.237 OA
ATOM    105  O   UNL A   1      55.158  34.303  23.010  1.00  0.00    -0.744 OA
ENDBRANCH 101 102
ENDBRANCH  75  96
ENDBRANCH  49  50
ENDBRANCH  42  44
ENDBRANCH  41  42
ENDBRANCH  40  41
ENDBRANCH  39  40
ENDBRANCH  38  39
ENDBRANCH  37  38
ENDBRANCH   1  37
TORSDOF 29
ENDMDL
MODEL 2
REMARK VINA RESULT:      -8.6      3.021      8.830
REMARK SMILES O=C(N[C@@H](Cc1ccc(O)cc1)C(=O)N[C@@H](CO)C(=O)OCCOCCOCCOC(=O)c1ccc(-c2c3nc(c(-c4ccc(S(=O)(=O)[O-])cc4)c4ccc([nH]4)c(-c4ccc(S(=O)(=O)[O-])cc4)c4nc(c(-c5ccc(S(=O)(=O)[O-])cc5)c5ccc2[nH]5)C=C4)C=C3)cc1)c1ccc(F)cc1
REMARK SMILES IDX 25 1 24 2 23 3 22 4 21 5 19 6 20 7 16 8 15 9 13 10 14 11
REMARK SMILES IDX 4 13 3 14 1 15 2 16 93 18 94 19 99 20 95 21 98 22 96 23
REMARK SMILES IDX 97 24 5 25 6 26 7 27 12 28 8 29 11 30 9 31 10 32 17 34 18 35
REMARK SMILES IDX 26 37 27 38 28 39 29 40 30 41 31 42 32 43 33 44 34 45 92 46
REMARK SMILES IDX 35 47 91 48 36 49 37 50 38 51 85 52 39 53 90 54 84 55 86 56
REMARK SMILES IDX 40 57 89 58 83 59 82 60 41 62 71 63 52 64 70 65 53 66 56 67
REMARK SMILES IDX 69 68 87 69 54 70 55 71 68 73 88 74 57 75 42 76 43 77 51 78
REMARK SMILES IDX 44 79 50 80 45 81 46 82 47 83 48 84 49 85 72 86 73 87 81 88
REMARK SMILES IDX 74 89 80 90 75 91 76 92 77 93 78 94 79 95 58 96 59 97 67 98
REMARK SMILES IDX 60 99 66 100 61 101 62 102 63 103 64 104 65 105
REMARK H PARENT 15 12 3 17 10 33 18 36 86 61 56 72
REMARK Flexibility Score: inf
ROOT
ATOM      1  C   UNL A   1      42.241  24.166  26.535  1.00  0.00     0.188 C 
ENDROOT
BRANCH   1   2
ATOM      2  O   UNL A   1      41.188  25.045  26.143  1.00  0.00    -0.376 OA
BRANCH   2   3
ATOM      3  C   UNL A   1      40.350  25.508  27.195  1.00  0.00     0.202 C 
BRANCH   3   4
ATOM      4  C   UNL A   1      39.197  24.554  27.504  1.00  0.00     0.261 C 
BRANCH   4   5
ATOM      5  O   UNL A   1      38.129  24.626  26.533  1.00  0.00    -0.462 OA
BRANCH   5   6
ATOM      6  C   UNL A   1      37.574  23.454  26.100  1.00  0.00     0.331 C 
ATOM      7  O   UNL A   1      38.184  22.394  26.032  1.00  0.00    -0.250 OA
BRANCH   6   8
ATOM      8  C   UNL A   1      36.078  23.634  25.700  1.00  0.00     0.218 C 
BRANCH   8   9
ATOM      9  N   UNL A   1      35.826  23.224  24.306  1.00  0.00    -0.339 N 
ATOM     10  C   UNL A   1      34.783  23.344  23.452  1.00  0.00     0.243 C 
ATOM     11  O   UNL A   1      35.051  23.103  22.266  1.00  0.00    -0.273 OA
ATOM     12  H   UNL A   1      36.593  22.755  23.905  1.00  0.00     0.164 HD
BRANCH  10  13
ATOM     13  C   UNL A   1      33.348  23.798  23.806  1.00  0.00     0.176 C 
BRANCH  13  14
ATOM     14  N   UNL A   1      32.718  24.700  22.847  1.00  0.00    -0.340 N 
ATOM     15  O   UNL A   1      31.727  26.618  22.184  1.00  0.00    -0.269 OA
ATOM     16  C   UNL A   1      32.358  26.020  23.050  1.00  0.00     0.251 C 
ATOM     17  H   UNL A   1      32.528  24.327  21.956  1.00  0.00     0.164 HD
BRANCH  16  18
ATOM     18  C   UNL A   1      32.688  26.720  24.321  1.00  0.00     0.040 A 
ATOM     19  C   UNL A   1      32.226  26.248  25.559  1.00  0.00     0.017 A 
ATOM     20  C   UNL A   1      33.506  27.858  24.271  1.00  0.00     0.017 A 
ATOM     21  C   UNL A   1      32.526  26.951  26.730  1.00  0.00     0.040 A 
ATOM     22  C   UNL A   1      33.816  28.548  25.448  1.00  0.00     0.040 A 
ATOM     23  C   UNL A   1      33.316  28.094  26.664  1.00  0.00     0.123 A 
ATOM     24  F   UNL A   1      33.606  28.760  27.789  1.00  0.00    -0.207 F 
ENDBRANCH  16  18
ENDBRANCH  13  14
BRANCH  13  25
ATOM     25  C   UNL A   1      32.387  22.779  24.445  1.00  0.00     0.070 C 
BRANCH  25  26
ATOM     26  C   UNL A   1      32.288  21.370  23.931  1.00  0.00    -0.045 A 
ATOM     27  C   UNL A   1      32.090  21.140  22.571  1.00  0.00     0.007 A 
ATOM     28  C   UNL A   1      32.535  20.266  24.758  1.00  0.00     0.007 A 
ATOM     29  C   UNL A   1      32.037  19.847  22.054  1.00  0.00     0.046 A 
ATOM     30  C   UNL A   1      32.522  18.967  24.235  1.00  0.00     0.046 A 
ATOM     31  C   UNL A   1      32.247  18.766  22.891  1.00  0.00     0.115 A 
BRANCH  31  32
ATOM     32  O   UNL A   1      32.195  17.492  22.417  1.00  0.00    -0.508 OA
ATOM     33  H   UNL A   1      32.421  17.315  21.525  1.00  0.00     0.293 HD
ENDBRANCH  31  32
ENDBRANCH  25  26
ENDBRANCH  13  25
ENDBRANCH  10  13
ENDBRANCH   8   9
BRANCH   8  34
ATOM     34  C   UNL A   1      35.240  22.793  26.668  1.00  0.00     0.193 C 
BRANCH  34  35
ATOM     35  O   UNL A   1      35.582  21.407  26.582  1.00  0.00    -0.394 OA
ATOM     36  H   UNL A   1      34.832  20.870  26.881  1.00  0.00     0.210 HD
ENDBRANCH  34  35
ENDBRANCH   8  34
ENDBRANCH   6   8
ENDBRANCH   5   6
ENDBRANCH   4   5
ENDBRANCH   3   4
ENDBRANCH   2   3
ENDBRANCH   1   2
BRANCH   1  37
ATOM     37  C   UNL A   1      42.011  22.728  26.047  1.00  0.00     0.188 C 
BRANCH  37  38
ATOM     38  O   UNL A   1      43.164  21.982  25.662  1.00  0.00    -0.376 OA
BRANCH  38  39
ATOM     39  C   UNL A   1      44.334  22.720  25.329  1.00  0.00     0.202 C 
BRANCH  39  40
ATOM     40  C   UNL A   1      45.420  22.774  26.405  1.00  0.00     0.261 C 
BRANCH  40  41
ATOM     41  O   UNL A   1      46.712  23.158  25.895  1.00  0.00    -0.460 OA
BRANCH  41  42
ATOM     42  C   UNL A   1      46.731  24.309  25.190  1.00  0.00     0.338 C 
ATOM     43  O   UNL A   1      47.033  24.452  24.008  1.00  0.00    -0.246 OA
BRANCH  42  44
ATOM     44  C   UNL A   1      46.269  25.440  26.009  1.00  0.00     0.060 A 
ATOM     45  C   UNL A   1      45.396  26.372  25.438  1.00  0.00     0.016 A 
ATOM     46  C   UNL A   1      46.867  25.699  27.244  1.00  0.00     0.016 A 
ATOM     47  C   UNL A   1      45.158  27.591  26.078  1.00  0.00     0.010 A 
ATOM     48  C   UNL A   1      46.626  26.924  27.883  1.00  0.00     0.010 A 
ATOM     49  C   UNL A   1      45.801  27.893  27.283  1.00  0.00    -0.014 A 
BRANCH  49  50
ATOM     50  C   UNL A   1      45.810  29.291  27.790  1.00  0.00     0.031 A 
ATOM     51  C   UNL A   1      44.617  29.769  28.577  1.00  0.00     0.074 A 
ATOM     52  C   UNL A   1      46.854  30.120  27.609  1.00  0.00     0.049 A 
ATOM     53  N   UNL A   1      44.292  30.983  28.938  1.00  0.00    -0.248 NA
ATOM     54  C   UNL A   1      43.670  28.731  29.017  1.00  0.00     0.031 C 
ATOM     55  C   UNL A   1      48.134  29.764  27.002  1.00  0.00     0.029 A 
ATOM     56  N   UNL A   1      46.989  31.452  27.925  1.00  0.00    -0.354 N 
ATOM     57  C   UNL A   1      43.080  30.862  29.608  1.00  0.00     0.074 A 
ATOM     58  C   UNL A   1      42.736  29.456  29.613  1.00  0.00     0.031 C 
ATOM     59  C   UNL A   1      48.920  30.856  26.972  1.00  0.00     0.029 A 
ATOM     60  C   UNL A   1      48.175  32.001  27.497  1.00  0.00     0.049 A 
ATOM     61  H   UNL A   1      46.302  31.965  28.409  1.00  0.00     0.167 HD
ATOM     62  C   UNL A   1      42.310  31.834  30.155  1.00  0.00     0.031 A 
ATOM     63  C   UNL A   1      48.589  33.286  27.480  1.00  0.00     0.031 A 
ATOM     64  C   UNL A   1      42.652  33.230  30.151  1.00  0.00     0.049 A 
ATOM     65  C   UNL A   1      47.671  34.373  27.984  1.00  0.00     0.074 A 
ATOM     66  C   UNL A   1      41.915  34.298  30.632  1.00  0.00     0.029 A 
ATOM     67  N   UNL A   1      43.834  33.751  29.650  1.00  0.00    -0.354 N 
ATOM     68  N   UNL A   1      46.481  34.265  28.525  1.00  0.00    -0.248 NA
ATOM     69  C   UNL A   1      48.147  35.760  27.856  1.00  0.00     0.031 C 
ATOM     70  C   UNL A   1      42.635  35.472  30.382  1.00  0.00     0.029 A 
ATOM     71  C   UNL A   1      43.843  35.127  29.798  1.00  0.00     0.049 A 
ATOM     72  H   UNL A   1      44.560  33.221  29.248  1.00  0.00     0.167 HD
ATOM     73  C   UNL A   1      46.080  35.564  28.827  1.00  0.00     0.074 A 
ATOM     74  C   UNL A   1      47.155  36.442  28.413  1.00  0.00     0.031 C 
ATOM     75  C   UNL A   1      44.926  35.990  29.399  1.00  0.00     0.031 A 
BRANCH  62  76
ATOM     76  C   UNL A   1      40.984  31.418  30.726  1.00  0.00    -0.014 A 
ATOM     77  C   UNL A   1      40.785  31.288  32.112  1.00  0.00     0.010 A 
ATOM     78  C   UNL A   1      39.916  31.149  29.850  1.00  0.00     0.010 A 
ATOM     79  C   UNL A   1      39.554  30.846  32.608  1.00  0.00     0.020 A 
ATOM     80  C   UNL A   1      38.677  30.733  30.344  1.00  0.00     0.020 A 
ATOM     81  C   UNL A   1      38.512  30.562  31.719  1.00  0.00     0.054 A 
BRANCH  81  82
ATOM     82  S   UNL A   1      36.929  29.980  32.384  1.00  0.00     0.124 S 
ATOM     83  O   UNL A   1      37.339  28.810  33.155  1.00  0.00    -0.237 OA
ATOM     84  O   UNL A   1      36.469  31.120  33.171  1.00  0.00    -0.237 OA
ATOM     85  O   UNL A   1      36.137  29.691  31.190  1.00  0.00    -0.744 OA
ENDBRANCH  81  82
ENDBRANCH  62  76
BRANCH  63  86
ATOM     86  C   UNL A   1      49.918  33.633  26.904  1.00  0.00    -0.014 A 
ATOM     87  C   UNL A   1      50.043  33.986  25.549  1.00  0.00     0.010 A 
ATOM     88  C   UNL A   1      51.072  33.598  27.709  1.00  0.00     0.010 A 
ATOM     89  C   UNL A   1      51.297  34.288  25.008  1.00  0.00     0.020 A 
ATOM     90  C   UNL A   1      52.323  33.925  27.179  1.00  0.00     0.020 A 
ATOM     91  C   UNL A   1      52.429  34.259  25.828  1.00  0.00     0.054 A 
BRANCH  91  92
ATOM     92  S   UNL A   1      54.038  34.708  25.119  1.00  0.00     0.124 S 
ATOM     93  O   UNL A   1      54.437  35.831  25.961  1.00  0.00    -0.237 OA
ATOM     94  O   UNL A   1      54.810  33.480  25.290  1.00  0.00    -0.237 OA
ATOM     95  O   UNL A   1      53.717  35.046  23.735  1.00  0.00    -0.744 OA
ENDBRANCH  91  92
ENDBRANCH  63  86
BRANCH  75  96
ATOM     96  C   UNL A   1      44.774  37.463  29.672  1.00  0.00    -0.014 A 
ATOM     97  C   UNL A   1      44.105  38.311  28.772  1.00  0.00     0.010 A 
ATOM     98  C   UNL A   1      45.231  37.987  30.896  1.00  0.00     0.010 A 
ATOM     99  C   UNL A   1      43.908  39.659  29.086  1.00  0.00     0.020 A 
ATOM    100  C   UNL A   1      45.017  39.328  31.223  1.00  0.00     0.020 A 
ATOM    101  C   UNL A   1      44.363  40.159  30.312  1.00  0.00     0.054 A 
BRANCH 101 102
ATOM    102  S   UNL A   1      44.034  41.895  30.727  1.00  0.00     0.124 S 
ATOM    103  O   UNL A   1      42.576  41.940  30.718  1.00  0.00    -0.237 OA
ATOM    104  O   UNL A   1      44.660  42.037  32.039  1.00  0.00    -0.237 OA
ATOM    105  O   UNL A   1      44.687  42.637  29.650  1.00  0.00    -0.744 OA
ENDBRANCH 101 102
ENDBRANCH  75  96
ENDBRANCH  49  50
ENDBRANCH  42  44
ENDBRANCH  41  42
ENDBRANCH  40  41
ENDBRANCH  39  40
ENDBRANCH  38  39
ENDBRANCH  37  38
ENDBRANCH   1  37
TORSDOF 29
ENDMDL
MODEL 3
REMARK VINA RESULT:      -8.0      3.394      9.101
REMARK SMILES O=C(N[C@@H](Cc1ccc(O)cc1)C(=O)N[C@@H](CO)C(=O)OCCOCCOCCOC(=O)c1ccc(-c2c3nc(c(-c4ccc(S(=O)(=O)[O-])cc4)c4ccc([nH]4)c(-c4ccc(S(=O)(=O)[O-])cc4)c4nc(c(-c5ccc(S(=O)(=O)[O-])cc5)c5ccc2[nH]5)C=C4)C=C3)cc1)c1ccc(F)cc1
REMARK SMILES IDX 25 1 24 2 23 3 22 4 21 5 19 6 20 7 16 8 15 9 13 10 14 11
REMARK SMILES IDX 4 13 3 14 1 15 2 16 93 18 94 19 99 20 95 21 98 22 96 23
REMARK SMILES IDX 97 24 5 25 6 26 7 27 12 28 8 29 11 30 9 31 10 32 17 34 18 35
REMARK SMILES IDX 26 37 27 38 28 39 29 40 30 41 31 42 32 43 33 44 34 45 92 46
REMARK SMILES IDX 35 47 91 48 36 49 37 50 38 51 85 52 39 53 90 54 84 55 86 56
REMARK SMILES IDX 40 57 89 58 83 59 82 60 41 62 71 63 52 64 70 65 53 66 56 67
REMARK SMILES IDX 69 68 87 69 54 70 55 71 68 73 88 74 57 75 42 76 43 77 51 78
REMARK SMILES IDX 44 79 50 80 45 81 46 82 47 83 48 84 49 85 72 86 73 87 81 88
REMARK SMILES IDX 74 89 80 90 75 91 76 92 77 93 78 94 79 95 58 96 59 97 67 98
REMARK SMILES IDX 60 99 66 100 61 101 62 102 63 103 64 104 65 105
REMARK H PARENT 15 12 3 17 10 33 18 36 86 61 56 72
REMARK Flexibility Score: inf
ROOT
ATOM      1  C   UNL A   1      40.573  27.158  28.151  1.00  0.00     0.188 C 
ENDROOT
BRANCH   1   2
ATOM      2  O   UNL A   1      39.599  27.743  27.288  1.00  0.00    -0.376 OA
BRANCH   2   3
ATOM      3  C   UNL A   1      39.486  29.159  27.360  1.00  0.00     0.202 C 
BRANCH   3   4
ATOM      4  C   UNL A   1      38.316  29.622  28.228  1.00  0.00     0.261 C 
BRANCH   4   5
ATOM      5  O   UNL A   1      37.057  29.633  27.518  1.00  0.00    -0.462 OA
BRANCH   5   6
ATOM      6  C   UNL A   1      35.919  29.879  28.234  1.00  0.00     0.331 C 
ATOM      7  O   UNL A   1      35.709  29.438  29.357  1.00  0.00    -0.250 OA
BRANCH   6   8
ATOM      8  C   UNL A   1      34.923  30.783  27.445  1.00  0.00     0.218 C 
BRANCH   8   9
ATOM      9  N   UNL A   1      33.524  30.346  27.619  1.00  0.00    -0.339 N 
ATOM     10  C   UNL A   1      32.766  29.352  27.099  1.00  0.00     0.243 C 
ATOM     11  O   UNL A   1      31.700  29.145  27.696  1.00  0.00    -0.273 OA
ATOM     12  H   UNL A   1      33.030  30.906  28.259  1.00  0.00     0.164 HD
BRANCH  10  13
ATOM     13  C   UNL A   1      33.129  28.445  25.901  1.00  0.00     0.176 C 
BRANCH  13  14
ATOM     14  N   UNL A   1      33.237  29.119  24.611  1.00  0.00    -0.340 N 
ATOM     15  O   UNL A   1      33.094  29.273  22.362  1.00  0.00    -0.269 OA
ATOM     16  C   UNL A   1      32.830  28.639  23.380  1.00  0.00     0.251 C 
ATOM     17  H   UNL A   1      33.644  30.015  24.618  1.00  0.00     0.164 HD
BRANCH  16  18
ATOM     18  C   UNL A   1      32.109  27.342  23.260  1.00  0.00     0.040 A 
ATOM     19  C   UNL A   1      32.697  26.231  22.637  1.00  0.00     0.017 A 
ATOM     20  C   UNL A   1      30.825  27.232  23.814  1.00  0.00     0.017 A 
ATOM     21  C   UNL A   1      31.977  25.039  22.510  1.00  0.00     0.040 A 
ATOM     22  C   UNL A   1      30.115  26.031  23.697  1.00  0.00     0.040 A 
ATOM     23  C   UNL A   1      30.693  24.951  23.040  1.00  0.00     0.123 A 
ATOM     24  F   UNL A   1      30.010  23.805  22.922  1.00  0.00    -0.207 F 
ENDBRANCH  16  18
ENDBRANCH  13  14
BRANCH  13  25
ATOM     25  C   UNL A   1      34.153  27.315  26.114  1.00  0.00     0.070 C 
BRANCH  25  26
ATOM     26  C   UNL A   1      33.759  25.870  25.989  1.00  0.00    -0.045 A 
ATOM     27  C   UNL A   1      32.500  25.455  26.421  1.00  0.00     0.007 A 
ATOM     28  C   UNL A   1      34.564  24.943  25.315  1.00  0.00     0.007 A 
ATOM     29  C   UNL A   1      32.085  24.132  26.280  1.00  0.00     0.046 A 
ATOM     30  C   UNL A   1      34.134  23.622  25.136  1.00  0.00     0.046 A 
ATOM     31  C   UNL A   1      32.908  23.220  25.645  1.00  0.00     0.115 A 
BRANCH  31  32
ATOM     32  O   UNL A   1      32.533  21.920  25.498  1.00  0.00    -0.508 OA
ATOM     33  H   UNL A   1      33.178  21.264  25.318  1.00  0.00     0.293 HD
ENDBRANCH  31  32
ENDBRANCH  25  26
ENDBRANCH  13  25
ENDBRANCH  10  13
ENDBRANCH   8   9
BRANCH   8  34
ATOM     34  C   UNL A   1      35.105  32.217  27.950  1.00  0.00     0.193 C 
BRANCH  34  35
ATOM     35  O   UNL A   1      36.475  32.620  27.889  1.00  0.00    -0.394 OA
ATOM     36  H   UNL A   1      36.613  33.386  28.468  1.00  0.00     0.210 HD
ENDBRANCH  34  35
ENDBRANCH   8  34
ENDBRANCH   6   8
ENDBRANCH   5   6
ENDBRANCH   4   5
ENDBRANCH   3   4
ENDBRANCH   2   3
ENDBRANCH   1   2
BRANCH   1  37
ATOM     37  C   UNL A   1      41.742  26.537  27.373  1.00  0.00     0.188 C 
BRANCH  37  38
ATOM     38  O   UNL A   1      41.857  26.880  25.993  1.00  0.00    -0.376 OA
BRANCH  38  39
ATOM     39  C   UNL A   1      42.361  25.881  25.115  1.00  0.00     0.202 C 
BRANCH  39  40
ATOM     40  C   UNL A   1      43.177  24.765  25.770  1.00  0.00     0.261 C 
BRANCH  40  41
ATOM     41  O   UNL A   1      44.538  24.700  25.297  1.00  0.00    -0.460 OA
BRANCH  41  42
ATOM     42  C   UNL A   1      45.481  24.709  26.263  1.00  0.00     0.338 C 
ATOM     43  O   UNL A   1      46.041  23.736  26.764  1.00  0.00    -0.246 OA
BRANCH  42  44
ATOM     44  C   UNL A   1      45.840  26.084  26.641  1.00  0.00     0.060 A 
ATOM     45  C   UNL A   1      46.123  26.360  27.983  1.00  0.00     0.016 A 
ATOM     46  C   UNL A   1      45.675  27.126  25.726  1.00  0.00     0.016 A 
ATOM     47  C   UNL A   1      46.193  27.684  28.425  1.00  0.00     0.010 A 
ATOM     48  C   UNL A   1      45.746  28.453  26.174  1.00  0.00     0.010 A 
ATOM     49  C   UNL A   1      45.965  28.738  27.534  1.00  0.00    -0.014 A 
BRANCH  49  50
ATOM     50  C   UNL A   1      45.715  30.109  28.054  1.00  0.00     0.031 A 
ATOM     51  C   UNL A   1      46.818  31.128  27.931  1.00  0.00     0.074 A 
ATOM     52  C   UNL A   1      44.536  30.478  28.586  1.00  0.00     0.049 A 
ATOM     53  N   UNL A   1      46.927  32.307  28.485  1.00  0.00    -0.248 NA
ATOM     54  C   UNL A   1      47.945  30.764  27.055  1.00  0.00     0.031 C 
ATOM     55  C   UNL A   1      43.328  29.656  28.642  1.00  0.00     0.029 A 
ATOM     56  N   UNL A   1      44.170  31.658  29.191  1.00  0.00    -0.354 N 
ATOM     57  C   UNL A   1      48.154  32.807  28.065  1.00  0.00     0.074 A 
ATOM     58  C   UNL A   1      48.745  31.808  27.200  1.00  0.00     0.031 C 
ATOM     59  C   UNL A   1      42.359  30.352  29.264  1.00  0.00     0.029 A 
ATOM     60  C   UNL A   1      42.896  31.638  29.709  1.00  0.00     0.049 A 
ATOM     61  H   UNL A   1      44.762  32.441  29.249  1.00  0.00     0.167 HD
ATOM     62  C   UNL A   1      48.747  33.982  28.384  1.00  0.00     0.031 A 
ATOM     63  C   UNL A   1      42.257  32.530  30.495  1.00  0.00     0.031 A 
ATOM     64  C   UNL A   1      48.160  34.975  29.243  1.00  0.00     0.049 A 
ATOM     65  C   UNL A   1      42.975  33.781  30.941  1.00  0.00     0.074 A 
ATOM     66  C   UNL A   1      48.702  36.174  29.670  1.00  0.00     0.029 A 
ATOM     67  N   UNL A   1      46.893  34.887  29.798  1.00  0.00    -0.354 N 
ATOM     68  N   UNL A   1      44.175  34.203  30.622  1.00  0.00    -0.248 NA
ATOM     69  C   UNL A   1      42.255  34.668  31.869  1.00  0.00     0.031 C 
ATOM     70  C   UNL A   1      47.777  36.792  30.519  1.00  0.00     0.029 A 
ATOM     71  C   UNL A   1      46.640  36.004  30.574  1.00  0.00     0.049 A 
ATOM     72  H   UNL A   1      46.267  34.139  29.661  1.00  0.00     0.167 HD
ATOM     73  C   UNL A   1      44.342  35.415  31.288  1.00  0.00     0.074 A 
ATOM     74  C   UNL A   1      43.119  35.663  32.022  1.00  0.00     0.031 C 
ATOM     75  C   UNL A   1      45.412  36.249  31.287  1.00  0.00     0.031 A 
BRANCH  62  76
ATOM     76  C   UNL A   1      50.138  34.212  27.864  1.00  0.00    -0.014 A 
ATOM     77  C   UNL A   1      51.270  33.729  28.542  1.00  0.00     0.010 A 
ATOM     78  C   UNL A   1      50.310  34.934  26.667  1.00  0.00     0.010 A 
ATOM     79  C   UNL A   1      52.553  34.008  28.060  1.00  0.00     0.020 A 
ATOM     80  C   UNL A   1      51.589  35.191  26.169  1.00  0.00     0.020 A 
ATOM     81  C   UNL A   1      52.703  34.746  26.881  1.00  0.00     0.054 A 
BRANCH  81  82
ATOM     82  S   UNL A   1      54.376  35.105  26.281  1.00  0.00     0.124 S 
ATOM     83  O   UNL A   1      54.113  35.584  24.927  1.00  0.00    -0.237 OA
ATOM     84  O   UNL A   1      54.848  36.115  27.223  1.00  0.00    -0.237 OA
ATOM     85  O   UNL A   1      55.057  33.814  26.363  1.00  0.00    -0.744 OA
ENDBRANCH  81  82
ENDBRANCH  62  76
BRANCH  63  86
ATOM     86  C   UNL A   1      40.876  32.246  30.975  1.00  0.00    -0.014 A 
ATOM     87  C   UNL A   1      39.759  32.760  30.294  1.00  0.00     0.010 A 
ATOM     88  C   UNL A   1      40.672  31.469  32.131  1.00  0.00     0.010 A 
ATOM     89  C   UNL A   1      38.466  32.511  30.764  1.00  0.00     0.020 A 
ATOM     90  C   UNL A   1      39.380  31.194  32.588  1.00  0.00     0.020 A 
ATOM     91  C   UNL A   1      38.284  31.726  31.907  1.00  0.00     0.054 A 
BRANCH  91  92
ATOM     92  S   UNL A   1      36.596  31.367  32.467  1.00  0.00     0.124 S 
ATOM     93  O   UNL A   1      35.791  32.002  31.429  1.00  0.00    -0.237 OA
ATOM     94  O   UNL A   1      36.574  29.907  32.484  1.00  0.00    -0.237 OA
ATOM     95  O   UNL A   1      36.533  31.999  33.783  1.00  0.00    -0.744 OA
ENDBRANCH  91  92
ENDBRANCH  63  86
BRANCH  75  96
ATOM     96  C   UNL A   1      45.302  37.541  32.053  1.00  0.00    -0.014 A 
ATOM     97  C   UNL A   1      44.725  38.687  31.480  1.00  0.00     0.010 A 
ATOM     98  C   UNL A   1      45.704  37.577  33.401  1.00  0.00     0.010 A 
ATOM     99  C   UNL A   1      44.564  39.851  32.238  1.00  0.00     0.020 A 
ATOM    100  C   UNL A   1      45.524  38.731  34.169  1.00  0.00     0.020 A 
ATOM    101  C   UNL A   1      44.962  39.865  33.580  1.00  0.00     0.054 A 
BRANCH 101 102
ATOM    102  S   UNL A   1      44.679  41.364  34.563  1.00  0.00     0.124 S 
ATOM    103  O   UNL A   1      43.739  42.104  33.727  1.00  0.00    -0.237 OA
ATOM    104  O   UNL A   1      44.129  40.833  35.808  1.00  0.00    -0.237 OA
ATOM    105  O   UNL A   1      46.010  41.956  34.681  1.00  0.00    -0.744 OA
ENDBRANCH 101 102
ENDBRANCH  75  96
ENDBRANCH  49  50
ENDBRANCH  42  44
ENDBRANCH  41  42
ENDBRANCH  40  41
ENDBRANCH  39  40
ENDBRANCH  38  39
ENDBRANCH  37  38
ENDBRANCH   1  37
TORSDOF 29
ENDMDL
