MODEL 1
REMARK VINA RESULT:      -8.4      0.000      0.000
REMARK SMILES Cn1c(SCC(=O)Nc2cccc(C(=O)OCCOCCOCCOC(=O)c3ccc(-c4c5nc(c(-c6ccc(S(=O)(=O)[O-])cc6)c6ccc([nH]6)c(-c6ccc(S(=O)(=O)[O-])cc6)c6nc(c(-c7ccc(S(=O)(=O)[O-])cc7)c7ccc4[nH]7)C=C6)C=C5)cc3)c2)nnc1[C@@H]1CCCN1C(=O)c1ccccc1Cl
REMARK SMILES IDX 18 1 17 2 16 3 14 4 15 5 13 6 9 7 10 8 88 9 11 10 12 11 8 12
REMARK SMILES IDX 6 13 7 14 5 16 4 17 3 18 1 19 2 20 91 21 89 22 90 23 92 24
REMARK SMILES IDX 93 25 96 26 94 27 95 28 97 29 98 30 99 31 100 32 104 33
REMARK SMILES IDX 101 34 103 35 105 36 102 37 19 38 20 39 21 40 22 41 23 42
REMARK SMILES IDX 24 43 25 44 26 45 27 46 28 47 29 48 87 49 30 50 86 51 31 52
REMARK SMILES IDX 32 53 33 54 80 55 34 56 85 57 79 58 81 59 35 60 84 61 78 62
REMARK SMILES IDX 77 63 36 65 66 66 47 67 65 68 48 69 51 70 64 71 82 72 49 73
REMARK SMILES IDX 50 74 63 76 83 77 52 78 37 79 38 80 46 81 39 82 45 83 40 84
REMARK SMILES IDX 41 85 42 86 43 87 44 88 67 89 68 90 76 91 69 92 75 93 70 94
REMARK SMILES IDX 71 95 72 96 73 97 74 98 53 99 54 100 62 101 55 102 61 103
REMARK SMILES IDX 56 104 57 105 58 106 59 107 60 108
REMARK H PARENT 8 15 81 64 51 75
REMARK Flexibility Score: inf
ROOT
ATOM      1  C   UNL A   1      31.793  29.447  26.335  1.00  0.00     0.202 C 
ENDROOT
BRANCH   1   2
ATOM      2  C   UNL A   1      31.201  29.843  24.972  1.00  0.00     0.261 C 
BRANCH   2   3
ATOM      3  O   UNL A   1      30.859  28.765  24.098  1.00  0.00    -0.460 OA
BRANCH   3   4
ATOM      4  C   UNL A   1      31.876  27.965  23.692  1.00  0.00     0.338 C 
ATOM      5  O   UNL A   1      32.958  28.327  23.262  1.00  0.00    -0.246 OA
BRANCH   4   6
ATOM      6  C   UNL A   1      31.529  26.539  23.922  1.00  0.00     0.062 A 
ATOM      7  C   UNL A   1      31.616  24.581  25.343  1.00  0.00     0.042 A 
ATOM      8  C   UNL A   1      30.778  23.900  24.465  1.00  0.00     0.026 A 
ATOM      9  C   UNL A   1      32.080  25.839  24.992  1.00  0.00     0.041 A 
ATOM     10  C   UNL A   1      30.292  24.552  23.328  1.00  0.00     0.003 A 
ATOM     11  C   UNL A   1      30.628  25.888  23.082  1.00  0.00     0.016 A 
BRANCH   7  12
ATOM     12  N   UNL A   1      31.936  23.987  26.568  1.00  0.00    -0.325 N 
ATOM     13  C   UNL A   1      32.765  22.928  26.820  1.00  0.00     0.234 C 
ATOM     14  O   UNL A   1      32.937  22.623  28.008  1.00  0.00    -0.274 OA
ATOM     15  H   UNL A   1      31.508  24.387  27.358  1.00  0.00     0.169 HD
BRANCH  13  16
ATOM     16  C   UNL A   1      33.625  22.287  25.749  1.00  0.00     0.178 C 
BRANCH  16  17
ATOM     17  S   UNL A   1      35.125  21.435  26.197  1.00  0.00    -0.076 SA
BRANCH  17  18
ATOM     18  C   UNL A   1      36.534  22.370  25.859  1.00  0.00     0.191 A 
ATOM     19  C   UNL A   1      38.177  20.658  25.007  1.00  0.00     0.154 C 
ATOM     20  N   UNL A   1      37.796  21.887  25.640  1.00  0.00    -0.307 N 
ATOM     21  C   UNL A   1      38.647  22.855  26.129  1.00  0.00     0.156 A 
ATOM     22  N   UNL A   1      36.620  23.637  26.200  1.00  0.00    -0.123 NA
ATOM     23  N   UNL A   1      37.946  23.948  26.354  1.00  0.00    -0.132 NA
BRANCH  21  24
ATOM     24  C   UNL A   1      40.093  22.708  26.433  1.00  0.00     0.154 C 
ATOM     25  C   UNL A   1      40.418  21.438  27.228  1.00  0.00     0.035 C 
ATOM     26  N   UNL A   1      40.689  23.802  27.215  1.00  0.00    -0.328 N 
ATOM     27  C   UNL A   1      41.719  21.777  27.940  1.00  0.00     0.024 C 
ATOM     28  C   UNL A   1      41.658  23.280  28.163  1.00  0.00     0.120 C 
BRANCH  26  29
ATOM     29  C   UNL A   1      40.694  25.172  26.978  1.00  0.00     0.255 C 
ATOM     30  O   UNL A   1      40.916  25.652  25.866  1.00  0.00    -0.269 OA
BRANCH  29  31
ATOM     31  C   UNL A   1      40.555  26.136  28.082  1.00  0.00     0.058 A 
ATOM     32  C   UNL A   1      39.287  26.475  28.563  1.00  0.00     0.015 A 
ATOM     33  C   UNL A   1      41.683  26.832  28.539  1.00  0.00     0.053 A 
ATOM     34  C   UNL A   1      39.161  27.445  29.564  1.00  0.00     0.001 A 
ATOM     35  C   UNL A   1      41.548  27.804  29.534  1.00  0.00     0.021 A 
ATOM     36  Cl  UNL A   1      43.273  26.530  27.928  1.00  0.00    -0.083 Cl
ATOM     37  C   UNL A   1      40.291  28.092  30.065  1.00  0.00     0.002 A 
ENDBRANCH  29  31
ENDBRANCH  26  29
ENDBRANCH  21  24
ENDBRANCH  17  18
ENDBRANCH  16  17
ENDBRANCH  13  16
ENDBRANCH   7  12
ENDBRANCH   4   6
ENDBRANCH   3   4
ENDBRANCH   2   3
ENDBRANCH   1   2
BRANCH   1  38
ATOM     38  O   UNL A   1      32.505  30.351  27.163  1.00  0.00    -0.376 OA
BRANCH  38  39
ATOM     39  C   UNL A   1      33.918  30.402  27.125  1.00  0.00     0.188 C 
BRANCH  39  40
ATOM     40  C   UNL A   1      34.664  31.617  27.710  1.00  0.00     0.188 C 
BRANCH  40  41
ATOM     41  O   UNL A   1      35.966  31.427  28.193  1.00  0.00    -0.376 OA
BRANCH  41  42
ATOM     42  C   UNL A   1      36.255  31.577  29.569  1.00  0.00     0.202 C 
BRANCH  42  43
ATOM     43  C   UNL A   1      36.031  32.854  30.408  1.00  0.00     0.261 C 
BRANCH  43  44
ATOM     44  O   UNL A   1      36.465  32.868  31.771  1.00  0.00    -0.460 OA
BRANCH  44  45
ATOM     45  C   UNL A   1      37.441  33.767  32.074  1.00  0.00     0.338 C 
ATOM     46  O   UNL A   1      37.772  34.738  31.428  1.00  0.00    -0.246 OA
BRANCH  45  47
ATOM     47  C   UNL A   1      37.909  33.499  33.453  1.00  0.00     0.060 A 
ATOM     48  C   UNL A   1      38.581  34.517  34.147  1.00  0.00     0.016 A 
ATOM     49  C   UNL A   1      37.693  32.260  34.054  1.00  0.00     0.016 A 
ATOM     50  C   UNL A   1      39.054  34.292  35.439  1.00  0.00     0.010 A 
ATOM     51  C   UNL A   1      38.194  32.026  35.340  1.00  0.00     0.010 A 
ATOM     52  C   UNL A   1      38.900  33.031  36.026  1.00  0.00    -0.014 A 
BRANCH  52  53
ATOM     53  C   UNL A   1      39.639  32.702  37.270  1.00  0.00     0.031 A 
ATOM     54  C   UNL A   1      41.095  32.338  37.164  1.00  0.00     0.074 A 
ATOM     55  C   UNL A   1      39.040  32.732  38.474  1.00  0.00     0.049 A 
ATOM     56  N   UNL A   1      41.929  31.967  38.100  1.00  0.00    -0.248 NA
ATOM     57  C   UNL A   1      41.683  32.394  35.817  1.00  0.00     0.031 C 
ATOM     58  C   UNL A   1      37.648  33.106  38.717  1.00  0.00     0.029 A 
ATOM     59  N   UNL A   1      39.532  32.424  39.718  1.00  0.00    -0.354 N 
ATOM     60  C   UNL A   1      43.137  31.730  37.454  1.00  0.00     0.074 A 
ATOM     61  C   UNL A   1      42.916  31.969  36.044  1.00  0.00     0.031 C 
ATOM     62  C   UNL A   1      37.391  32.982  40.031  1.00  0.00     0.029 A 
ATOM     63  C   UNL A   1      38.587  32.489  40.713  1.00  0.00     0.049 A 
ATOM     64  H   UNL A   1      40.472  32.180  39.881  1.00  0.00     0.167 HD
ATOM     65  C   UNL A   1      44.326  31.352  37.983  1.00  0.00     0.031 A 
ATOM     66  C   UNL A   1      38.668  32.158  42.018  1.00  0.00     0.031 A 
ATOM     67  C   UNL A   1      44.534  31.081  39.382  1.00  0.00     0.049 A 
ATOM     68  C   UNL A   1      39.976  31.666  42.581  1.00  0.00     0.074 A 
ATOM     69  C   UNL A   1      45.702  30.706  40.022  1.00  0.00     0.029 A 
ATOM     70  N   UNL A   1      43.545  31.132  40.355  1.00  0.00    -0.354 N 
ATOM     71  N   UNL A   1      41.122  31.484  41.967  1.00  0.00    -0.248 NA
ATOM     72  C   UNL A   1      40.003  31.343  44.014  1.00  0.00     0.031 C 
ATOM     73  C   UNL A   1      45.404  30.463  41.368  1.00  0.00     0.029 A 
ATOM     74  C   UNL A   1      44.067  30.760  41.583  1.00  0.00     0.049 A 
ATOM     75  H   UNL A   1      42.610  31.394  40.195  1.00  0.00     0.167 HD
ATOM     76  C   UNL A   1      42.011  31.044  42.944  1.00  0.00     0.074 A 
ATOM     77  C   UNL A   1      41.275  31.007  44.190  1.00  0.00     0.031 C 
ATOM     78  C   UNL A   1      43.320  30.706  42.817  1.00  0.00     0.031 A 
BRANCH  65  79
ATOM     79  C   UNL A   1      45.471  31.153  37.022  1.00  0.00    -0.014 A 
ATOM     80  C   UNL A   1      45.828  29.872  36.558  1.00  0.00     0.010 A 
ATOM     81  C   UNL A   1      46.216  32.265  36.591  1.00  0.00     0.010 A 
ATOM     82  C   UNL A   1      46.949  29.702  35.742  1.00  0.00     0.020 A 
ATOM     83  C   UNL A   1      47.316  32.103  35.744  1.00  0.00     0.020 A 
ATOM     84  C   UNL A   1      47.692  30.819  35.348  1.00  0.00     0.054 A 
BRANCH  84  85
ATOM     85  S   UNL A   1      49.159  30.567  34.312  1.00  0.00     0.124 S 
ATOM     86  O   UNL A   1      48.861  31.412  33.158  1.00  0.00    -0.237 OA
ATOM     87  O   UNL A   1      50.242  31.039  35.171  1.00  0.00    -0.237 OA
ATOM     88  O   UNL A   1      49.157  29.131  34.049  1.00  0.00    -0.744 OA
ENDBRANCH  84  85
ENDBRANCH  65  79
BRANCH  66  89
ATOM     89  C   UNL A   1      37.453  32.267  42.873  1.00  0.00    -0.014 A 
ATOM     90  C   UNL A   1      37.145  33.465  43.540  1.00  0.00     0.010 A 
ATOM     91  C   UNL A   1      36.567  31.178  42.980  1.00  0.00     0.010 A 
ATOM     92  C   UNL A   1      35.967  33.576  44.286  1.00  0.00     0.020 A 
ATOM     93  C   UNL A   1      35.376  31.294  43.700  1.00  0.00     0.020 A 
ATOM     94  C   UNL A   1      35.083  32.494  44.349  1.00  0.00     0.054 A 
BRANCH  94  95
ATOM     95  S   UNL A   1      33.511  32.703  45.232  1.00  0.00     0.124 S 
ATOM     96  O   UNL A   1      32.596  33.048  44.150  1.00  0.00    -0.237 OA
ATOM     97  O   UNL A   1      33.314  31.386  45.833  1.00  0.00    -0.237 OA
ATOM     98  O   UNL A   1      33.792  33.777  46.182  1.00  0.00    -0.744 OA
ENDBRANCH  94  95
ENDBRANCH  66  89
BRANCH  78  99
ATOM     99  C   UNL A   1      44.055  30.281  44.067  1.00  0.00    -0.014 A 
ATOM    100  C   UNL A   1      44.153  28.929  44.436  1.00  0.00     0.010 A 
ATOM    101  C   UNL A   1      44.700  31.252  44.856  1.00  0.00     0.010 A 
ATOM    102  C   UNL A   1      44.850  28.559  45.592  1.00  0.00     0.020 A 
ATOM    103  C   UNL A   1      45.425  30.884  45.993  1.00  0.00     0.020 A 
ATOM    104  C   UNL A   1      45.482  29.540  46.363  1.00  0.00     0.054 A 
BRANCH 104 105
ATOM    105  S   UNL A   1      46.406  29.030  47.840  1.00  0.00     0.124 S 
ATOM    106  O   UNL A   1      45.724  27.793  48.212  1.00  0.00    -0.237 OA
ATOM    107  O   UNL A   1      47.764  28.870  47.328  1.00  0.00    -0.237 OA
ATOM    108  O   UNL A   1      46.221  30.145  48.765  1.00  0.00    -0.744 OA
ENDBRANCH 104 105
ENDBRANCH  78  99
ENDBRANCH  52  53
ENDBRANCH  45  47
ENDBRANCH  44  45
ENDBRANCH  43  44
ENDBRANCH  42  43
ENDBRANCH  41  42
ENDBRANCH  40  41
ENDBRANCH  39  40
ENDBRANCH  38  39
ENDBRANCH   1  38
TORSDOF 27
ENDMDL
MODEL 2
REMARK VINA RESULT:      -8.3      5.027     11.011
REMARK SMILES Cn1c(SCC(=O)Nc2cccc(C(=O)OCCOCCOCCOC(=O)c3ccc(-c4c5nc(c(-c6ccc(S(=O)(=O)[O-])cc6)c6ccc([nH]6)c(-c6ccc(S(=O)(=O)[O-])cc6)c6nc(c(-c7ccc(S(=O)(=O)[O-])cc7)c7ccc4[nH]7)C=C6)C=C5)cc3)c2)nnc1[C@@H]1CCCN1C(=O)c1ccccc1Cl
REMARK SMILES IDX 18 1 17 2 16 3 14 4 15 5 13 6 9 7 10 8 88 9 11 10 12 11 8 12
REMARK SMILES IDX 6 13 7 14 5 16 4 17 3 18 1 19 2 20 91 21 89 22 90 23 92 24
REMARK SMILES IDX 93 25 96 26 94 27 95 28 97 29 98 30 99 31 100 32 104 33
REMARK SMILES IDX 101 34 103 35 105 36 102 37 19 38 20 39 21 40 22 41 23 42
REMARK SMILES IDX 24 43 25 44 26 45 27 46 28 47 29 48 87 49 30 50 86 51 31 52
REMARK SMILES IDX 32 53 33 54 80 55 34 56 85 57 79 58 81 59 35 60 84 61 78 62
REMARK SMILES IDX 77 63 36 65 66 66 47 67 65 68 48 69 51 70 64 71 82 72 49 73
REMARK SMILES IDX 50 74 63 76 83 77 52 78 37 79 38 80 46 81 39 82 45 83 40 84
REMARK SMILES IDX 41 85 42 86 43 87 44 88 67 89 68 90 76 91 69 92 75 93 70 94
REMARK SMILES IDX 71 95 72 96 73 97 74 98 53 99 54 100 62 101 55 102 61 103
REMARK SMILES IDX 56 104 57 105 58 106 59 107 60 108
REMARK H PARENT 8 15 81 64 51 75
REMARK Flexibility Score: inf
ROOT
ATOM      1  C   UNL A   1      39.012  31.410  33.548  1.00  0.00     0.202 C 
ENDROOT
BRANCH   1   2
ATOM      2  C   UNL A   1      39.393  30.202  32.676  1.00  0.00     0.261 C 
BRANCH   2   3
ATOM      3  O   UNL A   1      39.005  30.272  31.301  1.00  0.00    -0.460 OA
BRANCH   3   4
ATOM      4  C   UNL A   1      37.679  30.167  31.038  1.00  0.00     0.338 C 
ATOM      5  O   UNL A   1      36.902  29.366  31.528  1.00  0.00    -0.246 OA
BRANCH   4   6
ATOM      6  C   UNL A   1      37.256  31.244  30.106  1.00  0.00     0.062 A 
ATOM      7  C   UNL A   1      35.592  32.161  28.606  1.00  0.00     0.042 A 
ATOM      8  C   UNL A   1      36.354  33.315  28.457  1.00  0.00     0.026 A 
ATOM      9  C   UNL A   1      36.115  31.096  29.321  1.00  0.00     0.041 A 
ATOM     10  C   UNL A   1      37.557  33.444  29.159  1.00  0.00     0.003 A 
ATOM     11  C   UNL A   1      37.983  32.429  30.022  1.00  0.00     0.016 A 
BRANCH   7  12
ATOM     12  N   UNL A   1      34.307  32.125  28.054  1.00  0.00    -0.325 N 
ATOM     13  C   UNL A   1      33.677  31.097  27.407  1.00  0.00     0.234 C 
ATOM     14  O   UNL A   1      32.504  31.292  27.061  1.00  0.00    -0.274 OA
ATOM     15  H   UNL A   1      33.784  32.953  28.146  1.00  0.00     0.169 HD
BRANCH  13  16
ATOM     16  C   UNL A   1      34.268  29.706  27.307  1.00  0.00     0.178 C 
BRANCH  16  17
ATOM     17  S   UNL A   1      33.781  28.619  25.982  1.00  0.00    -0.076 SA
BRANCH  17  18
ATOM     18  C   UNL A   1      32.859  27.274  26.543  1.00  0.00     0.191 A 
ATOM     19  C   UNL A   1      34.200  25.286  25.768  1.00  0.00     0.154 C 
ATOM     20  N   UNL A   1      32.999  25.972  26.149  1.00  0.00    -0.307 N 
ATOM     21  C   UNL A   1      31.735  25.429  26.224  1.00  0.00     0.156 A 
ATOM     22  N   UNL A   1      31.665  27.428  27.072  1.00  0.00    -0.123 NA
ATOM     23  N   UNL A   1      30.963  26.266  26.888  1.00  0.00    -0.132 NA
BRANCH  21  24
ATOM     24  C   UNL A   1      31.265  24.159  25.614  1.00  0.00     0.154 C 
ATOM     25  C   UNL A   1      31.718  22.914  26.387  1.00  0.00     0.035 C 
ATOM     26  N   UNL A   1      31.705  23.920  24.231  1.00  0.00    -0.328 N 
ATOM     27  C   UNL A   1      31.701  21.810  25.340  1.00  0.00     0.024 C 
ATOM     28  C   UNL A   1      32.011  22.514  24.029  1.00  0.00     0.120 C 
BRANCH  26  29
ATOM     29  C   UNL A   1      31.576  24.720  23.100  1.00  0.00     0.255 C 
ATOM     30  O   UNL A   1      32.060  24.412  22.011  1.00  0.00    -0.269 OA
BRANCH  29  31
ATOM     31  C   UNL A   1      30.952  26.051  23.177  1.00  0.00     0.058 A 
ATOM     32  C   UNL A   1      29.592  26.174  23.475  1.00  0.00     0.015 A 
ATOM     33  C   UNL A   1      31.687  27.182  22.792  1.00  0.00     0.053 A 
ATOM     34  C   UNL A   1      28.993  27.439  23.474  1.00  0.00     0.001 A 
ATOM     35  C   UNL A   1      31.080  28.441  22.788  1.00  0.00     0.021 A 
ATOM     36  Cl  UNL A   1      33.350  27.097  22.323  1.00  0.00    -0.083 Cl
ATOM     37  C   UNL A   1      29.741  28.573  23.154  1.00  0.00     0.002 A 
ENDBRANCH  29  31
ENDBRANCH  26  29
ENDBRANCH  21  24
ENDBRANCH  17  18
ENDBRANCH  16  17
ENDBRANCH  13  16
ENDBRANCH   7  12
ENDBRANCH   4   6
ENDBRANCH   3   4
ENDBRANCH   2   3
ENDBRANCH   1   2
BRANCH   1  38
ATOM     38  O   UNL A   1      37.821  31.468  34.314  1.00  0.00    -0.376 OA
BRANCH  38  39
ATOM     39  C   UNL A   1      37.795  32.146  35.555  1.00  0.00     0.188 C 
BRANCH  39  40
ATOM     40  C   UNL A   1      37.184  33.558  35.652  1.00  0.00     0.188 C 
BRANCH  40  41
ATOM     41  O   UNL A   1      37.609  34.529  34.736  1.00  0.00    -0.376 OA
BRANCH  41  42
ATOM     42  C   UNL A   1      38.958  34.951  34.705  1.00  0.00     0.202 C 
BRANCH  42  43
ATOM     43  C   UNL A   1      39.662  35.814  35.776  1.00  0.00     0.261 C 
BRANCH  43  44
ATOM     44  O   UNL A   1      39.676  35.354  37.131  1.00  0.00    -0.460 OA
BRANCH  44  45
ATOM     45  C   UNL A   1      40.897  35.304  37.728  1.00  0.00     0.338 C 
ATOM     46  O   UNL A   1      41.297  35.992  38.642  1.00  0.00    -0.246 OA
BRANCH  45  47
ATOM     47  C   UNL A   1      41.613  34.108  37.225  1.00  0.00     0.060 A 
ATOM     48  C   UNL A   1      40.990  32.855  37.335  1.00  0.00     0.016 A 
ATOM     49  C   UNL A   1      42.880  34.219  36.656  1.00  0.00     0.016 A 
ATOM     50  C   UNL A   1      41.643  31.706  36.891  1.00  0.00     0.010 A 
ATOM     51  C   UNL A   1      43.546  33.062  36.238  1.00  0.00     0.010 A 
ATOM     52  C   UNL A   1      42.943  31.798  36.379  1.00  0.00    -0.014 A 
BRANCH  52  53
ATOM     53  C   UNL A   1      43.742  30.566  36.171  1.00  0.00     0.031 A 
ATOM     54  C   UNL A   1      44.547  30.030  37.324  1.00  0.00     0.074 A 
ATOM     55  C   UNL A   1      43.753  29.924  34.989  1.00  0.00     0.049 A 
ATOM     56  N   UNL A   1      45.355  29.003  37.367  1.00  0.00    -0.248 NA
ATOM     57  C   UNL A   1      44.424  30.758  38.596  1.00  0.00     0.031 C 
ATOM     58  C   UNL A   1      42.989  30.318  33.806  1.00  0.00     0.029 A 
ATOM     59  N   UNL A   1      44.450  28.812  34.589  1.00  0.00    -0.354 N 
ATOM     60  C   UNL A   1      45.851  28.970  38.665  1.00  0.00     0.074 A 
ATOM     61  C   UNL A   1      45.276  30.098  39.366  1.00  0.00     0.031 C 
ATOM     62  C   UNL A   1      43.278  29.469  32.804  1.00  0.00     0.029 A 
ATOM     63  C   UNL A   1      44.271  28.498  33.264  1.00  0.00     0.049 A 
ATOM     64  H   UNL A   1      45.024  28.288  35.194  1.00  0.00     0.167 HD
ATOM     65  C   UNL A   1      46.705  28.081  39.228  1.00  0.00     0.031 A 
ATOM     66  C   UNL A   1      44.863  27.557  32.499  1.00  0.00     0.031 A 
ATOM     67  C   UNL A   1      47.304  26.980  38.519  1.00  0.00     0.049 A 
ATOM     68  C   UNL A   1      45.868  26.622  33.118  1.00  0.00     0.074 A 
ATOM     69  C   UNL A   1      48.169  26.014  39.000  1.00  0.00     0.029 A 
ATOM     70  N   UNL A   1      47.118  26.712  37.169  1.00  0.00    -0.354 N 
ATOM     71  N   UNL A   1      46.299  26.576  34.357  1.00  0.00    -0.248 NA
ATOM     72  C   UNL A   1      46.460  25.605  32.237  1.00  0.00     0.031 C 
ATOM     73  C   UNL A   1      48.561  25.205  37.927  1.00  0.00     0.029 A 
ATOM     74  C   UNL A   1      47.880  25.619  36.792  1.00  0.00     0.049 A 
ATOM     75  H   UNL A   1      46.530  27.225  36.569  1.00  0.00     0.167 HD
ATOM     76  C   UNL A   1      47.198  25.514  34.409  1.00  0.00     0.074 A 
ATOM     77  C   UNL A   1      47.233  24.934  33.082  1.00  0.00     0.031 C 
ATOM     78  C   UNL A   1      47.925  25.060  35.462  1.00  0.00     0.031 A 
BRANCH  65  79
ATOM     79  C   UNL A   1      47.082  28.312  40.670  1.00  0.00    -0.014 A 
ATOM     80  C   UNL A   1      48.234  29.043  41.021  1.00  0.00     0.010 A 
ATOM     81  C   UNL A   1      46.281  27.772  41.692  1.00  0.00     0.010 A 
ATOM     82  C   UNL A   1      48.613  29.166  42.360  1.00  0.00     0.020 A 
ATOM     83  C   UNL A   1      46.638  27.925  43.034  1.00  0.00     0.020 A 
ATOM     84  C   UNL A   1      47.817  28.597  43.358  1.00  0.00     0.054 A 
BRANCH  84  85
ATOM     85  S   UNL A   1      48.348  28.747  45.086  1.00  0.00     0.124 S 
ATOM     86  O   UNL A   1      48.718  27.370  45.407  1.00  0.00    -0.237 OA
ATOM     87  O   UNL A   1      49.459  29.690  44.998  1.00  0.00    -0.237 OA
ATOM     88  O   UNL A   1      47.161  29.248  45.772  1.00  0.00    -0.744 OA
ENDBRANCH  84  85
ENDBRANCH  65  79
BRANCH  66  89
ATOM     89  C   UNL A   1      44.523  27.477  31.051  1.00  0.00    -0.014 A 
ATOM     90  C   UNL A   1      45.136  28.329  30.118  1.00  0.00     0.010 A 
ATOM     91  C   UNL A   1      43.615  26.503  30.595  1.00  0.00     0.010 A 
ATOM     92  C   UNL A   1      44.859  28.200  28.753  1.00  0.00     0.020 A 
ATOM     93  C   UNL A   1      43.356  26.351  29.230  1.00  0.00     0.020 A 
ATOM     94  C   UNL A   1      43.981  27.202  28.317  1.00  0.00     0.054 A 
BRANCH  94  95
ATOM     95  S   UNL A   1      43.725  26.985  26.533  1.00  0.00     0.124 S 
ATOM     96  O   UNL A   1      44.254  25.644  26.309  1.00  0.00    -0.237 OA
ATOM     97  O   UNL A   1      42.276  27.123  26.408  1.00  0.00    -0.237 OA
ATOM     98  O   UNL A   1      44.501  28.072  25.941  1.00  0.00    -0.744 OA
ENDBRANCH  94  95
ENDBRANCH  66  89
BRANCH  78  99
ATOM     99  C   UNL A   1      48.812  23.859  35.232  1.00  0.00    -0.014 A 
ATOM    100  C   UNL A   1      48.356  22.553  35.479  1.00  0.00     0.010 A 
ATOM    101  C   UNL A   1      50.107  24.042  34.712  1.00  0.00     0.010 A 
ATOM    102  C   UNL A   1      49.193  21.455  35.246  1.00  0.00     0.020 A 
ATOM    103  C   UNL A   1      50.933  22.947  34.447  1.00  0.00     0.020 A 
ATOM    104  C   UNL A   1      50.476  21.660  34.732  1.00  0.00     0.054 A 
BRANCH 104 105
ATOM    105  S   UNL A   1      51.529  20.217  34.409  1.00  0.00     0.124 S 
ATOM    106  O   UNL A   1      52.087  20.535  33.097  1.00  0.00    -0.237 OA
ATOM    107  O   UNL A   1      52.475  20.257  35.521  1.00  0.00    -0.237 OA
ATOM    108  O   UNL A   1      50.594  19.095  34.433  1.00  0.00    -0.744 OA
ENDBRANCH 104 105
ENDBRANCH  78  99
ENDBRANCH  52  53
ENDBRANCH  45  47
ENDBRANCH  44  45
ENDBRANCH  43  44
ENDBRANCH  42  43
ENDBRANCH  41  42
ENDBRANCH  40  41
ENDBRANCH  39  40
ENDBRANCH  38  39
ENDBRANCH   1  38
TORSDOF 27
ENDMDL
MODEL 3
REMARK VINA RESULT:      -8.2      6.500     12.654
REMARK SMILES Cn1c(SCC(=O)Nc2cccc(C(=O)OCCOCCOCCOC(=O)c3ccc(-c4c5nc(c(-c6ccc(S(=O)(=O)[O-])cc6)c6ccc([nH]6)c(-c6ccc(S(=O)(=O)[O-])cc6)c6nc(c(-c7ccc(S(=O)(=O)[O-])cc7)c7ccc4[nH]7)C=C6)C=C5)cc3)c2)nnc1[C@@H]1CCCN1C(=O)c1ccccc1Cl
REMARK SMILES IDX 18 1 17 2 16 3 14 4 15 5 13 6 9 7 10 8 88 9 11 10 12 11 8 12
REMARK SMILES IDX 6 13 7 14 5 16 4 17 3 18 1 19 2 20 91 21 89 22 90 23 92 24
REMARK SMILES IDX 93 25 96 26 94 27 95 28 97 29 98 30 99 31 100 32 104 33
REMARK SMILES IDX 101 34 103 35 105 36 102 37 19 38 20 39 21 40 22 41 23 42
REMARK SMILES IDX 24 43 25 44 26 45 27 46 28 47 29 48 87 49 30 50 86 51 31 52
REMARK SMILES IDX 32 53 33 54 80 55 34 56 85 57 79 58 81 59 35 60 84 61 78 62
REMARK SMILES IDX 77 63 36 65 66 66 47 67 65 68 48 69 51 70 64 71 82 72 49 73
REMARK SMILES IDX 50 74 63 76 83 77 52 78 37 79 38 80 46 81 39 82 45 83 40 84
REMARK SMILES IDX 41 85 42 86 43 87 44 88 67 89 68 90 76 91 69 92 75 93 70 94
REMARK SMILES IDX 71 95 72 96 73 97 74 98 53 99 54 100 62 101 55 102 61 103
REMARK SMILES IDX 56 104 57 105 58 106 59 107 60 108
REMARK H PARENT 8 15 81 64 51 75
REMARK Flexibility Score: inf
ROOT
ATOM      1  C   UNL A   1      47.274  36.816  26.158  1.00  0.00     0.202 C 
ENDROOT
BRANCH   1   2
ATOM      2  C   UNL A   1      46.138  37.066  27.164  1.00  0.00     0.261 C 
BRANCH   2   3
ATOM      3  O   UNL A   1      45.235  35.979  27.374  1.00  0.00    -0.460 OA
BRANCH   3   4
ATOM      4  C   UNL A   1      44.131  36.240  28.117  1.00  0.00     0.338 C 
ATOM      5  O   UNL A   1      43.405  37.214  28.022  1.00  0.00    -0.246 OA
BRANCH   4   6
ATOM      6  C   UNL A   1      43.856  35.109  29.041  1.00  0.00     0.062 A 
ATOM      7  C   UNL A   1      44.247  32.809  29.687  1.00  0.00     0.042 A 
ATOM      8  C   UNL A   1      43.481  32.995  30.833  1.00  0.00     0.026 A 
ATOM      9  C   UNL A   1      44.313  33.827  28.748  1.00  0.00     0.041 A 
ATOM     10  C   UNL A   1      42.926  34.251  31.097  1.00  0.00     0.003 A 
ATOM     11  C   UNL A   1      43.155  35.321  30.226  1.00  0.00     0.016 A 
BRANCH   7  12
ATOM     12  N   UNL A   1      44.952  31.612  29.533  1.00  0.00    -0.325 N 
ATOM     13  C   UNL A   1      44.531  30.427  28.992  1.00  0.00     0.234 C 
ATOM     14  O   UNL A   1      45.370  29.520  28.912  1.00  0.00    -0.274 OA
ATOM     15  H   UNL A   1      45.881  31.622  29.858  1.00  0.00     0.169 HD
BRANCH  13  16
ATOM     16  C   UNL A   1      43.189  30.271  28.306  1.00  0.00     0.178 C 
BRANCH  16  17
ATOM     17  S   UNL A   1      42.027  29.049  28.881  1.00  0.00    -0.076 SA
BRANCH  17  18
ATOM     18  C   UNL A   1      40.656  29.760  29.649  1.00  0.00     0.191 A 
ATOM     19  C   UNL A   1      38.978  27.880  29.699  1.00  0.00     0.154 C 
ATOM     20  N   UNL A   1      39.385  29.255  29.671  1.00  0.00    -0.307 N 
ATOM     21  C   UNL A   1      38.555  30.355  29.696  1.00  0.00     0.156 A 
ATOM     22  N   UNL A   1      40.604  31.047  29.914  1.00  0.00    -0.123 NA
ATOM     23  N   UNL A   1      39.286  31.419  29.961  1.00  0.00    -0.132 NA
BRANCH  21  24
ATOM     24  C   UNL A   1      37.099  30.388  29.408  1.00  0.00     0.154 C 
ATOM     25  C   UNL A   1      36.772  30.911  28.004  1.00  0.00     0.035 C 
ATOM     26  N   UNL A   1      36.294  31.221  30.315  1.00  0.00    -0.328 N 
ATOM     27  C   UNL A   1      35.352  31.441  28.136  1.00  0.00     0.024 C 
ATOM     28  C   UNL A   1      35.242  31.903  29.580  1.00  0.00     0.120 C 
BRANCH  26  29
ATOM     29  C   UNL A   1      36.202  31.203  31.703  1.00  0.00     0.255 C 
ATOM     30  O   UNL A   1      36.262  30.162  32.357  1.00  0.00    -0.269 OA
BRANCH  29  31
ATOM     31  C   UNL A   1      35.900  32.428  32.461  1.00  0.00     0.058 A 
ATOM     32  C   UNL A   1      34.574  32.811  32.679  1.00  0.00     0.015 A 
ATOM     33  C   UNL A   1      36.945  33.291  32.823  1.00  0.00     0.053 A 
ATOM     34  C   UNL A   1      34.299  34.015  33.338  1.00  0.00     0.001 A 
ATOM     35  C   UNL A   1      36.661  34.494  33.475  1.00  0.00     0.021 A 
ATOM     36  Cl  UNL A   1      38.606  32.926  32.507  1.00  0.00    -0.083 Cl
ATOM     37  C   UNL A   1      35.341  34.843  33.756  1.00  0.00     0.002 A 
ENDBRANCH  29  31
ENDBRANCH  26  29
ENDBRANCH  21  24
ENDBRANCH  17  18
ENDBRANCH  16  17
ENDBRANCH  13  16
ENDBRANCH   7  12
ENDBRANCH   4   6
ENDBRANCH   3   4
ENDBRANCH   2   3
ENDBRANCH   1   2
BRANCH   1  38
ATOM     38  O   UNL A   1      47.559  35.539  25.612  1.00  0.00    -0.376 OA
BRANCH  38  39
ATOM     39  C   UNL A   1      48.839  35.253  25.081  1.00  0.00     0.188 C 
BRANCH  39  40
ATOM     40  C   UNL A   1      49.725  36.393  24.542  1.00  0.00     0.188 C 
BRANCH  40  41
ATOM     41  O   UNL A   1      51.073  36.117  24.276  1.00  0.00    -0.376 OA
BRANCH  41  42
ATOM     42  C   UNL A   1      52.092  36.982  24.737  1.00  0.00     0.202 C 
BRANCH  42  43
ATOM     43  C   UNL A   1      52.362  37.359  26.211  1.00  0.00     0.261 C 
BRANCH  43  44
ATOM     44  O   UNL A   1      51.958  36.450  27.239  1.00  0.00    -0.460 OA
BRANCH  44  45
ATOM     45  C   UNL A   1      52.040  36.921  28.513  1.00  0.00     0.338 C 
ATOM     46  O   UNL A   1      52.752  37.813  28.922  1.00  0.00    -0.246 OA
BRANCH  45  47
ATOM     47  C   UNL A   1      50.947  36.313  29.306  1.00  0.00     0.060 A 
ATOM     48  C   UNL A   1      49.785  35.893  28.641  1.00  0.00     0.016 A 
ATOM     49  C   UNL A   1      51.064  36.161  30.686  1.00  0.00     0.016 A 
ATOM     50  C   UNL A   1      48.728  35.334  29.359  1.00  0.00     0.010 A 
ATOM     51  C   UNL A   1      49.991  35.627  31.409  1.00  0.00     0.010 A 
ATOM     52  C   UNL A   1      48.808  35.238  30.753  1.00  0.00    -0.014 A 
BRANCH  52  53
ATOM     53  C   UNL A   1      47.594  34.913  31.540  1.00  0.00     0.031 A 
ATOM     54  C   UNL A   1      46.680  36.037  31.945  1.00  0.00     0.074 A 
ATOM     55  C   UNL A   1      47.296  33.648  31.886  1.00  0.00     0.049 A 
ATOM     56  N   UNL A   1      45.593  36.004  32.672  1.00  0.00    -0.248 NA
ATOM     57  C   UNL A   1      47.049  37.379  31.469  1.00  0.00     0.031 C 
ATOM     58  C   UNL A   1      48.078  32.466  31.524  1.00  0.00     0.029 A 
ATOM     59  N   UNL A   1      46.259  33.153  32.638  1.00  0.00    -0.354 N 
ATOM     60  C   UNL A   1      45.156  37.321  32.755  1.00  0.00     0.074 A 
ATOM     61  C   UNL A   1      46.114  38.129  32.030  1.00  0.00     0.031 C 
ATOM     62  C   UNL A   1      47.502  31.383  32.076  1.00  0.00     0.029 A 
ATOM     63  C   UNL A   1      46.336  31.799  32.855  1.00  0.00     0.049 A 
ATOM     64  H   UNL A   1      45.531  33.716  32.987  1.00  0.00     0.167 HD
ATOM     65  C   UNL A   1      44.057  37.817  33.374  1.00  0.00     0.031 A 
ATOM     66  C   UNL A   1      45.573  30.991  33.620  1.00  0.00     0.031 A 
ATOM     67  C   UNL A   1      43.127  37.015  34.124  1.00  0.00     0.049 A 
ATOM     68  C   UNL A   1      44.397  31.567  34.365  1.00  0.00     0.074 A 
ATOM     69  C   UNL A   1      41.974  37.417  34.776  1.00  0.00     0.029 A 
ATOM     70  N   UNL A   1      43.253  35.650  34.343  1.00  0.00    -0.354 N 
ATOM     71  N   UNL A   1      43.971  32.808  34.402  1.00  0.00    -0.248 NA
ATOM     72  C   UNL A   1      43.594  30.630  35.163  1.00  0.00     0.031 C 
ATOM     73  C   UNL A   1      41.443  36.309  35.447  1.00  0.00     0.029 A 
ATOM     74  C   UNL A   1      42.221  35.200  35.151  1.00  0.00     0.049 A 
ATOM     75  H   UNL A   1      43.972  35.085  33.979  1.00  0.00     0.167 HD
ATOM     76  C   UNL A   1      42.839  32.798  35.213  1.00  0.00     0.074 A 
ATOM     77  C   UNL A   1      42.636  31.425  35.626  1.00  0.00     0.031 C 
ATOM     78  C   UNL A   1      42.039  33.833  35.576  1.00  0.00     0.031 A 
BRANCH  65  79
ATOM     79  C   UNL A   1      43.849  39.309  33.307  1.00  0.00    -0.014 A 
ATOM     80  C   UNL A   1      43.230  39.916  32.198  1.00  0.00     0.010 A 
ATOM     81  C   UNL A   1      44.296  40.120  34.366  1.00  0.00     0.010 A 
ATOM     82  C   UNL A   1      43.131  41.308  32.117  1.00  0.00     0.020 A 
ATOM     83  C   UNL A   1      44.165  41.510  34.305  1.00  0.00     0.020 A 
ATOM     84  C   UNL A   1      43.609  42.096  33.167  1.00  0.00     0.054 A 
BRANCH  84  85
ATOM     85  S   UNL A   1      43.493  43.900  33.024  1.00  0.00     0.124 S 
ATOM     86  O   UNL A   1      44.889  44.275  32.810  1.00  0.00    -0.237 OA
ATOM     87  O   UNL A   1      42.614  44.074  31.870  1.00  0.00    -0.237 OA
ATOM     88  O   UNL A   1      42.926  44.316  34.304  1.00  0.00    -0.744 OA
ENDBRANCH  84  85
ENDBRANCH  65  79
BRANCH  66  89
ATOM     89  C   UNL A   1      45.924  29.548  33.729  1.00  0.00    -0.014 A 
ATOM     90  C   UNL A   1      45.398  28.608  32.827  1.00  0.00     0.010 A 
ATOM     91  C   UNL A   1      46.833  29.117  34.713  1.00  0.00     0.010 A 
ATOM     92  C   UNL A   1      45.786  27.266  32.898  1.00  0.00     0.020 A 
ATOM     93  C   UNL A   1      47.245  27.783  34.770  1.00  0.00     0.020 A 
ATOM     94  C   UNL A   1      46.719  26.865  33.860  1.00  0.00     0.054 A 
BRANCH  94  95
ATOM     95  S   UNL A   1      47.287  25.141  33.858  1.00  0.00     0.124 S 
ATOM     96  O   UNL A   1      48.358  25.173  32.868  1.00  0.00    -0.237 OA
ATOM     97  O   UNL A   1      47.712  24.952  35.243  1.00  0.00    -0.237 OA
ATOM     98  O   UNL A   1      46.097  24.388  33.471  1.00  0.00    -0.744 OA
ENDBRANCH  94  95
ENDBRANCH  66  89
BRANCH  78  99
ATOM     99  C   UNL A   1      40.851  33.521  36.454  1.00  0.00    -0.014 A 
ATOM    100  C   UNL A   1      39.554  33.410  35.923  1.00  0.00     0.010 A 
ATOM    101  C   UNL A   1      41.046  33.287  37.829  1.00  0.00     0.010 A 
ATOM    102  C   UNL A   1      38.470  33.108  36.755  1.00  0.00     0.020 A 
ATOM    103  C   UNL A   1      39.972  32.953  38.657  1.00  0.00     0.020 A 
ATOM    104  C   UNL A   1      38.687  32.881  38.117  1.00  0.00     0.054 A 
BRANCH 104 105
ATOM    105  S   UNL A   1      37.269  32.460  39.169  1.00  0.00     0.124 S 
ATOM    106  O   UNL A   1      37.512  31.049  39.457  1.00  0.00    -0.237 OA
ATOM    107  O   UNL A   1      37.429  33.370  40.301  1.00  0.00    -0.237 OA
ATOM    108  O   UNL A   1      36.113  32.731  38.317  1.00  0.00    -0.744 OA
ENDBRANCH 104 105
ENDBRANCH  78  99
ENDBRANCH  52  53
ENDBRANCH  45  47
ENDBRANCH  44  45
ENDBRANCH  43  44
ENDBRANCH  42  43
ENDBRANCH  41  42
ENDBRANCH  40  41
ENDBRANCH  39  40
ENDBRANCH  38  39
ENDBRANCH   1  38
TORSDOF 27
ENDMDL
