MODEL 1
REMARK VINA RESULT:      -9.3      0.000      0.000
REMARK SMILES [NH3+][C@H](CCC(=O)OCCOCCOCCOC(=O)c1ccc(-c2c3nc(c(-c4ccc(S(=O)(=O)[O-])cc4)c4ccc([nH]4)c(-c4ccc(S(=O)(=O)[O-])cc4)c4nc(c(-c5ccc(S(=O)(=O)[O-])cc5)c5ccc2[nH]5)C=C4)C=C3)cc1)c1nccc2[nH]ccc12
REMARK SMILES IDX 11 1 10 2 9 3 8 4 7 5 5 6 6 7 4 8 3 9 2 10 1 11 79 15 80 16
REMARK SMILES IDX 87 17 81 18 83 19 86 20 82 21 84 22 85 23 12 25 13 26 14 27
REMARK SMILES IDX 15 28 16 29 17 30 18 31 19 32 20 33 78 34 21 35 77 36 22 37
REMARK SMILES IDX 23 38 24 39 71 40 25 41 76 42 70 43 72 44 26 45 75 46 69 47
REMARK SMILES IDX 68 48 27 50 57 51 38 52 56 53 39 54 42 55 55 56 73 57 40 58
REMARK SMILES IDX 41 59 54 61 74 62 43 63 28 64 29 65 37 66 30 67 36 68 31 69
REMARK SMILES IDX 32 70 33 71 34 72 35 73 58 74 59 75 67 76 60 77 66 78 61 79
REMARK SMILES IDX 62 80 63 81 64 82 65 83 44 84 45 85 53 86 46 87 52 88 47 89
REMARK SMILES IDX 48 90 49 91 50 92 51 93
REMARK H PARENT 1 12 1 13 1 14 84 24 72 49 42 60
REMARK Flexibility Score: inf
ROOT
ATOM      1  C   UNL A   1      31.988  29.032  26.337  1.00  0.00     0.188 C 
ENDROOT
BRANCH   1   2
ATOM      2  O   UNL A   1      31.752  28.146  25.250  1.00  0.00    -0.376 OA
BRANCH   2   3
ATOM      3  C   UNL A   1      30.802  27.097  25.394  1.00  0.00     0.202 C 
BRANCH   3   4
ATOM      4  C   UNL A   1      31.038  25.912  26.347  1.00  0.00     0.261 C 
BRANCH   4   5
ATOM      5  O   UNL A   1      30.792  24.609  25.800  1.00  0.00    -0.463 OA
BRANCH   5   6
ATOM      6  C   UNL A   1      30.819  23.582  26.683  1.00  0.00     0.306 C 
ATOM      7  O   UNL A   1      29.873  23.231  27.379  1.00  0.00    -0.252 OA
BRANCH   6   8
ATOM      8  C   UNL A   1      32.097  22.776  26.634  1.00  0.00     0.129 C 
BRANCH   8   9
ATOM      9  C   UNL A   1      33.288  23.221  25.796  1.00  0.00     0.083 C 
BRANCH   9  10
ATOM     10  C   UNL A   1      34.622  23.591  26.461  1.00  0.00     0.232 C 
BRANCH  10  11
ATOM     11  N   UNL A   1      34.995  22.523  27.434  1.00  0.00    -0.350 N 
ATOM     12  H   UNL A   1      34.671  22.783  28.364  1.00  0.00     0.345 HD
ATOM     13  H   UNL A   1      36.009  22.414  27.445  1.00  0.00     0.345 HD
ATOM     14  H   UNL A   1      34.562  21.643  27.157  1.00  0.00     0.345 HD
ENDBRANCH  10  11
BRANCH  10  15
ATOM     15  C   UNL A   1      35.828  23.929  25.557  1.00  0.00     0.107 A 
ATOM     16  N   UNL A   1      35.519  23.820  24.219  1.00  0.00    -0.254 NA
ATOM     17  C   UNL A   1      37.146  23.528  25.888  1.00  0.00     0.027 A 
ATOM     18  C   UNL A   1      36.086  22.821  23.518  1.00  0.00     0.114 A 
ATOM     19  C   UNL A   1      37.686  22.470  25.154  1.00  0.00     0.049 A 
ATOM     20  C   UNL A   1      38.213  24.028  26.690  1.00  0.00     0.030 A 
ATOM     21  C   UNL A   1      37.075  21.984  24.004  1.00  0.00     0.047 A 
ATOM     22  N   UNL A   1      38.855  22.111  25.776  1.00  0.00    -0.361 N 
ATOM     23  C   UNL A   1      39.278  23.161  26.551  1.00  0.00     0.083 A 
ATOM     24  H   UNL A   1      39.314  21.244  25.682  1.00  0.00     0.166 HD
ENDBRANCH  10  15
ENDBRANCH   9  10
ENDBRANCH   8   9
ENDBRANCH   6   8
ENDBRANCH   5   6
ENDBRANCH   4   5
ENDBRANCH   3   4
ENDBRANCH   2   3
ENDBRANCH   1   2
BRANCH   1  25
ATOM     25  C   UNL A   1      31.912  30.550  26.082  1.00  0.00     0.188 C 
BRANCH  25  26
ATOM     26  O   UNL A   1      32.492  31.331  27.105  1.00  0.00    -0.376 OA
BRANCH  26  27
ATOM     27  C   UNL A   1      33.798  31.006  27.549  1.00  0.00     0.202 C 
BRANCH  27  28
ATOM     28  C   UNL A   1      34.690  31.990  28.334  1.00  0.00     0.261 C 
BRANCH  28  29
ATOM     29  O   UNL A   1      36.097  31.729  28.393  1.00  0.00    -0.460 OA
BRANCH  29  30
ATOM     30  C   UNL A   1      36.624  31.421  29.601  1.00  0.00     0.338 C 
ATOM     31  O   UNL A   1      36.074  31.509  30.681  1.00  0.00    -0.246 OA
BRANCH  30  32
ATOM     32  C   UNL A   1      37.911  30.728  29.355  1.00  0.00     0.060 A 
ATOM     33  C   UNL A   1      38.849  30.663  30.394  1.00  0.00     0.016 A 
ATOM     34  C   UNL A   1      38.182  30.129  28.121  1.00  0.00     0.016 A 
ATOM     35  C   UNL A   1      40.083  30.045  30.186  1.00  0.00     0.010 A 
ATOM     36  C   UNL A   1      39.426  29.527  27.906  1.00  0.00     0.010 A 
ATOM     37  C   UNL A   1      40.398  29.526  28.923  1.00  0.00    -0.014 A 
BRANCH  37  38
ATOM     38  C   UNL A   1      41.816  29.239  28.594  1.00  0.00     0.031 A 
ATOM     39  C   UNL A   1      42.164  27.834  28.173  1.00  0.00     0.074 A 
ATOM     40  C   UNL A   1      42.765  30.191  28.622  1.00  0.00     0.049 A 
ATOM     41  N   UNL A   1      43.318  27.331  27.818  1.00  0.00    -0.248 NA
ATOM     42  C   UNL A   1      41.054  26.866  28.148  1.00  0.00     0.031 C 
ATOM     43  C   UNL A   1      42.551  31.596  28.963  1.00  0.00     0.029 A 
ATOM     44  N   UNL A   1      44.108  30.111  28.348  1.00  0.00    -0.354 N 
ATOM     45  C   UNL A   1      43.075  25.990  27.545  1.00  0.00     0.074 A 
ATOM     46  C   UNL A   1      41.673  25.749  27.802  1.00  0.00     0.031 C 
ATOM     47  C   UNL A   1      43.724  32.250  28.872  1.00  0.00     0.029 A 
ATOM     48  C   UNL A   1      44.775  31.304  28.496  1.00  0.00     0.049 A 
ATOM     49  H   UNL A   1      44.553  29.278  28.072  1.00  0.00     0.167 HD
ATOM     50  C   UNL A   1      43.938  25.041  27.114  1.00  0.00     0.031 A 
ATOM     51  C   UNL A   1      46.084  31.595  28.349  1.00  0.00     0.031 A 
ATOM     52  C   UNL A   1      45.335  25.276  26.874  1.00  0.00     0.049 A 
ATOM     53  C   UNL A   1      47.041  30.506  27.932  1.00  0.00     0.074 A 
ATOM     54  C   UNL A   1      46.292  24.385  26.422  1.00  0.00     0.029 A 
ATOM     55  N   UNL A   1      45.978  26.487  27.077  1.00  0.00    -0.354 N 
ATOM     56  N   UNL A   1      46.793  29.247  27.651  1.00  0.00    -0.248 NA
ATOM     57  C   UNL A   1      48.456  30.883  27.798  1.00  0.00     0.031 C 
ATOM     58  C   UNL A   1      47.527  25.043  26.409  1.00  0.00     0.029 A 
ATOM     59  C   UNL A   1      47.325  26.363  26.783  1.00  0.00     0.049 A 
ATOM     60  H   UNL A   1      45.541  27.314  27.385  1.00  0.00     0.167 HD
ATOM     61  C   UNL A   1      48.012  28.697  27.263  1.00  0.00     0.074 A 
ATOM     62  C   UNL A   1      48.993  29.759  27.344  1.00  0.00     0.031 C 
ATOM     63  C   UNL A   1      48.291  27.430  26.864  1.00  0.00     0.031 A 
BRANCH  50  64
ATOM     64  C   UNL A   1      43.394  23.648  26.930  1.00  0.00    -0.014 A 
ATOM     65  C   UNL A   1      42.959  22.878  28.024  1.00  0.00     0.010 A 
ATOM     66  C   UNL A   1      43.319  23.103  25.636  1.00  0.00     0.010 A 
ATOM     67  C   UNL A   1      42.509  21.568  27.832  1.00  0.00     0.020 A 
ATOM     68  C   UNL A   1      42.840  21.805  25.436  1.00  0.00     0.020 A 
ATOM     69  C   UNL A   1      42.459  21.039  26.538  1.00  0.00     0.054 A 
BRANCH  69  70
ATOM     70  S   UNL A   1      41.873  19.337  26.315  1.00  0.00     0.124 S 
ATOM     71  O   UNL A   1      40.426  19.523  26.250  1.00  0.00    -0.237 OA
ATOM     72  O   UNL A   1      42.511  18.941  25.061  1.00  0.00    -0.237 OA
ATOM     73  O   UNL A   1      42.360  18.643  27.504  1.00  0.00    -0.744 OA
ENDBRANCH  69  70
ENDBRANCH  50  64
BRANCH  51  74
ATOM     74  C   UNL A   1      46.573  32.983  28.584  1.00  0.00    -0.014 A 
ATOM     75  C   UNL A   1      46.997  33.384  29.864  1.00  0.00     0.010 A 
ATOM     76  C   UNL A   1      46.612  33.914  27.530  1.00  0.00     0.010 A 
ATOM     77  C   UNL A   1      47.437  34.693  30.088  1.00  0.00     0.020 A 
ATOM     78  C   UNL A   1      47.076  35.215  27.744  1.00  0.00     0.020 A 
ATOM     79  C   UNL A   1      47.476  35.599  29.025  1.00  0.00     0.054 A 
BRANCH  79  80
ATOM     80  S   UNL A   1      48.101  37.276  29.330  1.00  0.00     0.124 S 
ATOM     81  O   UNL A   1      48.468  37.212  30.741  1.00  0.00    -0.237 OA
ATOM     82  O   UNL A   1      49.216  37.371  28.390  1.00  0.00    -0.237 OA
ATOM     83  O   UNL A   1      46.958  38.130  29.017  1.00  0.00    -0.744 OA
ENDBRANCH  79  80
ENDBRANCH  51  74
BRANCH  63  84
ATOM     84  C   UNL A   1      49.700  27.133  26.418  1.00  0.00    -0.014 A 
ATOM     85  C   UNL A   1      50.683  26.682  27.317  1.00  0.00     0.010 A 
ATOM     86  C   UNL A   1      50.029  27.264  25.055  1.00  0.00     0.010 A 
ATOM     87  C   UNL A   1      51.980  26.415  26.868  1.00  0.00     0.020 A 
ATOM     88  C   UNL A   1      51.314  26.968  24.598  1.00  0.00     0.020 A 
ATOM     89  C   UNL A   1      52.288  26.563  25.511  1.00  0.00     0.054 A 
BRANCH  89  90
ATOM     90  S   UNL A   1      53.973  26.189  24.948  1.00  0.00     0.124 S 
ATOM     91  O   UNL A   1      53.892  24.756  24.681  1.00  0.00    -0.237 OA
ATOM     92  O   UNL A   1      54.115  27.042  23.771  1.00  0.00    -0.237 OA
ATOM     93  O   UNL A   1      54.809  26.565  26.086  1.00  0.00    -0.744 OA
ENDBRANCH  89  90
ENDBRANCH  63  84
ENDBRANCH  37  38
ENDBRANCH  30  32
ENDBRANCH  29  30
ENDBRANCH  28  29
ENDBRANCH  27  28
ENDBRANCH  26  27
ENDBRANCH  25  26
ENDBRANCH   1  25
TORSDOF 24
ENDMDL
MODEL 2
REMARK VINA RESULT:      -9.2      2.608      9.164
REMARK SMILES [NH3+][C@H](CCC(=O)OCCOCCOCCOC(=O)c1ccc(-c2c3nc(c(-c4ccc(S(=O)(=O)[O-])cc4)c4ccc([nH]4)c(-c4ccc(S(=O)(=O)[O-])cc4)c4nc(c(-c5ccc(S(=O)(=O)[O-])cc5)c5ccc2[nH]5)C=C4)C=C3)cc1)c1nccc2[nH]ccc12
REMARK SMILES IDX 11 1 10 2 9 3 8 4 7 5 5 6 6 7 4 8 3 9 2 10 1 11 79 15 80 16
REMARK SMILES IDX 87 17 81 18 83 19 86 20 82 21 84 22 85 23 12 25 13 26 14 27
REMARK SMILES IDX 15 28 16 29 17 30 18 31 19 32 20 33 78 34 21 35 77 36 22 37
REMARK SMILES IDX 23 38 24 39 71 40 25 41 76 42 70 43 72 44 26 45 75 46 69 47
REMARK SMILES IDX 68 48 27 50 57 51 38 52 56 53 39 54 42 55 55 56 73 57 40 58
REMARK SMILES IDX 41 59 54 61 74 62 43 63 28 64 29 65 37 66 30 67 36 68 31 69
REMARK SMILES IDX 32 70 33 71 34 72 35 73 58 74 59 75 67 76 60 77 66 78 61 79
REMARK SMILES IDX 62 80 63 81 64 82 65 83 44 84 45 85 53 86 46 87 52 88 47 89
REMARK SMILES IDX 48 90 49 91 50 92 51 93
REMARK H PARENT 1 12 1 13 1 14 84 24 72 49 42 60
REMARK Flexibility Score: inf
ROOT
ATOM      1  C   UNL A   1      33.157  36.054  29.374  1.00  0.00     0.188 C 
ENDROOT
BRANCH   1   2
ATOM      2  O   UNL A   1      32.724  34.755  28.992  1.00  0.00    -0.376 OA
BRANCH   2   3
ATOM      3  C   UNL A   1      33.623  33.886  28.314  1.00  0.00     0.202 C 
BRANCH   3   4
ATOM      4  C   UNL A   1      33.360  32.375  28.197  1.00  0.00     0.261 C 
BRANCH   4   5
ATOM      5  O   UNL A   1      34.337  31.623  27.465  1.00  0.00    -0.463 OA
BRANCH   5   6
ATOM      6  C   UNL A   1      34.113  30.289  27.376  1.00  0.00     0.306 C 
ATOM      7  O   UNL A   1      34.915  29.421  27.700  1.00  0.00    -0.252 OA
BRANCH   6   8
ATOM      8  C   UNL A   1      32.697  29.940  26.980  1.00  0.00     0.129 C 
BRANCH   8   9
ATOM      9  C   UNL A   1      32.389  28.739  26.096  1.00  0.00     0.083 C 
BRANCH   9  10
ATOM     10  C   UNL A   1      31.738  27.479  26.684  1.00  0.00     0.232 C 
BRANCH  10  11
ATOM     11  N   UNL A   1      31.047  27.834  27.958  1.00  0.00    -0.350 N 
ATOM     12  H   UNL A   1      30.633  28.761  27.873  1.00  0.00     0.345 HD
ATOM     13  H   UNL A   1      31.722  27.831  28.722  1.00  0.00     0.345 HD
ATOM     14  H   UNL A   1      30.315  27.151  28.149  1.00  0.00     0.345 HD
ENDBRANCH  10  11
BRANCH  10  15
ATOM     15  C   UNL A   1      30.796  26.647  25.785  1.00  0.00     0.107 A 
ATOM     16  N   UNL A   1      30.275  25.558  26.448  1.00  0.00    -0.254 NA
ATOM     17  C   UNL A   1      31.078  26.420  24.415  1.00  0.00     0.027 A 
ATOM     18  C   UNL A   1      30.680  24.333  26.066  1.00  0.00     0.114 A 
ATOM     19  C   UNL A   1      31.521  25.142  24.067  1.00  0.00     0.049 A 
ATOM     20  C   UNL A   1      30.870  27.107  23.184  1.00  0.00     0.030 A 
ATOM     21  C   UNL A   1      31.466  24.075  24.957  1.00  0.00     0.047 A 
ATOM     22  N   UNL A   1      31.938  25.208  22.761  1.00  0.00    -0.361 N 
ATOM     23  C   UNL A   1      31.358  26.303  22.173  1.00  0.00     0.083 A 
ATOM     24  H   UNL A   1      32.551  24.575  22.320  1.00  0.00     0.166 HD
ENDBRANCH  10  15
ENDBRANCH   9  10
ENDBRANCH   8   9
ENDBRANCH   6   8
ENDBRANCH   5   6
ENDBRANCH   4   5
ENDBRANCH   3   4
ENDBRANCH   2   3
ENDBRANCH   1   2
BRANCH   1  25
ATOM     25  C   UNL A   1      32.973  36.494  30.839  1.00  0.00     0.188 C 
BRANCH  25  26
ATOM     26  O   UNL A   1      32.912  35.421  31.754  1.00  0.00    -0.376 OA
BRANCH  26  27
ATOM     27  C   UNL A   1      33.925  35.309  32.738  1.00  0.00     0.202 C 
BRANCH  27  28
ATOM     28  C   UNL A   1      35.387  34.945  32.405  1.00  0.00     0.261 C 
BRANCH  28  29
ATOM     29  O   UNL A   1      35.632  34.086  31.286  1.00  0.00    -0.460 OA
BRANCH  29  30
ATOM     30  C   UNL A   1      35.330  32.774  31.429  1.00  0.00     0.338 C 
ATOM     31  O   UNL A   1      34.249  32.302  31.719  1.00  0.00    -0.246 OA
BRANCH  30  32
ATOM     32  C   UNL A   1      36.493  31.999  30.934  1.00  0.00     0.060 A 
ATOM     33  C   UNL A   1      37.263  31.278  31.856  1.00  0.00     0.016 A 
ATOM     34  C   UNL A   1      36.808  31.964  29.572  1.00  0.00     0.016 A 
ATOM     35  C   UNL A   1      38.381  30.563  31.427  1.00  0.00     0.010 A 
ATOM     36  C   UNL A   1      37.940  31.265  29.145  1.00  0.00     0.010 A 
ATOM     37  C   UNL A   1      38.758  30.601  30.079  1.00  0.00    -0.014 A 
BRANCH  37  38
ATOM     38  C   UNL A   1      40.131  30.187  29.701  1.00  0.00     0.031 A 
ATOM     39  C   UNL A   1      41.230  31.209  29.837  1.00  0.00     0.074 A 
ATOM     40  C   UNL A   1      40.416  28.938  29.290  1.00  0.00     0.049 A 
ATOM     41  N   UNL A   1      42.509  31.096  29.591  1.00  0.00    -0.248 NA
ATOM     42  C   UNL A   1      40.827  32.542  30.317  1.00  0.00     0.031 C 
ATOM     43  C   UNL A   1      39.455  27.843  29.164  1.00  0.00     0.029 A 
ATOM     44  N   UNL A   1      41.613  28.382  28.909  1.00  0.00    -0.354 N 
ATOM     45  C   UNL A   1      43.057  32.343  29.871  1.00  0.00     0.074 A 
ATOM     46  C   UNL A   1      41.971  33.205  30.277  1.00  0.00     0.031 C 
ATOM     47  C   UNL A   1      40.103  26.743  28.740  1.00  0.00     0.029 A 
ATOM     48  C   UNL A   1      41.517  27.062  28.537  1.00  0.00     0.049 A 
ATOM     49  H   UNL A   1      42.461  28.882  28.903  1.00  0.00     0.167 HD
ATOM     50  C   UNL A   1      44.350  32.737  29.803  1.00  0.00     0.031 A 
ATOM     51  C   UNL A   1      42.460  26.215  28.079  1.00  0.00     0.031 A 
ATOM     52  C   UNL A   1      45.429  31.885  29.384  1.00  0.00     0.049 A 
ATOM     53  C   UNL A   1      43.884  26.696  27.947  1.00  0.00     0.074 A 
ATOM     54  C   UNL A   1      46.777  32.184  29.295  1.00  0.00     0.029 A 
ATOM     55  N   UNL A   1      45.281  30.569  28.974  1.00  0.00    -0.354 N 
ATOM     56  N   UNL A   1      44.394  27.869  28.241  1.00  0.00    -0.248 NA
ATOM     57  C   UNL A   1      44.866  25.728  27.435  1.00  0.00     0.031 C 
ATOM     58  C   UNL A   1      47.436  31.066  28.773  1.00  0.00     0.029 A 
ATOM     59  C   UNL A   1      46.510  30.048  28.607  1.00  0.00     0.049 A 
ATOM     60  H   UNL A   1      44.428  30.077  28.948  1.00  0.00     0.167 HD
ATOM     61  C   UNL A   1      45.760  27.765  27.993  1.00  0.00     0.074 A 
ATOM     62  C   UNL A   1      45.996  26.414  27.527  1.00  0.00     0.031 C 
ATOM     63  C   UNL A   1      46.732  28.699  28.149  1.00  0.00     0.031 A 
BRANCH  50  64
ATOM     64  C   UNL A   1      44.649  34.175  30.141  1.00  0.00    -0.014 A 
ATOM     65  C   UNL A   1      45.009  34.564  31.444  1.00  0.00     0.010 A 
ATOM     66  C   UNL A   1      44.566  35.152  29.133  1.00  0.00     0.010 A 
ATOM     67  C   UNL A   1      45.228  35.912  31.744  1.00  0.00     0.020 A 
ATOM     68  C   UNL A   1      44.815  36.497  29.422  1.00  0.00     0.020 A 
ATOM     69  C   UNL A   1      45.123  36.870  30.731  1.00  0.00     0.054 A 
BRANCH  69  70
ATOM     70  S   UNL A   1      45.411  38.612  31.145  1.00  0.00     0.124 S 
ATOM     71  O   UNL A   1      46.808  38.787  30.758  1.00  0.00    -0.237 OA
ATOM     72  O   UNL A   1      44.436  39.306  30.306  1.00  0.00    -0.237 OA
ATOM     73  O   UNL A   1      45.149  38.675  32.581  1.00  0.00    -0.744 OA
ENDBRANCH  69  70
ENDBRANCH  50  64
BRANCH  51  74
ATOM     74  C   UNL A   1      42.098  24.815  27.722  1.00  0.00    -0.014 A 
ATOM     75  C   UNL A   1      41.806  24.469  26.390  1.00  0.00     0.010 A 
ATOM     76  C   UNL A   1      42.039  23.818  28.712  1.00  0.00     0.010 A 
ATOM     77  C   UNL A   1      41.446  23.159  26.058  1.00  0.00     0.020 A 
ATOM     78  C   UNL A   1      41.706  22.500  28.381  1.00  0.00     0.020 A 
ATOM     79  C   UNL A   1      41.402  22.182  27.056  1.00  0.00     0.054 A 
BRANCH  79  80
ATOM     80  S   UNL A   1      40.985  20.478  26.593  1.00  0.00     0.124 S 
ATOM     81  O   UNL A   1      41.042  19.790  27.879  1.00  0.00    -0.237 OA
ATOM     82  O   UNL A   1      39.652  20.627  26.014  1.00  0.00    -0.237 OA
ATOM     83  O   UNL A   1      42.032  20.115  25.641  1.00  0.00    -0.744 OA
ENDBRANCH  79  80
ENDBRANCH  51  74
BRANCH  63  84
ATOM     84  C   UNL A   1      48.154  28.279  27.878  1.00  0.00    -0.014 A 
ATOM     85  C   UNL A   1      49.000  27.821  28.903  1.00  0.00     0.010 A 
ATOM     86  C   UNL A   1      48.634  28.301  26.554  1.00  0.00     0.010 A 
ATOM     87  C   UNL A   1      50.314  27.438  28.615  1.00  0.00     0.020 A 
ATOM     88  C   UNL A   1      49.935  27.890  26.259  1.00  0.00     0.020 A 
ATOM     89  C   UNL A   1      50.775  27.479  27.294  1.00  0.00     0.054 A 
BRANCH  89  90
ATOM     90  S   UNL A   1      52.477  26.958  26.942  1.00  0.00     0.124 S 
ATOM     91  O   UNL A   1      52.341  25.505  26.878  1.00  0.00    -0.237 OA
ATOM     92  O   UNL A   1      52.759  27.620  25.672  1.00  0.00    -0.237 OA
ATOM     93  O   UNL A   1      53.237  27.463  28.083  1.00  0.00    -0.744 OA
ENDBRANCH  89  90
ENDBRANCH  63  84
ENDBRANCH  37  38
ENDBRANCH  30  32
ENDBRANCH  29  30
ENDBRANCH  28  29
ENDBRANCH  27  28
ENDBRANCH  26  27
ENDBRANCH  25  26
ENDBRANCH   1  25
TORSDOF 24
ENDMDL
MODEL 3
REMARK VINA RESULT:      -9.0      6.580     11.745
REMARK SMILES [NH3+][C@H](CCC(=O)OCCOCCOCCOC(=O)c1ccc(-c2c3nc(c(-c4ccc(S(=O)(=O)[O-])cc4)c4ccc([nH]4)c(-c4ccc(S(=O)(=O)[O-])cc4)c4nc(c(-c5ccc(S(=O)(=O)[O-])cc5)c5ccc2[nH]5)C=C4)C=C3)cc1)c1nccc2[nH]ccc12
REMARK SMILES IDX 11 1 10 2 9 3 8 4 7 5 5 6 6 7 4 8 3 9 2 10 1 11 79 15 80 16
REMARK SMILES IDX 87 17 81 18 83 19 86 20 82 21 84 22 85 23 12 25 13 26 14 27
REMARK SMILES IDX 15 28 16 29 17 30 18 31 19 32 20 33 78 34 21 35 77 36 22 37
REMARK SMILES IDX 23 38 24 39 71 40 25 41 76 42 70 43 72 44 26 45 75 46 69 47
REMARK SMILES IDX 68 48 27 50 57 51 38 52 56 53 39 54 42 55 55 56 73 57 40 58
REMARK SMILES IDX 41 59 54 61 74 62 43 63 28 64 29 65 37 66 30 67 36 68 31 69
REMARK SMILES IDX 32 70 33 71 34 72 35 73 58 74 59 75 67 76 60 77 66 78 61 79
REMARK SMILES IDX 62 80 63 81 64 82 65 83 44 84 45 85 53 86 46 87 52 88 47 89
REMARK SMILES IDX 48 90 49 91 50 92 51 93
REMARK H PARENT 1 12 1 13 1 14 84 24 72 49 42 60
REMARK Flexibility Score: inf
ROOT
ATOM      1  C   UNL A   1      35.197  22.558  25.477  1.00  0.00     0.188 C 
ENDROOT
BRANCH   1   2
ATOM      2  O   UNL A   1      34.712  23.157  24.282  1.00  0.00    -0.376 OA
BRANCH   2   3
ATOM      3  C   UNL A   1      33.767  22.459  23.480  1.00  0.00     0.202 C 
BRANCH   3   4
ATOM      4  C   UNL A   1      32.978  23.159  22.360  1.00  0.00     0.261 C 
BRANCH   4   5
ATOM      5  O   UNL A   1      33.657  24.229  21.688  1.00  0.00    -0.463 OA
BRANCH   5   6
ATOM      6  C   UNL A   1      32.869  25.220  21.207  1.00  0.00     0.306 C 
ATOM      7  O   UNL A   1      32.979  25.727  20.096  1.00  0.00    -0.252 OA
BRANCH   6   8
ATOM      8  C   UNL A   1      31.708  25.562  22.113  1.00  0.00     0.129 C 
BRANCH   8   9
ATOM      9  C   UNL A   1      31.030  26.924  22.061  1.00  0.00     0.083 C 
BRANCH   9  10
ATOM     10  C   UNL A   1      30.845  27.759  23.336  1.00  0.00     0.232 C 
BRANCH  10  11
ATOM     11  N   UNL A   1      30.768  26.844  24.512  1.00  0.00    -0.350 N 
ATOM     12  H   UNL A   1      31.328  26.012  24.332  1.00  0.00     0.345 HD
ATOM     13  H   UNL A   1      29.797  26.574  24.669  1.00  0.00     0.345 HD
ATOM     14  H   UNL A   1      31.126  27.322  25.339  1.00  0.00     0.345 HD
ENDBRANCH  10  11
BRANCH  10  15
ATOM     15  C   UNL A   1      31.843  28.903  23.620  1.00  0.00     0.107 A 
ATOM     16  N   UNL A   1      33.006  28.767  22.896  1.00  0.00    -0.254 NA
ATOM     17  C   UNL A   1      32.021  29.434  24.921  1.00  0.00     0.027 A 
ATOM     18  C   UNL A   1      34.136  28.472  23.565  1.00  0.00     0.114 A 
ATOM     19  C   UNL A   1      33.195  29.081  25.590  1.00  0.00     0.049 A 
ATOM     20  C   UNL A   1      31.392  30.420  25.736  1.00  0.00     0.030 A 
ATOM     21  C   UNL A   1      34.248  28.444  24.944  1.00  0.00     0.047 A 
ATOM     22  N   UNL A   1      33.059  29.514  26.886  1.00  0.00    -0.361 N 
ATOM     23  C   UNL A   1      32.095  30.489  26.921  1.00  0.00     0.083 A 
ATOM     24  H   UNL A   1      33.568  29.179  27.660  1.00  0.00     0.166 HD
ENDBRANCH  10  15
ENDBRANCH   9  10
ENDBRANCH   8   9
ENDBRANCH   6   8
ENDBRANCH   5   6
ENDBRANCH   4   5
ENDBRANCH   3   4
ENDBRANCH   2   3
ENDBRANCH   1   2
BRANCH   1  25
ATOM     25  C   UNL A   1      36.636  22.006  25.496  1.00  0.00     0.188 C 
BRANCH  25  26
ATOM     26  O   UNL A   1      37.550  22.819  26.200  1.00  0.00    -0.376 OA
BRANCH  26  27
ATOM     27  C   UNL A   1      38.904  22.409  26.278  1.00  0.00     0.202 C 
BRANCH  27  28
ATOM     28  C   UNL A   1      40.081  23.400  26.376  1.00  0.00     0.261 C 
BRANCH  28  29
ATOM     29  O   UNL A   1      39.815  24.791  26.160  1.00  0.00    -0.460 OA
BRANCH  29  30
ATOM     30  C   UNL A   1      40.877  25.629  26.115  1.00  0.00     0.338 C 
ATOM     31  O   UNL A   1      41.561  25.888  25.145  1.00  0.00    -0.246 OA
BRANCH  30  32
ATOM     32  C   UNL A   1      40.912  26.363  27.403  1.00  0.00     0.060 A 
ATOM     33  C   UNL A   1      39.904  26.117  28.345  1.00  0.00     0.016 A 
ATOM     34  C   UNL A   1      41.939  27.267  27.689  1.00  0.00     0.016 A 
ATOM     35  C   UNL A   1      39.892  26.813  29.554  1.00  0.00     0.010 A 
ATOM     36  C   UNL A   1      41.916  27.979  28.891  1.00  0.00     0.010 A 
ATOM     37  C   UNL A   1      40.865  27.788  29.808  1.00  0.00    -0.014 A 
BRANCH  37  38
ATOM     38  C   UNL A   1      40.627  28.783  30.882  1.00  0.00     0.031 A 
ATOM     39  C   UNL A   1      41.508  28.716  32.103  1.00  0.00     0.074 A 
ATOM     40  C   UNL A   1      39.693  29.746  30.774  1.00  0.00     0.049 A 
ATOM     41  N   UNL A   1      41.517  29.475  33.167  1.00  0.00    -0.248 NA
ATOM     42  C   UNL A   1      42.519  27.644  32.121  1.00  0.00     0.031 C 
ATOM     43  C   UNL A   1      38.812  29.951  29.626  1.00  0.00     0.029 A 
ATOM     44  N   UNL A   1      39.341  30.741  31.652  1.00  0.00    -0.354 N 
ATOM     45  C   UNL A   1      42.518  28.963  33.985  1.00  0.00     0.074 A 
ATOM     46  C   UNL A   1      43.075  27.814  33.309  1.00  0.00     0.031 C 
ATOM     47  C   UNL A   1      38.021  31.012  29.869  1.00  0.00     0.029 A 
ATOM     48  C   UNL A   1      38.320  31.543  31.199  1.00  0.00     0.049 A 
ATOM     49  H   UNL A   1      39.778  30.868  32.525  1.00  0.00     0.167 HD
ATOM     50  C   UNL A   1      42.943  29.411  35.189  1.00  0.00     0.031 A 
ATOM     51  C   UNL A   1      37.698  32.580  31.794  1.00  0.00     0.031 A 
ATOM     52  C   UNL A   1      42.379  30.544  35.870  1.00  0.00     0.049 A 
ATOM     53  C   UNL A   1      38.143  33.021  33.167  1.00  0.00     0.074 A 
ATOM     54  C   UNL A   1      42.748  31.088  37.087  1.00  0.00     0.029 A 
ATOM     55  N   UNL A   1      41.319  31.301  35.396  1.00  0.00    -0.354 N 
ATOM     56  N   UNL A   1      39.110  32.545  33.918  1.00  0.00    -0.248 NA
ATOM     57  C   UNL A   1      37.420  34.152  33.767  1.00  0.00     0.031 C 
ATOM     58  C   UNL A   1      41.871  32.138  37.378  1.00  0.00     0.029 A 
ATOM     59  C   UNL A   1      41.003  32.294  36.308  1.00  0.00     0.049 A 
ATOM     60  H   UNL A   1      40.859  31.155  34.538  1.00  0.00     0.167 HD
ATOM     61  C   UNL A   1      39.140  33.347  35.055  1.00  0.00     0.074 A 
ATOM     62  C   UNL A   1      38.096  34.339  34.892  1.00  0.00     0.031 C 
ATOM     63  C   UNL A   1      39.964  33.278  36.130  1.00  0.00     0.031 A 
BRANCH  50  64
ATOM     64  C   UNL A   1      44.040  28.630  35.866  1.00  0.00    -0.014 A 
ATOM     65  C   UNL A   1      43.760  27.491  36.644  1.00  0.00     0.010 A 
ATOM     66  C   UNL A   1      45.374  29.047  35.719  1.00  0.00     0.010 A 
ATOM     67  C   UNL A   1      44.789  26.817  37.306  1.00  0.00     0.020 A 
ATOM     68  C   UNL A   1      46.411  28.356  36.354  1.00  0.00     0.020 A 
ATOM     69  C   UNL A   1      46.109  27.258  37.160  1.00  0.00     0.054 A 
BRANCH  69  70
ATOM     70  S   UNL A   1      47.427  26.367  38.030  1.00  0.00     0.124 S 
ATOM     71  O   UNL A   1      48.562  27.271  37.863  1.00  0.00    -0.237 OA
ATOM     72  O   UNL A   1      46.901  26.265  39.390  1.00  0.00    -0.237 OA
ATOM     73  O   UNL A   1      47.526  25.102  37.307  1.00  0.00    -0.744 OA
ENDBRANCH  69  70
ENDBRANCH  50  64
BRANCH  51  74
ATOM     74  C   UNL A   1      36.592  33.291  31.094  1.00  0.00    -0.014 A 
ATOM     75  C   UNL A   1      35.316  33.381  31.679  1.00  0.00     0.010 A 
ATOM     76  C   UNL A   1      36.806  33.878  29.834  1.00  0.00     0.010 A 
ATOM     77  C   UNL A   1      34.272  34.031  31.012  1.00  0.00     0.020 A 
ATOM     78  C   UNL A   1      35.772  34.552  29.175  1.00  0.00     0.020 A 
ATOM     79  C   UNL A   1      34.509  34.615  29.764  1.00  0.00     0.054 A 
BRANCH  79  80
ATOM     80  S   UNL A   1      33.153  35.498  28.943  1.00  0.00     0.124 S 
ATOM     81  O   UNL A   1      33.874  36.475  28.132  1.00  0.00    -0.237 OA
ATOM     82  O   UNL A   1      32.486  34.431  28.202  1.00  0.00    -0.237 OA
ATOM     83  O   UNL A   1      32.382  36.052  30.053  1.00  0.00    -0.744 OA
ENDBRANCH  79  80
ENDBRANCH  51  74
BRANCH  63  84
ATOM     84  C   UNL A   1      39.821  34.341  37.190  1.00  0.00    -0.014 A 
ATOM     85  C   UNL A   1      40.354  35.631  37.024  1.00  0.00     0.010 A 
ATOM     86  C   UNL A   1      39.093  34.048  38.360  1.00  0.00     0.010 A 
ATOM     87  C   UNL A   1      40.202  36.592  38.028  1.00  0.00     0.020 A 
ATOM     88  C   UNL A   1      38.913  35.015  39.350  1.00  0.00     0.020 A 
ATOM     89  C   UNL A   1      39.485  36.277  39.187  1.00  0.00     0.054 A 
BRANCH  89  90
ATOM     90  S   UNL A   1      39.282  37.547  40.466  1.00  0.00     0.124 S 
ATOM     91  O   UNL A   1      38.320  38.453  39.844  1.00  0.00    -0.237 OA
ATOM     92  O   UNL A   1      38.780  36.780  41.604  1.00  0.00    -0.237 OA
ATOM     93  O   UNL A   1      40.629  38.088  40.633  1.00  0.00    -0.744 OA
ENDBRANCH  89  90
ENDBRANCH  63  84
ENDBRANCH  37  38
ENDBRANCH  30  32
ENDBRANCH  29  30
ENDBRANCH  28  29
ENDBRANCH  27  28
ENDBRANCH  26  27
ENDBRANCH  25  26
ENDBRANCH   1  25
TORSDOF 24
ENDMDL
