MODEL 1
REMARK VINA RESULT:      -9.7      0.000      0.000
REMARK SMILES CC[C@@H](C(=O)Nc1ccc(OC(C)=O)cc1C(=O)OCCOCCOCCOC(=O)c1ccc(-c2c3nc(c(-c4ccc(S(=O)(=O)[O-])cc4)c4ccc([nH]4)c(-c4ccc(S(=O)(=O)[O-])cc4)c4nc(c(-c5ccc(S(=O)(=O)[O-])cc5)c5ccc2[nH]5)C=C4)C=C3)cc1)c1ccccc1
REMARK SMILES IDX 23 1 22 2 21 3 20 4 19 5 17 6 18 7 16 8 7 9 8 10 9 11 15 12
REMARK SMILES IDX 10 13 6 14 4 15 5 16 3 18 2 19 1 20 91 21 92 22 96 23 93 24
REMARK SMILES IDX 95 25 94 26 11 27 12 28 13 29 14 30 24 31 25 32 26 33 27 34
REMARK SMILES IDX 28 35 29 36 30 37 31 38 32 39 90 40 33 41 89 42 34 43 35 44
REMARK SMILES IDX 36 45 83 46 37 47 88 48 82 49 84 50 38 51 87 52 81 53 80 54
REMARK SMILES IDX 39 56 69 57 50 58 68 59 51 60 54 61 67 62 85 63 52 64 53 65
REMARK SMILES IDX 66 67 86 68 55 69 40 70 41 71 49 72 42 73 48 74 43 75 44 76
REMARK SMILES IDX 45 77 46 78 47 79 70 80 71 81 79 82 72 83 78 84 73 85 74 86
REMARK SMILES IDX 75 87 76 88 77 89 56 90 57 91 65 92 58 93 64 94 59 95 60 96
REMARK SMILES IDX 61 97 62 98 63 99
REMARK H PARENT 6 17 84 55 54 66
REMARK Flexibility Score: inf
ROOT
ATOM      1  C   UNL A   1      35.805  21.892  25.883  1.00  0.00     0.188 C 
ENDROOT
BRANCH   1   2
ATOM      2  O   UNL A   1      34.554  21.417  26.355  1.00  0.00    -0.376 OA
BRANCH   2   3
ATOM      3  C   UNL A   1      34.212  21.811  27.672  1.00  0.00     0.202 C 
BRANCH   3   4
ATOM      4  C   UNL A   1      32.887  22.564  27.778  1.00  0.00     0.261 C 
BRANCH   4   5
ATOM      5  O   UNL A   1      32.173  22.825  26.556  1.00  0.00    -0.460 OA
BRANCH   5   6
ATOM      6  C   UNL A   1      32.663  23.739  25.700  1.00  0.00     0.340 C 
ATOM      7  O   UNL A   1      33.211  24.790  25.984  1.00  0.00    -0.246 OA
BRANCH   6   8
ATOM      8  C   UNL A   1      32.544  23.283  24.301  1.00  0.00     0.087 A 
ATOM      9  C   UNL A   1      33.042  23.985  23.193  1.00  0.00     0.056 A 
ATOM     10  C   UNL A   1      32.930  23.411  21.916  1.00  0.00     0.031 A 
ATOM     11  C   UNL A   1      32.519  22.085  21.775  1.00  0.00     0.049 A 
ATOM     12  C   UNL A   1      32.027  21.988  24.137  1.00  0.00     0.065 A 
ATOM     13  C   UNL A   1      32.128  21.366  22.902  1.00  0.00     0.131 A 
BRANCH   9  14
ATOM     14  N   UNL A   1      33.671  25.238  23.231  1.00  0.00    -0.325 N 
ATOM     15  C   UNL A   1      33.237  26.439  22.749  1.00  0.00     0.231 C 
ATOM     16  O   UNL A   1      34.042  27.012  22.003  1.00  0.00    -0.274 OA
ATOM     17  H   UNL A   1      34.553  25.253  23.667  1.00  0.00     0.169 HD
BRANCH  15  18
ATOM     18  C   UNL A   1      31.999  27.180  23.399  1.00  0.00     0.108 C 
BRANCH  18  19
ATOM     19  C   UNL A   1      31.136  28.247  22.673  1.00  0.00     0.015 C 
ATOM     20  C   UNL A   1      29.619  28.258  22.719  1.00  0.00     0.005 C 
ENDBRANCH  18  19
BRANCH  18  21
ATOM     21  C   UNL A   1      32.400  27.740  24.803  1.00  0.00    -0.036 A 
ATOM     22  C   UNL A   1      31.435  27.835  25.821  1.00  0.00     0.004 A 
ATOM     23  C   UNL A   1      33.705  28.177  25.118  1.00  0.00     0.004 A 
ATOM     24  C   UNL A   1      31.761  28.313  27.093  1.00  0.00     0.000 A 
ATOM     25  C   UNL A   1      34.021  28.696  26.375  1.00  0.00     0.000 A 
ATOM     26  C   UNL A   1      33.051  28.758  27.365  1.00  0.00     0.000 A 
ENDBRANCH  18  21
ENDBRANCH  15  18
ENDBRANCH   9  14
BRANCH  13  27
ATOM     27  O   UNL A   1      31.836  19.999  22.731  1.00  0.00    -0.427 OA
BRANCH  27  28
ATOM     28  C   UNL A   1      32.615  18.965  23.267  1.00  0.00     0.308 C 
ATOM     29  C   UNL A   1      32.862  18.994  24.750  1.00  0.00     0.139 C 
ATOM     30  O   UNL A   1      32.970  18.022  22.565  1.00  0.00    -0.252 OA
ENDBRANCH  27  28
ENDBRANCH  13  27
ENDBRANCH   6   8
ENDBRANCH   5   6
ENDBRANCH   4   5
ENDBRANCH   3   4
ENDBRANCH   2   3
ENDBRANCH   1   2
BRANCH   1  31
ATOM     31  C   UNL A   1      36.328  21.152  24.630  1.00  0.00     0.188 C 
BRANCH  31  32
ATOM     32  O   UNL A   1      37.650  20.645  24.592  1.00  0.00    -0.376 OA
BRANCH  32  33
ATOM     33  C   UNL A   1      38.391  20.653  25.797  1.00  0.00     0.202 C 
BRANCH  33  34
ATOM     34  C   UNL A   1      39.931  20.738  25.727  1.00  0.00     0.261 C 
BRANCH  34  35
ATOM     35  O   UNL A   1      40.679  19.550  26.076  1.00  0.00    -0.460 OA
BRANCH  35  36
ATOM     36  C   UNL A   1      42.039  19.660  26.136  1.00  0.00     0.338 C 
ATOM     37  O   UNL A   1      42.842  18.826  25.782  1.00  0.00    -0.246 OA
BRANCH  36  38
ATOM     38  C   UNL A   1      42.423  21.066  26.483  1.00  0.00     0.060 A 
ATOM     39  C   UNL A   1      42.684  21.983  25.448  1.00  0.00     0.016 A 
ATOM     40  C   UNL A   1      42.550  21.482  27.807  1.00  0.00     0.016 A 
ATOM     41  C   UNL A   1      43.062  23.304  25.727  1.00  0.00     0.010 A 
ATOM     42  C   UNL A   1      42.980  22.792  28.087  1.00  0.00     0.010 A 
ATOM     43  C   UNL A   1      43.254  23.708  27.051  1.00  0.00    -0.014 A 
BRANCH  43  44
ATOM     44  C   UNL A   1      43.928  25.000  27.367  1.00  0.00     0.031 A 
ATOM     45  C   UNL A   1      43.068  26.166  27.789  1.00  0.00     0.074 A 
ATOM     46  C   UNL A   1      45.262  25.164  27.269  1.00  0.00     0.049 A 
ATOM     47  N   UNL A   1      43.390  27.425  27.933  1.00  0.00    -0.248 NA
ATOM     48  C   UNL A   1      41.657  25.867  28.083  1.00  0.00     0.031 C 
ATOM     49  C   UNL A   1      46.227  24.113  26.952  1.00  0.00     0.029 A 
ATOM     50  N   UNL A   1      46.035  26.294  27.411  1.00  0.00    -0.354 N 
ATOM     51  C   UNL A   1      42.219  28.073  28.317  1.00  0.00     0.074 A 
ATOM     52  C   UNL A   1      41.179  27.069  28.372  1.00  0.00     0.031 C 
ATOM     53  C   UNL A   1      47.460  24.651  26.906  1.00  0.00     0.029 A 
ATOM     54  C   UNL A   1      47.369  26.095  27.128  1.00  0.00     0.049 A 
ATOM     55  H   UNL A   1      45.669  27.163  27.691  1.00  0.00     0.167 HD
ATOM     56  C   UNL A   1      42.024  29.384  28.593  1.00  0.00     0.031 A 
ATOM     57  C   UNL A   1      48.384  26.978  27.011  1.00  0.00     0.031 A 
ATOM     58  C   UNL A   1      43.052  30.389  28.522  1.00  0.00     0.049 A 
ATOM     59  C   UNL A   1      48.113  28.456  27.194  1.00  0.00     0.074 A 
ATOM     60  C   UNL A   1      42.940  31.748  28.764  1.00  0.00     0.029 A 
ATOM     61  N   UNL A   1      44.373  30.150  28.184  1.00  0.00    -0.354 N 
ATOM     62  N   UNL A   1      46.999  29.055  27.544  1.00  0.00    -0.248 NA
ATOM     63  C   UNL A   1      49.235  29.378  26.950  1.00  0.00     0.031 C 
ATOM     64  C   UNL A   1      44.182  32.339  28.513  1.00  0.00     0.029 A 
ATOM     65  C   UNL A   1      45.081  31.340  28.180  1.00  0.00     0.049 A 
ATOM     66  H   UNL A   1      44.753  29.265  27.978  1.00  0.00     0.167 HD
ATOM     67  C   UNL A   1      47.297  30.416  27.583  1.00  0.00     0.074 A 
ATOM     68  C   UNL A   1      48.697  30.552  27.248  1.00  0.00     0.031 C 
ATOM     69  C   UNL A   1      46.480  31.463  27.861  1.00  0.00     0.031 A 
BRANCH  56  70
ATOM     70  C   UNL A   1      40.636  29.825  28.973  1.00  0.00    -0.014 A 
ATOM     71  C   UNL A   1      39.584  29.783  28.042  1.00  0.00     0.010 A 
ATOM     72  C   UNL A   1      40.363  30.205  30.301  1.00  0.00     0.010 A 
ATOM     73  C   UNL A   1      38.285  30.127  28.430  1.00  0.00     0.020 A 
ATOM     74  C   UNL A   1      39.062  30.523  30.698  1.00  0.00     0.020 A 
ATOM     75  C   UNL A   1      38.032  30.488  29.757  1.00  0.00     0.054 A 
BRANCH  75  76
ATOM     76  S   UNL A   1      36.325  30.867  30.240  1.00  0.00     0.124 S 
ATOM     77  O   UNL A   1      35.679  31.053  28.943  1.00  0.00    -0.237 OA
ATOM     78  O   UNL A   1      35.928  29.668  30.973  1.00  0.00    -0.237 OA
ATOM     79  O   UNL A   1      36.453  32.076  31.049  1.00  0.00    -0.744 OA
ENDBRANCH  75  76
ENDBRANCH  56  70
BRANCH  57  80
ATOM     80  C   UNL A   1      49.754  26.524  26.618  1.00  0.00    -0.014 A 
ATOM     81  C   UNL A   1      50.152  26.518  25.268  1.00  0.00     0.010 A 
ATOM     82  C   UNL A   1      50.641  26.018  27.587  1.00  0.00     0.010 A 
ATOM     83  C   UNL A   1      51.390  25.981  24.893  1.00  0.00     0.020 A 
ATOM     84  C   UNL A   1      51.894  25.515  27.220  1.00  0.00     0.020 A 
ATOM     85  C   UNL A   1      52.251  25.481  25.872  1.00  0.00     0.054 A 
BRANCH  85  86
ATOM     86  S   UNL A   1      53.853  24.796  25.367  1.00  0.00     0.124 S 
ATOM     87  O   UNL A   1      54.233  25.685  24.273  1.00  0.00    -0.237 OA
ATOM     88  O   UNL A   1      54.647  24.917  26.587  1.00  0.00    -0.237 OA
ATOM     89  O   UNL A   1      53.532  23.425  24.976  1.00  0.00    -0.744 OA
ENDBRANCH  85  86
ENDBRANCH  57  80
BRANCH  69  90
ATOM     90  C   UNL A   1      47.073  32.849  27.847  1.00  0.00    -0.014 A 
ATOM     91  C   UNL A   1      47.064  33.632  26.678  1.00  0.00     0.010 A 
ATOM     92  C   UNL A   1      47.565  33.410  29.040  1.00  0.00     0.010 A 
ATOM     93  C   UNL A   1      47.550  34.942  26.700  1.00  0.00     0.020 A 
ATOM     94  C   UNL A   1      48.025  34.730  29.073  1.00  0.00     0.020 A 
ATOM     95  C   UNL A   1      48.020  35.487  27.899  1.00  0.00     0.054 A 
BRANCH  95  96
ATOM     96  S   UNL A   1      48.575  37.214  27.912  1.00  0.00     0.124 S 
ATOM     97  O   UNL A   1      49.769  37.146  28.750  1.00  0.00    -0.237 OA
ATOM     98  O   UNL A   1      48.815  37.482  26.496  1.00  0.00    -0.237 OA
ATOM     99  O   UNL A   1      47.446  37.938  28.494  1.00  0.00    -0.744 OA
ENDBRANCH  95  96
ENDBRANCH  69  90
ENDBRANCH  43  44
ENDBRANCH  36  38
ENDBRANCH  35  36
ENDBRANCH  34  35
ENDBRANCH  33  34
ENDBRANCH  32  33
ENDBRANCH  31  32
ENDBRANCH   1  31
TORSDOF 26
ENDMDL
MODEL 2
REMARK VINA RESULT:      -9.6      2.318      9.031
REMARK SMILES CC[C@@H](C(=O)Nc1ccc(OC(C)=O)cc1C(=O)OCCOCCOCCOC(=O)c1ccc(-c2c3nc(c(-c4ccc(S(=O)(=O)[O-])cc4)c4ccc([nH]4)c(-c4ccc(S(=O)(=O)[O-])cc4)c4nc(c(-c5ccc(S(=O)(=O)[O-])cc5)c5ccc2[nH]5)C=C4)C=C3)cc1)c1ccccc1
REMARK SMILES IDX 23 1 22 2 21 3 20 4 19 5 17 6 18 7 16 8 7 9 8 10 9 11 15 12
REMARK SMILES IDX 10 13 6 14 4 15 5 16 3 18 2 19 1 20 91 21 92 22 96 23 93 24
REMARK SMILES IDX 95 25 94 26 11 27 12 28 13 29 14 30 24 31 25 32 26 33 27 34
REMARK SMILES IDX 28 35 29 36 30 37 31 38 32 39 90 40 33 41 89 42 34 43 35 44
REMARK SMILES IDX 36 45 83 46 37 47 88 48 82 49 84 50 38 51 87 52 81 53 80 54
REMARK SMILES IDX 39 56 69 57 50 58 68 59 51 60 54 61 67 62 85 63 52 64 53 65
REMARK SMILES IDX 66 67 86 68 55 69 40 70 41 71 49 72 42 73 48 74 43 75 44 76
REMARK SMILES IDX 45 77 46 78 47 79 70 80 71 81 79 82 72 83 78 84 73 85 74 86
REMARK SMILES IDX 75 87 76 88 77 89 56 90 57 91 65 92 58 93 64 94 59 95 60 96
REMARK SMILES IDX 61 97 62 98 63 99
REMARK H PARENT 6 17 84 55 54 66
REMARK Flexibility Score: inf
ROOT
ATOM      1  C   UNL A   1      35.883  31.883  27.760  1.00  0.00     0.188 C 
ENDROOT
BRANCH   1   2
ATOM      2  O   UNL A   1      35.559  30.610  27.224  1.00  0.00    -0.376 OA
BRANCH   2   3
ATOM      3  C   UNL A   1      34.366  30.027  27.718  1.00  0.00     0.202 C 
BRANCH   3   4
ATOM      4  C   UNL A   1      33.090  30.558  27.067  1.00  0.00     0.261 C 
BRANCH   4   5
ATOM      5  O   UNL A   1      32.618  29.882  25.886  1.00  0.00    -0.460 OA
BRANCH   5   6
ATOM      6  C   UNL A   1      31.928  28.737  26.027  1.00  0.00     0.340 C 
ATOM      7  O   UNL A   1      31.969  27.967  26.971  1.00  0.00    -0.246 OA
BRANCH   6   8
ATOM      8  C   UNL A   1      30.997  28.528  24.900  1.00  0.00     0.087 A 
ATOM      9  C   UNL A   1      30.459  27.285  24.535  1.00  0.00     0.056 A 
ATOM     10  C   UNL A   1      29.526  27.228  23.487  1.00  0.00     0.031 A 
ATOM     11  C   UNL A   1      28.990  28.403  22.958  1.00  0.00     0.049 A 
ATOM     12  C   UNL A   1      30.533  29.702  24.284  1.00  0.00     0.065 A 
ATOM     13  C   UNL A   1      29.460  29.634  23.410  1.00  0.00     0.131 A 
BRANCH   9  14
ATOM     14  N   UNL A   1      30.760  26.053  25.134  1.00  0.00    -0.325 N 
ATOM     15  C   UNL A   1      31.475  25.002  24.639  1.00  0.00     0.231 C 
ATOM     16  O   UNL A   1      30.888  23.913  24.692  1.00  0.00    -0.274 OA
ATOM     17  H   UNL A   1      30.404  25.929  26.043  1.00  0.00     0.169 HD
BRANCH  15  18
ATOM     18  C   UNL A   1      33.034  25.120  24.390  1.00  0.00     0.108 C 
BRANCH  18  19
ATOM     19  C   UNL A   1      33.676  25.551  23.043  1.00  0.00     0.015 C 
ATOM     20  C   UNL A   1      33.272  26.809  22.298  1.00  0.00     0.005 C 
ENDBRANCH  18  19
BRANCH  18  21
ATOM     21  C   UNL A   1      33.744  23.817  24.883  1.00  0.00    -0.036 A 
ATOM     22  C   UNL A   1      34.278  23.759  26.183  1.00  0.00     0.004 A 
ATOM     23  C   UNL A   1      33.897  22.668  24.079  1.00  0.00     0.004 A 
ATOM     24  C   UNL A   1      34.903  22.606  26.663  1.00  0.00     0.000 A 
ATOM     25  C   UNL A   1      34.560  21.530  24.544  1.00  0.00     0.000 A 
ATOM     26  C   UNL A   1      35.057  21.496  25.838  1.00  0.00     0.000 A 
ENDBRANCH  18  21
ENDBRANCH  15  18
ENDBRANCH   9  14
BRANCH  13  27
ATOM     27  O   UNL A   1      28.809  30.790  22.937  1.00  0.00    -0.427 OA
BRANCH  27  28
ATOM     28  C   UNL A   1      28.671  31.103  21.579  1.00  0.00     0.308 C 
ATOM     29  C   UNL A   1      28.012  32.413  21.243  1.00  0.00     0.139 C 
ATOM     30  O   UNL A   1      29.178  30.388  20.719  1.00  0.00    -0.252 OA
ENDBRANCH  27  28
ENDBRANCH  13  27
ENDBRANCH   6   8
ENDBRANCH   5   6
ENDBRANCH   4   5
ENDBRANCH   3   4
ENDBRANCH   2   3
ENDBRANCH   1   2
BRANCH   1  31
ATOM     31  C   UNL A   1      35.087  32.249  29.034  1.00  0.00     0.188 C 
BRANCH  31  32
ATOM     32  O   UNL A   1      35.752  32.447  30.268  1.00  0.00    -0.376 OA
BRANCH  32  33
ATOM     33  C   UNL A   1      35.119  31.968  31.439  1.00  0.00     0.202 C 
BRANCH  33  34
ATOM     34  C   UNL A   1      35.896  31.994  32.774  1.00  0.00     0.261 C 
BRANCH  34  35
ATOM     35  O   UNL A   1      37.045  31.124  32.891  1.00  0.00    -0.460 OA
BRANCH  35  36
ATOM     36  C   UNL A   1      38.253  31.712  33.136  1.00  0.00     0.338 C 
ATOM     37  O   UNL A   1      38.523  32.432  34.071  1.00  0.00    -0.246 OA
BRANCH  36  38
ATOM     38  C   UNL A   1      39.291  31.151  32.212  1.00  0.00     0.060 A 
ATOM     39  C   UNL A   1      40.354  30.399  32.746  1.00  0.00     0.016 A 
ATOM     40  C   UNL A   1      39.242  31.376  30.837  1.00  0.00     0.016 A 
ATOM     41  C   UNL A   1      41.355  29.870  31.921  1.00  0.00     0.010 A 
ATOM     42  C   UNL A   1      40.275  30.890  30.015  1.00  0.00     0.010 A 
ATOM     43  C   UNL A   1      41.347  30.147  30.550  1.00  0.00    -0.014 A 
BRANCH  43  44
ATOM     44  C   UNL A   1      42.536  29.850  29.702  1.00  0.00     0.031 A 
ATOM     45  C   UNL A   1      42.654  28.471  29.100  1.00  0.00     0.074 A 
ATOM     46  C   UNL A   1      43.508  30.756  29.474  1.00  0.00     0.049 A 
ATOM     47  N   UNL A   1      43.669  27.915  28.490  1.00  0.00    -0.248 NA
ATOM     48  C   UNL A   1      41.467  27.606  29.207  1.00  0.00     0.031 C 
ATOM     49  C   UNL A   1      43.495  32.148  29.920  1.00  0.00     0.029 A 
ATOM     50  N   UNL A   1      44.712  30.627  28.819  1.00  0.00    -0.354 N 
ATOM     51  C   UNL A   1      43.251  26.631  28.156  1.00  0.00     0.074 A 
ATOM     52  C   UNL A   1      41.895  26.487  28.640  1.00  0.00     0.031 C 
ATOM     53  C   UNL A   1      44.643  32.739  29.541  1.00  0.00     0.029 A 
ATOM     54  C   UNL A   1      45.501  31.754  28.881  1.00  0.00     0.049 A 
ATOM     55  H   UNL A   1      44.982  29.807  28.348  1.00  0.00     0.167 HD
ATOM     56  C   UNL A   1      43.934  25.656  27.510  1.00  0.00     0.031 A 
ATOM     57  C   UNL A   1      46.782  31.953  28.499  1.00  0.00     0.031 A 
ATOM     58  C   UNL A   1      45.289  25.788  27.043  1.00  0.00     0.049 A 
ATOM     59  C   UNL A   1      47.568  30.807  27.899  1.00  0.00     0.074 A 
ATOM     60  C   UNL A   1      46.068  24.844  26.397  1.00  0.00     0.029 A 
ATOM     61  N   UNL A   1      46.064  26.928  27.171  1.00  0.00    -0.354 N 
ATOM     62  N   UNL A   1      47.164  29.594  27.600  1.00  0.00    -0.248 NA
ATOM     63  C   UNL A   1      48.989  31.053  27.600  1.00  0.00     0.031 C 
ATOM     64  C   UNL A   1      47.336  25.395  26.188  1.00  0.00     0.029 A 
ATOM     65  C   UNL A   1      47.325  26.702  26.644  1.00  0.00     0.049 A 
ATOM     66  H   UNL A   1      45.764  27.774  27.576  1.00  0.00     0.167 HD
ATOM     67  C   UNL A   1      48.275  28.948  27.059  1.00  0.00     0.074 A 
ATOM     68  C   UNL A   1      49.357  29.907  27.047  1.00  0.00     0.031 C 
ATOM     69  C   UNL A   1      48.391  27.669  26.622  1.00  0.00     0.031 A 
BRANCH  56  70
ATOM     70  C   UNL A   1      43.241  24.338  27.290  1.00  0.00    -0.014 A 
ATOM     71  C   UNL A   1      42.634  24.036  26.059  1.00  0.00     0.010 A 
ATOM     72  C   UNL A   1      43.271  23.357  28.300  1.00  0.00     0.010 A 
ATOM     73  C   UNL A   1      42.057  22.780  25.846  1.00  0.00     0.020 A 
ATOM     74  C   UNL A   1      42.720  22.092  28.081  1.00  0.00     0.020 A 
ATOM     75  C   UNL A   1      42.109  21.814  26.856  1.00  0.00     0.054 A 
BRANCH  75  76
ATOM     76  S   UNL A   1      41.407  20.175  26.524  1.00  0.00     0.124 S 
ATOM     77  O   UNL A   1      42.210  19.728  25.389  1.00  0.00    -0.237 OA
ATOM     78  O   UNL A   1      41.645  19.467  27.778  1.00  0.00    -0.237 OA
ATOM     79  O   UNL A   1      40.005  20.452  26.223  1.00  0.00    -0.744 OA
ENDBRANCH  75  76
ENDBRANCH  56  70
BRANCH  57  80
ATOM     80  C   UNL A   1      47.459  33.265  28.738  1.00  0.00    -0.014 A 
ATOM     81  C   UNL A   1      47.567  34.218  27.709  1.00  0.00     0.010 A 
ATOM     82  C   UNL A   1      48.070  33.534  29.977  1.00  0.00     0.010 A 
ATOM     83  C   UNL A   1      48.304  35.393  27.900  1.00  0.00     0.020 A 
ATOM     84  C   UNL A   1      48.776  34.725  30.185  1.00  0.00     0.020 A 
ATOM     85  C   UNL A   1      48.906  35.637  29.137  1.00  0.00     0.054 A 
BRANCH  85  86
ATOM     86  S   UNL A   1      49.850  37.169  29.368  1.00  0.00     0.124 S 
ATOM     87  O   UNL A   1      49.317  37.668  30.632  1.00  0.00    -0.237 OA
ATOM     88  O   UNL A   1      51.228  36.686  29.408  1.00  0.00    -0.237 OA
ATOM     89  O   UNL A   1      49.511  37.961  28.188  1.00  0.00    -0.744 OA
ENDBRANCH  85  86
ENDBRANCH  57  80
BRANCH  69  90
ATOM     90  C   UNL A   1      49.721  27.228  26.063  1.00  0.00    -0.014 A 
ATOM     91  C   UNL A   1      50.680  26.602  26.879  1.00  0.00     0.010 A 
ATOM     92  C   UNL A   1      49.978  27.362  24.685  1.00  0.00     0.010 A 
ATOM     93  C   UNL A   1      51.877  26.132  26.330  1.00  0.00     0.020 A 
ATOM     94  C   UNL A   1      51.161  26.867  24.128  1.00  0.00     0.020 A 
ATOM     95  C   UNL A   1      52.107  26.260  24.957  1.00  0.00     0.054 A 
BRANCH  95  96
ATOM     96  S   UNL A   1      53.636  25.574  24.263  1.00  0.00     0.124 S 
ATOM     97  O   UNL A   1      53.535  24.165  24.633  1.00  0.00    -0.237 OA
ATOM     98  O   UNL A   1      53.497  25.860  22.837  1.00  0.00    -0.237 OA
ATOM     99  O   UNL A   1      54.693  26.322  24.941  1.00  0.00    -0.744 OA
ENDBRANCH  95  96
ENDBRANCH  69  90
ENDBRANCH  43  44
ENDBRANCH  36  38
ENDBRANCH  35  36
ENDBRANCH  34  35
ENDBRANCH  33  34
ENDBRANCH  32  33
ENDBRANCH  31  32
ENDBRANCH   1  31
TORSDOF 26
ENDMDL
MODEL 3
REMARK VINA RESULT:      -9.2      9.529     13.860
REMARK SMILES CC[C@@H](C(=O)Nc1ccc(OC(C)=O)cc1C(=O)OCCOCCOCCOC(=O)c1ccc(-c2c3nc(c(-c4ccc(S(=O)(=O)[O-])cc4)c4ccc([nH]4)c(-c4ccc(S(=O)(=O)[O-])cc4)c4nc(c(-c5ccc(S(=O)(=O)[O-])cc5)c5ccc2[nH]5)C=C4)C=C3)cc1)c1ccccc1
REMARK SMILES IDX 23 1 22 2 21 3 20 4 19 5 17 6 18 7 16 8 7 9 8 10 9 11 15 12
REMARK SMILES IDX 10 13 6 14 4 15 5 16 3 18 2 19 1 20 91 21 92 22 96 23 93 24
REMARK SMILES IDX 95 25 94 26 11 27 12 28 13 29 14 30 24 31 25 32 26 33 27 34
REMARK SMILES IDX 28 35 29 36 30 37 31 38 32 39 90 40 33 41 89 42 34 43 35 44
REMARK SMILES IDX 36 45 83 46 37 47 88 48 82 49 84 50 38 51 87 52 81 53 80 54
REMARK SMILES IDX 39 56 69 57 50 58 68 59 51 60 54 61 67 62 85 63 52 64 53 65
REMARK SMILES IDX 66 67 86 68 55 69 40 70 41 71 49 72 42 73 48 74 43 75 44 76
REMARK SMILES IDX 45 77 46 78 47 79 70 80 71 81 79 82 72 83 78 84 73 85 74 86
REMARK SMILES IDX 75 87 76 88 77 89 56 90 57 91 65 92 58 93 64 94 59 95 60 96
REMARK SMILES IDX 61 97 62 98 63 99
REMARK H PARENT 6 17 84 55 54 66
REMARK Flexibility Score: inf
ROOT
ATOM      1  C   UNL A   1      34.784  33.174  27.764  1.00  0.00     0.188 C 
ENDROOT
BRANCH   1   2
ATOM      2  O   UNL A   1      34.565  31.831  27.364  1.00  0.00    -0.376 OA
BRANCH   2   3
ATOM      3  C   UNL A   1      33.313  31.283  27.738  1.00  0.00     0.202 C 
BRANCH   3   4
ATOM      4  C   UNL A   1      32.467  30.790  26.565  1.00  0.00     0.261 C 
BRANCH   4   5
ATOM      5  O   UNL A   1      33.051  29.801  25.696  1.00  0.00    -0.460 OA
BRANCH   5   6
ATOM      6  C   UNL A   1      32.855  28.500  25.970  1.00  0.00     0.340 C 
ATOM      7  O   UNL A   1      33.315  27.869  26.906  1.00  0.00    -0.246 OA
BRANCH   6   8
ATOM      8  C   UNL A   1      31.903  27.888  25.021  1.00  0.00     0.087 A 
ATOM      9  C   UNL A   1      31.167  26.721  25.276  1.00  0.00     0.056 A 
ATOM     10  C   UNL A   1      30.238  26.278  24.321  1.00  0.00     0.031 A 
ATOM     11  C   UNL A   1      29.905  27.090  23.235  1.00  0.00     0.049 A 
ATOM     12  C   UNL A   1      31.641  28.645  23.867  1.00  0.00     0.065 A 
ATOM     13  C   UNL A   1      30.572  28.300  23.055  1.00  0.00     0.131 A 
BRANCH   9  14
ATOM     14  N   UNL A   1      31.259  25.930  26.431  1.00  0.00    -0.325 N 
ATOM     15  C   UNL A   1      31.477  24.587  26.544  1.00  0.00     0.231 C 
ATOM     16  O   UNL A   1      30.642  23.991  27.237  1.00  0.00    -0.274 OA
ATOM     17  H   UNL A   1      31.150  26.412  27.281  1.00  0.00     0.169 HD
BRANCH  15  18
ATOM     18  C   UNL A   1      32.870  23.951  26.148  1.00  0.00     0.108 C 
BRANCH  18  19
ATOM     19  C   UNL A   1      34.129  24.772  25.758  1.00  0.00     0.015 C 
ATOM     20  C   UNL A   1      35.458  24.133  25.402  1.00  0.00     0.005 C 
ENDBRANCH  18  19
BRANCH  18  21
ATOM     21  C   UNL A   1      32.652  22.838  25.070  1.00  0.00    -0.036 A 
ATOM     22  C   UNL A   1      32.801  21.485  25.421  1.00  0.00     0.004 A 
ATOM     23  C   UNL A   1      32.317  23.117  23.728  1.00  0.00     0.004 A 
ATOM     24  C   UNL A   1      32.595  20.464  24.490  1.00  0.00     0.000 A 
ATOM     25  C   UNL A   1      32.155  22.098  22.787  1.00  0.00     0.000 A 
ATOM     26  C   UNL A   1      32.287  20.771  23.169  1.00  0.00     0.000 A 
ENDBRANCH  18  21
ENDBRANCH  15  18
ENDBRANCH   9  14
BRANCH  13  27
ATOM     27  O   UNL A   1      30.122  29.141  22.018  1.00  0.00    -0.427 OA
BRANCH  27  28
ATOM     28  C   UNL A   1      28.951  29.906  22.092  1.00  0.00     0.308 C 
ATOM     29  C   UNL A   1      28.737  30.709  23.346  1.00  0.00     0.139 C 
ATOM     30  O   UNL A   1      28.205  30.000  21.122  1.00  0.00    -0.252 OA
ENDBRANCH  27  28
ENDBRANCH  13  27
ENDBRANCH   6   8
ENDBRANCH   5   6
ENDBRANCH   4   5
ENDBRANCH   3   4
ENDBRANCH   2   3
ENDBRANCH   1   2
BRANCH   1  31
ATOM     31  C   UNL A   1      34.356  33.475  29.219  1.00  0.00     0.188 C 
BRANCH  31  32
ATOM     32  O   UNL A   1      35.267  33.305  30.290  1.00  0.00    -0.376 OA
BRANCH  32  33
ATOM     33  C   UNL A   1      35.030  32.239  31.189  1.00  0.00     0.202 C 
BRANCH  33  34
ATOM     34  C   UNL A   1      36.048  31.972  32.319  1.00  0.00     0.261 C 
BRANCH  34  35
ATOM     35  O   UNL A   1      37.095  31.009  32.056  1.00  0.00    -0.460 OA
BRANCH  35  36
ATOM     36  C   UNL A   1      38.320  31.496  31.700  1.00  0.00     0.338 C 
ATOM     37  O   UNL A   1      38.552  32.252  30.783  1.00  0.00    -0.246 OA
BRANCH  36  38
ATOM     38  C   UNL A   1      39.332  31.156  32.752  1.00  0.00     0.060 A 
ATOM     39  C   UNL A   1      38.947  30.348  33.839  1.00  0.00     0.016 A 
ATOM     40  C   UNL A   1      40.638  31.637  32.691  1.00  0.00     0.016 A 
ATOM     41  C   UNL A   1      39.856  30.018  34.854  1.00  0.00     0.010 A 
ATOM     42  C   UNL A   1      41.535  31.349  33.736  1.00  0.00     0.010 A 
ATOM     43  C   UNL A   1      41.149  30.552  34.832  1.00  0.00    -0.014 A 
BRANCH  43  44
ATOM     44  C   UNL A   1      42.035  30.459  36.028  1.00  0.00     0.031 A 
ATOM     45  C   UNL A   1      42.905  29.236  36.174  1.00  0.00     0.074 A 
ATOM     46  C   UNL A   1      42.068  31.413  36.979  1.00  0.00     0.049 A 
ATOM     47  N   UNL A   1      43.611  28.838  37.201  1.00  0.00    -0.248 NA
ATOM     48  C   UNL A   1      42.982  28.342  35.007  1.00  0.00     0.031 C 
ATOM     49  C   UNL A   1      41.348  32.683  36.937  1.00  0.00     0.029 A 
ATOM     50  N   UNL A   1      42.731  31.446  38.186  1.00  0.00    -0.354 N 
ATOM     51  C   UNL A   1      44.203  27.640  36.811  1.00  0.00     0.074 A 
ATOM     52  C   UNL A   1      43.764  27.372  35.458  1.00  0.00     0.031 C 
ATOM     53  C   UNL A   1      41.593  33.364  38.072  1.00  0.00     0.029 A 
ATOM     54  C   UNL A   1      42.437  32.553  38.951  1.00  0.00     0.049 A 
ATOM     55  H   UNL A   1      43.359  30.745  38.474  1.00  0.00     0.167 HD
ATOM     56  C   UNL A   1      45.032  26.832  37.514  1.00  0.00     0.031 A 
ATOM     57  C   UNL A   1      42.765  32.853  40.227  1.00  0.00     0.031 A 
ATOM     58  C   UNL A   1      45.457  27.085  38.865  1.00  0.00     0.049 A 
ATOM     59  C   UNL A   1      43.583  31.870  41.037  1.00  0.00     0.074 A 
ATOM     60  C   UNL A   1      46.279  26.311  39.665  1.00  0.00     0.029 A 
ATOM     61  N   UNL A   1      45.095  28.191  39.616  1.00  0.00    -0.354 N 
ATOM     62  N   UNL A   1      44.125  30.736  40.660  1.00  0.00    -0.248 NA
ATOM     63  C   UNL A   1      43.819  32.202  42.452  1.00  0.00     0.031 C 
ATOM     64  C   UNL A   1      46.365  26.918  40.921  1.00  0.00     0.029 A 
ATOM     65  C   UNL A   1      45.651  28.104  40.881  1.00  0.00     0.049 A 
ATOM     66  H   UNL A   1      44.527  28.930  39.298  1.00  0.00     0.167 HD
ATOM     67  C   UNL A   1      44.783  30.237  41.783  1.00  0.00     0.074 A 
ATOM     68  C   UNL A   1      44.594  31.201  42.845  1.00  0.00     0.031 C 
ATOM     69  C   UNL A   1      45.471  29.078  41.927  1.00  0.00     0.031 A 
BRANCH  56  70
ATOM     70  C   UNL A   1      45.520  25.573  36.849  1.00  0.00    -0.014 A 
ATOM     71  C   UNL A   1      46.747  25.544  36.165  1.00  0.00     0.010 A 
ATOM     72  C   UNL A   1      44.780  24.382  36.983  1.00  0.00     0.010 A 
ATOM     73  C   UNL A   1      47.220  24.349  35.614  1.00  0.00     0.020 A 
ATOM     74  C   UNL A   1      45.263  23.181  36.458  1.00  0.00     0.020 A 
ATOM     75  C   UNL A   1      46.478  23.174  35.770  1.00  0.00     0.054 A 
BRANCH  75  76
ATOM     76  S   UNL A   1      47.152  21.629  35.098  1.00  0.00     0.124 S 
ATOM     77  O   UNL A   1      47.463  20.883  36.314  1.00  0.00    -0.237 OA
ATOM     78  O   UNL A   1      46.036  21.112  34.312  1.00  0.00    -0.237 OA
ATOM     79  O   UNL A   1      48.310  22.064  34.322  1.00  0.00    -0.744 OA
ENDBRANCH  75  76
ENDBRANCH  56  70
BRANCH  57  80
ATOM     80  C   UNL A   1      42.259  34.101  40.876  1.00  0.00    -0.014 A 
ATOM     81  C   UNL A   1      42.933  35.326  40.705  1.00  0.00     0.010 A 
ATOM     82  C   UNL A   1      41.145  34.057  41.735  1.00  0.00     0.010 A 
ATOM     83  C   UNL A   1      42.527  36.466  41.408  1.00  0.00     0.020 A 
ATOM     84  C   UNL A   1      40.713  35.203  42.410  1.00  0.00     0.020 A 
ATOM     85  C   UNL A   1      41.421  36.396  42.259  1.00  0.00     0.054 A 
BRANCH  85  86
ATOM     86  S   UNL A   1      40.906  37.887  43.155  1.00  0.00     0.124 S 
ATOM     87  O   UNL A   1      41.230  38.943  42.202  1.00  0.00    -0.237 OA
ATOM     88  O   UNL A   1      39.482  37.646  43.375  1.00  0.00    -0.237 OA
ATOM     89  O   UNL A   1      41.727  37.860  44.364  1.00  0.00    -0.744 OA
ENDBRANCH  85  86
ENDBRANCH  57  80
BRANCH  69  90
ATOM     90  C   UNL A   1      46.103  28.788  43.265  1.00  0.00    -0.014 A 
ATOM     91  C   UNL A   1      45.413  28.062  44.253  1.00  0.00     0.010 A 
ATOM     92  C   UNL A   1      47.436  29.171  43.505  1.00  0.00     0.010 A 
ATOM     93  C   UNL A   1      46.039  27.738  45.460  1.00  0.00     0.020 A 
ATOM     94  C   UNL A   1      48.075  28.823  44.699  1.00  0.00     0.020 A 
ATOM     95  C   UNL A   1      47.369  28.113  45.673  1.00  0.00     0.054 A 
BRANCH  95  96
ATOM     96  S   UNL A   1      48.178  27.613  47.218  1.00  0.00     0.124 S 
ATOM     97  O   UNL A   1      47.204  28.032  48.222  1.00  0.00    -0.237 OA
ATOM     98  O   UNL A   1      48.323  26.169  47.049  1.00  0.00    -0.237 OA
ATOM     99  O   UNL A   1      49.432  28.364  47.215  1.00  0.00    -0.744 OA
ENDBRANCH  95  96
ENDBRANCH  69  90
ENDBRANCH  43  44
ENDBRANCH  36  38
ENDBRANCH  35  36
ENDBRANCH  34  35
ENDBRANCH  33  34
ENDBRANCH  32  33
ENDBRANCH  31  32
ENDBRANCH   1  31
TORSDOF 26
ENDMDL
