MODEL 1
REMARK VINA RESULT:      -8.2      0.000      0.000
REMARK SMILES O=C(OCCOCCOCCOC(=O)c1cccc(Nc2ccnc3ccc(Cl)cc23)c1)c1ccc(-c2c3nc(c(-c4ccc(S(=O)(=O)[O-])cc4)c4ccc([nH]4)c(-c4ccc(S(=O)(=O)[O-])cc4)c4nc(c(-c5ccc(S(=O)(=O)[O-])cc5)c5ccc2[nH]5)C=C4)C=C3)cc1
REMARK SMILES IDX 7 1 6 2 5 3 4 4 3 5 2 6 1 7 33 8 34 9 92 10 35 11 91 12
REMARK SMILES IDX 36 13 37 14 38 15 85 16 39 17 90 18 84 19 86 20 40 21 89 22
REMARK SMILES IDX 83 23 82 24 41 26 71 27 52 28 70 29 53 30 56 31 69 32 87 33
REMARK SMILES IDX 54 34 55 35 68 37 88 38 57 39 42 40 43 41 51 42 44 43 50 44
REMARK SMILES IDX 45 45 46 46 47 47 48 48 49 49 72 50 73 51 81 52 74 53 80 54
REMARK SMILES IDX 75 55 76 56 77 57 78 58 79 59 58 60 59 61 67 62 60 63 66 64
REMARK SMILES IDX 61 65 62 66 63 67 64 68 65 69 8 70 9 71 10 72 11 73 12 74
REMARK SMILES IDX 13 75 14 76 15 77 16 78 32 79 17 80 19 81 18 82 20 83 21 85
REMARK SMILES IDX 22 86 31 87 23 88 25 89 30 90 24 91 26 92 28 93 27 94 29 95
REMARK H PARENT 86 25 56 36 20 84
REMARK Flexibility Score: inf
ROOT
ATOM      1  C   UNL A   1      33.232  35.476  29.223  1.00  0.00     0.188 C 
ENDROOT
BRANCH   1   2
ATOM      2  O   UNL A   1      32.544  34.438  28.518  1.00  0.00    -0.376 OA
BRANCH   2   3
ATOM      3  C   UNL A   1      33.394  33.652  27.676  1.00  0.00     0.202 C 
BRANCH   3   4
ATOM      4  C   UNL A   1      33.719  32.258  28.230  1.00  0.00     0.261 C 
BRANCH   4   5
ATOM      5  O   UNL A   1      33.777  31.270  27.189  1.00  0.00    -0.460 OA
BRANCH   5   6
ATOM      6  C   UNL A   1      34.447  30.089  27.213  1.00  0.00     0.338 C 
ATOM      7  O   UNL A   1      33.985  29.132  26.593  1.00  0.00    -0.246 OA
BRANCH   6   8
ATOM      8  C   UNL A   1      35.762  29.914  27.899  1.00  0.00     0.060 A 
ATOM      9  C   UNL A   1      37.008  30.113  27.301  1.00  0.00     0.016 A 
ATOM     10  C   UNL A   1      35.728  29.579  29.262  1.00  0.00     0.016 A 
ATOM     11  C   UNL A   1      38.190  29.833  27.983  1.00  0.00     0.010 A 
ATOM     12  C   UNL A   1      36.914  29.378  29.975  1.00  0.00     0.010 A 
ATOM     13  C   UNL A   1      38.153  29.449  29.321  1.00  0.00    -0.014 A 
BRANCH  13  14
ATOM     14  C   UNL A   1      39.384  28.997  30.008  1.00  0.00     0.031 A 
ATOM     15  C   UNL A   1      39.855  29.764  31.207  1.00  0.00     0.074 A 
ATOM     16  C   UNL A   1      40.055  27.902  29.606  1.00  0.00     0.049 A 
ATOM     17  N   UNL A   1      40.980  29.669  31.860  1.00  0.00    -0.248 NA
ATOM     18  C   UNL A   1      38.914  30.755  31.757  1.00  0.00     0.031 C 
ATOM     19  C   UNL A   1      39.615  26.977  28.565  1.00  0.00     0.029 A 
ATOM     20  N   UNL A   1      41.266  27.396  30.006  1.00  0.00    -0.354 N 
ATOM     21  C   UNL A   1      40.882  30.582  32.902  1.00  0.00     0.074 A 
ATOM     22  C   UNL A   1      39.610  31.256  32.765  1.00  0.00     0.031 C 
ATOM     23  C   UNL A   1      40.575  26.066  28.347  1.00  0.00     0.029 A 
ATOM     24  C   UNL A   1      41.713  26.376  29.200  1.00  0.00     0.049 A 
ATOM     25  H   UNL A   1      41.762  27.728  30.789  1.00  0.00     0.167 HD
ATOM     26  C   UNL A   1      41.769  30.820  33.896  1.00  0.00     0.031 A 
ATOM     27  C   UNL A   1      42.927  25.805  29.109  1.00  0.00     0.031 A 
ATOM     28  C   UNL A   1      43.038  30.157  34.002  1.00  0.00     0.049 A 
ATOM     29  C   UNL A   1      43.988  26.224  30.077  1.00  0.00     0.074 A 
ATOM     30  C   UNL A   1      44.030  30.329  34.948  1.00  0.00     0.029 A 
ATOM     31  N   UNL A   1      43.491  29.191  33.112  1.00  0.00    -0.354 N 
ATOM     32  N   UNL A   1      43.913  27.125  31.026  1.00  0.00    -0.248 NA
ATOM     33  C   UNL A   1      45.280  25.536  29.988  1.00  0.00     0.031 C 
ATOM     34  C   UNL A   1      45.100  29.493  34.608  1.00  0.00     0.029 A 
ATOM     35  C   UNL A   1      44.755  28.768  33.476  1.00  0.00     0.049 A 
ATOM     36  H   UNL A   1      42.985  28.857  32.336  1.00  0.00     0.167 HD
ATOM     37  C   UNL A   1      45.131  27.076  31.688  1.00  0.00     0.074 A 
ATOM     38  C   UNL A   1      45.935  26.079  31.007  1.00  0.00     0.031 C 
ATOM     39  C   UNL A   1      45.531  27.771  32.781  1.00  0.00     0.031 A 
BRANCH  26  40
ATOM     40  C   UNL A   1      41.384  31.871  34.898  1.00  0.00    -0.014 A 
ATOM     41  C   UNL A   1      40.574  31.556  36.005  1.00  0.00     0.010 A 
ATOM     42  C   UNL A   1      41.776  33.205  34.693  1.00  0.00     0.010 A 
ATOM     43  C   UNL A   1      40.104  32.567  36.848  1.00  0.00     0.020 A 
ATOM     44  C   UNL A   1      41.329  34.216  35.548  1.00  0.00     0.020 A 
ATOM     45  C   UNL A   1      40.471  33.893  36.602  1.00  0.00     0.054 A 
BRANCH  45  46
ATOM     46  S   UNL A   1      39.806  35.197  37.674  1.00  0.00     0.124 S 
ATOM     47  O   UNL A   1      38.542  34.607  38.112  1.00  0.00    -0.237 OA
ATOM     48  O   UNL A   1      40.830  35.321  38.707  1.00  0.00    -0.237 OA
ATOM     49  O   UNL A   1      39.681  36.347  36.782  1.00  0.00    -0.744 OA
ENDBRANCH  45  46
ENDBRANCH  26  40
BRANCH  27  50
ATOM     50  C   UNL A   1      43.199  24.845  28.008  1.00  0.00    -0.014 A 
ATOM     51  C   UNL A   1      43.796  25.259  26.808  1.00  0.00     0.010 A 
ATOM     52  C   UNL A   1      42.920  23.479  28.203  1.00  0.00     0.010 A 
ATOM     53  C   UNL A   1      44.119  24.319  25.823  1.00  0.00     0.020 A 
ATOM     54  C   UNL A   1      43.254  22.535  27.229  1.00  0.00     0.020 A 
ATOM     55  C   UNL A   1      43.850  22.964  26.041  1.00  0.00     0.054 A 
BRANCH  55  56
ATOM     56  S   UNL A   1      44.362  21.751  24.790  1.00  0.00     0.124 S 
ATOM     57  O   UNL A   1      43.413  20.666  25.013  1.00  0.00    -0.237 OA
ATOM     58  O   UNL A   1      44.197  22.493  23.543  1.00  0.00    -0.237 OA
ATOM     59  O   UNL A   1      45.748  21.462  25.150  1.00  0.00    -0.744 OA
ENDBRANCH  55  56
ENDBRANCH  27  50
BRANCH  39  60
ATOM     60  C   UNL A   1      46.868  27.418  33.358  1.00  0.00    -0.014 A 
ATOM     61  C   UNL A   1      47.116  26.154  33.914  1.00  0.00     0.010 A 
ATOM     62  C   UNL A   1      47.913  28.356  33.267  1.00  0.00     0.010 A 
ATOM     63  C   UNL A   1      48.393  25.835  34.382  1.00  0.00     0.020 A 
ATOM     64  C   UNL A   1      49.193  28.034  33.715  1.00  0.00     0.020 A 
ATOM     65  C   UNL A   1      49.423  26.776  34.277  1.00  0.00     0.054 A 
BRANCH  65  66
ATOM     66  S   UNL A   1      51.091  26.316  34.820  1.00  0.00     0.124 S 
ATOM     67  O   UNL A   1      50.947  26.317  36.273  1.00  0.00    -0.237 OA
ATOM     68  O   UNL A   1      51.280  25.003  34.207  1.00  0.00    -0.237 OA
ATOM     69  O   UNL A   1      51.935  27.377  34.275  1.00  0.00    -0.744 OA
ENDBRANCH  65  66
ENDBRANCH  39  60
ENDBRANCH  13  14
ENDBRANCH   6   8
ENDBRANCH   5   6
ENDBRANCH   4   5
ENDBRANCH   3   4
ENDBRANCH   2   3
ENDBRANCH   1   2
BRANCH   1  70
ATOM     70  C   UNL A   1      33.540  35.080  30.672  1.00  0.00     0.188 C 
BRANCH  70  71
ATOM     71  O   UNL A   1      34.020  36.144  31.495  1.00  0.00    -0.376 OA
BRANCH  71  72
ATOM     72  C   UNL A   1      33.781  36.020  32.901  1.00  0.00     0.202 C 
BRANCH  72  73
ATOM     73  C   UNL A   1      34.822  35.207  33.678  1.00  0.00     0.261 C 
BRANCH  73  74
ATOM     74  O   UNL A   1      36.136  35.340  33.112  1.00  0.00    -0.460 OA
BRANCH  74  75
ATOM     75  C   UNL A   1      36.774  34.154  32.947  1.00  0.00     0.338 C 
ATOM     76  O   UNL A   1      36.876  33.278  33.790  1.00  0.00    -0.246 OA
BRANCH  75  77
ATOM     77  C   UNL A   1      37.347  34.036  31.585  1.00  0.00     0.062 A 
ATOM     78  C   UNL A   1      36.705  33.331  30.561  1.00  0.00     0.016 A 
ATOM     79  C   UNL A   1      38.624  34.567  31.369  1.00  0.00     0.041 A 
ATOM     80  C   UNL A   1      37.340  33.147  29.333  1.00  0.00     0.003 A 
ATOM     81  C   UNL A   1      39.261  34.396  30.136  1.00  0.00     0.039 A 
ATOM     82  C   UNL A   1      38.616  33.669  29.129  1.00  0.00     0.026 A 
BRANCH  81  83
ATOM     83  N   UNL A   1      40.607  34.780  29.964  1.00  0.00    -0.355 N 
ATOM     84  H   UNL A   1      40.815  35.661  29.578  1.00  0.00     0.167 HD
BRANCH  83  85
ATOM     85  C   UNL A   1      41.666  33.914  30.339  1.00  0.00     0.050 A 
ATOM     86  C   UNL A   1      41.709  32.632  29.787  1.00  0.00     0.047 A 
ATOM     87  C   UNL A   1      42.629  34.291  31.296  1.00  0.00     0.025 A 
ATOM     88  C   UNL A   1      42.761  31.811  30.119  1.00  0.00     0.114 A 
ATOM     89  C   UNL A   1      43.671  33.371  31.548  1.00  0.00     0.072 A 
ATOM     90  C   UNL A   1      42.612  35.530  31.978  1.00  0.00     0.033 A 
ATOM     91  N   UNL A   1      43.756  32.171  30.952  1.00  0.00    -0.256 NA
ATOM     92  C   UNL A   1      44.662  33.720  32.452  1.00  0.00     0.030 A 
ATOM     93  C   UNL A   1      43.608  35.838  32.899  1.00  0.00     0.041 A 
ATOM     94  C   UNL A   1      44.639  34.939  33.134  1.00  0.00     0.023 A 
ATOM     95  Cl  UNL A   1      43.570  37.332  33.748  1.00  0.00    -0.084 Cl
ENDBRANCH  83  85
ENDBRANCH  81  83
ENDBRANCH  75  77
ENDBRANCH  74  75
ENDBRANCH  73  74
ENDBRANCH  72  73
ENDBRANCH  71  72
ENDBRANCH  70  71
ENDBRANCH   1  70
TORSDOF 22
ENDMDL
MODEL 2
REMARK VINA RESULT:      -7.8      6.793     11.516
REMARK SMILES O=C(OCCOCCOCCOC(=O)c1cccc(Nc2ccnc3ccc(Cl)cc23)c1)c1ccc(-c2c3nc(c(-c4ccc(S(=O)(=O)[O-])cc4)c4ccc([nH]4)c(-c4ccc(S(=O)(=O)[O-])cc4)c4nc(c(-c5ccc(S(=O)(=O)[O-])cc5)c5ccc2[nH]5)C=C4)C=C3)cc1
REMARK SMILES IDX 7 1 6 2 5 3 4 4 3 5 2 6 1 7 33 8 34 9 92 10 35 11 91 12
REMARK SMILES IDX 36 13 37 14 38 15 85 16 39 17 90 18 84 19 86 20 40 21 89 22
REMARK SMILES IDX 83 23 82 24 41 26 71 27 52 28 70 29 53 30 56 31 69 32 87 33
REMARK SMILES IDX 54 34 55 35 68 37 88 38 57 39 42 40 43 41 51 42 44 43 50 44
REMARK SMILES IDX 45 45 46 46 47 47 48 48 49 49 72 50 73 51 81 52 74 53 80 54
REMARK SMILES IDX 75 55 76 56 77 57 78 58 79 59 58 60 59 61 67 62 60 63 66 64
REMARK SMILES IDX 61 65 62 66 63 67 64 68 65 69 8 70 9 71 10 72 11 73 12 74
REMARK SMILES IDX 13 75 14 76 15 77 16 78 32 79 17 80 19 81 18 82 20 83 21 85
REMARK SMILES IDX 22 86 31 87 23 88 25 89 30 90 24 91 26 92 28 93 27 94 29 95
REMARK H PARENT 86 25 56 36 20 84
REMARK Flexibility Score: inf
ROOT
ATOM      1  C   UNL A   1      36.834  22.872  25.750  1.00  0.00     0.188 C 
ENDROOT
BRANCH   1   2
ATOM      2  O   UNL A   1      37.314  21.553  25.467  1.00  0.00    -0.376 OA
BRANCH   2   3
ATOM      3  C   UNL A   1      38.703  21.370  25.762  1.00  0.00     0.202 C 
BRANCH   3   4
ATOM      4  C   UNL A   1      39.190  19.919  25.641  1.00  0.00     0.261 C 
BRANCH   4   5
ATOM      5  O   UNL A   1      40.362  19.682  26.435  1.00  0.00    -0.460 OA
BRANCH   5   6
ATOM      6  C   UNL A   1      41.654  19.899  26.077  1.00  0.00     0.338 C 
ATOM      7  O   UNL A   1      42.207  19.094  25.329  1.00  0.00    -0.246 OA
BRANCH   6   8
ATOM      8  C   UNL A   1      42.420  21.113  26.491  1.00  0.00     0.060 A 
ATOM      9  C   UNL A   1      42.652  21.498  27.814  1.00  0.00     0.016 A 
ATOM     10  C   UNL A   1      42.993  21.883  25.468  1.00  0.00     0.016 A 
ATOM     11  C   UNL A   1      43.293  22.698  28.115  1.00  0.00     0.010 A 
ATOM     12  C   UNL A   1      43.711  23.045  25.768  1.00  0.00     0.010 A 
ATOM     13  C   UNL A   1      43.815  23.490  27.095  1.00  0.00    -0.014 A 
BRANCH  13  14
ATOM     14  C   UNL A   1      44.354  24.836  27.389  1.00  0.00     0.031 A 
ATOM     15  C   UNL A   1      43.391  25.925  27.758  1.00  0.00     0.074 A 
ATOM     16  C   UNL A   1      45.676  25.086  27.373  1.00  0.00     0.049 A 
ATOM     17  N   UNL A   1      43.602  27.206  27.887  1.00  0.00    -0.248 NA
ATOM     18  C   UNL A   1      42.009  25.505  28.043  1.00  0.00     0.031 C 
ATOM     19  C   UNL A   1      46.722  24.083  27.195  1.00  0.00     0.029 A 
ATOM     20  N   UNL A   1      46.365  26.267  27.480  1.00  0.00    -0.354 N 
ATOM     21  C   UNL A   1      42.383  27.745  28.274  1.00  0.00     0.074 A 
ATOM     22  C   UNL A   1      41.426  26.661  28.311  1.00  0.00     0.031 C 
ATOM     23  C   UNL A   1      47.914  24.694  27.120  1.00  0.00     0.029 A 
ATOM     24  C   UNL A   1      47.704  26.133  27.196  1.00  0.00     0.049 A 
ATOM     25  H   UNL A   1      45.946  27.121  27.733  1.00  0.00     0.167 HD
ATOM     26  C   UNL A   1      42.094  29.029  28.591  1.00  0.00     0.031 A 
ATOM     27  C   UNL A   1      48.642  27.066  26.953  1.00  0.00     0.031 A 
ATOM     28  C   UNL A   1      43.053  30.096  28.527  1.00  0.00     0.049 A 
ATOM     29  C   UNL A   1      48.268  28.508  27.093  1.00  0.00     0.074 A 
ATOM     30  C   UNL A   1      42.875  31.438  28.800  1.00  0.00     0.029 A 
ATOM     31  N   UNL A   1      44.379  29.932  28.149  1.00  0.00    -0.354 N 
ATOM     32  N   UNL A   1      47.102  29.019  27.407  1.00  0.00    -0.248 NA
ATOM     33  C   UNL A   1      49.331  29.495  26.880  1.00  0.00     0.031 C 
ATOM     34  C   UNL A   1      44.087  32.093  28.550  1.00  0.00     0.029 A 
ATOM     35  C   UNL A   1      45.030  31.151  28.165  1.00  0.00     0.049 A 
ATOM     36  H   UNL A   1      44.794  29.073  27.905  1.00  0.00     0.167 HD
ATOM     37  C   UNL A   1      47.301  30.390  27.483  1.00  0.00     0.074 A 
ATOM     38  C   UNL A   1      48.694  30.627  27.151  1.00  0.00     0.031 C 
ATOM     39  C   UNL A   1      46.418  31.357  27.833  1.00  0.00     0.031 A 
BRANCH  26  40
ATOM     40  C   UNL A   1      40.674  29.318  28.988  1.00  0.00    -0.014 A 
ATOM     41  C   UNL A   1      39.643  29.341  28.028  1.00  0.00     0.010 A 
ATOM     42  C   UNL A   1      40.376  29.642  30.322  1.00  0.00     0.010 A 
ATOM     43  C   UNL A   1      38.356  29.752  28.383  1.00  0.00     0.020 A 
ATOM     44  C   UNL A   1      39.083  30.031  30.686  1.00  0.00     0.020 A 
ATOM     45  C   UNL A   1      38.090  30.112  29.708  1.00  0.00     0.054 A 
BRANCH  45  46
ATOM     46  S   UNL A   1      36.427  30.697  30.137  1.00  0.00     0.124 S 
ATOM     47  O   UNL A   1      35.796  30.794  28.823  1.00  0.00    -0.237 OA
ATOM     48  O   UNL A   1      35.921  29.632  30.998  1.00  0.00    -0.237 OA
ATOM     49  O   UNL A   1      36.672  31.973  30.807  1.00  0.00    -0.744 OA
ENDBRANCH  45  46
ENDBRANCH  26  40
BRANCH  27  50
ATOM     50  C   UNL A   1      49.983  26.642  26.477  1.00  0.00    -0.014 A 
ATOM     51  C   UNL A   1      50.265  26.508  25.109  1.00  0.00     0.010 A 
ATOM     52  C   UNL A   1      51.015  26.443  27.415  1.00  0.00     0.010 A 
ATOM     53  C   UNL A   1      51.561  26.191  24.687  1.00  0.00     0.020 A 
ATOM     54  C   UNL A   1      52.313  26.141  26.997  1.00  0.00     0.020 A 
ATOM     55  C   UNL A   1      52.577  26.014  25.632  1.00  0.00     0.054 A 
BRANCH  55  56
ATOM     56  S   UNL A   1      54.270  25.696  25.058  1.00  0.00     0.124 S 
ATOM     57  O   UNL A   1      54.287  26.380  23.770  1.00  0.00    -0.237 OA
ATOM     58  O   UNL A   1      55.080  26.305  26.111  1.00  0.00    -0.237 OA
ATOM     59  O   UNL A   1      54.337  24.238  25.001  1.00  0.00    -0.744 OA
ENDBRANCH  55  56
ENDBRANCH  27  50
BRANCH  39  60
ATOM     60  C   UNL A   1      46.951  32.752  27.951  1.00  0.00    -0.014 A 
ATOM     61  C   UNL A   1      46.872  33.660  26.883  1.00  0.00     0.010 A 
ATOM     62  C   UNL A   1      47.473  33.175  29.187  1.00  0.00     0.010 A 
ATOM     63  C   UNL A   1      47.317  34.973  27.049  1.00  0.00     0.020 A 
ATOM     64  C   UNL A   1      47.901  34.490  29.362  1.00  0.00     0.020 A 
ATOM     65  C   UNL A   1      47.826  35.380  28.288  1.00  0.00     0.054 A 
BRANCH  65  66
ATOM     66  S   UNL A   1      48.329  37.108  28.506  1.00  0.00     0.124 S 
ATOM     67  O   UNL A   1      48.075  37.320  29.928  1.00  0.00    -0.237 OA
ATOM     68  O   UNL A   1      49.737  37.087  28.115  1.00  0.00    -0.237 OA
ATOM     69  O   UNL A   1      47.449  37.841  27.598  1.00  0.00    -0.744 OA
ENDBRANCH  65  66
ENDBRANCH  39  60
ENDBRANCH  13  14
ENDBRANCH   6   8
ENDBRANCH   5   6
ENDBRANCH   4   5
ENDBRANCH   3   4
ENDBRANCH   2   3
ENDBRANCH   1   2
BRANCH   1  70
ATOM     70  C   UNL A   1      36.651  23.703  24.474  1.00  0.00     0.188 C 
BRANCH  70  71
ATOM     71  O   UNL A   1      36.129  22.981  23.358  1.00  0.00    -0.376 OA
BRANCH  71  72
ATOM     72  C   UNL A   1      34.704  22.956  23.226  1.00  0.00     0.202 C 
BRANCH  72  73
ATOM     73  C   UNL A   1      34.142  23.680  21.998  1.00  0.00     0.261 C 
BRANCH  73  74
ATOM     74  O   UNL A   1      33.922  25.077  22.255  1.00  0.00    -0.460 OA
BRANCH  74  75
ATOM     75  C   UNL A   1      32.719  25.523  21.814  1.00  0.00     0.338 C 
ATOM     76  O   UNL A   1      32.463  25.865  20.672  1.00  0.00    -0.246 OA
BRANCH  75  77
ATOM     77  C   UNL A   1      31.719  25.543  22.908  1.00  0.00     0.062 A 
ATOM     78  C   UNL A   1      31.092  26.722  23.328  1.00  0.00     0.016 A 
ATOM     79  C   UNL A   1      31.488  24.349  23.600  1.00  0.00     0.041 A 
ATOM     80  C   UNL A   1      30.250  26.710  24.439  1.00  0.00     0.003 A 
ATOM     81  C   UNL A   1      30.635  24.328  24.709  1.00  0.00     0.039 A 
ATOM     82  C   UNL A   1      30.034  25.519  25.130  1.00  0.00     0.026 A 
BRANCH  81  83
ATOM     83  N   UNL A   1      30.528  23.172  25.509  1.00  0.00    -0.355 N 
ATOM     84  H   UNL A   1      29.644  22.763  25.654  1.00  0.00     0.167 HD
BRANCH  83  85
ATOM     85  C   UNL A   1      31.673  22.591  26.109  1.00  0.00     0.050 A 
ATOM     86  C   UNL A   1      32.197  23.180  27.261  1.00  0.00     0.047 A 
ATOM     87  C   UNL A   1      32.328  21.483  25.536  1.00  0.00     0.025 A 
ATOM     88  C   UNL A   1      33.281  22.589  27.866  1.00  0.00     0.114 A 
ATOM     89  C   UNL A   1      33.425  20.952  26.252  1.00  0.00     0.072 A 
ATOM     90  C   UNL A   1      31.929  20.879  24.322  1.00  0.00     0.033 A 
ATOM     91  N   UNL A   1      33.875  21.470  27.406  1.00  0.00    -0.256 NA
ATOM     92  C   UNL A   1      34.072  19.836  25.744  1.00  0.00     0.030 A 
ATOM     93  C   UNL A   1      32.618  19.775  23.827  1.00  0.00     0.041 A 
ATOM     94  C   UNL A   1      33.686  19.245  24.539  1.00  0.00     0.023 A 
ATOM     95  Cl  UNL A   1      32.149  19.060  22.336  1.00  0.00    -0.084 Cl
ENDBRANCH  83  85
ENDBRANCH  81  83
ENDBRANCH  75  77
ENDBRANCH  74  75
ENDBRANCH  73  74
ENDBRANCH  72  73
ENDBRANCH  71  72
ENDBRANCH  70  71
ENDBRANCH   1  70
TORSDOF 22
ENDMDL
MODEL 3
REMARK VINA RESULT:      -7.6      1.463      2.029
REMARK SMILES O=C(OCCOCCOCCOC(=O)c1cccc(Nc2ccnc3ccc(Cl)cc23)c1)c1ccc(-c2c3nc(c(-c4ccc(S(=O)(=O)[O-])cc4)c4ccc([nH]4)c(-c4ccc(S(=O)(=O)[O-])cc4)c4nc(c(-c5ccc(S(=O)(=O)[O-])cc5)c5ccc2[nH]5)C=C4)C=C3)cc1
REMARK SMILES IDX 7 1 6 2 5 3 4 4 3 5 2 6 1 7 33 8 34 9 92 10 35 11 91 12
REMARK SMILES IDX 36 13 37 14 38 15 85 16 39 17 90 18 84 19 86 20 40 21 89 22
REMARK SMILES IDX 83 23 82 24 41 26 71 27 52 28 70 29 53 30 56 31 69 32 87 33
REMARK SMILES IDX 54 34 55 35 68 37 88 38 57 39 42 40 43 41 51 42 44 43 50 44
REMARK SMILES IDX 45 45 46 46 47 47 48 48 49 49 72 50 73 51 81 52 74 53 80 54
REMARK SMILES IDX 75 55 76 56 77 57 78 58 79 59 58 60 59 61 67 62 60 63 66 64
REMARK SMILES IDX 61 65 62 66 63 67 64 68 65 69 8 70 9 71 10 72 11 73 12 74
REMARK SMILES IDX 13 75 14 76 15 77 16 78 32 79 17 80 19 81 18 82 20 83 21 85
REMARK SMILES IDX 22 86 31 87 23 88 25 89 30 90 24 91 26 92 28 93 27 94 29 95
REMARK H PARENT 86 25 56 36 20 84
REMARK Flexibility Score: inf
ROOT
ATOM      1  C   UNL A   1      33.109  35.411  29.018  1.00  0.00     0.188 C 
ENDROOT
BRANCH   1   2
ATOM      2  O   UNL A   1      32.514  34.142  28.726  1.00  0.00    -0.376 OA
BRANCH   2   3
ATOM      3  C   UNL A   1      33.199  33.406  27.706  1.00  0.00     0.202 C 
BRANCH   3   4
ATOM      4  C   UNL A   1      34.135  32.311  28.236  1.00  0.00     0.261 C 
BRANCH   4   5
ATOM      5  O   UNL A   1      34.216  31.197  27.334  1.00  0.00    -0.460 OA
BRANCH   5   6
ATOM      6  C   UNL A   1      34.786  29.987  27.572  1.00  0.00     0.338 C 
ATOM      7  O   UNL A   1      34.190  28.970  27.220  1.00  0.00    -0.246 OA
BRANCH   6   8
ATOM      8  C   UNL A   1      36.142  29.832  28.179  1.00  0.00     0.060 A 
ATOM      9  C   UNL A   1      37.347  30.078  27.516  1.00  0.00     0.016 A 
ATOM     10  C   UNL A   1      36.195  29.468  29.533  1.00  0.00     0.016 A 
ATOM     11  C   UNL A   1      38.572  29.815  28.123  1.00  0.00     0.010 A 
ATOM     12  C   UNL A   1      37.425  29.283  30.173  1.00  0.00     0.010 A 
ATOM     13  C   UNL A   1      38.622  29.401  29.452  1.00  0.00    -0.014 A 
BRANCH  13  14
ATOM     14  C   UNL A   1      39.901  28.968  30.057  1.00  0.00     0.031 A 
ATOM     15  C   UNL A   1      40.450  29.757  31.208  1.00  0.00     0.074 A 
ATOM     16  C   UNL A   1      40.550  27.871  29.626  1.00  0.00     0.049 A 
ATOM     17  N   UNL A   1      41.618  29.679  31.782  1.00  0.00    -0.248 NA
ATOM     18  C   UNL A   1      39.543  30.751  31.808  1.00  0.00     0.031 C 
ATOM     19  C   UNL A   1      40.045  26.927  28.633  1.00  0.00     0.029 A 
ATOM     20  N   UNL A   1      41.790  27.379  29.948  1.00  0.00    -0.354 N 
ATOM     21  C   UNL A   1      41.587  30.608  32.814  1.00  0.00     0.074 A 
ATOM     22  C   UNL A   1      40.304  31.272  32.756  1.00  0.00     0.031 C 
ATOM     23  C   UNL A   1      40.994  26.019  28.362  1.00  0.00     0.029 A 
ATOM     24  C   UNL A   1      42.187  26.349  29.128  1.00  0.00     0.049 A 
ATOM     25  H   UNL A   1      42.338  27.727  30.688  1.00  0.00     0.167 HD
ATOM     26  C   UNL A   1      42.540  30.868  33.739  1.00  0.00     0.031 A 
ATOM     27  C   UNL A   1      43.395  25.784  28.961  1.00  0.00     0.031 A 
ATOM     28  C   UNL A   1      43.818  30.213  33.766  1.00  0.00     0.049 A 
ATOM     29  C   UNL A   1      44.519  26.225  29.845  1.00  0.00     0.074 A 
ATOM     30  C   UNL A   1      44.873  30.407  34.637  1.00  0.00     0.029 A 
ATOM     31  N   UNL A   1      44.215  29.237  32.862  1.00  0.00    -0.354 N 
ATOM     32  N   UNL A   1      44.504  27.140  30.783  1.00  0.00    -0.248 NA
ATOM     33  C   UNL A   1      45.807  25.543  29.676  1.00  0.00     0.031 C 
ATOM     34  C   UNL A   1      45.923  29.572  34.236  1.00  0.00     0.029 A 
ATOM     35  C   UNL A   1      45.505  28.828  33.142  1.00  0.00     0.049 A 
ATOM     36  H   UNL A   1      43.658  28.887  32.129  1.00  0.00     0.167 HD
ATOM     37  C   UNL A   1      45.766  27.110  31.358  1.00  0.00     0.074 A 
ATOM     38  C   UNL A   1      46.527  26.106  30.638  1.00  0.00     0.031 C 
ATOM     39  C   UNL A   1      46.236  27.824  32.410  1.00  0.00     0.031 A 
BRANCH  26  40
ATOM     40  C   UNL A   1      42.220  31.932  34.750  1.00  0.00    -0.014 A 
ATOM     41  C   UNL A   1      42.813  33.206  34.674  1.00  0.00     0.010 A 
ATOM     42  C   UNL A   1      41.372  31.633  35.830  1.00  0.00     0.010 A 
ATOM     43  C   UNL A   1      42.621  34.138  35.698  1.00  0.00     0.020 A 
ATOM     44  C   UNL A   1      41.157  32.571  36.844  1.00  0.00     0.020 A 
ATOM     45  C   UNL A   1      41.808  33.806  36.785  1.00  0.00     0.054 A 
BRANCH  45  46
ATOM     46  S   UNL A   1      41.616  35.007  38.131  1.00  0.00     0.124 S 
ATOM     47  O   UNL A   1      42.731  34.655  39.008  1.00  0.00    -0.237 OA
ATOM     48  O   UNL A   1      41.742  36.289  37.442  1.00  0.00    -0.237 OA
ATOM     49  O   UNL A   1      40.287  34.718  38.666  1.00  0.00    -0.744 OA
ENDBRANCH  45  46
ENDBRANCH  26  40
BRANCH  27  50
ATOM     50  C   UNL A   1      43.596  24.809  27.859  1.00  0.00    -0.014 A 
ATOM     51  C   UNL A   1      44.041  25.217  26.592  1.00  0.00     0.010 A 
ATOM     52  C   UNL A   1      43.409  23.436  28.112  1.00  0.00     0.010 A 
ATOM     53  C   UNL A   1      44.303  24.267  25.599  1.00  0.00     0.020 A 
ATOM     54  C   UNL A   1      43.684  22.483  27.128  1.00  0.00     0.020 A 
ATOM     55  C   UNL A   1      44.128  22.907  25.874  1.00  0.00     0.054 A 
BRANCH  55  56
ATOM     56  S   UNL A   1      44.564  21.686  24.603  1.00  0.00     0.124 S 
ATOM     57  O   UNL A   1      44.152  22.363  23.378  1.00  0.00    -0.237 OA
ATOM     58  O   UNL A   1      46.005  21.536  24.790  1.00  0.00    -0.237 OA
ATOM     59  O   UNL A   1      43.774  20.515  24.976  1.00  0.00    -0.744 OA
ENDBRANCH  55  56
ENDBRANCH  27  50
BRANCH  39  60
ATOM     60  C   UNL A   1      47.614  27.489  32.896  1.00  0.00    -0.014 A 
ATOM     61  C   UNL A   1      47.832  26.465  33.831  1.00  0.00     0.010 A 
ATOM     62  C   UNL A   1      48.712  28.171  32.342  1.00  0.00     0.010 A 
ATOM     63  C   UNL A   1      49.134  26.133  34.213  1.00  0.00     0.020 A 
ATOM     64  C   UNL A   1      50.014  27.829  32.706  1.00  0.00     0.020 A 
ATOM     65  C   UNL A   1      50.215  26.816  33.646  1.00  0.00     0.054 A 
BRANCH  65  66
ATOM     66  S   UNL A   1      51.901  26.320  34.096  1.00  0.00     0.124 S 
ATOM     67  O   UNL A   1      52.316  27.416  34.966  1.00  0.00    -0.237 OA
ATOM     68  O   UNL A   1      51.692  25.035  34.760  1.00  0.00    -0.237 OA
ATOM     69  O   UNL A   1      52.593  26.245  32.812  1.00  0.00    -0.744 OA
ENDBRANCH  65  66
ENDBRANCH  39  60
ENDBRANCH  13  14
ENDBRANCH   6   8
ENDBRANCH   5   6
ENDBRANCH   4   5
ENDBRANCH   3   4
ENDBRANCH   2   3
ENDBRANCH   1   2
BRANCH   1  70
ATOM     70  C   UNL A   1      34.139  35.315  30.150  1.00  0.00     0.188 C 
BRANCH  70  71
ATOM     71  O   UNL A   1      33.698  35.832  31.407  1.00  0.00    -0.376 OA
BRANCH  71  72
ATOM     72  C   UNL A   1      33.546  34.883  32.468  1.00  0.00     0.202 C 
BRANCH  72  73
ATOM     73  C   UNL A   1      34.647  34.902  33.534  1.00  0.00     0.261 C 
BRANCH  73  74
ATOM     74  O   UNL A   1      35.893  35.385  33.006  1.00  0.00    -0.460 OA
BRANCH  74  75
ATOM     75  C   UNL A   1      36.928  34.531  33.204  1.00  0.00     0.338 C 
ATOM     76  O   UNL A   1      37.264  34.057  34.277  1.00  0.00    -0.246 OA
BRANCH  75  77
ATOM     77  C   UNL A   1      37.624  34.227  31.932  1.00  0.00     0.062 A 
ATOM     78  C   UNL A   1      37.009  33.520  30.891  1.00  0.00     0.016 A 
ATOM     79  C   UNL A   1      38.976  34.575  31.830  1.00  0.00     0.041 A 
ATOM     80  C   UNL A   1      37.743  33.154  29.764  1.00  0.00     0.003 A 
ATOM     81  C   UNL A   1      39.714  34.220  30.697  1.00  0.00     0.039 A 
ATOM     82  C   UNL A   1      39.091  33.494  29.675  1.00  0.00     0.026 A 
BRANCH  81  83
ATOM     83  N   UNL A   1      41.110  34.418  30.658  1.00  0.00    -0.355 N 
ATOM     84  H   UNL A   1      41.634  34.338  31.488  1.00  0.00     0.167 HD
BRANCH  83  85
ATOM     85  C   UNL A   1      41.770  34.731  29.443  1.00  0.00     0.050 A 
ATOM     86  C   UNL A   1      41.357  35.858  28.729  1.00  0.00     0.047 A 
ATOM     87  C   UNL A   1      42.776  33.901  28.910  1.00  0.00     0.025 A 
ATOM     88  C   UNL A   1      42.027  36.183  27.574  1.00  0.00     0.114 A 
ATOM     89  C   UNL A   1      43.403  34.342  27.724  1.00  0.00     0.072 A 
ATOM     90  C   UNL A   1      43.193  32.691  29.511  1.00  0.00     0.033 A 
ATOM     91  N   UNL A   1      43.062  35.473  27.084  1.00  0.00    -0.256 NA
ATOM     92  C   UNL A   1      44.427  33.576  27.189  1.00  0.00     0.030 A 
ATOM     93  C   UNL A   1      44.206  31.932  28.934  1.00  0.00     0.041 A 
ATOM     94  C   UNL A   1      44.832  32.375  27.776  1.00  0.00     0.023 A 
ATOM     95  Cl  UNL A   1      44.692  30.448  29.650  1.00  0.00    -0.084 Cl
ENDBRANCH  83  85
ENDBRANCH  81  83
ENDBRANCH  75  77
ENDBRANCH  74  75
ENDBRANCH  73  74
ENDBRANCH  72  73
ENDBRANCH  71  72
ENDBRANCH  70  71
ENDBRANCH   1  70
TORSDOF 22
ENDMDL
