MODEL 1
REMARK VINA RESULT:      -9.6      0.000      0.000
REMARK SMILES O=C(OCCOCCOCCOC(=O)[C@H]1CC[C@@H](CNc2ccccc2C(F)(F)F)O1)c1ccc(-c2c3nc(c(-c4ccc(S(=O)(=O)[O-])cc4)c4ccc([nH]4)c(-c4ccc(S(=O)(=O)[O-])cc4)c4nc(c(-c5ccc(S(=O)(=O)[O-])cc5)c5ccc2[nH]5)C=C4)C=C3)cc1
REMARK SMILES IDX 8 1 7 2 6 3 5 4 4 5 3 6 2 7 1 8 32 9 33 10 91 11 34 12 90 13
REMARK SMILES IDX 35 14 36 15 37 16 84 17 38 18 89 19 83 20 85 21 39 22 88 23
REMARK SMILES IDX 82 24 81 25 40 27 70 28 51 29 69 30 52 31 55 32 68 33 86 34
REMARK SMILES IDX 53 35 54 36 67 38 87 39 56 40 41 41 42 42 50 43 43 44 49 45
REMARK SMILES IDX 44 46 45 47 46 48 47 49 48 50 71 51 72 52 80 53 73 54 79 55
REMARK SMILES IDX 74 56 75 57 76 58 77 59 78 60 57 61 58 62 66 63 59 64 65 65
REMARK SMILES IDX 60 66 61 67 62 68 63 69 64 70 9 71 10 72 11 73 12 74 13 75
REMARK SMILES IDX 14 76 15 77 16 78 31 79 17 80 18 81 19 82 20 83 21 85 22 86
REMARK SMILES IDX 26 87 23 88 25 89 24 90 27 91 28 92 29 93 30 94
REMARK H PARENT 85 26 55 37 20 84
REMARK Flexibility Score: inf
ROOT
ATOM      1  C   UNL A   1      38.947  22.578  26.132  1.00  0.00     0.188 C 
ENDROOT
BRANCH   1   2
ATOM      2  C   UNL A   1      40.264  22.229  26.818  1.00  0.00     0.188 C 
BRANCH   2   3
ATOM      3  O   UNL A   1      41.271  21.676  25.967  1.00  0.00    -0.376 OA
BRANCH   3   4
ATOM      4  C   UNL A   1      42.552  22.288  26.149  1.00  0.00     0.202 C 
BRANCH   4   5
ATOM      5  C   UNL A   1      42.833  23.575  25.343  1.00  0.00     0.261 C 
BRANCH   5   6
ATOM      6  O   UNL A   1      42.849  24.791  26.111  1.00  0.00    -0.460 OA
BRANCH   6   7
ATOM      7  C   UNL A   1      41.864  25.687  26.360  1.00  0.00     0.338 C 
ATOM      8  O   UNL A   1      41.043  25.895  25.466  1.00  0.00    -0.246 OA
BRANCH   7   9
ATOM      9  C   UNL A   1      41.729  26.481  27.628  1.00  0.00     0.060 A 
ATOM     10  C   UNL A   1      40.645  26.437  28.503  1.00  0.00     0.016 A 
ATOM     11  C   UNL A   1      42.798  27.337  27.964  1.00  0.00     0.016 A 
ATOM     12  C   UNL A   1      40.582  27.250  29.628  1.00  0.00     0.010 A 
ATOM     13  C   UNL A   1      42.761  28.130  29.119  1.00  0.00     0.010 A 
ATOM     14  C   UNL A   1      41.632  28.105  29.943  1.00  0.00    -0.014 A 
BRANCH  14  15
ATOM     15  C   UNL A   1      41.460  29.032  31.078  1.00  0.00     0.031 A 
ATOM     16  C   UNL A   1      40.453  30.122  30.961  1.00  0.00     0.074 A 
ATOM     17  C   UNL A   1      42.059  28.796  32.259  1.00  0.00     0.049 A 
ATOM     18  N   UNL A   1      40.064  30.956  31.882  1.00  0.00    -0.248 NA
ATOM     19  C   UNL A   1      39.723  30.225  29.687  1.00  0.00     0.031 C 
ATOM     20  C   UNL A   1      42.834  27.602  32.554  1.00  0.00     0.029 A 
ATOM     21  N   UNL A   1      42.112  29.509  33.426  1.00  0.00    -0.354 N 
ATOM     22  C   UNL A   1      38.989  31.631  31.331  1.00  0.00     0.074 A 
ATOM     23  C   UNL A   1      38.835  31.167  29.969  1.00  0.00     0.031 C 
ATOM     24  C   UNL A   1      43.395  27.716  33.766  1.00  0.00     0.029 A 
ATOM     25  C   UNL A   1      42.988  28.978  34.346  1.00  0.00     0.049 A 
ATOM     26  H   UNL A   1      41.578  30.321  33.590  1.00  0.00     0.167 HD
ATOM     27  C   UNL A   1      38.181  32.526  31.938  1.00  0.00     0.031 A 
ATOM     28  C   UNL A   1      43.418  29.444  35.531  1.00  0.00     0.031 A 
ATOM     29  C   UNL A   1      38.398  33.012  33.273  1.00  0.00     0.049 A 
ATOM     30  C   UNL A   1      42.698  30.633  36.077  1.00  0.00     0.074 A 
ATOM     31  C   UNL A   1      37.702  33.990  33.956  1.00  0.00     0.029 A 
ATOM     32  N   UNL A   1      39.405  32.566  34.122  1.00  0.00    -0.354 N 
ATOM     33  N   UNL A   1      41.697  31.285  35.535  1.00  0.00    -0.248 NA
ATOM     34  C   UNL A   1      43.092  31.104  37.406  1.00  0.00     0.031 C 
ATOM     35  C   UNL A   1      38.332  34.186  35.190  1.00  0.00     0.029 A 
ATOM     36  C   UNL A   1      39.379  33.284  35.305  1.00  0.00     0.049 A 
ATOM     37  H   UNL A   1      40.044  31.847  33.912  1.00  0.00     0.167 HD
ATOM     38  C   UNL A   1      41.295  32.206  36.483  1.00  0.00     0.074 A 
ATOM     39  C   UNL A   1      42.166  32.026  37.632  1.00  0.00     0.031 C 
ATOM     40  C   UNL A   1      40.281  33.102  36.417  1.00  0.00     0.031 A 
BRANCH  27  41
ATOM     41  C   UNL A   1      37.041  33.057  31.124  1.00  0.00    -0.014 A 
ATOM     42  C   UNL A   1      37.269  33.875  30.000  1.00  0.00     0.010 A 
ATOM     43  C   UNL A   1      35.722  32.755  31.501  1.00  0.00     0.010 A 
ATOM     44  C   UNL A   1      36.193  34.400  29.282  1.00  0.00     0.020 A 
ATOM     45  C   UNL A   1      34.645  33.261  30.773  1.00  0.00     0.020 A 
ATOM     46  C   UNL A   1      34.887  34.089  29.674  1.00  0.00     0.054 A 
BRANCH  46  47
ATOM     47  S   UNL A   1      33.508  34.762  28.710  1.00  0.00     0.124 S 
ATOM     48  O   UNL A   1      32.483  34.942  29.734  1.00  0.00    -0.237 OA
ATOM     49  O   UNL A   1      34.073  35.993  28.163  1.00  0.00    -0.237 OA
ATOM     50  O   UNL A   1      33.229  33.717  27.728  1.00  0.00    -0.744 OA
ENDBRANCH  46  47
ENDBRANCH  27  41
BRANCH  28  51
ATOM     51  C   UNL A   1      44.546  28.792  36.254  1.00  0.00    -0.014 A 
ATOM     52  C   UNL A   1      44.332  27.794  37.220  1.00  0.00     0.010 A 
ATOM     53  C   UNL A   1      45.868  29.206  35.991  1.00  0.00     0.010 A 
ATOM     54  C   UNL A   1      45.406  27.266  37.947  1.00  0.00     0.020 A 
ATOM     55  C   UNL A   1      46.947  28.664  36.699  1.00  0.00     0.020 A 
ATOM     56  C   UNL A   1      46.706  27.713  37.691  1.00  0.00     0.054 A 
BRANCH  56  57
ATOM     57  S   UNL A   1      48.076  27.052  38.681  1.00  0.00     0.124 S 
ATOM     58  O   UNL A   1      48.749  28.272  39.118  1.00  0.00    -0.237 OA
ATOM     59  O   UNL A   1      47.385  26.303  39.726  1.00  0.00    -0.237 OA
ATOM     60  O   UNL A   1      48.825  26.237  37.727  1.00  0.00    -0.744 OA
ENDBRANCH  56  57
ENDBRANCH  28  51
BRANCH  40  61
ATOM     61  C   UNL A   1      40.068  33.945  37.637  1.00  0.00    -0.014 A 
ATOM     62  C   UNL A   1      39.123  33.578  38.611  1.00  0.00     0.010 A 
ATOM     63  C   UNL A   1      40.830  35.113  37.813  1.00  0.00     0.010 A 
ATOM     64  C   UNL A   1      38.911  34.393  39.723  1.00  0.00     0.020 A 
ATOM     65  C   UNL A   1      40.646  35.910  38.941  1.00  0.00     0.020 A 
ATOM     66  C   UNL A   1      39.675  35.554  39.879  1.00  0.00     0.054 A 
BRANCH  66  67
ATOM     67  S   UNL A   1      39.405  36.574  41.350  1.00  0.00     0.124 S 
ATOM     68  O   UNL A   1      38.849  37.795  40.772  1.00  0.00    -0.237 OA
ATOM     69  O   UNL A   1      38.473  35.766  42.133  1.00  0.00    -0.237 OA
ATOM     70  O   UNL A   1      40.741  36.708  41.927  1.00  0.00    -0.744 OA
ENDBRANCH  66  67
ENDBRANCH  40  61
ENDBRANCH  14  15
ENDBRANCH   7   9
ENDBRANCH   6   7
ENDBRANCH   5   6
ENDBRANCH   4   5
ENDBRANCH   3   4
ENDBRANCH   2   3
ENDBRANCH   1   2
BRANCH   1  71
ATOM     71  O   UNL A   1      38.372  21.628  25.252  1.00  0.00    -0.376 OA
BRANCH  71  72
ATOM     72  C   UNL A   1      37.067  21.846  24.737  1.00  0.00     0.202 C 
BRANCH  72  73
ATOM     73  C   UNL A   1      36.701  23.137  23.988  1.00  0.00     0.261 C 
BRANCH  73  74
ATOM     74  O   UNL A   1      35.488  23.779  24.375  1.00  0.00    -0.461 OA
BRANCH  74  75
ATOM     75  C   UNL A   1      34.615  24.029  23.363  1.00  0.00     0.335 C 
ATOM     76  O   UNL A   1      34.385  23.251  22.441  1.00  0.00    -0.249 OA
BRANCH  75  77
ATOM     77  C   UNL A   1      33.893  25.375  23.540  1.00  0.00     0.228 C 
ATOM     78  C   UNL A   1      33.511  26.146  22.291  1.00  0.00     0.047 C 
ATOM     79  O   UNL A   1      32.670  25.177  24.250  1.00  0.00    -0.361 OA
ATOM     80  C   UNL A   1      32.163  25.568  21.963  1.00  0.00     0.037 C 
ATOM     81  C   UNL A   1      31.581  25.136  23.299  1.00  0.00     0.138 C 
BRANCH  81  82
ATOM     82  C   UNL A   1      30.860  23.762  23.362  1.00  0.00     0.145 C 
BRANCH  82  83
ATOM     83  N   UNL A   1      31.058  23.033  24.620  1.00  0.00    -0.382 N 
ATOM     84  H   UNL A   1      30.485  23.306  25.373  1.00  0.00     0.160 HD
BRANCH  83  85
ATOM     85  C   UNL A   1      31.951  22.010  24.876  1.00  0.00     0.046 A 
ATOM     86  C   UNL A   1      31.968  20.971  23.919  1.00  0.00     0.026 A 
ATOM     87  C   UNL A   1      32.889  21.937  25.916  1.00  0.00     0.079 A 
ATOM     88  C   UNL A   1      32.940  19.970  23.908  1.00  0.00     0.002 A 
ATOM     89  C   UNL A   1      33.897  20.941  25.873  1.00  0.00     0.015 A 
ATOM     90  C   UNL A   1      33.933  19.977  24.871  1.00  0.00     0.001 A 
BRANCH  87  91
ATOM     91  C   UNL A   1      32.847  22.805  27.159  1.00  0.00     0.418 C 
ATOM     92  F   UNL A   1      33.578  23.948  26.997  1.00  0.00    -0.166 F 
ATOM     93  F   UNL A   1      31.587  23.215  27.464  1.00  0.00    -0.166 F 
ATOM     94  F   UNL A   1      33.360  22.196  28.258  1.00  0.00    -0.166 F 
ENDBRANCH  87  91
ENDBRANCH  83  85
ENDBRANCH  82  83
ENDBRANCH  81  82
ENDBRANCH  75  77
ENDBRANCH  74  75
ENDBRANCH  73  74
ENDBRANCH  72  73
ENDBRANCH  71  72
ENDBRANCH   1  71
TORSDOF 24
ENDMDL
MODEL 2
REMARK VINA RESULT:      -9.5      1.852      8.448
REMARK SMILES O=C(OCCOCCOCCOC(=O)[C@H]1CC[C@@H](CNc2ccccc2C(F)(F)F)O1)c1ccc(-c2c3nc(c(-c4ccc(S(=O)(=O)[O-])cc4)c4ccc([nH]4)c(-c4ccc(S(=O)(=O)[O-])cc4)c4nc(c(-c5ccc(S(=O)(=O)[O-])cc5)c5ccc2[nH]5)C=C4)C=C3)cc1
REMARK SMILES IDX 8 1 7 2 6 3 5 4 4 5 3 6 2 7 1 8 32 9 33 10 91 11 34 12 90 13
REMARK SMILES IDX 35 14 36 15 37 16 84 17 38 18 89 19 83 20 85 21 39 22 88 23
REMARK SMILES IDX 82 24 81 25 40 27 70 28 51 29 69 30 52 31 55 32 68 33 86 34
REMARK SMILES IDX 53 35 54 36 67 38 87 39 56 40 41 41 42 42 50 43 43 44 49 45
REMARK SMILES IDX 44 46 45 47 46 48 47 49 48 50 71 51 72 52 80 53 73 54 79 55
REMARK SMILES IDX 74 56 75 57 76 58 77 59 78 60 57 61 58 62 66 63 59 64 65 65
REMARK SMILES IDX 60 66 61 67 62 68 63 69 64 70 9 71 10 72 11 73 12 74 13 75
REMARK SMILES IDX 14 76 15 77 16 78 31 79 17 80 18 81 19 82 20 83 21 85 22 86
REMARK SMILES IDX 26 87 23 88 25 89 24 90 27 91 28 92 29 93 30 94
REMARK H PARENT 85 26 55 37 20 84
REMARK Flexibility Score: inf
ROOT
ATOM      1  C   UNL A   1      38.997  22.368  26.184  1.00  0.00     0.188 C 
ENDROOT
BRANCH   1   2
ATOM      2  C   UNL A   1      40.338  21.977  26.799  1.00  0.00     0.188 C 
BRANCH   2   3
ATOM      3  O   UNL A   1      41.321  21.503  25.877  1.00  0.00    -0.376 OA
BRANCH   3   4
ATOM      4  C   UNL A   1      42.630  22.015  26.145  1.00  0.00     0.202 C 
BRANCH   4   5
ATOM      5  C   UNL A   1      43.132  23.161  25.238  1.00  0.00     0.261 C 
BRANCH   5   6
ATOM      6  O   UNL A   1      43.393  24.405  25.908  1.00  0.00    -0.460 OA
BRANCH   6   7
ATOM      7  C   UNL A   1      42.635  25.524  26.015  1.00  0.00     0.338 C 
ATOM      8  O   UNL A   1      42.189  26.010  24.975  1.00  0.00    -0.246 OA
BRANCH   7   9
ATOM      9  C   UNL A   1      42.343  26.241  27.301  1.00  0.00     0.060 A 
ATOM     10  C   UNL A   1      41.303  25.943  28.180  1.00  0.00     0.016 A 
ATOM     11  C   UNL A   1      43.203  27.302  27.653  1.00  0.00     0.016 A 
ATOM     12  C   UNL A   1      41.074  26.698  29.324  1.00  0.00     0.010 A 
ATOM     13  C   UNL A   1      43.005  28.043  28.826  1.00  0.00     0.010 A 
ATOM     14  C   UNL A   1      41.916  27.754  29.654  1.00  0.00    -0.014 A 
BRANCH  14  15
ATOM     15  C   UNL A   1      41.557  28.596  30.812  1.00  0.00     0.031 A 
ATOM     16  C   UNL A   1      42.324  28.433  32.077  1.00  0.00     0.074 A 
ATOM     17  C   UNL A   1      40.684  29.612  30.682  1.00  0.00     0.049 A 
ATOM     18  N   UNL A   1      42.249  29.154  33.158  1.00  0.00    -0.248 NA
ATOM     19  C   UNL A   1      43.372  27.399  32.096  1.00  0.00     0.031 C 
ATOM     20  C   UNL A   1      40.099  30.025  29.417  1.00  0.00     0.029 A 
ATOM     21  N   UNL A   1      40.145  30.487  31.585  1.00  0.00    -0.354 N 
ATOM     22  C   UNL A   1      43.291  28.720  33.958  1.00  0.00     0.074 A 
ATOM     23  C   UNL A   1      43.935  27.620  33.274  1.00  0.00     0.031 C 
ATOM     24  C   UNL A   1      39.188  30.983  29.633  1.00  0.00     0.029 A 
ATOM     25  C   UNL A   1      39.151  31.274  31.050  1.00  0.00     0.049 A 
ATOM     26  H   UNL A   1      40.439  30.547  32.524  1.00  0.00     0.167 HD
ATOM     27  C   UNL A   1      43.690  29.235  35.140  1.00  0.00     0.031 A 
ATOM     28  C   UNL A   1      38.301  32.142  31.626  1.00  0.00     0.031 A 
ATOM     29  C   UNL A   1      42.991  30.289  35.822  1.00  0.00     0.049 A 
ATOM     30  C   UNL A   1      38.581  32.498  33.049  1.00  0.00     0.074 A 
ATOM     31  C   UNL A   1      43.247  30.826  37.069  1.00  0.00     0.029 A 
ATOM     32  N   UNL A   1      41.879  30.955  35.318  1.00  0.00    -0.354 N 
ATOM     33  N   UNL A   1      39.556  32.060  33.810  1.00  0.00    -0.248 NA
ATOM     34  C   UNL A   1      37.721  33.507  33.669  1.00  0.00     0.031 C 
ATOM     35  C   UNL A   1      42.248  31.764  37.349  1.00  0.00     0.029 A 
ATOM     36  C   UNL A   1      41.408  31.863  36.250  1.00  0.00     0.049 A 
ATOM     37  H   UNL A   1      41.484  30.802  34.429  1.00  0.00     0.167 HD
ATOM     38  C   UNL A   1      39.468  32.786  34.982  1.00  0.00     0.074 A 
ATOM     39  C   UNL A   1      38.341  33.690  34.827  1.00  0.00     0.031 C 
ATOM     40  C   UNL A   1      40.264  32.726  36.077  1.00  0.00     0.031 A 
BRANCH  27  41
ATOM     41  C   UNL A   1      44.900  28.612  35.766  1.00  0.00    -0.014 A 
ATOM     42  C   UNL A   1      46.197  29.050  35.434  1.00  0.00     0.010 A 
ATOM     43  C   UNL A   1      44.741  27.558  36.680  1.00  0.00     0.010 A 
ATOM     44  C   UNL A   1      47.315  28.425  35.990  1.00  0.00     0.020 A 
ATOM     45  C   UNL A   1      45.856  26.946  37.254  1.00  0.00     0.020 A 
ATOM     46  C   UNL A   1      47.137  27.377  36.898  1.00  0.00     0.054 A 
BRANCH  46  47
ATOM     47  S   UNL A   1      48.603  26.600  37.626  1.00  0.00     0.124 S 
ATOM     48  O   UNL A   1      48.754  25.406  36.799  1.00  0.00    -0.237 OA
ATOM     49  O   UNL A   1      49.628  27.624  37.445  1.00  0.00    -0.237 OA
ATOM     50  O   UNL A   1      48.212  26.351  39.012  1.00  0.00    -0.744 OA
ENDBRANCH  46  47
ENDBRANCH  27  41
BRANCH  28  51
ATOM     51  C   UNL A   1      37.153  32.717  30.869  1.00  0.00    -0.014 A 
ATOM     52  C   UNL A   1      37.233  33.969  30.237  1.00  0.00     0.010 A 
ATOM     53  C   UNL A   1      35.938  32.006  30.810  1.00  0.00     0.010 A 
ATOM     54  C   UNL A   1      36.110  34.523  29.611  1.00  0.00     0.020 A 
ATOM     55  C   UNL A   1      34.818  32.545  30.166  1.00  0.00     0.020 A 
ATOM     56  C   UNL A   1      34.905  33.813  29.591  1.00  0.00     0.054 A 
BRANCH  56  57
ATOM     57  S   UNL A   1      33.447  34.573  28.820  1.00  0.00     0.124 S 
ATOM     58  O   UNL A   1      32.928  33.475  28.010  1.00  0.00    -0.237 OA
ATOM     59  O   UNL A   1      32.634  34.947  29.973  1.00  0.00    -0.237 OA
ATOM     60  O   UNL A   1      34.005  35.692  28.066  1.00  0.00    -0.744 OA
ENDBRANCH  56  57
ENDBRANCH  28  51
BRANCH  40  61
ATOM     61  C   UNL A   1      39.932  33.680  37.184  1.00  0.00    -0.014 A 
ATOM     62  C   UNL A   1      40.522  34.955  37.237  1.00  0.00     0.010 A 
ATOM     63  C   UNL A   1      39.013  33.297  38.176  1.00  0.00     0.010 A 
ATOM     64  C   UNL A   1      40.231  35.817  38.294  1.00  0.00     0.020 A 
ATOM     65  C   UNL A   1      38.692  34.171  39.213  1.00  0.00     0.020 A 
ATOM     66  C   UNL A   1      39.317  35.418  39.275  1.00  0.00     0.054 A 
BRANCH  66  67
ATOM     67  S   UNL A   1      38.930  36.571  40.615  1.00  0.00     0.124 S 
ATOM     68  O   UNL A   1      37.876  35.858  41.332  1.00  0.00    -0.237 OA
ATOM     69  O   UNL A   1      40.205  36.683  41.318  1.00  0.00    -0.237 OA
ATOM     70  O   UNL A   1      38.501  37.781  39.917  1.00  0.00    -0.744 OA
ENDBRANCH  66  67
ENDBRANCH  40  61
ENDBRANCH  14  15
ENDBRANCH   7   9
ENDBRANCH   6   7
ENDBRANCH   5   6
ENDBRANCH   4   5
ENDBRANCH   3   4
ENDBRANCH   2   3
ENDBRANCH   1   2
BRANCH   1  71
ATOM     71  O   UNL A   1      38.379  21.465  25.284  1.00  0.00    -0.376 OA
BRANCH  71  72
ATOM     72  C   UNL A   1      37.006  21.623  24.960  1.00  0.00     0.202 C 
BRANCH  72  73
ATOM     73  C   UNL A   1      36.345  23.011  24.909  1.00  0.00     0.261 C 
BRANCH  73  74
ATOM     74  O   UNL A   1      34.977  23.081  25.303  1.00  0.00    -0.461 OA
BRANCH  74  75
ATOM     75  C   UNL A   1      34.168  23.790  24.469  1.00  0.00     0.335 C 
ATOM     76  O   UNL A   1      34.210  25.011  24.340  1.00  0.00    -0.249 OA
BRANCH  75  77
ATOM     77  C   UNL A   1      33.237  22.879  23.652  1.00  0.00     0.228 C 
ATOM     78  C   UNL A   1      32.926  21.502  24.205  1.00  0.00     0.047 C 
ATOM     79  O   UNL A   1      31.969  23.514  23.485  1.00  0.00    -0.361 OA
ATOM     80  C   UNL A   1      31.739  21.776  25.086  1.00  0.00     0.037 C 
ATOM     81  C   UNL A   1      31.044  22.972  24.455  1.00  0.00     0.138 C 
BRANCH  81  82
ATOM     82  C   UNL A   1      30.534  24.092  25.402  1.00  0.00     0.145 C 
BRANCH  82  83
ATOM     83  N   UNL A   1      30.310  25.383  24.742  1.00  0.00    -0.382 N 
ATOM     84  H   UNL A   1      29.798  25.357  23.902  1.00  0.00     0.160 HD
BRANCH  83  85
ATOM     85  C   UNL A   1      30.730  26.632  25.158  1.00  0.00     0.046 A 
ATOM     86  C   UNL A   1      31.323  26.672  26.439  1.00  0.00     0.026 A 
ATOM     87  C   UNL A   1      30.713  27.826  24.423  1.00  0.00     0.079 A 
ATOM     88  C   UNL A   1      31.984  27.799  26.931  1.00  0.00     0.002 A 
ATOM     89  C   UNL A   1      31.421  28.952  24.912  1.00  0.00     0.015 A 
ATOM     90  C   UNL A   1      32.064  28.936  26.146  1.00  0.00     0.001 A 
BRANCH  87  91
ATOM     91  C   UNL A   1      29.898  28.035  23.162  1.00  0.00     0.418 C 
ATOM     92  F   UNL A   1      29.873  29.351  22.793  1.00  0.00    -0.166 F 
ATOM     93  F   UNL A   1      30.409  27.364  22.095  1.00  0.00    -0.166 F 
ATOM     94  F   UNL A   1      28.598  27.668  23.294  1.00  0.00    -0.166 F 
ENDBRANCH  87  91
ENDBRANCH  83  85
ENDBRANCH  82  83
ENDBRANCH  81  82
ENDBRANCH  75  77
ENDBRANCH  74  75
ENDBRANCH  73  74
ENDBRANCH  72  73
ENDBRANCH  71  72
ENDBRANCH   1  71
TORSDOF 24
ENDMDL
MODEL 3
REMARK VINA RESULT:      -9.4      6.035     11.678
REMARK SMILES O=C(OCCOCCOCCOC(=O)[C@H]1CC[C@@H](CNc2ccccc2C(F)(F)F)O1)c1ccc(-c2c3nc(c(-c4ccc(S(=O)(=O)[O-])cc4)c4ccc([nH]4)c(-c4ccc(S(=O)(=O)[O-])cc4)c4nc(c(-c5ccc(S(=O)(=O)[O-])cc5)c5ccc2[nH]5)C=C4)C=C3)cc1
REMARK SMILES IDX 8 1 7 2 6 3 5 4 4 5 3 6 2 7 1 8 32 9 33 10 91 11 34 12 90 13
REMARK SMILES IDX 35 14 36 15 37 16 84 17 38 18 89 19 83 20 85 21 39 22 88 23
REMARK SMILES IDX 82 24 81 25 40 27 70 28 51 29 69 30 52 31 55 32 68 33 86 34
REMARK SMILES IDX 53 35 54 36 67 38 87 39 56 40 41 41 42 42 50 43 43 44 49 45
REMARK SMILES IDX 44 46 45 47 46 48 47 49 48 50 71 51 72 52 80 53 73 54 79 55
REMARK SMILES IDX 74 56 75 57 76 58 77 59 78 60 57 61 58 62 66 63 59 64 65 65
REMARK SMILES IDX 60 66 61 67 62 68 63 69 64 70 9 71 10 72 11 73 12 74 13 75
REMARK SMILES IDX 14 76 15 77 16 78 31 79 17 80 18 81 19 82 20 83 21 85 22 86
REMARK SMILES IDX 26 87 23 88 25 89 24 90 27 91 28 92 29 93 30 94
REMARK H PARENT 85 26 55 37 20 84
REMARK Flexibility Score: inf
ROOT
ATOM      1  C   UNL A   1      35.644  32.360  28.026  1.00  0.00     0.188 C 
ENDROOT
BRANCH   1   2
ATOM      2  C   UNL A   1      35.712  33.523  29.011  1.00  0.00     0.188 C 
BRANCH   2   3
ATOM      3  O   UNL A   1      34.575  33.674  29.863  1.00  0.00    -0.376 OA
BRANCH   3   4
ATOM      4  C   UNL A   1      34.832  33.276  31.213  1.00  0.00     0.202 C 
BRANCH   4   5
ATOM      5  C   UNL A   1      36.309  33.047  31.605  1.00  0.00     0.261 C 
BRANCH   5   6
ATOM      6  O   UNL A   1      36.669  31.681  31.875  1.00  0.00    -0.460 OA
BRANCH   6   7
ATOM      7  C   UNL A   1      36.946  30.660  31.028  1.00  0.00     0.338 C 
ATOM      8  O   UNL A   1      36.048  29.848  30.802  1.00  0.00    -0.246 OA
BRANCH   7   9
ATOM      9  C   UNL A   1      38.282  30.418  30.387  1.00  0.00     0.060 A 
ATOM     10  C   UNL A   1      38.513  30.279  29.019  1.00  0.00     0.016 A 
ATOM     11  C   UNL A   1      39.399  30.336  31.244  1.00  0.00     0.016 A 
ATOM     12  C   UNL A   1      39.779  30.002  28.517  1.00  0.00     0.010 A 
ATOM     13  C   UNL A   1      40.686  30.098  30.742  1.00  0.00     0.010 A 
ATOM     14  C   UNL A   1      40.872  29.904  29.370  1.00  0.00    -0.014 A 
BRANCH  14  15
ATOM     15  C   UNL A   1      42.168  29.489  28.798  1.00  0.00     0.031 A 
ATOM     16  C   UNL A   1      43.237  30.513  28.639  1.00  0.00     0.074 A 
ATOM     17  C   UNL A   1      42.447  28.189  28.594  1.00  0.00     0.049 A 
ATOM     18  N   UNL A   1      44.474  30.330  28.276  1.00  0.00    -0.248 NA
ATOM     19  C   UNL A   1      42.906  31.893  29.028  1.00  0.00     0.031 C 
ATOM     20  C   UNL A   1      41.571  27.097  28.986  1.00  0.00     0.029 A 
ATOM     21  N   UNL A   1      43.522  27.552  28.035  1.00  0.00    -0.354 N 
ATOM     22  C   UNL A   1      45.094  31.551  28.469  1.00  0.00     0.074 A 
ATOM     23  C   UNL A   1      44.082  32.489  28.905  1.00  0.00     0.031 C 
ATOM     24  C   UNL A   1      42.073  25.936  28.545  1.00  0.00     0.029 A 
ATOM     25  C   UNL A   1      43.324  26.200  27.869  1.00  0.00     0.049 A 
ATOM     26  H   UNL A   1      44.352  28.015  27.777  1.00  0.00     0.167 HD
ATOM     27  C   UNL A   1      46.406  31.838  28.334  1.00  0.00     0.031 A 
ATOM     28  C   UNL A   1      44.065  25.267  27.248  1.00  0.00     0.031 A 
ATOM     29  C   UNL A   1      47.375  30.899  27.840  1.00  0.00     0.049 A 
ATOM     30  C   UNL A   1      45.440  25.679  26.833  1.00  0.00     0.074 A 
ATOM     31  C   UNL A   1      48.714  31.106  27.569  1.00  0.00     0.029 A 
ATOM     32  N   UNL A   1      47.101  29.573  27.522  1.00  0.00    -0.354 N 
ATOM     33  N   UNL A   1      46.011  26.849  26.995  1.00  0.00    -0.248 NA
ATOM     34  C   UNL A   1      46.295  24.653  26.233  1.00  0.00     0.031 C 
ATOM     35  C   UNL A   1      49.231  29.928  27.020  1.00  0.00     0.029 A 
ATOM     36  C   UNL A   1      48.234  28.964  27.012  1.00  0.00     0.049 A 
ATOM     37  H   UNL A   1      46.229  29.133  27.642  1.00  0.00     0.167 HD
ATOM     38  C   UNL A   1      47.317  26.686  26.576  1.00  0.00     0.074 A 
ATOM     39  C   UNL A   1      47.448  25.303  26.151  1.00  0.00     0.031 C 
ATOM     40  C   UNL A   1      48.323  27.594  26.568  1.00  0.00     0.031 A 
BRANCH  27  41
ATOM     41  C   UNL A   1      46.824  33.235  28.676  1.00  0.00    -0.014 A 
ATOM     42  C   UNL A   1      46.840  34.248  27.697  1.00  0.00     0.010 A 
ATOM     43  C   UNL A   1      47.229  33.535  29.986  1.00  0.00     0.010 A 
ATOM     44  C   UNL A   1      47.279  35.533  28.023  1.00  0.00     0.020 A 
ATOM     45  C   UNL A   1      47.648  34.823  30.320  1.00  0.00     0.020 A 
ATOM     46  C   UNL A   1      47.679  35.813  29.333  1.00  0.00     0.054 A 
BRANCH  46  47
ATOM     47  S   UNL A   1      48.219  37.495  29.736  1.00  0.00     0.124 S 
ATOM     48  O   UNL A   1      49.641  37.442  29.410  1.00  0.00    -0.237 OA
ATOM     49  O   UNL A   1      47.400  38.313  28.845  1.00  0.00    -0.237 OA
ATOM     50  O   UNL A   1      47.911  37.627  31.158  1.00  0.00    -0.744 OA
ENDBRANCH  46  47
ENDBRANCH  27  41
BRANCH  28  51
ATOM     51  C   UNL A   1      43.535  23.895  27.005  1.00  0.00    -0.014 A 
ATOM     52  C   UNL A   1      43.091  23.484  25.737  1.00  0.00     0.010 A 
ATOM     53  C   UNL A   1      43.441  22.989  28.081  1.00  0.00     0.010 A 
ATOM     54  C   UNL A   1      42.514  22.221  25.560  1.00  0.00     0.020 A 
ATOM     55  C   UNL A   1      42.886  21.716  27.904  1.00  0.00     0.020 A 
ATOM     56  C   UNL A   1      42.404  21.349  26.648  1.00  0.00     0.054 A 
BRANCH  56  57
ATOM     57  S   UNL A   1      41.605  19.736  26.407  1.00  0.00     0.124 S 
ATOM     58  O   UNL A   1      42.282  19.240  25.212  1.00  0.00    -0.237 OA
ATOM     59  O   UNL A   1      41.919  19.035  27.648  1.00  0.00    -0.237 OA
ATOM     60  O   UNL A   1      40.196  20.078  26.227  1.00  0.00    -0.744 OA
ENDBRANCH  56  57
ENDBRANCH  28  51
BRANCH  40  61
ATOM     61  C   UNL A   1      49.653  27.097  26.087  1.00  0.00    -0.014 A 
ATOM     62  C   UNL A   1      50.011  27.194  24.731  1.00  0.00     0.010 A 
ATOM     63  C   UNL A   1      50.555  26.535  27.006  1.00  0.00     0.010 A 
ATOM     64  C   UNL A   1      51.236  26.693  24.293  1.00  0.00     0.020 A 
ATOM     65  C   UNL A   1      51.796  26.067  26.578  1.00  0.00     0.020 A 
ATOM     66  C   UNL A   1      52.120  26.133  25.221  1.00  0.00     0.054 A 
BRANCH  66  67
ATOM     67  S   UNL A   1      53.719  25.523  24.631  1.00  0.00     0.124 S 
ATOM     68  O   UNL A   1      53.516  24.077  24.648  1.00  0.00    -0.237 OA
ATOM     69  O   UNL A   1      53.824  26.129  23.307  1.00  0.00    -0.237 OA
ATOM     70  O   UNL A   1      54.668  26.032  25.620  1.00  0.00    -0.744 OA
ENDBRANCH  66  67
ENDBRANCH  40  61
ENDBRANCH  14  15
ENDBRANCH   7   9
ENDBRANCH   6   7
ENDBRANCH   5   6
ENDBRANCH   4   5
ENDBRANCH   3   4
ENDBRANCH   2   3
ENDBRANCH   1   2
BRANCH   1  71
ATOM     71  O   UNL A   1      34.481  31.550  28.019  1.00  0.00    -0.376 OA
BRANCH  71  72
ATOM     72  C   UNL A   1      34.561  30.209  27.560  1.00  0.00     0.202 C 
BRANCH  72  73
ATOM     73  C   UNL A   1      33.303  29.412  27.177  1.00  0.00     0.261 C 
BRANCH  73  74
ATOM     74  O   UNL A   1      33.250  28.903  25.847  1.00  0.00    -0.461 OA
BRANCH  74  75
ATOM     75  C   UNL A   1      32.006  28.586  25.396  1.00  0.00     0.335 C 
ATOM     76  O   UNL A   1      31.412  29.206  24.517  1.00  0.00    -0.249 OA
BRANCH  75  77
ATOM     77  C   UNL A   1      31.453  27.317  26.065  1.00  0.00     0.228 C 
ATOM     78  C   UNL A   1      30.420  26.507  25.307  1.00  0.00     0.047 C 
ATOM     79  O   UNL A   1      32.521  26.409  26.334  1.00  0.00    -0.361 OA
ATOM     80  C   UNL A   1      31.279  25.589  24.483  1.00  0.00     0.037 C 
ATOM     81  C   UNL A   1      32.552  25.404  25.296  1.00  0.00     0.138 C 
BRANCH  81  82
ATOM     82  C   UNL A   1      33.905  25.451  24.536  1.00  0.00     0.145 C 
BRANCH  82  83
ATOM     83  N   UNL A   1      34.133  24.312  23.639  1.00  0.00    -0.382 N 
ATOM     84  H   UNL A   1      34.219  24.526  22.682  1.00  0.00     0.160 HD
BRANCH  83  85
ATOM     85  C   UNL A   1      34.242  22.976  23.975  1.00  0.00     0.046 A 
ATOM     86  C   UNL A   1      35.311  22.658  24.842  1.00  0.00     0.026 A 
ATOM     87  C   UNL A   1      33.369  21.935  23.627  1.00  0.00     0.079 A 
ATOM     88  C   UNL A   1      35.449  21.406  25.443  1.00  0.00     0.002 A 
ATOM     89  C   UNL A   1      33.493  20.680  24.273  1.00  0.00     0.015 A 
ATOM     90  C   UNL A   1      34.512  20.422  25.184  1.00  0.00     0.001 A 
BRANCH  87  91
ATOM     91  C   UNL A   1      32.339  22.027  22.517  1.00  0.00     0.418 C 
ATOM     92  F   UNL A   1      32.897  22.473  21.352  1.00  0.00    -0.166 F 
ATOM     93  F   UNL A   1      31.786  20.820  22.220  1.00  0.00    -0.166 F 
ATOM     94  F   UNL A   1      31.327  22.888  22.791  1.00  0.00    -0.166 F 
ENDBRANCH  87  91
ENDBRANCH  83  85
ENDBRANCH  82  83
ENDBRANCH  81  82
ENDBRANCH  75  77
ENDBRANCH  74  75
ENDBRANCH  73  74
ENDBRANCH  72  73
ENDBRANCH  71  72
ENDBRANCH   1  71
TORSDOF 24
ENDMDL
