MODEL 1
REMARK VINA RESULT:      -9.9      0.000      0.000
REMARK SMILES CC[C@@](O)(C(=O)OCCOCCOCCOC(=O)c1ccc(-c2c3nc(c(-c4ccc(S(=O)(=O)[O-])cc4)c4ccc([nH]4)c(-c4ccc(S(=O)(=O)[O-])cc4)c4nc(c(-c5ccc(S(=O)(=O)[O-])cc5)c5ccc2[nH]5)C=C4)C=C3)cc1)[C@H]1CCc2ccc(OC)cc21
REMARK SMILES IDX 12 1 11 2 10 3 9 4 8 5 7 6 5 7 6 8 3 9 2 10 1 11 4 12 79 14
REMARK SMILES IDX 80 15 89 16 81 17 82 18 88 19 83 20 85 21 84 22 86 23 87 24
REMARK SMILES IDX 13 25 14 26 15 27 16 28 17 29 18 30 19 31 20 32 78 33 21 34
REMARK SMILES IDX 77 35 22 36 23 37 24 38 71 39 25 40 76 41 70 42 72 43 26 44
REMARK SMILES IDX 75 45 69 46 68 47 27 49 57 50 38 51 56 52 39 53 42 54 55 55
REMARK SMILES IDX 73 56 40 57 41 58 54 60 74 61 43 62 28 63 29 64 37 65 30 66
REMARK SMILES IDX 36 67 31 68 32 69 33 70 34 71 35 72 58 73 59 74 67 75 60 76
REMARK SMILES IDX 66 77 61 78 62 79 63 80 64 81 65 82 44 83 45 84 53 85 46 86
REMARK SMILES IDX 52 87 47 88 48 89 49 90 50 91 51 92
REMARK H PARENT 4 13 72 48 42 59
REMARK Flexibility Score: inf
ROOT
ATOM      1  C   UNL A   1      31.823  29.547  25.370  1.00  0.00     0.188 C 
ENDROOT
BRANCH   1   2
ATOM      2  C   UNL A   1      32.253  28.192  24.797  1.00  0.00     0.188 C 
BRANCH   2   3
ATOM      3  O   UNL A   1      31.466  27.053  25.126  1.00  0.00    -0.376 OA
BRANCH   3   4
ATOM      4  C   UNL A   1      31.893  26.204  26.190  1.00  0.00     0.202 C 
BRANCH   4   5
ATOM      5  C   UNL A   1      31.307  24.791  26.240  1.00  0.00     0.261 C 
BRANCH   5   6
ATOM      6  O   UNL A   1      32.235  23.800  25.753  1.00  0.00    -0.461 OA
BRANCH   6   7
ATOM      7  C   UNL A   1      32.483  22.757  26.591  1.00  0.00     0.338 C 
ATOM      8  O   UNL A   1      32.094  22.722  27.755  1.00  0.00    -0.249 OA
BRANCH   7   9
ATOM      9  C   UNL A   1      33.309  21.611  25.945  1.00  0.00     0.168 C 
BRANCH   9  10
ATOM     10  C   UNL A   1      34.731  22.000  25.475  1.00  0.00     0.044 C 
ATOM     11  C   UNL A   1      35.503  22.890  26.453  1.00  0.00     0.007 C 
ENDBRANCH   9  10
BRANCH   9  12
ATOM     12  O   UNL A   1      33.526  20.763  27.104  1.00  0.00    -0.378 OA
ATOM     13  H   UNL A   1      34.116  20.032  26.864  1.00  0.00     0.212 HD
ENDBRANCH   9  12
BRANCH   9  14
ATOM     14  C   UNL A   1      32.365  20.943  24.858  1.00  0.00     0.063 C 
ATOM     15  C   UNL A   1      32.434  21.545  23.422  1.00  0.00     0.017 C 
ATOM     16  C   UNL A   1      32.583  19.484  24.546  1.00  0.00    -0.035 A 
ATOM     17  C   UNL A   1      32.057  20.433  22.432  1.00  0.00     0.036 C 
ATOM     18  C   UNL A   1      32.514  19.224  23.178  1.00  0.00    -0.044 A 
ATOM     19  C   UNL A   1      32.743  18.445  25.448  1.00  0.00     0.050 A 
ATOM     20  C   UNL A   1      32.759  17.955  22.684  1.00  0.00     0.008 A 
ATOM     21  C   UNL A   1      33.069  17.178  24.975  1.00  0.00     0.119 A 
ATOM     22  C   UNL A   1      33.080  16.940  23.593  1.00  0.00     0.047 A 
BRANCH  21  23
ATOM     23  O   UNL A   1      33.404  16.116  25.772  1.00  0.00    -0.497 OA
ATOM     24  C   UNL A   1      32.600  14.948  25.620  1.00  0.00     0.278 C 
ENDBRANCH  21  23
ENDBRANCH   9  14
ENDBRANCH   7   9
ENDBRANCH   6   7
ENDBRANCH   5   6
ENDBRANCH   4   5
ENDBRANCH   3   4
ENDBRANCH   2   3
ENDBRANCH   1   2
BRANCH   1  25
ATOM     25  O   UNL A   1      32.431  29.922  26.580  1.00  0.00    -0.376 OA
BRANCH  25  26
ATOM     26  C   UNL A   1      33.835  30.041  26.690  1.00  0.00     0.202 C 
BRANCH  26  27
ATOM     27  C   UNL A   1      34.649  29.914  27.992  1.00  0.00     0.261 C 
BRANCH  27  28
ATOM     28  O   UNL A   1      36.074  29.854  27.900  1.00  0.00    -0.460 OA
BRANCH  28  29
ATOM     29  C   UNL A   1      36.743  29.566  29.042  1.00  0.00     0.338 C 
ATOM     30  O   UNL A   1      36.287  29.495  30.166  1.00  0.00    -0.246 OA
BRANCH  29  31
ATOM     31  C   UNL A   1      38.112  29.161  28.663  1.00  0.00     0.060 A 
ATOM     32  C   UNL A   1      38.922  28.572  29.640  1.00  0.00     0.016 A 
ATOM     33  C   UNL A   1      38.599  29.374  27.374  1.00  0.00     0.016 A 
ATOM     34  C   UNL A   1      40.224  28.186  29.331  1.00  0.00     0.010 A 
ATOM     35  C   UNL A   1      39.920  29.022  27.074  1.00  0.00     0.010 A 
ATOM     36  C   UNL A   1      40.744  28.442  28.056  1.00  0.00    -0.014 A 
BRANCH  36  37
ATOM     37  C   UNL A   1      42.200  28.290  27.823  1.00  0.00     0.031 A 
ATOM     38  C   UNL A   1      43.100  29.445  28.167  1.00  0.00     0.074 A 
ATOM     39  C   UNL A   1      42.726  27.135  27.378  1.00  0.00     0.049 A 
ATOM     40  N   UNL A   1      44.382  29.588  27.961  1.00  0.00    -0.248 NA
ATOM     41  C   UNL A   1      42.464  30.589  28.843  1.00  0.00     0.031 C 
ATOM     42  C   UNL A   1      41.978  25.908  27.109  1.00  0.00     0.029 A 
ATOM     43  N   UNL A   1      44.026  26.809  27.077  1.00  0.00    -0.354 N 
ATOM     44  C   UNL A   1      44.704  30.845  28.458  1.00  0.00     0.074 A 
ATOM     45  C   UNL A   1      43.483  31.425  28.973  1.00  0.00     0.031 C 
ATOM     46  C   UNL A   1      42.831  24.963  26.677  1.00  0.00     0.029 A 
ATOM     47  C   UNL A   1      44.176  25.533  26.587  1.00  0.00     0.049 A 
ATOM     48  H   UNL A   1      44.779  27.430  27.200  1.00  0.00     0.167 HD
ATOM     49  C   UNL A   1      45.908  31.464  28.479  1.00  0.00     0.031 A 
ATOM     50  C   UNL A   1      45.264  24.912  26.088  1.00  0.00     0.031 A 
ATOM     51  C   UNL A   1      47.117  30.890  27.957  1.00  0.00     0.049 A 
ATOM     52  C   UNL A   1      46.574  25.656  26.027  1.00  0.00     0.074 A 
ATOM     53  C   UNL A   1      48.380  31.452  27.891  1.00  0.00     0.029 A 
ATOM     54  N   UNL A   1      47.214  29.619  27.412  1.00  0.00    -0.354 N 
ATOM     55  N   UNL A   1      46.854  26.868  26.446  1.00  0.00    -0.248 NA
ATOM     56  C   UNL A   1      47.711  24.953  25.415  1.00  0.00     0.031 C 
ATOM     57  C   UNL A   1      49.231  30.535  27.265  1.00  0.00     0.029 A 
ATOM     58  C   UNL A   1      48.511  29.383  26.992  1.00  0.00     0.049 A 
ATOM     59  H   UNL A   1      46.470  28.979  27.335  1.00  0.00     0.167 HD
ATOM     60  C   UNL A   1      48.202  27.065  26.164  1.00  0.00     0.074 A 
ATOM     61  C   UNL A   1      48.685  25.843  25.554  1.00  0.00     0.031 C 
ATOM     62  C   UNL A   1      48.972  28.159  26.387  1.00  0.00     0.031 A 
BRANCH  49  63
ATOM     63  C   UNL A   1      45.950  32.863  29.031  1.00  0.00    -0.014 A 
ATOM     64  C   UNL A   1      45.587  33.971  28.247  1.00  0.00     0.010 A 
ATOM     65  C   UNL A   1      46.359  33.065  30.362  1.00  0.00     0.010 A 
ATOM     66  C   UNL A   1      45.671  35.264  28.773  1.00  0.00     0.020 A 
ATOM     67  C   UNL A   1      46.422  34.353  30.898  1.00  0.00     0.020 A 
ATOM     68  C   UNL A   1      46.095  35.446  30.094  1.00  0.00     0.054 A 
BRANCH  68  69
ATOM     69  S   UNL A   1      46.193  37.133  30.754  1.00  0.00     0.124 S 
ATOM     70  O   UNL A   1      47.541  37.531  30.359  1.00  0.00    -0.237 OA
ATOM     71  O   UNL A   1      45.107  37.815  30.055  1.00  0.00    -0.237 OA
ATOM     72  O   UNL A   1      45.992  36.955  32.190  1.00  0.00    -0.744 OA
ENDBRANCH  68  69
ENDBRANCH  49  63
BRANCH  50  73
ATOM     73  C   UNL A   1      45.149  23.529  25.543  1.00  0.00    -0.014 A 
ATOM     74  C   UNL A   1      45.495  22.412  26.323  1.00  0.00     0.010 A 
ATOM     75  C   UNL A   1      44.703  23.328  24.223  1.00  0.00     0.010 A 
ATOM     76  C   UNL A   1      45.409  21.122  25.790  1.00  0.00     0.020 A 
ATOM     77  C   UNL A   1      44.589  22.039  23.696  1.00  0.00     0.020 A 
ATOM     78  C   UNL A   1      44.956  20.943  24.480  1.00  0.00     0.054 A 
BRANCH  78  79
ATOM     79  S   UNL A   1      44.805  19.259  23.820  1.00  0.00     0.124 S 
ATOM     80  O   UNL A   1      46.092  18.674  24.184  1.00  0.00    -0.237 OA
ATOM     81  O   UNL A   1      43.646  18.737  24.541  1.00  0.00    -0.237 OA
ATOM     82  O   UNL A   1      44.595  19.470  22.390  1.00  0.00    -0.744 OA
ENDBRANCH  78  79
ENDBRANCH  50  73
BRANCH  62  83
ATOM     83  C   UNL A   1      50.426  28.078  26.003  1.00  0.00    -0.014 A 
ATOM     84  C   UNL A   1      50.861  28.450  24.720  1.00  0.00     0.010 A 
ATOM     85  C   UNL A   1      51.376  27.686  26.964  1.00  0.00     0.010 A 
ATOM     86  C   UNL A   1      52.221  28.407  24.396  1.00  0.00     0.020 A 
ATOM     87  C   UNL A   1      52.737  27.666  26.651  1.00  0.00     0.020 A 
ATOM     88  C   UNL A   1      53.150  28.014  25.364  1.00  0.00     0.054 A 
BRANCH  88  89
ATOM     89  S   UNL A   1      54.912  28.015  24.936  1.00  0.00     0.124 S 
ATOM     90  O   UNL A   1      54.933  27.186  23.734  1.00  0.00    -0.237 OA
ATOM     91  O   UNL A   1      55.194  29.433  24.727  1.00  0.00    -0.237 OA
ATOM     92  O   UNL A   1      55.554  27.426  26.110  1.00  0.00    -0.744 OA
ENDBRANCH  88  89
ENDBRANCH  62  83
ENDBRANCH  36  37
ENDBRANCH  29  31
ENDBRANCH  28  29
ENDBRANCH  27  28
ENDBRANCH  26  27
ENDBRANCH  25  26
ENDBRANCH   1  25
TORSDOF 24
ENDMDL
MODEL 2
REMARK VINA RESULT:      -9.6      2.893      4.046
REMARK SMILES CC[C@@](O)(C(=O)OCCOCCOCCOC(=O)c1ccc(-c2c3nc(c(-c4ccc(S(=O)(=O)[O-])cc4)c4ccc([nH]4)c(-c4ccc(S(=O)(=O)[O-])cc4)c4nc(c(-c5ccc(S(=O)(=O)[O-])cc5)c5ccc2[nH]5)C=C4)C=C3)cc1)[C@H]1CCc2ccc(OC)cc21
REMARK SMILES IDX 12 1 11 2 10 3 9 4 8 5 7 6 5 7 6 8 3 9 2 10 1 11 4 12 79 14
REMARK SMILES IDX 80 15 89 16 81 17 82 18 88 19 83 20 85 21 84 22 86 23 87 24
REMARK SMILES IDX 13 25 14 26 15 27 16 28 17 29 18 30 19 31 20 32 78 33 21 34
REMARK SMILES IDX 77 35 22 36 23 37 24 38 71 39 25 40 76 41 70 42 72 43 26 44
REMARK SMILES IDX 75 45 69 46 68 47 27 49 57 50 38 51 56 52 39 53 42 54 55 55
REMARK SMILES IDX 73 56 40 57 41 58 54 60 74 61 43 62 28 63 29 64 37 65 30 66
REMARK SMILES IDX 36 67 31 68 32 69 33 70 34 71 35 72 58 73 59 74 67 75 60 76
REMARK SMILES IDX 66 77 61 78 62 79 63 80 64 81 65 82 44 83 45 84 53 85 46 86
REMARK SMILES IDX 52 87 47 88 48 89 49 90 50 91 51 92
REMARK H PARENT 4 13 72 48 42 59
REMARK Flexibility Score: inf
ROOT
ATOM      1  C   UNL A   1      31.078  27.776  24.489  1.00  0.00     0.188 C 
ENDROOT
BRANCH   1   2
ATOM      2  C   UNL A   1      31.902  26.490  24.619  1.00  0.00     0.188 C 
BRANCH   2   3
ATOM      3  O   UNL A   1      31.927  25.846  25.888  1.00  0.00    -0.376 OA
BRANCH   3   4
ATOM      4  C   UNL A   1      32.833  24.763  26.093  1.00  0.00     0.202 C 
BRANCH   4   5
ATOM      5  C   UNL A   1      32.425  23.687  27.102  1.00  0.00     0.261 C 
BRANCH   5   6
ATOM      6  O   UNL A   1      32.073  22.445  26.457  1.00  0.00    -0.461 OA
BRANCH   6   7
ATOM      7  C   UNL A   1      33.011  21.462  26.512  1.00  0.00     0.338 C 
ATOM      8  O   UNL A   1      33.859  21.387  27.398  1.00  0.00    -0.249 OA
BRANCH   7   9
ATOM      9  C   UNL A   1      32.923  20.439  25.345  1.00  0.00     0.168 C 
BRANCH   9  10
ATOM     10  C   UNL A   1      33.340  18.991  25.696  1.00  0.00     0.044 C 
ATOM     11  C   UNL A   1      33.805  18.157  24.499  1.00  0.00     0.007 C 
ENDBRANCH   9  10
BRANCH   9  12
ATOM     12  O   UNL A   1      31.483  20.373  25.167  1.00  0.00    -0.378 OA
ATOM     13  H   UNL A   1      31.265  19.649  24.560  1.00  0.00     0.212 HD
ENDBRANCH   9  12
BRANCH   9  14
ATOM     14  C   UNL A   1      33.668  21.109  24.114  1.00  0.00     0.063 C 
ATOM     15  C   UNL A   1      32.931  22.298  23.427  1.00  0.00     0.017 C 
ATOM     16  C   UNL A   1      35.013  21.741  24.371  1.00  0.00    -0.035 A 
ATOM     17  C   UNL A   1      33.998  23.208  22.801  1.00  0.00     0.036 C 
ATOM     18  C   UNL A   1      35.150  22.965  23.719  1.00  0.00    -0.044 A 
ATOM     19  C   UNL A   1      36.075  21.201  25.076  1.00  0.00     0.050 A 
ATOM     20  C   UNL A   1      36.287  23.735  23.888  1.00  0.00     0.008 A 
ATOM     21  C   UNL A   1      37.195  21.988  25.326  1.00  0.00     0.119 A 
ATOM     22  C   UNL A   1      37.294  23.255  24.734  1.00  0.00     0.047 A 
BRANCH  21  23
ATOM     23  O   UNL A   1      38.234  21.621  26.140  1.00  0.00    -0.497 OA
ATOM     24  C   UNL A   1      39.378  22.472  26.108  1.00  0.00     0.278 C 
ENDBRANCH  21  23
ENDBRANCH   9  14
ENDBRANCH   7   9
ENDBRANCH   6   7
ENDBRANCH   5   6
ENDBRANCH   4   5
ENDBRANCH   3   4
ENDBRANCH   2   3
ENDBRANCH   1   2
BRANCH   1  25
ATOM     25  O   UNL A   1      31.344  28.774  25.440  1.00  0.00    -0.376 OA
BRANCH  25  26
ATOM     26  C   UNL A   1      32.669  29.122  25.787  1.00  0.00     0.202 C 
BRANCH  26  27
ATOM     27  C   UNL A   1      33.091  29.922  27.034  1.00  0.00     0.261 C 
BRANCH  27  28
ATOM     28  O   UNL A   1      34.340  30.618  27.007  1.00  0.00    -0.460 OA
BRANCH  28  29
ATOM     29  C   UNL A   1      34.840  31.013  28.201  1.00  0.00     0.338 C 
ATOM     30  O   UNL A   1      34.275  31.660  29.060  1.00  0.00    -0.246 OA
BRANCH  29  31
ATOM     31  C   UNL A   1      36.152  30.355  28.371  1.00  0.00     0.060 A 
ATOM     32  C   UNL A   1      36.474  29.836  29.630  1.00  0.00     0.016 A 
ATOM     33  C   UNL A   1      37.059  30.269  27.315  1.00  0.00     0.016 A 
ATOM     34  C   UNL A   1      37.705  29.219  29.838  1.00  0.00     0.010 A 
ATOM     35  C   UNL A   1      38.311  29.683  27.536  1.00  0.00     0.010 A 
ATOM     36  C   UNL A   1      38.646  29.172  28.803  1.00  0.00    -0.014 A 
BRANCH  36  37
ATOM     37  C   UNL A   1      40.041  28.773  29.110  1.00  0.00     0.031 A 
ATOM     38  C   UNL A   1      40.925  29.766  29.813  1.00  0.00     0.074 A 
ATOM     39  C   UNL A   1      40.500  27.540  28.832  1.00  0.00     0.049 A 
ATOM     40  N   UNL A   1      42.199  29.689  30.096  1.00  0.00    -0.248 NA
ATOM     41  C   UNL A   1      40.280  31.010  30.266  1.00  0.00     0.031 C 
ATOM     42  C   UNL A   1      39.715  26.453  28.250  1.00  0.00     0.029 A 
ATOM     43  N   UNL A   1      41.749  26.997  29.009  1.00  0.00    -0.354 N 
ATOM     44  C   UNL A   1      42.514  30.881  30.737  1.00  0.00     0.074 A 
ATOM     45  C   UNL A   1      41.300  31.665  30.798  1.00  0.00     0.031 C 
ATOM     46  C   UNL A   1      40.503  25.372  28.113  1.00  0.00     0.029 A 
ATOM     47  C   UNL A   1      41.860  25.707  28.547  1.00  0.00     0.049 A 
ATOM     48  H   UNL A   1      42.494  27.484  29.429  1.00  0.00     0.167 HD
ATOM     49  C   UNL A   1      43.709  31.289  31.224  1.00  0.00     0.031 A 
ATOM     50  C   UNL A   1      42.939  24.904  28.449  1.00  0.00     0.031 A 
ATOM     51  C   UNL A   1      44.916  30.513  31.151  1.00  0.00     0.049 A 
ATOM     52  C   UNL A   1      44.282  25.417  28.905  1.00  0.00     0.074 A 
ATOM     53  C   UNL A   1      46.187  30.853  31.577  1.00  0.00     0.029 A 
ATOM     54  N   UNL A   1      44.999  29.236  30.619  1.00  0.00    -0.354 N 
ATOM     55  N   UNL A   1      44.580  26.570  29.456  1.00  0.00    -0.248 NA
ATOM     56  C   UNL A   1      45.434  24.523  28.717  1.00  0.00     0.031 C 
ATOM     57  C   UNL A   1      47.049  29.798  31.261  1.00  0.00     0.029 A 
ATOM     58  C   UNL A   1      46.304  28.779  30.689  1.00  0.00     0.049 A 
ATOM     59  H   UNL A   1      44.242  28.728  30.245  1.00  0.00     0.167 HD
ATOM     60  C   UNL A   1      45.950  26.534  29.695  1.00  0.00     0.074 A 
ATOM     61  C   UNL A   1      46.419  25.239  29.245  1.00  0.00     0.031 C 
ATOM     62  C   UNL A   1      46.751  27.486  30.236  1.00  0.00     0.031 A 
BRANCH  49  63
ATOM     63  C   UNL A   1      43.771  32.669  31.821  1.00  0.00    -0.014 A 
ATOM     64  C   UNL A   1      43.650  32.873  33.206  1.00  0.00     0.010 A 
ATOM     65  C   UNL A   1      43.957  33.777  30.976  1.00  0.00     0.010 A 
ATOM     66  C   UNL A   1      43.673  34.168  33.733  1.00  0.00     0.020 A 
ATOM     67  C   UNL A   1      44.004  35.071  31.500  1.00  0.00     0.020 A 
ATOM     68  C   UNL A   1      43.843  35.259  32.874  1.00  0.00     0.054 A 
BRANCH  68  69
ATOM     69  S   UNL A   1      43.873  36.930  33.581  1.00  0.00     0.124 S 
ATOM     70  O   UNL A   1      44.174  37.746  32.408  1.00  0.00    -0.237 OA
ATOM     71  O   UNL A   1      42.521  37.075  34.117  1.00  0.00    -0.237 OA
ATOM     72  O   UNL A   1      44.933  36.863  34.583  1.00  0.00    -0.744 OA
ENDBRANCH  68  69
ENDBRANCH  49  63
BRANCH  50  73
ATOM     73  C   UNL A   1      42.811  23.553  27.834  1.00  0.00    -0.014 A 
ATOM     74  C   UNL A   1      42.314  22.464  28.572  1.00  0.00     0.010 A 
ATOM     75  C   UNL A   1      43.204  23.348  26.498  1.00  0.00     0.010 A 
ATOM     76  C   UNL A   1      42.225  21.196  27.991  1.00  0.00     0.020 A 
ATOM     77  C   UNL A   1      43.091  22.087  25.905  1.00  0.00     0.020 A 
ATOM     78  C   UNL A   1      42.613  21.015  26.660  1.00  0.00     0.054 A 
BRANCH  78  79
ATOM     79  S   UNL A   1      42.447  19.372  25.908  1.00  0.00     0.124 S 
ATOM     80  O   UNL A   1      43.314  19.483  24.739  1.00  0.00    -0.237 OA
ATOM     81  O   UNL A   1      42.923  18.486  26.968  1.00  0.00    -0.237 OA
ATOM     82  O   UNL A   1      41.017  19.272  25.619  1.00  0.00    -0.744 OA
ENDBRANCH  78  79
ENDBRANCH  50  73
BRANCH  62  83
ATOM     83  C   UNL A   1      48.210  27.157  30.404  1.00  0.00    -0.014 A 
ATOM     84  C   UNL A   1      49.167  27.590  29.470  1.00  0.00     0.010 A 
ATOM     85  C   UNL A   1      48.635  26.459  31.549  1.00  0.00     0.010 A 
ATOM     86  C   UNL A   1      50.522  27.309  29.667  1.00  0.00     0.020 A 
ATOM     87  C   UNL A   1      49.991  26.198  31.761  1.00  0.00     0.020 A 
ATOM     88  C   UNL A   1      50.926  26.614  30.810  1.00  0.00     0.054 A 
BRANCH  88  89
ATOM     89  S   UNL A   1      52.694  26.306  31.069  1.00  0.00     0.124 S 
ATOM     90  O   UNL A   1      53.164  26.075  29.705  1.00  0.00    -0.237 OA
ATOM     91  O   UNL A   1      53.151  27.546  31.690  1.00  0.00    -0.237 OA
ATOM     92  O   UNL A   1      52.718  25.134  31.942  1.00  0.00    -0.744 OA
ENDBRANCH  88  89
ENDBRANCH  62  83
ENDBRANCH  36  37
ENDBRANCH  29  31
ENDBRANCH  28  29
ENDBRANCH  27  28
ENDBRANCH  26  27
ENDBRANCH  25  26
ENDBRANCH   1  25
TORSDOF 24
ENDMDL
MODEL 3
REMARK VINA RESULT:      -9.5      6.104     11.100
REMARK SMILES CC[C@@](O)(C(=O)OCCOCCOCCOC(=O)c1ccc(-c2c3nc(c(-c4ccc(S(=O)(=O)[O-])cc4)c4ccc([nH]4)c(-c4ccc(S(=O)(=O)[O-])cc4)c4nc(c(-c5ccc(S(=O)(=O)[O-])cc5)c5ccc2[nH]5)C=C4)C=C3)cc1)[C@H]1CCc2ccc(OC)cc21
REMARK SMILES IDX 12 1 11 2 10 3 9 4 8 5 7 6 5 7 6 8 3 9 2 10 1 11 4 12 79 14
REMARK SMILES IDX 80 15 89 16 81 17 82 18 88 19 83 20 85 21 84 22 86 23 87 24
REMARK SMILES IDX 13 25 14 26 15 27 16 28 17 29 18 30 19 31 20 32 78 33 21 34
REMARK SMILES IDX 77 35 22 36 23 37 24 38 71 39 25 40 76 41 70 42 72 43 26 44
REMARK SMILES IDX 75 45 69 46 68 47 27 49 57 50 38 51 56 52 39 53 42 54 55 55
REMARK SMILES IDX 73 56 40 57 41 58 54 60 74 61 43 62 28 63 29 64 37 65 30 66
REMARK SMILES IDX 36 67 31 68 32 69 33 70 34 71 35 72 58 73 59 74 67 75 60 76
REMARK SMILES IDX 66 77 61 78 62 79 63 80 64 81 65 82 44 83 45 84 53 85 46 86
REMARK SMILES IDX 52 87 47 88 48 89 49 90 50 91 51 92
REMARK H PARENT 4 13 72 48 42 59
REMARK Flexibility Score: inf
ROOT
ATOM      1  C   UNL A   1      31.393  29.162  24.897  1.00  0.00     0.188 C 
ENDROOT
BRANCH   1   2
ATOM      2  C   UNL A   1      32.278  27.931  25.124  1.00  0.00     0.188 C 
BRANCH   2   3
ATOM      3  O   UNL A   1      31.796  26.921  26.003  1.00  0.00    -0.376 OA
BRANCH   3   4
ATOM      4  C   UNL A   1      32.256  25.582  25.833  1.00  0.00     0.202 C 
BRANCH   4   5
ATOM      5  C   UNL A   1      33.769  25.354  25.824  1.00  0.00     0.261 C 
BRANCH   5   6
ATOM      6  O   UNL A   1      34.116  23.997  26.167  1.00  0.00    -0.461 OA
BRANCH   6   7
ATOM      7  C   UNL A   1      35.174  23.467  25.495  1.00  0.00     0.338 C 
ATOM      8  O   UNL A   1      36.106  24.142  25.066  1.00  0.00    -0.249 OA
BRANCH   7   9
ATOM      9  C   UNL A   1      35.097  21.926  25.311  1.00  0.00     0.168 C 
BRANCH   9  10
ATOM     10  C   UNL A   1      36.255  21.294  24.503  1.00  0.00     0.044 C 
ATOM     11  C   UNL A   1      37.472  20.895  25.344  1.00  0.00     0.007 C 
ENDBRANCH   9  10
BRANCH   9  12
ATOM     12  O   UNL A   1      35.323  21.490  26.678  1.00  0.00    -0.378 OA
ATOM     13  H   UNL A   1      34.549  21.707  27.219  1.00  0.00     0.212 HD
ENDBRANCH   9  12
BRANCH   9  14
ATOM     14  C   UNL A   1      33.627  21.616  24.798  1.00  0.00     0.063 C 
ATOM     15  C   UNL A   1      33.216  22.274  23.447  1.00  0.00     0.017 C 
ATOM     16  C   UNL A   1      33.279  20.177  24.510  1.00  0.00    -0.035 A 
ATOM     17  C   UNL A   1      32.154  21.377  22.795  1.00  0.00     0.036 C 
ATOM     18  C   UNL A   1      32.545  20.041  23.333  1.00  0.00    -0.044 A 
ATOM     19  C   UNL A   1      33.531  19.073  25.308  1.00  0.00     0.050 A 
ATOM     20  C   UNL A   1      32.189  18.790  22.859  1.00  0.00     0.008 A 
ATOM     21  C   UNL A   1      33.256  17.801  24.817  1.00  0.00     0.119 A 
ATOM     22  C   UNL A   1      32.589  17.665  23.591  1.00  0.00     0.047 A 
BRANCH  21  23
ATOM     23  O   UNL A   1      33.605  16.636  25.445  1.00  0.00    -0.497 OA
ATOM     24  C   UNL A   1      34.900  16.125  25.132  1.00  0.00     0.278 C 
ENDBRANCH  21  23
ENDBRANCH   9  14
ENDBRANCH   7   9
ENDBRANCH   6   7
ENDBRANCH   5   6
ENDBRANCH   4   5
ENDBRANCH   3   4
ENDBRANCH   2   3
ENDBRANCH   1   2
BRANCH   1  25
ATOM     25  O   UNL A   1      31.471  30.163  25.879  1.00  0.00    -0.376 OA
BRANCH  25  26
ATOM     26  C   UNL A   1      32.715  30.584  26.400  1.00  0.00     0.202 C 
BRANCH  26  27
ATOM     27  C   UNL A   1      32.914  31.563  27.573  1.00  0.00     0.261 C 
BRANCH  27  28
ATOM     28  O   UNL A   1      33.677  32.751  27.347  1.00  0.00    -0.460 OA
BRANCH  28  29
ATOM     29  C   UNL A   1      33.601  33.710  28.299  1.00  0.00     0.338 C 
ATOM     30  O   UNL A   1      32.719  34.531  28.452  1.00  0.00    -0.246 OA
BRANCH  29  31
ATOM     31  C   UNL A   1      34.701  33.471  29.257  1.00  0.00     0.060 A 
ATOM     32  C   UNL A   1      35.969  33.974  28.948  1.00  0.00     0.016 A 
ATOM     33  C   UNL A   1      34.492  32.746  30.430  1.00  0.00     0.016 A 
ATOM     34  C   UNL A   1      37.037  33.762  29.817  1.00  0.00     0.010 A 
ATOM     35  C   UNL A   1      35.574  32.500  31.284  1.00  0.00     0.010 A 
ATOM     36  C   UNL A   1      36.855  32.992  30.972  1.00  0.00    -0.014 A 
BRANCH  36  37
ATOM     37  C   UNL A   1      38.042  32.537  31.734  1.00  0.00     0.031 A 
ATOM     38  C   UNL A   1      38.880  31.431  31.152  1.00  0.00     0.074 A 
ATOM     39  C   UNL A   1      38.411  33.129  32.884  1.00  0.00     0.049 A 
ATOM     40  N   UNL A   1      39.897  30.799  31.674  1.00  0.00    -0.248 NA
ATOM     41  C   UNL A   1      38.523  30.987  29.794  1.00  0.00     0.031 C 
ATOM     42  C   UNL A   1      37.749  34.277  33.499  1.00  0.00     0.029 A 
ATOM     43  N   UNL A   1      39.446  32.839  33.739  1.00  0.00    -0.354 N 
ATOM     44  C   UNL A   1      40.289  29.867  30.720  1.00  0.00     0.074 A 
ATOM     45  C   UNL A   1      39.397  30.014  29.591  1.00  0.00     0.031 C 
ATOM     46  C   UNL A   1      38.391  34.592  34.638  1.00  0.00     0.029 A 
ATOM     47  C   UNL A   1      39.475  33.636  34.860  1.00  0.00     0.049 A 
ATOM     48  H   UNL A   1      40.105  32.129  33.566  1.00  0.00     0.167 HD
ATOM     49  C   UNL A   1      41.296  28.965  30.782  1.00  0.00     0.031 A 
ATOM     50  C   UNL A   1      40.261  33.574  35.954  1.00  0.00     0.031 A 
ATOM     51  C   UNL A   1      42.173  28.814  31.910  1.00  0.00     0.049 A 
ATOM     52  C   UNL A   1      41.312  32.496  36.047  1.00  0.00     0.074 A 
ATOM     53  C   UNL A   1      43.198  27.902  32.090  1.00  0.00     0.029 A 
ATOM     54  N   UNL A   1      42.130  29.599  33.051  1.00  0.00    -0.354 N 
ATOM     55  N   UNL A   1      41.634  31.581  35.163  1.00  0.00    -0.248 NA
ATOM     56  C   UNL A   1      42.097  32.437  37.289  1.00  0.00     0.031 C 
ATOM     57  C   UNL A   1      43.745  28.108  33.360  1.00  0.00     0.029 A 
ATOM     58  C   UNL A   1      43.098  29.183  33.948  1.00  0.00     0.049 A 
ATOM     59  H   UNL A   1      41.502  30.343  33.203  1.00  0.00     0.167 HD
ATOM     60  C   UNL A   1      42.669  30.849  35.736  1.00  0.00     0.074 A 
ATOM     61  C   UNL A   1      42.931  31.437  37.033  1.00  0.00     0.031 C 
ATOM     62  C   UNL A   1      43.343  29.783  35.235  1.00  0.00     0.031 A 
BRANCH  49  63
ATOM     63  C   UNL A   1      41.453  28.031  29.613  1.00  0.00    -0.014 A 
ATOM     64  C   UNL A   1      40.544  26.983  29.387  1.00  0.00     0.010 A 
ATOM     65  C   UNL A   1      42.529  28.213  28.726  1.00  0.00     0.010 A 
ATOM     66  C   UNL A   1      40.734  26.105  28.315  1.00  0.00     0.020 A 
ATOM     67  C   UNL A   1      42.709  27.353  27.640  1.00  0.00     0.020 A 
ATOM     68  C   UNL A   1      41.820  26.294  27.452  1.00  0.00     0.054 A 
BRANCH  68  69
ATOM     69  S   UNL A   1      42.043  25.144  26.067  1.00  0.00     0.124 S 
ATOM     70  O   UNL A   1      40.967  24.184  26.297  1.00  0.00    -0.237 OA
ATOM     71  O   UNL A   1      41.874  26.009  24.902  1.00  0.00    -0.237 OA
ATOM     72  O   UNL A   1      43.394  24.624  26.262  1.00  0.00    -0.744 OA
ENDBRANCH  68  69
ENDBRANCH  49  63
BRANCH  50  73
ATOM     73  C   UNL A   1      40.043  34.522  37.083  1.00  0.00    -0.014 A 
ATOM     74  C   UNL A   1      38.981  34.343  37.986  1.00  0.00     0.010 A 
ATOM     75  C   UNL A   1      40.901  35.626  37.250  1.00  0.00     0.010 A 
ATOM     76  C   UNL A   1      38.772  35.255  39.025  1.00  0.00     0.020 A 
ATOM     77  C   UNL A   1      40.712  36.524  38.303  1.00  0.00     0.020 A 
ATOM     78  C   UNL A   1      39.640  36.340  39.178  1.00  0.00     0.054 A 
BRANCH  78  79
ATOM     79  S   UNL A   1      39.382  37.488  40.560  1.00  0.00     0.124 S 
ATOM     80  O   UNL A   1      40.696  38.110  40.687  1.00  0.00    -0.237 OA
ATOM     81  O   UNL A   1      38.317  38.354  40.061  1.00  0.00    -0.237 OA
ATOM     82  O   UNL A   1      38.996  36.611  41.664  1.00  0.00    -0.744 OA
ENDBRANCH  78  79
ENDBRANCH  50  73
BRANCH  62  83
ATOM     83  C   UNL A   1      44.451  29.202  36.074  1.00  0.00    -0.014 A 
ATOM     84  C   UNL A   1      45.751  29.734  36.032  1.00  0.00     0.010 A 
ATOM     85  C   UNL A   1      44.167  28.150  36.963  1.00  0.00     0.010 A 
ATOM     86  C   UNL A   1      46.755  29.206  36.849  1.00  0.00     0.020 A 
ATOM     87  C   UNL A   1      45.162  27.637  37.799  1.00  0.00     0.020 A 
ATOM     88  C   UNL A   1      46.455  28.160  37.727  1.00  0.00     0.054 A 
BRANCH  88  89
ATOM     89  S   UNL A   1      47.761  27.525  38.813  1.00  0.00     0.124 S 
ATOM     90  O   UNL A   1      47.505  26.087  38.787  1.00  0.00    -0.237 OA
ATOM     91  O   UNL A   1      48.982  27.959  38.138  1.00  0.00    -0.237 OA
ATOM     92  O   UNL A   1      47.498  28.182  40.091  1.00  0.00    -0.744 OA
ENDBRANCH  88  89
ENDBRANCH  62  83
ENDBRANCH  36  37
ENDBRANCH  29  31
ENDBRANCH  28  29
ENDBRANCH  27  28
ENDBRANCH  26  27
ENDBRANCH  25  26
ENDBRANCH   1  25
TORSDOF 24
ENDMDL
