MODEL 1
REMARK VINA RESULT:      -8.4      0.000      0.000
REMARK SMILES O=C(NC(=S)Nc1cc(C(=O)OCCOCCOCCOC(=O)c2ccc(-c3c4nc(c(-c5ccc(S(=O)(=O)[O-])cc5)c5ccc([nH]5)c(-c5ccc(S(=O)(=O)[O-])cc5)c5nc(c(-c6ccc(S(=O)(=O)[O-])cc6)c6ccc3[nH]6)C=C5)C=C4)cc2)ccc1Br)c1ccc(F)cc1
REMARK SMILES IDX 16 1 15 2 14 3 13 4 12 5 10 6 11 7 9 8 7 9 8 10 86 11 85 12
REMARK SMILES IDX 87 13 84 14 6 15 4 17 5 18 3 19 1 20 2 21 88 23 89 24 94 25
REMARK SMILES IDX 90 26 93 27 91 28 92 29 17 30 18 31 19 32 20 33 21 34 22 35
REMARK SMILES IDX 23 36 24 37 25 38 83 39 26 40 82 41 27 42 28 43 29 44 76 45
REMARK SMILES IDX 30 46 81 47 75 48 77 49 31 50 80 51 74 52 73 53 32 55 62 56
REMARK SMILES IDX 43 57 61 58 44 59 47 60 60 61 78 62 45 63 46 64 59 66 79 67
REMARK SMILES IDX 48 68 33 69 34 70 42 71 35 72 41 73 36 74 37 75 38 76 39 77
REMARK SMILES IDX 40 78 63 79 64 80 72 81 65 82 71 83 66 84 67 85 68 86 69 87
REMARK SMILES IDX 70 88 49 89 50 90 58 91 51 92 57 93 52 94 53 95 54 96 55 97
REMARK SMILES IDX 56 98
REMARK H PARENT 6 16 3 22 77 54 47 65
REMARK Flexibility Score: inf
ROOT
ATOM      1  C   UNL A   1      43.504  22.025  26.015  1.00  0.00     0.188 C 
ENDROOT
BRANCH   1   2
ATOM      2  O   UNL A   1      43.710  21.832  24.621  1.00  0.00    -0.376 OA
BRANCH   2   3
ATOM      3  C   UNL A   1      44.588  22.774  23.997  1.00  0.00     0.202 C 
BRANCH   3   4
ATOM      4  C   UNL A   1      46.018  22.774  24.563  1.00  0.00     0.261 C 
BRANCH   4   5
ATOM      5  O   UNL A   1      46.801  23.865  24.030  1.00  0.00    -0.460 OA
BRANCH   5   6
ATOM      6  C   UNL A   1      46.697  25.032  24.699  1.00  0.00     0.338 C 
ATOM      7  O   UNL A   1      45.732  25.767  24.799  1.00  0.00    -0.246 OA
BRANCH   6   8
ATOM      8  C   UNL A   1      47.913  25.249  25.491  1.00  0.00     0.062 A 
ATOM      9  C   UNL A   1      49.552  25.217  28.405  1.00  0.00     0.055 A 
ATOM     10  C   UNL A   1      47.910  24.726  27.423  1.00  0.00     0.043 A 
ATOM     11  C   UNL A   1      51.172  26.119  27.719  1.00  0.00     0.041 A 
ATOM     12  C   UNL A   1      51.160  26.636  25.788  1.00  0.00     0.019 A 
ATOM     13  Br  UNL A   1      52.618  26.607  28.830  1.00  0.00    -0.049 Br
ATOM     14  C   UNL A   1      49.519  26.152  24.819  1.00  0.00     0.017 A 
BRANCH   9  15
ATOM     15  N   UNL A   1      49.319  25.316  29.780  1.00  0.00    -0.331 N 
ATOM     16  H   UNL A   1      49.729  24.646  30.372  1.00  0.00     0.169 HD
BRANCH  15  17
ATOM     17  C   UNL A   1      48.558  26.283  30.339  1.00  0.00     0.177 C 
ATOM     18  S   UNL A   1      49.301  27.586  31.073  1.00  0.00    -0.040 S 
BRANCH  17  19
ATOM     19  N   UNL A   1      47.179  26.192  30.395  1.00  0.00    -0.299 N 
ATOM     20  O   UNL A   1      44.967  25.979  30.907  1.00  0.00    -0.269 OA
ATOM     21  C   UNL A   1      46.136  25.856  31.279  1.00  0.00     0.257 C 
ATOM     22  H   UNL A   1      46.799  26.447  29.524  1.00  0.00     0.172 HD
BRANCH  21  23
ATOM     23  C   UNL A   1      46.317  25.421  32.683  1.00  0.00     0.040 A 
ATOM     24  C   UNL A   1      45.805  24.653  33.581  1.00  0.00     0.017 A 
ATOM     25  C   UNL A   1      45.220  25.529  33.388  1.00  0.00     0.017 A 
ATOM     26  C   UNL A   1      44.303  23.823  34.695  1.00  0.00     0.040 A 
ATOM     27  C   UNL A   1      43.697  24.726  34.502  1.00  0.00     0.040 A 
ATOM     28  C   UNL A   1      43.060  23.713  34.974  1.00  0.00     0.123 A 
ATOM     29  F   UNL A   1      42.547  23.623  36.200  1.00  0.00    -0.207 F 
ENDBRANCH  21  23
ENDBRANCH  17  19
ENDBRANCH  15  17
ENDBRANCH   9  15
ENDBRANCH   6   8
ENDBRANCH   5   6
ENDBRANCH   4   5
ENDBRANCH   3   4
ENDBRANCH   2   3
ENDBRANCH   1   2
BRANCH   1  30
ATOM     30  C   UNL A   1      42.614  23.212  26.385  1.00  0.00     0.188 C 
BRANCH  30  31
ATOM     31  O   UNL A   1      43.358  24.295  26.949  1.00  0.00    -0.376 OA
BRANCH  31  32
ATOM     32  C   UNL A   1      42.837  25.592  26.626  1.00  0.00     0.202 C 
BRANCH  32  33
ATOM     33  C   UNL A   1      41.544  25.552  25.795  1.00  0.00     0.261 C 
BRANCH  33  34
ATOM     34  O   UNL A   1      40.613  26.560  26.229  1.00  0.00    -0.460 OA
BRANCH  34  35
ATOM     35  C   UNL A   1      39.708  26.144  27.149  1.00  0.00     0.338 C 
ATOM     36  O   UNL A   1      38.938  25.206  27.030  1.00  0.00    -0.246 OA
BRANCH  35  37
ATOM     37  C   UNL A   1      39.941  26.871  28.421  1.00  0.00     0.060 A 
ATOM     38  C   UNL A   1      39.142  26.544  29.525  1.00  0.00     0.016 A 
ATOM     39  C   UNL A   1      40.941  27.843  28.541  1.00  0.00     0.016 A 
ATOM     40  C   UNL A   1      39.303  27.229  30.730  1.00  0.00     0.010 A 
ATOM     41  C   UNL A   1      41.102  28.529  29.746  1.00  0.00     0.010 A 
ATOM     42  C   UNL A   1      40.258  28.250  30.833  1.00  0.00    -0.014 A 
BRANCH  42  43
ATOM     43  C   UNL A   1      40.239  29.158  32.003  1.00  0.00     0.031 A 
ATOM     44  C   UNL A   1      41.287  28.968  33.065  1.00  0.00     0.074 A 
ATOM     45  C   UNL A   1      39.312  30.123  32.128  1.00  0.00     0.049 A 
ATOM     46  N   UNL A   1      41.496  29.662  34.154  1.00  0.00    -0.248 NA
ATOM     47  C   UNL A   1      42.223  27.846  32.874  1.00  0.00     0.031 C 
ATOM     48  C   UNL A   1      38.230  30.396  31.182  1.00  0.00     0.029 A 
ATOM     49  N   UNL A   1      39.133  31.053  33.122  1.00  0.00    -0.354 N 
ATOM     50  C   UNL A   1      42.588  29.068  34.772  1.00  0.00     0.074 A 
ATOM     51  C   UNL A   1      42.985  27.944  33.954  1.00  0.00     0.031 C 
ATOM     52  C   UNL A   1      37.488  31.417  31.651  1.00  0.00     0.029 A 
ATOM     53  C   UNL A   1      38.043  31.868  32.926  1.00  0.00     0.049 A 
ATOM     54  H   UNL A   1      39.728  31.128  33.901  1.00  0.00     0.167 HD
ATOM     55  C   UNL A   1      43.213  29.425  35.918  1.00  0.00     0.031 A 
ATOM     56  C   UNL A   1      37.553  32.860  33.694  1.00  0.00     0.031 A 
ATOM     57  C   UNL A   1      42.818  30.527  36.748  1.00  0.00     0.049 A 
ATOM     58  C   UNL A   1      38.261  33.235  34.970  1.00  0.00     0.074 A 
ATOM     59  C   UNL A   1      43.405  30.982  37.915  1.00  0.00     0.029 A 
ATOM     60  N   UNL A   1      41.726  31.342  36.501  1.00  0.00    -0.354 N 
ATOM     61  N   UNL A   1      39.337  32.706  35.502  1.00  0.00    -0.248 NA
ATOM     62  C   UNL A   1      37.694  34.352  35.741  1.00  0.00     0.031 C 
ATOM     63  C   UNL A   1      42.653  32.063  38.387  1.00  0.00     0.029 A 
ATOM     64  C   UNL A   1      41.613  32.291  37.500  1.00  0.00     0.049 A 
ATOM     65  H   UNL A   1      41.120  31.259  35.729  1.00  0.00     0.167 HD
ATOM     66  C   UNL A   1      39.588  33.443  36.655  1.00  0.00     0.074 A 
ATOM     67  C   UNL A   1      38.557  34.455  36.744  1.00  0.00     0.031 C 
ATOM     68  C   UNL A   1      40.587  33.297  37.560  1.00  0.00     0.031 A 
BRANCH  55  69
ATOM     69  C   UNL A   1      44.390  28.596  36.336  1.00  0.00    -0.014 A 
ATOM     70  C   UNL A   1      45.698  28.996  36.008  1.00  0.00     0.010 A 
ATOM     71  C   UNL A   1      44.189  27.409  37.061  1.00  0.00     0.010 A 
ATOM     72  C   UNL A   1      46.788  28.202  36.373  1.00  0.00     0.020 A 
ATOM     73  C   UNL A   1      45.279  26.620  37.437  1.00  0.00     0.020 A 
ATOM     74  C   UNL A   1      46.570  27.013  37.076  1.00  0.00     0.054 A 
BRANCH  74  75
ATOM     75  S   UNL A   1      47.996  25.998  37.549  1.00  0.00     0.124 S 
ATOM     76  O   UNL A   1      47.493  25.310  38.735  1.00  0.00    -0.237 OA
ATOM     77  O   UNL A   1      48.200  25.153  36.374  1.00  0.00    -0.237 OA
ATOM     78  O   UNL A   1      49.049  26.979  37.796  1.00  0.00    -0.744 OA
ENDBRANCH  74  75
ENDBRANCH  55  69
BRANCH  56  79
ATOM     79  C   UNL A   1      36.318  33.581  33.291  1.00  0.00    -0.014 A 
ATOM     80  C   UNL A   1      35.072  32.932  33.307  1.00  0.00     0.010 A 
ATOM     81  C   UNL A   1      36.396  34.912  32.845  1.00  0.00     0.010 A 
ATOM     82  C   UNL A   1      33.924  33.593  32.858  1.00  0.00     0.020 A 
ATOM     83  C   UNL A   1      35.248  35.580  32.409  1.00  0.00     0.020 A 
ATOM     84  C   UNL A   1      34.022  34.911  32.402  1.00  0.00     0.054 A 
BRANCH  84  85
ATOM     85  S   UNL A   1      32.526  35.773  31.841  1.00  0.00     0.124 S 
ATOM     86  O   UNL A   1      32.474  35.398  30.431  1.00  0.00    -0.237 OA
ATOM     87  O   UNL A   1      31.483  35.198  32.687  1.00  0.00    -0.237 OA
ATOM     88  O   UNL A   1      32.829  37.176  32.109  1.00  0.00    -0.744 OA
ENDBRANCH  84  85
ENDBRANCH  56  79
BRANCH  68  89
ATOM     89  C   UNL A   1      40.633  34.270  38.703  1.00  0.00    -0.014 A 
ATOM     90  C   UNL A   1      41.584  35.306  38.730  1.00  0.00     0.010 A 
ATOM     91  C   UNL A   1      39.675  34.186  39.728  1.00  0.00     0.010 A 
ATOM     92  C   UNL A   1      41.587  36.231  39.776  1.00  0.00     0.020 A 
ATOM     93  C   UNL A   1      39.666  35.119  40.767  1.00  0.00     0.020 A 
ATOM     94  C   UNL A   1      40.630  36.129  40.791  1.00  0.00     0.054 A 
BRANCH  94  95
ATOM     95  S   UNL A   1      40.606  37.370  42.115  1.00  0.00     0.124 S 
ATOM     96  O   UNL A   1      40.546  36.536  43.311  1.00  0.00    -0.237 OA
ATOM     97  O   UNL A   1      41.862  38.090  41.914  1.00  0.00    -0.237 OA
ATOM     98  O   UNL A   1      39.401  38.147  41.832  1.00  0.00    -0.744 OA
ENDBRANCH  94  95
ENDBRANCH  68  89
ENDBRANCH  42  43
ENDBRANCH  35  37
ENDBRANCH  34  35
ENDBRANCH  33  34
ENDBRANCH  32  33
ENDBRANCH  31  32
ENDBRANCH  30  31
ENDBRANCH   1  30
TORSDOF 24
ENDMDL
MODEL 2
REMARK VINA RESULT:      -8.4      4.533      6.831
REMARK SMILES O=C(NC(=S)Nc1cc(C(=O)OCCOCCOCCOC(=O)c2ccc(-c3c4nc(c(-c5ccc(S(=O)(=O)[O-])cc5)c5ccc([nH]5)c(-c5ccc(S(=O)(=O)[O-])cc5)c5nc(c(-c6ccc(S(=O)(=O)[O-])cc6)c6ccc3[nH]6)C=C5)C=C4)cc2)ccc1Br)c1ccc(F)cc1
REMARK SMILES IDX 16 1 15 2 14 3 13 4 12 5 10 6 11 7 9 8 7 9 8 10 86 11 85 12
REMARK SMILES IDX 87 13 84 14 6 15 4 17 5 18 3 19 1 20 2 21 88 23 89 24 94 25
REMARK SMILES IDX 90 26 93 27 91 28 92 29 17 30 18 31 19 32 20 33 21 34 22 35
REMARK SMILES IDX 23 36 24 37 25 38 83 39 26 40 82 41 27 42 28 43 29 44 76 45
REMARK SMILES IDX 30 46 81 47 75 48 77 49 31 50 80 51 74 52 73 53 32 55 62 56
REMARK SMILES IDX 43 57 61 58 44 59 47 60 60 61 78 62 45 63 46 64 59 66 79 67
REMARK SMILES IDX 48 68 33 69 34 70 42 71 35 72 41 73 36 74 37 75 38 76 39 77
REMARK SMILES IDX 40 78 63 79 64 80 72 81 65 82 71 83 66 84 67 85 68 86 69 87
REMARK SMILES IDX 70 88 49 89 50 90 58 91 51 92 57 93 52 94 53 95 54 96 55 97
REMARK SMILES IDX 56 98
REMARK H PARENT 6 16 3 22 77 54 47 65
REMARK Flexibility Score: inf
ROOT
ATOM      1  C   UNL A   1      45.569  22.491  25.347  1.00  0.00     0.188 C 
ENDROOT
BRANCH   1   2
ATOM      2  O   UNL A   1      46.133  21.197  25.527  1.00  0.00    -0.376 OA
BRANCH   2   3
ATOM      3  C   UNL A   1      45.712  20.211  24.581  1.00  0.00     0.202 C 
BRANCH   3   4
ATOM      4  C   UNL A   1      45.173  18.917  25.215  1.00  0.00     0.261 C 
BRANCH   4   5
ATOM      5  O   UNL A   1      43.738  18.819  25.087  1.00  0.00    -0.460 OA
BRANCH   5   6
ATOM      6  C   UNL A   1      43.067  18.611  26.238  1.00  0.00     0.338 C 
ATOM      7  O   UNL A   1      43.159  17.676  27.013  1.00  0.00    -0.246 OA
BRANCH   6   8
ATOM      8  C   UNL A   1      42.281  19.806  26.566  1.00  0.00     0.062 A 
ATOM      9  C   UNL A   1      39.505  21.650  26.288  1.00  0.00     0.055 A 
ATOM     10  C   UNL A   1      40.394  19.925  25.911  1.00  0.00     0.043 A 
ATOM     11  C   UNL A   1      40.231  23.225  27.237  1.00  0.00     0.041 A 
ATOM     12  C   UNL A   1      42.117  23.089  27.886  1.00  0.00     0.019 A 
ATOM     13  Br  UNL A   1      39.270  24.839  27.420  1.00  0.00    -0.049 Br
ATOM     14  C   UNL A   1      42.998  21.375  27.499  1.00  0.00     0.017 A 
BRANCH   9  15
ATOM     15  N   UNL A   1      38.447  21.886  25.406  1.00  0.00    -0.331 N 
ATOM     16  H   UNL A   1      38.615  22.448  24.616  1.00  0.00     0.169 HD
BRANCH  15  17
ATOM     17  C   UNL A   1      37.204  21.385  25.581  1.00  0.00     0.177 C 
ATOM     18  S   UNL A   1      36.745  20.023  24.733  1.00  0.00    -0.040 S 
BRANCH  17  19
ATOM     19  N   UNL A   1      36.267  22.011  26.383  1.00  0.00    -0.299 N 
ATOM     20  O   UNL A   1      34.438  22.897  27.419  1.00  0.00    -0.269 OA
ATOM     21  C   UNL A   1      34.903  22.360  26.411  1.00  0.00     0.257 C 
ATOM     22  H   UNL A   1      36.698  22.316  27.214  1.00  0.00     0.172 HD
BRANCH  21  23
ATOM     23  C   UNL A   1      33.928  22.069  25.335  1.00  0.00     0.040 A 
ATOM     24  C   UNL A   1      33.616  22.404  24.131  1.00  0.00     0.017 A 
ATOM     25  C   UNL A   1      33.370  23.152  24.857  1.00  0.00     0.017 A 
ATOM     26  C   UNL A   1      33.241  23.693  22.588  1.00  0.00     0.040 A 
ATOM     27  C   UNL A   1      32.982  24.467  23.332  1.00  0.00     0.040 A 
ATOM     28  C   UNL A   1      33.170  24.885  22.130  1.00  0.00     0.123 A 
ATOM     29  F   UNL A   1      32.224  25.345  21.313  1.00  0.00    -0.207 F 
ENDBRANCH  21  23
ENDBRANCH  17  19
ENDBRANCH  15  17
ENDBRANCH   9  15
ENDBRANCH   6   8
ENDBRANCH   5   6
ENDBRANCH   4   5
ENDBRANCH   3   4
ENDBRANCH   2   3
ENDBRANCH   1   2
BRANCH   1  30
ATOM     30  C   UNL A   1      46.274  23.619  26.101  1.00  0.00     0.188 C 
BRANCH  30  31
ATOM     31  O   UNL A   1      45.362  24.619  26.562  1.00  0.00    -0.376 OA
BRANCH  31  32
ATOM     32  C   UNL A   1      45.708  25.954  26.166  1.00  0.00     0.202 C 
BRANCH  32  33
ATOM     33  C   UNL A   1      44.760  26.554  25.115  1.00  0.00     0.261 C 
BRANCH  33  34
ATOM     34  O   UNL A   1      43.396  26.539  25.573  1.00  0.00    -0.460 OA
BRANCH  34  35
ATOM     35  C   UNL A   1      42.811  27.759  25.665  1.00  0.00     0.338 C 
ATOM     36  O   UNL A   1      42.126  28.296  24.810  1.00  0.00    -0.246 OA
BRANCH  35  37
ATOM     37  C   UNL A   1      42.949  28.259  27.054  1.00  0.00     0.060 A 
ATOM     38  C   UNL A   1      42.542  27.423  28.102  1.00  0.00     0.016 A 
ATOM     39  C   UNL A   1      43.490  29.521  27.332  1.00  0.00     0.016 A 
ATOM     40  C   UNL A   1      42.622  27.868  29.422  1.00  0.00     0.010 A 
ATOM     41  C   UNL A   1      43.567  29.967  28.652  1.00  0.00     0.010 A 
ATOM     42  C   UNL A   1      43.099  29.156  29.699  1.00  0.00    -0.014 A 
BRANCH  42  43
ATOM     43  C   UNL A   1      42.921  29.731  31.052  1.00  0.00     0.031 A 
ATOM     44  C   UNL A   1      44.008  29.503  32.068  1.00  0.00     0.074 A 
ATOM     45  C   UNL A   1      41.821  30.430  31.380  1.00  0.00     0.049 A 
ATOM     46  N   UNL A   1      44.094  29.939  33.297  1.00  0.00    -0.248 NA
ATOM     47  C   UNL A   1      45.147  28.673  31.639  1.00  0.00     0.031 C 
ATOM     48  C   UNL A   1      40.686  30.701  30.496  1.00  0.00     0.029 A 
ATOM     49  N   UNL A   1      41.478  31.035  32.563  1.00  0.00    -0.354 N 
ATOM     50  C   UNL A   1      45.296  29.445  33.785  1.00  0.00     0.074 A 
ATOM     51  C   UNL A   1      45.896  28.657  32.732  1.00  0.00     0.031 C 
ATOM     52  C   UNL A   1      39.764  31.407  31.177  1.00  0.00     0.029 A 
ATOM     53  C   UNL A   1      40.243  31.637  32.539  1.00  0.00     0.049 A 
ATOM     54  H   UNL A   1      42.062  31.037  33.355  1.00  0.00     0.167 HD
ATOM     55  C   UNL A   1      45.861  29.632  35.002  1.00  0.00     0.031 A 
ATOM     56  C   UNL A   1      39.578  32.293  33.509  1.00  0.00     0.031 A 
ATOM     57  C   UNL A   1      45.268  30.396  36.061  1.00  0.00     0.049 A 
ATOM     58  C   UNL A   1      40.222  32.482  34.859  1.00  0.00     0.074 A 
ATOM     59  C   UNL A   1      45.775  30.663  37.320  1.00  0.00     0.029 A 
ATOM     60  N   UNL A   1      44.029  31.010  35.987  1.00  0.00    -0.354 N 
ATOM     61  N   UNL A   1      41.393  32.066  35.278  1.00  0.00    -0.248 NA
ATOM     62  C   UNL A   1      39.457  33.241  35.860  1.00  0.00     0.031 C 
ATOM     63  C   UNL A   1      44.830  31.423  38.018  1.00  0.00     0.029 A 
ATOM     64  C   UNL A   1      43.747  31.646  37.182  1.00  0.00     0.049 A 
ATOM     65  H   UNL A   1      43.436  30.996  35.201  1.00  0.00     0.167 HD
ATOM     66  C   UNL A   1      41.514  32.537  36.582  1.00  0.00     0.074 A 
ATOM     67  C   UNL A   1      40.302  33.268  36.882  1.00  0.00     0.031 C 
ATOM     68  C   UNL A   1      42.541  32.379  37.454  1.00  0.00     0.031 A 
BRANCH  55  69
ATOM     69  C   UNL A   1      47.190  28.980  35.240  1.00  0.00    -0.014 A 
ATOM     70  C   UNL A   1      47.262  27.644  35.674  1.00  0.00     0.010 A 
ATOM     71  C   UNL A   1      48.374  29.706  35.029  1.00  0.00     0.010 A 
ATOM     72  C   UNL A   1      48.502  27.053  35.925  1.00  0.00     0.020 A 
ATOM     73  C   UNL A   1      49.616  29.113  35.267  1.00  0.00     0.020 A 
ATOM     74  C   UNL A   1      49.672  27.795  35.730  1.00  0.00     0.054 A 
BRANCH  74  75
ATOM     75  S   UNL A   1      51.275  27.011  36.052  1.00  0.00     0.124 S 
ATOM     76  O   UNL A   1      52.075  28.144  36.508  1.00  0.00    -0.237 OA
ATOM     77  O   UNL A   1      50.953  26.019  37.075  1.00  0.00    -0.237 OA
ATOM     78  O   UNL A   1      51.654  26.460  34.754  1.00  0.00    -0.744 OA
ENDBRANCH  74  75
ENDBRANCH  55  69
BRANCH  56  79
ATOM     79  C   UNL A   1      38.215  32.827  33.256  1.00  0.00    -0.014 A 
ATOM     80  C   UNL A   1      37.089  31.990  33.346  1.00  0.00     0.010 A 
ATOM     81  C   UNL A   1      38.045  34.171  32.880  1.00  0.00     0.010 A 
ATOM     82  C   UNL A   1      35.817  32.480  33.036  1.00  0.00     0.020 A 
ATOM     83  C   UNL A   1      36.772  34.668  32.584  1.00  0.00     0.020 A 
ATOM     84  C   UNL A   1      35.669  33.815  32.648  1.00  0.00     0.054 A 
BRANCH  84  85
ATOM     85  S   UNL A   1      34.012  34.453  32.268  1.00  0.00     0.124 S 
ATOM     86  O   UNL A   1      33.160  33.572  33.061  1.00  0.00    -0.237 OA
ATOM     87  O   UNL A   1      34.085  35.840  32.722  1.00  0.00    -0.237 OA
ATOM     88  O   UNL A   1      33.915  34.287  30.819  1.00  0.00    -0.744 OA
ENDBRANCH  84  85
ENDBRANCH  56  79
BRANCH  68  89
ATOM     89  C   UNL A   1      42.413  33.035  38.799  1.00  0.00    -0.014 A 
ATOM     90  C   UNL A   1      41.881  32.334  39.895  1.00  0.00     0.010 A 
ATOM     91  C   UNL A   1      42.891  34.345  38.982  1.00  0.00     0.010 A 
ATOM     92  C   UNL A   1      41.810  32.942  41.151  1.00  0.00     0.020 A 
ATOM     93  C   UNL A   1      42.835  34.949  40.239  1.00  0.00     0.020 A 
ATOM     94  C   UNL A   1      42.284  34.248  41.314  1.00  0.00     0.054 A 
BRANCH  94  95
ATOM     95  S   UNL A   1      42.240  35.007  42.962  1.00  0.00     0.124 S 
ATOM     96  O   UNL A   1      41.154  34.275  43.604  1.00  0.00    -0.237 OA
ATOM     97  O   UNL A   1      43.577  34.736  43.486  1.00  0.00    -0.237 OA
ATOM     98  O   UNL A   1      41.965  36.415  42.680  1.00  0.00    -0.744 OA
ENDBRANCH  94  95
ENDBRANCH  68  89
ENDBRANCH  42  43
ENDBRANCH  35  37
ENDBRANCH  34  35
ENDBRANCH  33  34
ENDBRANCH  32  33
ENDBRANCH  31  32
ENDBRANCH  30  31
ENDBRANCH   1  30
TORSDOF 24
ENDMDL
MODEL 3
REMARK VINA RESULT:      -8.1      4.600     11.199
REMARK SMILES O=C(NC(=S)Nc1cc(C(=O)OCCOCCOCCOC(=O)c2ccc(-c3c4nc(c(-c5ccc(S(=O)(=O)[O-])cc5)c5ccc([nH]5)c(-c5ccc(S(=O)(=O)[O-])cc5)c5nc(c(-c6ccc(S(=O)(=O)[O-])cc6)c6ccc3[nH]6)C=C5)C=C4)cc2)ccc1Br)c1ccc(F)cc1
REMARK SMILES IDX 16 1 15 2 14 3 13 4 12 5 10 6 11 7 9 8 7 9 8 10 86 11 85 12
REMARK SMILES IDX 87 13 84 14 6 15 4 17 5 18 3 19 1 20 2 21 88 23 89 24 94 25
REMARK SMILES IDX 90 26 93 27 91 28 92 29 17 30 18 31 19 32 20 33 21 34 22 35
REMARK SMILES IDX 23 36 24 37 25 38 83 39 26 40 82 41 27 42 28 43 29 44 76 45
REMARK SMILES IDX 30 46 81 47 75 48 77 49 31 50 80 51 74 52 73 53 32 55 62 56
REMARK SMILES IDX 43 57 61 58 44 59 47 60 60 61 78 62 45 63 46 64 59 66 79 67
REMARK SMILES IDX 48 68 33 69 34 70 42 71 35 72 41 73 36 74 37 75 38 76 39 77
REMARK SMILES IDX 40 78 63 79 64 80 72 81 65 82 71 83 66 84 67 85 68 86 69 87
REMARK SMILES IDX 70 88 49 89 50 90 58 91 51 92 57 93 52 94 53 95 54 96 55 97
REMARK SMILES IDX 56 98
REMARK H PARENT 6 16 3 22 77 54 47 65
REMARK Flexibility Score: inf
ROOT
ATOM      1  C   UNL A   1      38.853  23.286  26.633  1.00  0.00     0.188 C 
ENDROOT
BRANCH   1   2
ATOM      2  O   UNL A   1      39.694  24.285  27.196  1.00  0.00    -0.376 OA
BRANCH   2   3
ATOM      3  C   UNL A   1      40.091  25.326  26.299  1.00  0.00     0.202 C 
BRANCH   3   4
ATOM      4  C   UNL A   1      40.911  26.448  26.958  1.00  0.00     0.261 C 
BRANCH   4   5
ATOM      5  O   UNL A   1      40.073  27.554  27.360  1.00  0.00    -0.460 OA
BRANCH   5   6
ATOM      6  C   UNL A   1      39.641  27.517  28.637  1.00  0.00     0.338 C 
ATOM      7  O   UNL A   1      39.547  26.558  29.381  1.00  0.00    -0.246 OA
BRANCH   6   8
ATOM      8  C   UNL A   1      39.441  28.887  29.123  1.00  0.00     0.062 A 
ATOM      9  C   UNL A   1      37.558  31.630  29.455  1.00  0.00     0.055 A 
ATOM     10  C   UNL A   1      37.643  29.735  28.901  1.00  0.00     0.043 A 
ATOM     11  C   UNL A   1      38.998  32.756  30.209  1.00  0.00     0.041 A 
ATOM     12  C   UNL A   1      40.789  31.894  30.425  1.00  0.00     0.019 A 
ATOM     13  Br  UNL A   1      38.768  34.590  30.589  1.00  0.00    -0.049 Br
ATOM     14  C   UNL A   1      40.868  30.011  29.863  1.00  0.00     0.017 A 
BRANCH   9  15
ATOM     15  N   UNL A   1      36.506  32.303  28.828  1.00  0.00    -0.331 N 
ATOM     16  H   UNL A   1      36.725  32.998  28.166  1.00  0.00     0.169 HD
BRANCH  15  17
ATOM     17  C   UNL A   1      35.203  32.050  29.082  1.00  0.00     0.177 C 
ATOM     18  S   UNL A   1      34.138  31.884  27.807  1.00  0.00    -0.040 S 
BRANCH  17  19
ATOM     19  N   UNL A   1      34.702  32.004  30.371  1.00  0.00    -0.299 N 
ATOM     20  O   UNL A   1      34.033  32.324  32.527  1.00  0.00    -0.269 OA
ATOM     21  C   UNL A   1      34.711  32.725  31.579  1.00  0.00     0.257 C 
ATOM     22  H   UNL A   1      34.155  31.192  30.480  1.00  0.00     0.172 HD
BRANCH  21  23
ATOM     23  C   UNL A   1      35.428  34.002  31.802  1.00  0.00     0.040 A 
ATOM     24  C   UNL A   1      35.292  35.159  32.351  1.00  0.00     0.017 A 
ATOM     25  C   UNL A   1      34.718  35.044  31.454  1.00  0.00     0.017 A 
ATOM     26  C   UNL A   1      34.337  36.910  32.808  1.00  0.00     0.040 A 
ATOM     27  C   UNL A   1      33.745  36.798  31.883  1.00  0.00     0.040 A 
ATOM     28  C   UNL A   1      33.312  37.669  32.725  1.00  0.00     0.123 A 
ATOM     29  F   UNL A   1      33.338  38.989  32.556  1.00  0.00    -0.207 F 
ENDBRANCH  21  23
ENDBRANCH  17  19
ENDBRANCH  15  17
ENDBRANCH   9  15
ENDBRANCH   6   8
ENDBRANCH   5   6
ENDBRANCH   4   5
ENDBRANCH   3   4
ENDBRANCH   2   3
ENDBRANCH   1   2
BRANCH   1  30
ATOM     30  C   UNL A   1      39.546  21.965  26.294  1.00  0.00     0.188 C 
BRANCH  30  31
ATOM     31  O   UNL A   1      40.113  21.337  27.446  1.00  0.00    -0.376 OA
BRANCH  31  32
ATOM     32  C   UNL A   1      40.855  20.143  27.156  1.00  0.00     0.202 C 
BRANCH  32  33
ATOM     33  C   UNL A   1      41.824  20.289  25.972  1.00  0.00     0.261 C 
BRANCH  33  34
ATOM     34  O   UNL A   1      43.078  20.859  26.391  1.00  0.00    -0.460 OA
BRANCH  34  35
ATOM     35  C   UNL A   1      43.276  22.146  26.011  1.00  0.00     0.338 C 
ATOM     36  O   UNL A   1      43.006  22.626  24.922  1.00  0.00    -0.246 OA
BRANCH  35  37
ATOM     37  C   UNL A   1      43.674  22.946  27.195  1.00  0.00     0.060 A 
ATOM     38  C   UNL A   1      42.680  23.305  28.114  1.00  0.00     0.016 A 
ATOM     39  C   UNL A   1      45.004  23.320  27.417  1.00  0.00     0.016 A 
ATOM     40  C   UNL A   1      43.005  24.088  29.223  1.00  0.00     0.010 A 
ATOM     41  C   UNL A   1      45.329  24.103  28.525  1.00  0.00     0.010 A 
ATOM     42  C   UNL A   1      44.324  24.521  29.412  1.00  0.00    -0.014 A 
BRANCH  42  43
ATOM     43  C   UNL A   1      44.616  25.570  30.415  1.00  0.00     0.031 A 
ATOM     44  C   UNL A   1      44.665  27.001  29.951  1.00  0.00     0.074 A 
ATOM     45  C   UNL A   1      44.840  25.267  31.705  1.00  0.00     0.049 A 
ATOM     46  N   UNL A   1      44.861  28.089  30.648  1.00  0.00    -0.248 NA
ATOM     47  C   UNL A   1      44.468  27.233  28.510  1.00  0.00     0.031 C 
ATOM     48  C   UNL A   1      44.844  23.920  32.278  1.00  0.00     0.029 A 
ATOM     49  N   UNL A   1      45.120  26.086  32.771  1.00  0.00    -0.354 N 
ATOM     50  C   UNL A   1      44.804  29.133  29.735  1.00  0.00     0.074 A 
ATOM     51  C   UNL A   1      44.579  28.551  28.430  1.00  0.00     0.031 C 
ATOM     52  C   UNL A   1      45.130  24.006  33.591  1.00  0.00     0.029 A 
ATOM     53  C   UNL A   1      45.327  25.410  33.949  1.00  0.00     0.049 A 
ATOM     54  H   UNL A   1      45.168  27.066  32.697  1.00  0.00     0.167 HD
ATOM     55  C   UNL A   1      44.921  30.464  29.956  1.00  0.00     0.031 A 
ATOM     56  C   UNL A   1      45.643  25.876  35.173  1.00  0.00     0.031 A 
ATOM     57  C   UNL A   1      45.162  31.053  31.242  1.00  0.00     0.049 A 
ATOM     58  C   UNL A   1      45.777  27.360  35.394  1.00  0.00     0.074 A 
ATOM     59  C   UNL A   1      45.271  32.392  31.569  1.00  0.00     0.029 A 
ATOM     60  N   UNL A   1      45.340  30.335  32.413  1.00  0.00    -0.354 N 
ATOM     61  N   UNL A   1      45.648  28.338  34.529  1.00  0.00    -0.248 NA
ATOM     62  C   UNL A   1      46.087  27.802  36.763  1.00  0.00     0.031 C 
ATOM     63  C   UNL A   1      45.538  32.484  32.940  1.00  0.00     0.029 A 
ATOM     64  C   UNL A   1      45.570  31.201  33.465  1.00  0.00     0.049 A 
ATOM     65  H   UNL A   1      45.307  29.354  32.486  1.00  0.00     0.167 HD
ATOM     66  C   UNL A   1      45.835  29.510  35.256  1.00  0.00     0.074 A 
ATOM     67  C   UNL A   1      46.083  29.122  36.628  1.00  0.00     0.031 C 
ATOM     68  C   UNL A   1      45.801  30.795  34.824  1.00  0.00     0.031 A 
BRANCH  55  69
ATOM     69  C   UNL A   1      44.798  31.364  28.763  1.00  0.00    -0.014 A 
ATOM     70  C   UNL A   1      43.763  32.313  28.689  1.00  0.00     0.010 A 
ATOM     71  C   UNL A   1      45.722  31.261  27.709  1.00  0.00     0.010 A 
ATOM     72  C   UNL A   1      43.635  33.126  27.561  1.00  0.00     0.020 A 
ATOM     73  C   UNL A   1      45.604  32.082  26.586  1.00  0.00     0.020 A 
ATOM     74  C   UNL A   1      44.551  32.998  26.511  1.00  0.00     0.054 A 
BRANCH  74  75
ATOM     75  S   UNL A   1      44.376  34.067  25.057  1.00  0.00     0.124 S 
ATOM     76  O   UNL A   1      44.488  33.104  23.964  1.00  0.00    -0.237 OA
ATOM     77  O   UNL A   1      43.052  34.655  25.240  1.00  0.00    -0.237 OA
ATOM     78  O   UNL A   1      45.491  35.002  25.182  1.00  0.00    -0.744 OA
ENDBRANCH  74  75
ENDBRANCH  55  69
BRANCH  56  79
ATOM     79  C   UNL A   1      45.863  24.934  36.301  1.00  0.00    -0.014 A 
ATOM     80  C   UNL A   1      47.163  24.647  36.751  1.00  0.00     0.010 A 
ATOM     81  C   UNL A   1      44.768  24.286  36.899  1.00  0.00     0.010 A 
ATOM     82  C   UNL A   1      47.368  23.706  37.764  1.00  0.00     0.020 A 
ATOM     83  C   UNL A   1      44.970  23.355  37.922  1.00  0.00     0.020 A 
ATOM     84  C   UNL A   1      46.269  23.058  38.337  1.00  0.00     0.054 A 
BRANCH  84  85
ATOM     85  S   UNL A   1      46.539  21.853  39.667  1.00  0.00     0.124 S 
ATOM     86  O   UNL A   1      47.914  22.143  40.062  1.00  0.00    -0.237 OA
ATOM     87  O   UNL A   1      45.512  22.209  40.643  1.00  0.00    -0.237 OA
ATOM     88  O   UNL A   1      46.332  20.569  39.000  1.00  0.00    -0.744 OA
ENDBRANCH  84  85
ENDBRANCH  56  79
BRANCH  68  89
ATOM     89  C   UNL A   1      46.004  31.874  35.849  1.00  0.00    -0.014 A 
ATOM     90  C   UNL A   1      44.906  32.532  36.430  1.00  0.00     0.010 A 
ATOM     91  C   UNL A   1      47.304  32.188  36.281  1.00  0.00     0.010 A 
ATOM     92  C   UNL A   1      45.107  33.502  37.415  1.00  0.00     0.020 A 
ATOM     93  C   UNL A   1      47.508  33.146  37.275  1.00  0.00     0.020 A 
ATOM     94  C   UNL A   1      46.408  33.806  37.828  1.00  0.00     0.054 A 
BRANCH  94  95
ATOM     95  S   UNL A   1      46.656  35.027  39.148  1.00  0.00     0.124 S 
ATOM     96  O   UNL A   1      46.591  36.286  38.413  1.00  0.00    -0.237 OA
ATOM     97  O   UNL A   1      45.536  34.768  40.050  1.00  0.00    -0.237 OA
ATOM     98  O   UNL A   1      47.970  34.683  39.688  1.00  0.00    -0.744 OA
ENDBRANCH  94  95
ENDBRANCH  68  89
ENDBRANCH  42  43
ENDBRANCH  35  37
ENDBRANCH  34  35
ENDBRANCH  33  34
ENDBRANCH  32  33
ENDBRANCH  31  32
ENDBRANCH  30  31
ENDBRANCH   1  30
TORSDOF 24
ENDMDL
