MODEL 1
REMARK VINA RESULT:     -11.0      0.000      0.000
REMARK SMILES Cc1nn(-c2ccc(C(=O)OCCOCCOCCOC(=O)c3ccc(-c4c5nc(c(-c6ccc(S(=O)(=O)[O-])cc6)c6ccc([nH]6)c(-c6ccc(S(=O)(=O)[O-])cc6)c6nc(c(-c7ccc(S(=O)(=O)[O-])cc7)c7ccc4[nH]7)C=C6)C=C5)cc3)cc2)c(=O)c2ccccc12
REMARK SMILES IDX 16 1 15 2 14 3 13 4 12 5 11 6 9 7 10 8 8 9 5 10 6 11 84 12
REMARK SMILES IDX 7 13 83 14 4 15 1 16 2 17 3 18 92 19 87 20 91 21 85 22 88 23
REMARK SMILES IDX 90 24 86 25 89 26 17 27 18 28 19 29 20 30 21 31 22 32 23 33
REMARK SMILES IDX 24 34 82 35 25 36 81 37 26 38 27 39 28 40 75 41 29 42 80 43
REMARK SMILES IDX 74 44 76 45 30 46 79 47 73 48 72 49 31 51 61 52 42 53 60 54
REMARK SMILES IDX 43 55 46 56 59 57 77 58 44 59 45 60 58 62 78 63 47 64 32 65
REMARK SMILES IDX 33 66 41 67 34 68 40 69 35 70 36 71 37 72 38 73 39 74 62 75
REMARK SMILES IDX 63 76 71 77 64 78 70 79 65 80 66 81 67 82 68 83 69 84 48 85
REMARK SMILES IDX 49 86 57 87 50 88 56 89 51 90 52 91 53 92 54 93 55 94
REMARK H PARENT 76 50 46 61
REMARK Flexibility Score: inf
ROOT
ATOM      1  C   UNL A   1      34.112  34.669  29.705  1.00  0.00     0.188 C 
ENDROOT
BRANCH   1   2
ATOM      2  C   UNL A   1      33.269  34.571  28.414  1.00  0.00     0.188 C 
BRANCH   2   3
ATOM      3  O   UNL A   1      33.098  33.318  27.793  1.00  0.00    -0.376 OA
BRANCH   3   4
ATOM      4  C   UNL A   1      31.871  32.963  27.177  1.00  0.00     0.202 C 
BRANCH   4   5
ATOM      5  C   UNL A   1      31.594  31.629  26.468  1.00  0.00     0.261 C 
BRANCH   5   6
ATOM      6  O   UNL A   1      31.931  30.444  27.193  1.00  0.00    -0.460 OA
BRANCH   6   7
ATOM      7  C   UNL A   1      33.155  29.929  26.909  1.00  0.00     0.338 C 
ATOM      8  O   UNL A   1      34.238  30.439  27.132  1.00  0.00    -0.246 OA
BRANCH   7   9
ATOM      9  C   UNL A   1      33.000  28.535  26.448  1.00  0.00     0.060 A 
ATOM     10  C   UNL A   1      32.680  25.870  25.665  1.00  0.00     0.069 A 
ATOM     11  C   UNL A   1      31.674  26.504  26.402  1.00  0.00     0.029 A 
ATOM     12  C   UNL A   1      33.801  26.608  25.253  1.00  0.00     0.029 A 
ATOM     13  C   UNL A   1      31.853  27.824  26.829  1.00  0.00     0.018 A 
ATOM     14  C   UNL A   1      33.957  27.943  25.625  1.00  0.00     0.018 A 
BRANCH  10  15
ATOM     15  N   UNL A   1      32.625  24.467  25.442  1.00  0.00    -0.196 N 
ATOM     16  C   UNL A   1      33.295  21.559  27.600  1.00  0.00     0.069 C 
ATOM     17  C   UNL A   1      32.981  22.392  26.377  1.00  0.00     0.066 A 
ATOM     18  N   UNL A   1      33.008  23.685  26.507  1.00  0.00    -0.169 NA
ATOM     19  C   UNL A   1      32.643  21.709  25.108  1.00  0.00     0.010 A 
ATOM     20  C   UNL A   1      32.330  22.515  24.022  1.00  0.00     0.051 A 
ATOM     21  C   UNL A   1      32.669  20.319  24.940  1.00  0.00     0.011 A 
ATOM     22  C   UNL A   1      32.240  23.970  24.195  1.00  0.00     0.279 A 
ATOM     23  C   UNL A   1      32.104  21.956  22.756  1.00  0.00     0.014 A 
ATOM     24  C   UNL A   1      32.429  19.759  23.681  1.00  0.00     0.001 A 
ATOM     25  O   UNL A   1      31.876  24.640  23.229  1.00  0.00    -0.267 OA
ATOM     26  C   UNL A   1      32.163  20.577  22.584  1.00  0.00     0.001 A 
ENDBRANCH  10  15
ENDBRANCH   7   9
ENDBRANCH   6   7
ENDBRANCH   5   6
ENDBRANCH   4   5
ENDBRANCH   3   4
ENDBRANCH   2   3
ENDBRANCH   1   2
BRANCH   1  27
ATOM     27  O   UNL A   1      33.871  33.807  30.800  1.00  0.00    -0.376 OA
BRANCH  27  28
ATOM     28  C   UNL A   1      34.866  32.871  31.181  1.00  0.00     0.202 C 
BRANCH  28  29
ATOM     29  C   UNL A   1      36.011  32.477  30.239  1.00  0.00     0.261 C 
BRANCH  29  30
ATOM     30  O   UNL A   1      35.999  31.117  29.789  1.00  0.00    -0.460 OA
BRANCH  30  31
ATOM     31  C   UNL A   1      36.531  30.211  30.650  1.00  0.00     0.338 C 
ATOM     32  O   UNL A   1      35.996  29.725  31.632  1.00  0.00    -0.246 OA
BRANCH  31  33
ATOM     33  C   UNL A   1      37.821  29.744  30.108  1.00  0.00     0.060 A 
ATOM     34  C   UNL A   1      38.087  29.827  28.742  1.00  0.00     0.016 A 
ATOM     35  C   UNL A   1      38.777  29.220  30.992  1.00  0.00     0.016 A 
ATOM     36  C   UNL A   1      39.325  29.398  28.261  1.00  0.00     0.010 A 
ATOM     37  C   UNL A   1      40.007  28.777  30.504  1.00  0.00     0.010 A 
ATOM     38  C   UNL A   1      40.299  28.881  29.137  1.00  0.00    -0.014 A 
BRANCH  38  39
ATOM     39  C   UNL A   1      41.670  28.616  28.639  1.00  0.00     0.031 A 
ATOM     40  C   UNL A   1      42.734  29.672  28.640  1.00  0.00     0.074 A 
ATOM     41  C   UNL A   1      41.945  27.379  28.182  1.00  0.00     0.049 A 
ATOM     42  N   UNL A   1      44.002  29.548  28.344  1.00  0.00    -0.248 NA
ATOM     43  C   UNL A   1      42.332  31.035  29.015  1.00  0.00     0.031 C 
ATOM     44  C   UNL A   1      40.975  26.284  28.112  1.00  0.00     0.029 A 
ATOM     45  N   UNL A   1      43.110  26.827  27.711  1.00  0.00    -0.354 N 
ATOM     46  C   UNL A   1      44.561  30.806  28.524  1.00  0.00     0.074 A 
ATOM     47  C   UNL A   1      43.481  31.693  28.904  1.00  0.00     0.031 C 
ATOM     48  C   UNL A   1      41.595  25.181  27.668  1.00  0.00     0.029 A 
ATOM     49  C   UNL A   1      42.993  25.495  27.388  1.00  0.00     0.049 A 
ATOM     50  H   UNL A   1      43.947  27.334  27.614  1.00  0.00     0.167 HD
ATOM     51  C   UNL A   1      45.860  31.174  28.403  1.00  0.00     0.031 A 
ATOM     52  C   UNL A   1      43.908  24.614  26.933  1.00  0.00     0.031 A 
ATOM     53  C   UNL A   1      46.921  30.279  28.003  1.00  0.00     0.049 A 
ATOM     54  C   UNL A   1      45.333  25.059  26.763  1.00  0.00     0.074 A 
ATOM     55  C   UNL A   1      48.273  30.554  27.896  1.00  0.00     0.029 A 
ATOM     56  N   UNL A   1      46.756  28.950  27.636  1.00  0.00    -0.354 N 
ATOM     57  N   UNL A   1      45.862  26.231  27.023  1.00  0.00    -0.248 NA
ATOM     58  C   UNL A   1      46.290  24.064  26.259  1.00  0.00     0.031 C 
ATOM     59  C   UNL A   1      48.912  29.422  27.386  1.00  0.00     0.029 A 
ATOM     60  C   UNL A   1      47.977  28.408  27.261  1.00  0.00     0.049 A 
ATOM     61  H   UNL A   1      45.900  28.465  27.641  1.00  0.00     0.167 HD
ATOM     62  C   UNL A   1      47.216  26.109  26.733  1.00  0.00     0.074 A 
ATOM     63  C   UNL A   1      47.429  24.745  26.296  1.00  0.00     0.031 C 
ATOM     64  C   UNL A   1      48.189  27.049  26.820  1.00  0.00     0.031 A 
BRANCH  51  65
ATOM     65  C   UNL A   1      46.243  32.598  28.725  1.00  0.00    -0.014 A 
ATOM     66  C   UNL A   1      46.535  33.502  27.685  1.00  0.00     0.010 A 
ATOM     67  C   UNL A   1      46.473  32.995  30.056  1.00  0.00     0.010 A 
ATOM     68  C   UNL A   1      47.088  34.754  27.964  1.00  0.00     0.020 A 
ATOM     69  C   UNL A   1      46.998  34.260  30.340  1.00  0.00     0.020 A 
ATOM     70  C   UNL A   1      47.328  35.121  29.291  1.00  0.00     0.054 A 
BRANCH  70  71
ATOM     71  S   UNL A   1      48.099  36.729  29.631  1.00  0.00     0.124 S 
ATOM     72  O   UNL A   1      49.190  36.365  30.529  1.00  0.00    -0.237 OA
ATOM     73  O   UNL A   1      48.499  37.177  28.299  1.00  0.00    -0.237 OA
ATOM     74  O   UNL A   1      47.020  37.504  30.240  1.00  0.00    -0.744 OA
ENDBRANCH  70  71
ENDBRANCH  51  65
BRANCH  52  75
ATOM     75  C   UNL A   1      43.485  23.211  26.672  1.00  0.00    -0.014 A 
ATOM     76  C   UNL A   1      42.838  22.464  27.675  1.00  0.00     0.010 A 
ATOM     77  C   UNL A   1      43.820  22.580  25.461  1.00  0.00     0.010 A 
ATOM     78  C   UNL A   1      42.594  21.100  27.499  1.00  0.00     0.020 A 
ATOM     79  C   UNL A   1      43.545  21.222  25.268  1.00  0.00     0.020 A 
ATOM     80  C   UNL A   1      42.965  20.485  26.302  1.00  0.00     0.054 A 
BRANCH  80  81
ATOM     81  S   UNL A   1      42.703  18.698  26.127  1.00  0.00     0.124 S 
ATOM     82  O   UNL A   1      43.660  18.356  25.077  1.00  0.00    -0.237 OA
ATOM     83  O   UNL A   1      43.026  18.198  27.460  1.00  0.00    -0.237 OA
ATOM     84  O   UNL A   1      41.297  18.593  25.749  1.00  0.00    -0.744 OA
ENDBRANCH  80  81
ENDBRANCH  52  75
BRANCH  64  85
ATOM     85  C   UNL A   1      49.595  26.665  26.429  1.00  0.00    -0.014 A 
ATOM     86  C   UNL A   1      50.010  26.791  25.089  1.00  0.00     0.010 A 
ATOM     87  C   UNL A   1      50.455  26.041  27.351  1.00  0.00     0.010 A 
ATOM     88  C   UNL A   1      51.231  26.258  24.668  1.00  0.00     0.020 A 
ATOM     89  C   UNL A   1      51.693  25.537  26.941  1.00  0.00     0.020 A 
ATOM     90  C   UNL A   1      52.060  25.621  25.595  1.00  0.00     0.054 A 
BRANCH  90  91
ATOM     91  S   UNL A   1      53.613  24.883  25.018  1.00  0.00     0.124 S 
ATOM     92  O   UNL A   1      53.268  23.467  24.931  1.00  0.00    -0.237 OA
ATOM     93  O   UNL A   1      53.832  25.557  23.740  1.00  0.00    -0.237 OA
ATOM     94  O   UNL A   1      54.568  25.228  26.068  1.00  0.00    -0.744 OA
ENDBRANCH  90  91
ENDBRANCH  64  85
ENDBRANCH  38  39
ENDBRANCH  31  33
ENDBRANCH  30  31
ENDBRANCH  29  30
ENDBRANCH  28  29
ENDBRANCH  27  28
ENDBRANCH   1  27
TORSDOF 21
ENDMDL
MODEL 2
REMARK VINA RESULT:     -10.9      0.621      7.945
REMARK SMILES Cc1nn(-c2ccc(C(=O)OCCOCCOCCOC(=O)c3ccc(-c4c5nc(c(-c6ccc(S(=O)(=O)[O-])cc6)c6ccc([nH]6)c(-c6ccc(S(=O)(=O)[O-])cc6)c6nc(c(-c7ccc(S(=O)(=O)[O-])cc7)c7ccc4[nH]7)C=C6)C=C5)cc3)cc2)c(=O)c2ccccc12
REMARK SMILES IDX 16 1 15 2 14 3 13 4 12 5 11 6 9 7 10 8 8 9 5 10 6 11 84 12
REMARK SMILES IDX 7 13 83 14 4 15 1 16 2 17 3 18 92 19 87 20 91 21 85 22 88 23
REMARK SMILES IDX 90 24 86 25 89 26 17 27 18 28 19 29 20 30 21 31 22 32 23 33
REMARK SMILES IDX 24 34 82 35 25 36 81 37 26 38 27 39 28 40 75 41 29 42 80 43
REMARK SMILES IDX 74 44 76 45 30 46 79 47 73 48 72 49 31 51 61 52 42 53 60 54
REMARK SMILES IDX 43 55 46 56 59 57 77 58 44 59 45 60 58 62 78 63 47 64 32 65
REMARK SMILES IDX 33 66 41 67 34 68 40 69 35 70 36 71 37 72 38 73 39 74 62 75
REMARK SMILES IDX 63 76 71 77 64 78 70 79 65 80 66 81 67 82 68 83 69 84 48 85
REMARK SMILES IDX 49 86 57 87 50 88 56 89 51 90 52 91 53 92 54 93 55 94
REMARK H PARENT 76 50 46 61
REMARK Flexibility Score: inf
ROOT
ATOM      1  C   UNL A   1      34.000  34.563  29.487  1.00  0.00     0.188 C 
ENDROOT
BRANCH   1   2
ATOM      2  C   UNL A   1      33.114  34.350  28.240  1.00  0.00     0.188 C 
BRANCH   2   3
ATOM      3  O   UNL A   1      32.990  33.057  27.692  1.00  0.00    -0.376 OA
BRANCH   3   4
ATOM      4  C   UNL A   1      31.767  32.610  27.130  1.00  0.00     0.202 C 
BRANCH   4   5
ATOM      5  C   UNL A   1      31.583  31.302  26.346  1.00  0.00     0.261 C 
BRANCH   5   6
ATOM      6  O   UNL A   1      31.652  30.093  27.105  1.00  0.00    -0.460 OA
BRANCH   6   7
ATOM      7  C   UNL A   1      32.885  29.526  27.165  1.00  0.00     0.338 C 
ATOM      8  O   UNL A   1      33.875  29.975  27.715  1.00  0.00    -0.246 OA
BRANCH   7   9
ATOM      9  C   UNL A   1      32.817  28.157  26.618  1.00  0.00     0.060 A 
ATOM     10  C   UNL A   1      32.644  25.535  25.663  1.00  0.00     0.069 A 
ATOM     11  C   UNL A   1      31.517  26.148  26.220  1.00  0.00     0.029 A 
ATOM     12  C   UNL A   1      33.827  26.277  25.511  1.00  0.00     0.029 A 
ATOM     13  C   UNL A   1      31.615  27.444  26.735  1.00  0.00     0.018 A 
ATOM     14  C   UNL A   1      33.913  27.591  25.969  1.00  0.00     0.018 A 
BRANCH  10  15
ATOM     15  N   UNL A   1      32.628  24.144  25.367  1.00  0.00    -0.196 N 
ATOM     16  C   UNL A   1      33.639  21.165  27.280  1.00  0.00     0.069 C 
ATOM     17  C   UNL A   1      33.167  22.044  26.143  1.00  0.00     0.066 A 
ATOM     18  N   UNL A   1      33.150  23.328  26.343  1.00  0.00    -0.169 NA
ATOM     19  C   UNL A   1      32.733  21.412  24.877  1.00  0.00     0.010 A 
ATOM     20  C   UNL A   1      32.277  22.257  23.875  1.00  0.00     0.051 A 
ATOM     21  C   UNL A   1      32.802  20.035  24.630  1.00  0.00     0.011 A 
ATOM     22  C   UNL A   1      32.142  23.695  24.138  1.00  0.00     0.279 A 
ATOM     23  C   UNL A   1      31.949  21.753  22.608  1.00  0.00     0.014 A 
ATOM     24  C   UNL A   1      32.461  19.530  23.370  1.00  0.00     0.001 A 
ATOM     25  O   UNL A   1      31.654  24.395  23.252  1.00  0.00    -0.267 OA
ATOM     26  C   UNL A   1      32.050  20.390  22.353  1.00  0.00     0.001 A 
ENDBRANCH  10  15
ENDBRANCH   7   9
ENDBRANCH   6   7
ENDBRANCH   5   6
ENDBRANCH   4   5
ENDBRANCH   3   4
ENDBRANCH   2   3
ENDBRANCH   1   2
BRANCH   1  27
ATOM     27  O   UNL A   1      33.873  33.730  30.622  1.00  0.00    -0.376 OA
BRANCH  27  28
ATOM     28  C   UNL A   1      34.944  32.872  30.979  1.00  0.00     0.202 C 
BRANCH  28  29
ATOM     29  C   UNL A   1      36.076  32.536  29.998  1.00  0.00     0.261 C 
BRANCH  29  30
ATOM     30  O   UNL A   1      36.134  31.170  29.570  1.00  0.00    -0.460 OA
BRANCH  30  31
ATOM     31  C   UNL A   1      36.696  30.304  30.452  1.00  0.00     0.338 C 
ATOM     32  O   UNL A   1      36.139  29.706  31.357  1.00  0.00    -0.246 OA
BRANCH  31  33
ATOM     33  C   UNL A   1      38.085  30.036  30.033  1.00  0.00     0.060 A 
ATOM     34  C   UNL A   1      39.092  29.876  30.983  1.00  0.00     0.016 A 
ATOM     35  C   UNL A   1      38.373  29.940  28.663  1.00  0.00     0.016 A 
ATOM     36  C   UNL A   1      40.394  29.601  30.558  1.00  0.00     0.010 A 
ATOM     37  C   UNL A   1      39.679  29.681  28.241  1.00  0.00     0.010 A 
ATOM     38  C   UNL A   1      40.696  29.490  29.187  1.00  0.00    -0.014 A 
BRANCH  38  39
ATOM     39  C   UNL A   1      42.033  29.006  28.765  1.00  0.00     0.031 A 
ATOM     40  C   UNL A   1      42.270  27.585  28.352  1.00  0.00     0.074 A 
ATOM     41  C   UNL A   1      43.047  29.892  28.756  1.00  0.00     0.049 A 
ATOM     42  N   UNL A   1      43.355  27.055  27.851  1.00  0.00    -0.248 NA
ATOM     43  C   UNL A   1      41.158  26.639  28.522  1.00  0.00     0.031 C 
ATOM     44  C   UNL A   1      42.932  31.294  29.163  1.00  0.00     0.029 A 
ATOM     45  N   UNL A   1      44.360  29.759  28.377  1.00  0.00    -0.354 N 
ATOM     46  C   UNL A   1      43.055  25.720  27.616  1.00  0.00     0.074 A 
ATOM     47  C   UNL A   1      41.699  25.508  28.080  1.00  0.00     0.031 C 
ATOM     48  C   UNL A   1      44.111  31.902  28.973  1.00  0.00     0.029 A 
ATOM     49  C   UNL A   1      45.076  30.931  28.464  1.00  0.00     0.049 A 
ATOM     50  H   UNL A   1      44.751  28.909  28.073  1.00  0.00     0.167 HD
ATOM     51  C   UNL A   1      43.836  24.770  27.045  1.00  0.00     0.031 A 
ATOM     52  C   UNL A   1      46.360  31.204  28.155  1.00  0.00     0.031 A 
ATOM     53  C   UNL A   1      45.193  24.995  26.607  1.00  0.00     0.049 A 
ATOM     54  C   UNL A   1      47.219  30.123  27.566  1.00  0.00     0.074 A 
ATOM     55  C   UNL A   1      46.045  24.104  25.977  1.00  0.00     0.029 A 
ATOM     56  N   UNL A   1      45.901  26.180  26.757  1.00  0.00    -0.354 N 
ATOM     57  N   UNL A   1      46.892  28.888  27.268  1.00  0.00    -0.248 NA
ATOM     58  C   UNL A   1      48.613  30.469  27.253  1.00  0.00     0.031 C 
ATOM     59  C   UNL A   1      47.289  24.719  25.824  1.00  0.00     0.029 A 
ATOM     60  C   UNL A   1      47.191  26.026  26.271  1.00  0.00     0.049 A 
ATOM     61  H   UNL A   1      45.540  27.007  27.149  1.00  0.00     0.167 HD
ATOM     62  C   UNL A   1      48.032  28.316  26.714  1.00  0.00     0.074 A 
ATOM     63  C   UNL A   1      49.051  29.344  26.701  1.00  0.00     0.031 C 
ATOM     64  C   UNL A   1      48.211  27.049  26.263  1.00  0.00     0.031 A 
BRANCH  51  65
ATOM     65  C   UNL A   1      43.259  23.393  26.825  1.00  0.00    -0.014 A 
ATOM     66  C   UNL A   1      42.921  22.586  27.929  1.00  0.00     0.010 A 
ATOM     67  C   UNL A   1      43.204  22.837  25.533  1.00  0.00     0.010 A 
ATOM     68  C   UNL A   1      42.584  21.241  27.751  1.00  0.00     0.020 A 
ATOM     69  C   UNL A   1      42.837  21.500  25.349  1.00  0.00     0.020 A 
ATOM     70  C   UNL A   1      42.556  20.703  26.461  1.00  0.00     0.054 A 
BRANCH  70  71
ATOM     71  S   UNL A   1      42.169  18.942  26.255  1.00  0.00     0.124 S 
ATOM     72  O   UNL A   1      43.122  18.534  25.227  1.00  0.00    -0.237 OA
ATOM     73  O   UNL A   1      42.414  18.404  27.592  1.00  0.00    -0.237 OA
ATOM     74  O   UNL A   1      40.768  18.944  25.841  1.00  0.00    -0.744 OA
ENDBRANCH  70  71
ENDBRANCH  51  65
BRANCH  52  75
ATOM     75  C   UNL A   1      46.866  32.591  28.353  1.00  0.00    -0.014 A 
ATOM     76  C   UNL A   1      47.276  33.024  29.628  1.00  0.00     0.010 A 
ATOM     77  C   UNL A   1      46.840  33.516  27.294  1.00  0.00     0.010 A 
ATOM     78  C   UNL A   1      47.586  34.367  29.856  1.00  0.00     0.020 A 
ATOM     79  C   UNL A   1      47.184  34.854  27.511  1.00  0.00     0.020 A 
ATOM     80  C   UNL A   1      47.522  35.276  28.798  1.00  0.00     0.054 A 
BRANCH  80  81
ATOM     81  S   UNL A   1      47.860  37.026  29.137  1.00  0.00     0.124 S 
ATOM     82  O   UNL A   1      48.609  36.949  30.389  1.00  0.00    -0.237 OA
ATOM     83  O   UNL A   1      48.632  37.433  27.966  1.00  0.00    -0.237 OA
ATOM     84  O   UNL A   1      46.530  37.619  29.240  1.00  0.00    -0.744 OA
ENDBRANCH  80  81
ENDBRANCH  52  75
BRANCH  64  85
ATOM     85  C   UNL A   1      49.564  26.668  25.713  1.00  0.00    -0.014 A 
ATOM     86  C   UNL A   1      50.547  26.144  26.574  1.00  0.00     0.010 A 
ATOM     87  C   UNL A   1      49.912  26.966  24.384  1.00  0.00     0.010 A 
ATOM     88  C   UNL A   1      51.862  25.973  26.133  1.00  0.00     0.020 A 
ATOM     89  C   UNL A   1      51.218  26.763  23.928  1.00  0.00     0.020 A 
ATOM     90  C   UNL A   1      52.193  26.297  24.814  1.00  0.00     0.054 A 
BRANCH  90  91
ATOM     91  S   UNL A   1      53.917  26.124  24.277  1.00  0.00     0.124 S 
ATOM     92  O   UNL A   1      53.787  26.110  22.823  1.00  0.00    -0.237 OA
ATOM     93  O   UNL A   1      54.549  27.314  24.841  1.00  0.00    -0.237 OA
ATOM     94  O   UNL A   1      54.338  24.860  24.877  1.00  0.00    -0.744 OA
ENDBRANCH  90  91
ENDBRANCH  64  85
ENDBRANCH  38  39
ENDBRANCH  31  33
ENDBRANCH  30  31
ENDBRANCH  29  30
ENDBRANCH  28  29
ENDBRANCH  27  28
ENDBRANCH   1  27
TORSDOF 21
ENDMDL
MODEL 3
REMARK VINA RESULT:     -10.2      1.307      2.105
REMARK SMILES Cc1nn(-c2ccc(C(=O)OCCOCCOCCOC(=O)c3ccc(-c4c5nc(c(-c6ccc(S(=O)(=O)[O-])cc6)c6ccc([nH]6)c(-c6ccc(S(=O)(=O)[O-])cc6)c6nc(c(-c7ccc(S(=O)(=O)[O-])cc7)c7ccc4[nH]7)C=C6)C=C5)cc3)cc2)c(=O)c2ccccc12
REMARK SMILES IDX 16 1 15 2 14 3 13 4 12 5 11 6 9 7 10 8 8 9 5 10 6 11 84 12
REMARK SMILES IDX 7 13 83 14 4 15 1 16 2 17 3 18 92 19 87 20 91 21 85 22 88 23
REMARK SMILES IDX 90 24 86 25 89 26 17 27 18 28 19 29 20 30 21 31 22 32 23 33
REMARK SMILES IDX 24 34 82 35 25 36 81 37 26 38 27 39 28 40 75 41 29 42 80 43
REMARK SMILES IDX 74 44 76 45 30 46 79 47 73 48 72 49 31 51 61 52 42 53 60 54
REMARK SMILES IDX 43 55 46 56 59 57 77 58 44 59 45 60 58 62 78 63 47 64 32 65
REMARK SMILES IDX 33 66 41 67 34 68 40 69 35 70 36 71 37 72 38 73 39 74 62 75
REMARK SMILES IDX 63 76 71 77 64 78 70 79 65 80 66 81 67 82 68 83 69 84 48 85
REMARK SMILES IDX 49 86 57 87 50 88 56 89 51 90 52 91 53 92 54 93 55 94
REMARK H PARENT 76 50 46 61
REMARK Flexibility Score: inf
ROOT
ATOM      1  C   UNL A   1      33.358  32.929  27.885  1.00  0.00     0.188 C 
ENDROOT
BRANCH   1   2
ATOM      2  C   UNL A   1      32.060  32.804  27.057  1.00  0.00     0.188 C 
BRANCH   2   3
ATOM      3  O   UNL A   1      31.705  31.554  26.512  1.00  0.00    -0.376 OA
BRANCH   3   4
ATOM      4  C   UNL A   1      32.610  30.463  26.523  1.00  0.00     0.202 C 
BRANCH   4   5
ATOM      5  C   UNL A   1      32.581  29.283  25.539  1.00  0.00     0.261 C 
BRANCH   5   6
ATOM      6  O   UNL A   1      31.434  28.432  25.604  1.00  0.00    -0.460 OA
BRANCH   6   7
ATOM      7  C   UNL A   1      31.478  27.487  26.579  1.00  0.00     0.338 C 
ATOM      8  O   UNL A   1      31.204  27.632  27.757  1.00  0.00    -0.246 OA
BRANCH   7   9
ATOM      9  C   UNL A   1      31.732  26.168  25.966  1.00  0.00     0.060 A 
ATOM     10  C   UNL A   1      32.128  23.639  24.842  1.00  0.00     0.069 A 
ATOM     11  C   UNL A   1      30.898  24.288  24.681  1.00  0.00     0.029 A 
ATOM     12  C   UNL A   1      33.178  24.306  25.494  1.00  0.00     0.029 A 
ATOM     13  C   UNL A   1      30.687  25.534  25.279  1.00  0.00     0.018 A 
ATOM     14  C   UNL A   1      32.991  25.576  26.040  1.00  0.00     0.018 A 
BRANCH  10  15
ATOM     15  N   UNL A   1      32.272  22.278  24.460  1.00  0.00    -0.196 N 
ATOM     16  C   UNL A   1      31.853  20.519  21.252  1.00  0.00     0.069 C 
ATOM     17  C   UNL A   1      32.081  20.774  22.725  1.00  0.00     0.066 A 
ATOM     18  N   UNL A   1      31.969  21.999  23.148  1.00  0.00    -0.169 NA
ATOM     19  C   UNL A   1      32.433  19.639  23.607  1.00  0.00     0.010 A 
ATOM     20  C   UNL A   1      32.665  19.928  24.944  1.00  0.00     0.051 A 
ATOM     21  C   UNL A   1      32.499  18.308  23.175  1.00  0.00     0.011 A 
ATOM     22  C   UNL A   1      32.660  21.323  25.402  1.00  0.00     0.279 A 
ATOM     23  C   UNL A   1      32.898  18.900  25.869  1.00  0.00     0.014 A 
ATOM     24  C   UNL A   1      32.745  17.283  24.095  1.00  0.00     0.001 A 
ATOM     25  O   UNL A   1      32.954  21.541  26.576  1.00  0.00    -0.267 OA
ATOM     26  C   UNL A   1      32.929  17.576  25.445  1.00  0.00     0.001 A 
ENDBRANCH  10  15
ENDBRANCH   7   9
ENDBRANCH   6   7
ENDBRANCH   5   6
ENDBRANCH   4   5
ENDBRANCH   3   4
ENDBRANCH   2   3
ENDBRANCH   1   2
BRANCH   1  27
ATOM     27  O   UNL A   1      33.484  33.907  28.899  1.00  0.00    -0.376 OA
BRANCH  27  28
ATOM     28  C   UNL A   1      34.437  33.718  29.932  1.00  0.00     0.202 C 
BRANCH  28  29
ATOM     29  C   UNL A   1      35.819  33.110  29.660  1.00  0.00     0.261 C 
BRANCH  29  30
ATOM     30  O   UNL A   1      35.923  31.696  29.868  1.00  0.00    -0.460 OA
BRANCH  30  31
ATOM     31  C   UNL A   1      36.694  31.315  30.919  1.00  0.00     0.338 C 
ATOM     32  O   UNL A   1      36.368  31.263  32.094  1.00  0.00    -0.246 OA
BRANCH  31  33
ATOM     33  C   UNL A   1      37.966  30.778  30.402  1.00  0.00     0.060 A 
ATOM     34  C   UNL A   1      38.129  30.531  29.040  1.00  0.00     0.016 A 
ATOM     35  C   UNL A   1      39.012  30.526  31.303  1.00  0.00     0.016 A 
ATOM     36  C   UNL A   1      39.352  30.044  28.575  1.00  0.00     0.010 A 
ATOM     37  C   UNL A   1      40.228  30.023  30.837  1.00  0.00     0.010 A 
ATOM     38  C   UNL A   1      40.414  29.797  29.466  1.00  0.00    -0.014 A 
BRANCH  38  39
ATOM     39  C   UNL A   1      41.759  29.470  28.935  1.00  0.00     0.031 A 
ATOM     40  C   UNL A   1      42.865  30.481  28.893  1.00  0.00     0.074 A 
ATOM     41  C   UNL A   1      41.970  28.217  28.488  1.00  0.00     0.049 A 
ATOM     42  N   UNL A   1      44.118  30.301  28.564  1.00  0.00    -0.248 NA
ATOM     43  C   UNL A   1      42.529  31.864  29.260  1.00  0.00     0.031 C 
ATOM     44  C   UNL A   1      40.956  27.161  28.460  1.00  0.00     0.029 A 
ATOM     45  N   UNL A   1      43.099  27.611  27.993  1.00  0.00    -0.354 N 
ATOM     46  C   UNL A   1      44.733  31.538  28.711  1.00  0.00     0.074 A 
ATOM     47  C   UNL A   1      43.700  32.473  29.108  1.00  0.00     0.031 C 
ATOM     48  C   UNL A   1      41.518  26.028  28.015  1.00  0.00     0.029 A 
ATOM     49  C   UNL A   1      42.920  26.281  27.692  1.00  0.00     0.049 A 
ATOM     50  H   UNL A   1      43.953  28.083  27.866  1.00  0.00     0.167 HD
ATOM     51  C   UNL A   1      46.042  31.850  28.550  1.00  0.00     0.031 A 
ATOM     52  C   UNL A   1      43.785  25.358  27.225  1.00  0.00     0.031 A 
ATOM     53  C   UNL A   1      47.053  30.908  28.134  1.00  0.00     0.049 A 
ATOM     54  C   UNL A   1      45.221  25.741  27.010  1.00  0.00     0.074 A 
ATOM     55  C   UNL A   1      48.413  31.125  27.986  1.00  0.00     0.029 A 
ATOM     56  N   UNL A   1      46.825  29.582  27.790  1.00  0.00    -0.354 N 
ATOM     57  N   UNL A   1      45.804  26.894  27.239  1.00  0.00    -0.248 NA
ATOM     58  C   UNL A   1      46.122  24.702  26.494  1.00  0.00     0.031 C 
ATOM     59  C   UNL A   1      48.991  29.962  27.475  1.00  0.00     0.029 A 
ATOM     60  C   UNL A   1      48.011  28.986  27.390  1.00  0.00     0.049 A 
ATOM     61  H   UNL A   1      45.950  29.133  27.825  1.00  0.00     0.167 HD
ATOM     62  C   UNL A   1      47.143  26.713  26.914  1.00  0.00     0.074 A 
ATOM     63  C   UNL A   1      47.289  25.336  26.490  1.00  0.00     0.031 C 
ATOM     64  C   UNL A   1      48.156  27.614  26.961  1.00  0.00     0.031 A 
BRANCH  51  65
ATOM     65  C   UNL A   1      46.491  33.262  28.841  1.00  0.00    -0.014 A 
ATOM     66  C   UNL A   1      46.778  33.651  30.164  1.00  0.00     0.010 A 
ATOM     67  C   UNL A   1      46.470  34.243  27.833  1.00  0.00     0.010 A 
ATOM     68  C   UNL A   1      46.992  34.995  30.480  1.00  0.00     0.020 A 
ATOM     69  C   UNL A   1      46.714  35.585  28.141  1.00  0.00     0.020 A 
ATOM     70  C   UNL A   1      46.946  35.957  29.467  1.00  0.00     0.054 A 
BRANCH  70  71
ATOM     71  S   UNL A   1      47.172  37.704  29.906  1.00  0.00     0.124 S 
ATOM     72  O   UNL A   1      46.969  37.687  31.352  1.00  0.00    -0.237 OA
ATOM     73  O   UNL A   1      48.539  37.969  29.463  1.00  0.00    -0.237 OA
ATOM     74  O   UNL A   1      46.134  38.387  29.138  1.00  0.00    -0.744 OA
ENDBRANCH  70  71
ENDBRANCH  51  65
BRANCH  52  75
ATOM     75  C   UNL A   1      43.298  23.970  26.995  1.00  0.00    -0.014 A 
ATOM     76  C   UNL A   1      42.676  23.626  25.779  1.00  0.00     0.010 A 
ATOM     77  C   UNL A   1      43.357  23.015  28.025  1.00  0.00     0.010 A 
ATOM     78  C   UNL A   1      42.064  22.380  25.623  1.00  0.00     0.020 A 
ATOM     79  C   UNL A   1      42.776  21.753  27.858  1.00  0.00     0.020 A 
ATOM     80  C   UNL A   1      42.105  21.458  26.671  1.00  0.00     0.054 A 
BRANCH  80  81
ATOM     81  S   UNL A   1      41.242  19.875  26.467  1.00  0.00     0.124 S 
ATOM     82  O   UNL A   1      42.150  19.150  25.581  1.00  0.00    -0.237 OA
ATOM     83  O   UNL A   1      41.168  19.375  27.837  1.00  0.00    -0.237 OA
ATOM     84  O   UNL A   1      39.962  20.255  25.876  1.00  0.00    -0.744 OA
ENDBRANCH  80  81
ENDBRANCH  52  75
BRANCH  64  85
ATOM     85  C   UNL A   1      49.534  27.167  26.538  1.00  0.00    -0.014 A 
ATOM     86  C   UNL A   1      49.906  27.230  25.181  1.00  0.00     0.010 A 
ATOM     87  C   UNL A   1      50.405  26.548  27.453  1.00  0.00     0.010 A 
ATOM     88  C   UNL A   1      51.093  26.640  24.739  1.00  0.00     0.020 A 
ATOM     89  C   UNL A   1      51.611  25.988  27.021  1.00  0.00     0.020 A 
ATOM     90  C   UNL A   1      51.932  26.009  25.661  1.00  0.00     0.054 A 
BRANCH  90  91
ATOM     91  S   UNL A   1      53.439  25.198  25.060  1.00  0.00     0.124 S 
ATOM     92  O   UNL A   1      53.186  23.797  25.386  1.00  0.00    -0.237 OA
ATOM     93  O   UNL A   1      53.431  25.523  23.635  1.00  0.00    -0.237 OA
ATOM     94  O   UNL A   1      54.503  25.835  25.831  1.00  0.00    -0.744 OA
ENDBRANCH  90  91
ENDBRANCH  64  85
ENDBRANCH  38  39
ENDBRANCH  31  33
ENDBRANCH  30  31
ENDBRANCH  29  30
ENDBRANCH  28  29
ENDBRANCH  27  28
ENDBRANCH   1  27
TORSDOF 21
ENDMDL
