MODEL 1
REMARK VINA RESULT:      -8.3      0.000      0.000
REMARK SMILES CC(C)(C)c1cc(Nc2ccccc2C(=O)OCCOCCOCCOC(=O)c2ccc(-c3c4nc(c(-c5ccc(S(=O)(=O)[O-])cc5)c5ccc([nH]5)c(-c5ccc(S(=O)(=O)[O-])cc5)c5nc(c(-c6ccc(S(=O)(=O)[O-])cc6)c6ccc3[nH]6)C=C5)C=C4)cc2)cc2c1OCC2(C)C
REMARK SMILES IDX 21 1 20 2 19 3 18 4 17 5 15 6 16 7 14 8 9 9 10 10 11 11
REMARK SMILES IDX 13 12 12 13 8 14 7 16 5 17 6 18 91 19 90 20 92 21 89 22
REMARK SMILES IDX 94 23 93 24 95 25 96 26 2 27 1 28 3 29 4 30 22 31 23 32
REMARK SMILES IDX 24 33 25 34 26 35 27 36 28 37 29 38 30 39 88 40 31 41 87 42
REMARK SMILES IDX 32 43 33 44 34 45 81 46 35 47 86 48 80 49 82 50 36 51 85 52
REMARK SMILES IDX 79 53 78 54 37 56 67 57 48 58 66 59 49 60 52 61 65 62 83 63
REMARK SMILES IDX 50 64 51 65 64 67 84 68 53 69 38 70 39 71 47 72 40 73 46 74
REMARK SMILES IDX 41 75 42 76 43 77 44 78 45 79 68 80 69 81 77 82 70 83 76 84
REMARK SMILES IDX 71 85 72 86 73 87 74 88 75 89 54 90 55 91 63 92 56 93 62 94
REMARK SMILES IDX 57 95 58 96 59 97 60 98 61 99
REMARK H PARENT 8 15 82 55 52 66
REMARK Flexibility Score: inf
ROOT
ATOM      1  C   UNL A   1      50.679  20.570  35.796  1.00  0.00     0.188 C 
ENDROOT
BRANCH   1   2
ATOM      2  O   UNL A   1      49.434  21.218  35.610  1.00  0.00    -0.376 OA
BRANCH   2   3
ATOM      3  C   UNL A   1      48.667  20.959  34.441  1.00  0.00     0.202 C 
BRANCH   3   4
ATOM      4  C   UNL A   1      47.320  20.248  34.558  1.00  0.00     0.261 C 
BRANCH   4   5
ATOM      5  O   UNL A   1      46.218  21.073  34.143  1.00  0.00    -0.460 OA
BRANCH   5   6
ATOM      6  C   UNL A   1      45.514  21.625  35.162  1.00  0.00     0.340 C 
ATOM      7  O   UNL A   1      45.397  21.157  36.284  1.00  0.00    -0.246 OA
BRANCH   6   8
ATOM      8  C   UNL A   1      44.988  22.968  34.820  1.00  0.00     0.083 A 
ATOM      9  C   UNL A   1      44.798  24.019  35.737  1.00  0.00     0.053 A 
ATOM     10  C   UNL A   1      44.450  25.278  35.206  1.00  0.00     0.027 A 
ATOM     11  C   UNL A   1      44.137  25.453  33.856  1.00  0.00     0.002 A 
ATOM     12  C   UNL A   1      44.664  23.148  33.460  1.00  0.00     0.018 A 
ATOM     13  C   UNL A   1      44.204  24.375  32.988  1.00  0.00     0.001 A 
BRANCH   9  14
ATOM     14  N   UNL A   1      44.779  23.825  37.140  1.00  0.00    -0.355 N 
ATOM     15  H   UNL A   1      44.086  23.215  37.483  1.00  0.00     0.167 HD
BRANCH  14  16
ATOM     16  C   UNL A   1      45.638  24.401  38.112  1.00  0.00     0.039 A 
ATOM     17  C   UNL A   1      47.893  24.520  39.156  1.00  0.00     0.002 A 
ATOM     18  C   UNL A   1      46.962  23.929  38.260  1.00  0.00     0.034 A 
ATOM     19  C   UNL A   1      47.436  25.643  39.849  1.00  0.00     0.127 A 
ATOM     20  C   UNL A   1      46.137  26.106  39.736  1.00  0.00     0.006 A 
ATOM     21  O   UNL A   1      48.203  26.437  40.665  1.00  0.00    -0.492 OA
ATOM     22  C   UNL A   1      45.233  25.483  38.899  1.00  0.00     0.034 A 
ATOM     23  C   UNL A   1      45.933  27.340  40.544  1.00  0.00     0.028 C 
ATOM     24  C   UNL A   1      47.279  27.361  41.289  1.00  0.00     0.240 C 
ATOM     25  C   UNL A   1      45.768  28.560  39.627  1.00  0.00     0.020 C 
ATOM     26  C   UNL A   1      44.751  27.237  41.510  1.00  0.00     0.020 C 
BRANCH  17  27
ATOM     27  C   UNL A   1      49.325  23.985  39.334  1.00  0.00    -0.009 C 
ATOM     28  C   UNL A   1      49.900  24.228  40.750  1.00  0.00     0.016 C 
ATOM     29  C   UNL A   1      50.304  24.673  38.353  1.00  0.00     0.016 C 
ATOM     30  C   UNL A   1      49.336  22.464  39.087  1.00  0.00     0.016 C 
ENDBRANCH  17  27
ENDBRANCH  14  16
ENDBRANCH   9  14
ENDBRANCH   6   8
ENDBRANCH   5   6
ENDBRANCH   4   5
ENDBRANCH   3   4
ENDBRANCH   2   3
ENDBRANCH   1   2
BRANCH   1  31
ATOM     31  C   UNL A   1      51.338  19.790  34.641  1.00  0.00     0.188 C 
BRANCH  31  32
ATOM     32  O   UNL A   1      52.518  20.273  34.026  1.00  0.00    -0.376 OA
BRANCH  32  33
ATOM     33  C   UNL A   1      52.411  21.176  32.935  1.00  0.00     0.202 C 
BRANCH  33  34
ATOM     34  C   UNL A   1      52.208  22.667  33.208  1.00  0.00     0.261 C 
BRANCH  34  35
ATOM     35  O   UNL A   1      51.142  23.237  32.435  1.00  0.00    -0.460 OA
BRANCH  35  36
ATOM     36  C   UNL A   1      51.377  24.477  31.940  1.00  0.00     0.338 C 
ATOM     37  O   UNL A   1      52.452  24.956  31.617  1.00  0.00    -0.246 OA
BRANCH  36  38
ATOM     38  C   UNL A   1      50.081  25.118  31.651  1.00  0.00     0.060 A 
ATOM     39  C   UNL A   1      49.905  25.884  30.499  1.00  0.00     0.016 A 
ATOM     40  C   UNL A   1      49.032  24.944  32.563  1.00  0.00     0.016 A 
ATOM     41  C   UNL A   1      48.661  26.466  30.248  1.00  0.00     0.010 A 
ATOM     42  C   UNL A   1      47.796  25.544  32.322  1.00  0.00     0.010 A 
ATOM     43  C   UNL A   1      47.599  26.294  31.153  1.00  0.00    -0.014 A 
BRANCH  43  44
ATOM     44  C   UNL A   1      46.241  26.765  30.796  1.00  0.00     0.031 A 
ATOM     45  C   UNL A   1      45.298  25.921  29.997  1.00  0.00     0.074 A 
ATOM     46  C   UNL A   1      45.870  27.990  31.216  1.00  0.00     0.049 A 
ATOM     47  N   UNL A   1      44.057  26.174  29.672  1.00  0.00    -0.248 NA
ATOM     48  C   UNL A   1      45.803  24.632  29.499  1.00  0.00     0.031 C 
ATOM     49  C   UNL A   1      46.719  28.897  31.993  1.00  0.00     0.029 A 
ATOM     50  N   UNL A   1      44.695  28.680  31.061  1.00  0.00    -0.354 N 
ATOM     51  C   UNL A   1      43.614  25.065  28.964  1.00  0.00     0.074 A 
ATOM     52  C   UNL A   1      44.738  24.157  28.860  1.00  0.00     0.031 C 
ATOM     53  C   UNL A   1      46.033  30.018  32.255  1.00  0.00     0.029 A 
ATOM     54  C   UNL A   1      44.707  29.923  31.648  1.00  0.00     0.049 A 
ATOM     55  H   UNL A   1      43.918  28.319  30.575  1.00  0.00     0.167 HD
ATOM     56  C   UNL A   1      42.376  24.825  28.474  1.00  0.00     0.031 A 
ATOM     57  C   UNL A   1      43.762  30.882  31.699  1.00  0.00     0.031 A 
ATOM     58  C   UNL A   1      41.274  25.752  28.567  1.00  0.00     0.049 A 
ATOM     59  C   UNL A   1      42.417  30.619  31.086  1.00  0.00     0.074 A 
ATOM     60  C   UNL A   1      39.974  25.578  28.125  1.00  0.00     0.029 A 
ATOM     61  N   UNL A   1      41.337  27.019  29.126  1.00  0.00    -0.354 N 
ATOM     62  N   UNL A   1      41.992  29.533  30.485  1.00  0.00    -0.248 NA
ATOM     63  C   UNL A   1      41.417  31.694  31.166  1.00  0.00     0.031 C 
ATOM     64  C   UNL A   1      39.273  26.763  28.348  1.00  0.00     0.029 A 
ATOM     65  C   UNL A   1      40.111  27.653  29.003  1.00  0.00     0.049 A 
ATOM     66  H   UNL A   1      42.135  27.412  29.549  1.00  0.00     0.167 HD
ATOM     67  C   UNL A   1      40.675  29.790  30.124  1.00  0.00     0.074 A 
ATOM     68  C   UNL A   1      40.364  31.125  30.592  1.00  0.00     0.031 C 
ATOM     69  C   UNL A   1      39.808  28.987  29.461  1.00  0.00     0.031 A 
BRANCH  56  70
ATOM     70  C   UNL A   1      42.102  23.497  27.814  1.00  0.00    -0.014 A 
ATOM     71  C   UNL A   1      41.788  22.371  28.598  1.00  0.00     0.010 A 
ATOM     72  C   UNL A   1      42.334  23.329  26.437  1.00  0.00     0.010 A 
ATOM     73  C   UNL A   1      41.758  21.095  28.027  1.00  0.00     0.020 A 
ATOM     74  C   UNL A   1      42.281  22.058  25.858  1.00  0.00     0.020 A 
ATOM     75  C   UNL A   1      42.021  20.945  26.662  1.00  0.00     0.054 A 
BRANCH  75  76
ATOM     76  S   UNL A   1      42.047  19.275  25.953  1.00  0.00     0.124 S 
ATOM     77  O   UNL A   1      40.643  19.061  25.614  1.00  0.00    -0.237 OA
ATOM     78  O   UNL A   1      42.954  19.425  24.818  1.00  0.00    -0.237 OA
ATOM     79  O   UNL A   1      42.559  18.448  27.044  1.00  0.00    -0.744 OA
ENDBRANCH  75  76
ENDBRANCH  56  70
BRANCH  57  80
ATOM     80  C   UNL A   1      44.078  32.162  32.388  1.00  0.00    -0.014 A 
ATOM     81  C   UNL A   1      44.889  33.122  31.753  1.00  0.00     0.010 A 
ATOM     82  C   UNL A   1      43.669  32.381  33.714  1.00  0.00     0.010 A 
ATOM     83  C   UNL A   1      45.338  34.245  32.450  1.00  0.00     0.020 A 
ATOM     84  C   UNL A   1      44.091  33.521  34.407  1.00  0.00     0.020 A 
ATOM     85  C   UNL A   1      44.949  34.428  33.779  1.00  0.00     0.054 A 
BRANCH  85  86
ATOM     86  S   UNL A   1      45.600  35.858  34.687  1.00  0.00     0.124 S 
ATOM     87  O   UNL A   1      46.029  36.732  33.600  1.00  0.00    -0.237 OA
ATOM     88  O   UNL A   1      44.434  36.315  35.440  1.00  0.00    -0.237 OA
ATOM     89  O   UNL A   1      46.675  35.289  35.495  1.00  0.00    -0.744 OA
ENDBRANCH  85  86
ENDBRANCH  57  80
BRANCH  69  90
ATOM     90  C   UNL A   1      38.429  29.513  29.158  1.00  0.00    -0.014 A 
ATOM     91  C   UNL A   1      38.153  30.080  27.899  1.00  0.00     0.010 A 
ATOM     92  C   UNL A   1      37.462  29.605  30.176  1.00  0.00     0.010 A 
ATOM     93  C   UNL A   1      36.962  30.777  27.680  1.00  0.00     0.020 A 
ATOM     94  C   UNL A   1      36.258  30.277  29.952  1.00  0.00     0.020 A 
ATOM     95  C   UNL A   1      36.030  30.888  28.716  1.00  0.00     0.054 A 
BRANCH  95  96
ATOM     96  S   UNL A   1      34.528  31.867  28.439  1.00  0.00     0.124 S 
ATOM     97  O   UNL A   1      35.007  32.917  27.545  1.00  0.00    -0.237 OA
ATOM     98  O   UNL A   1      33.618  30.895  27.838  1.00  0.00    -0.237 OA
ATOM     99  O   UNL A   1      34.156  32.312  29.780  1.00  0.00    -0.744 OA
ENDBRANCH  95  96
ENDBRANCH  69  90
ENDBRANCH  43  44
ENDBRANCH  36  38
ENDBRANCH  35  36
ENDBRANCH  34  35
ENDBRANCH  33  34
ENDBRANCH  32  33
ENDBRANCH  31  32
ENDBRANCH   1  31
TORSDOF 23
ENDMDL
MODEL 2
REMARK VINA RESULT:      -7.9      1.716      3.095
REMARK SMILES CC(C)(C)c1cc(Nc2ccccc2C(=O)OCCOCCOCCOC(=O)c2ccc(-c3c4nc(c(-c5ccc(S(=O)(=O)[O-])cc5)c5ccc([nH]5)c(-c5ccc(S(=O)(=O)[O-])cc5)c5nc(c(-c6ccc(S(=O)(=O)[O-])cc6)c6ccc3[nH]6)C=C5)C=C4)cc2)cc2c1OCC2(C)C
REMARK SMILES IDX 21 1 20 2 19 3 18 4 17 5 15 6 16 7 14 8 9 9 10 10 11 11
REMARK SMILES IDX 13 12 12 13 8 14 7 16 5 17 6 18 91 19 90 20 92 21 89 22
REMARK SMILES IDX 94 23 93 24 95 25 96 26 2 27 1 28 3 29 4 30 22 31 23 32
REMARK SMILES IDX 24 33 25 34 26 35 27 36 28 37 29 38 30 39 88 40 31 41 87 42
REMARK SMILES IDX 32 43 33 44 34 45 81 46 35 47 86 48 80 49 82 50 36 51 85 52
REMARK SMILES IDX 79 53 78 54 37 56 67 57 48 58 66 59 49 60 52 61 65 62 83 63
REMARK SMILES IDX 50 64 51 65 64 67 84 68 53 69 38 70 39 71 47 72 40 73 46 74
REMARK SMILES IDX 41 75 42 76 43 77 44 78 45 79 68 80 69 81 77 82 70 83 76 84
REMARK SMILES IDX 71 85 72 86 73 87 74 88 75 89 54 90 55 91 63 92 56 93 62 94
REMARK SMILES IDX 57 95 58 96 59 97 60 98 61 99
REMARK H PARENT 8 15 82 55 52 66
REMARK Flexibility Score: inf
ROOT
ATOM      1  C   UNL A   1      51.052  20.900  38.469  1.00  0.00     0.188 C 
ENDROOT
BRANCH   1   2
ATOM      2  O   UNL A   1      50.120  19.842  38.341  1.00  0.00    -0.376 OA
BRANCH   2   3
ATOM      3  C   UNL A   1      49.407  19.381  39.481  1.00  0.00     0.202 C 
BRANCH   3   4
ATOM      4  C   UNL A   1      48.506  20.344  40.254  1.00  0.00     0.261 C 
BRANCH   4   5
ATOM      5  O   UNL A   1      47.571  21.031  39.406  1.00  0.00    -0.460 OA
BRANCH   5   6
ATOM      6  C   UNL A   1      46.528  20.272  38.986  1.00  0.00     0.340 C 
ATOM      7  O   UNL A   1      45.808  19.592  39.702  1.00  0.00    -0.246 OA
BRANCH   6   8
ATOM      8  C   UNL A   1      46.244  20.453  37.543  1.00  0.00     0.083 A 
ATOM      9  C   UNL A   1      45.971  21.685  36.921  1.00  0.00     0.053 A 
ATOM     10  C   UNL A   1      45.892  21.690  35.513  1.00  0.00     0.027 A 
ATOM     11  C   UNL A   1      45.910  20.510  34.765  1.00  0.00     0.002 A 
ATOM     12  C   UNL A   1      46.255  19.264  36.785  1.00  0.00     0.018 A 
ATOM     13  C   UNL A   1      46.050  19.290  35.408  1.00  0.00     0.001 A 
BRANCH   9  14
ATOM     14  N   UNL A   1      45.617  22.852  37.642  1.00  0.00    -0.355 N 
ATOM     15  H   UNL A   1      45.369  22.719  38.586  1.00  0.00     0.167 HD
BRANCH  14  16
ATOM     16  C   UNL A   1      45.578  24.191  37.172  1.00  0.00     0.039 A 
ATOM     17  C   UNL A   1      44.262  26.069  36.207  1.00  0.00     0.002 A 
ATOM     18  C   UNL A   1      44.387  24.714  36.616  1.00  0.00     0.034 A 
ATOM     19  C   UNL A   1      45.377  26.876  36.438  1.00  0.00     0.127 A 
ATOM     20  C   UNL A   1      46.559  26.379  36.959  1.00  0.00     0.006 A 
ATOM     21  O   UNL A   1      45.429  28.233  36.236  1.00  0.00    -0.492 OA
ATOM     22  C   UNL A   1      46.676  25.046  37.301  1.00  0.00     0.034 A 
ATOM     23  C   UNL A   1      47.563  27.461  37.146  1.00  0.00     0.028 C 
ATOM     24  C   UNL A   1      46.812  28.606  36.444  1.00  0.00     0.240 C 
ATOM     25  C   UNL A   1      47.773  27.745  38.639  1.00  0.00     0.020 C 
ATOM     26  C   UNL A   1      48.903  27.162  36.469  1.00  0.00     0.020 C 
BRANCH  17  27
ATOM     27  C   UNL A   1      42.974  26.627  35.576  1.00  0.00    -0.009 C 
ATOM     28  C   UNL A   1      41.734  25.732  35.814  1.00  0.00     0.016 C 
ATOM     29  C   UNL A   1      43.116  26.760  34.041  1.00  0.00     0.016 C 
ATOM     30  C   UNL A   1      42.667  28.010  36.184  1.00  0.00     0.016 C 
ENDBRANCH  17  27
ENDBRANCH  14  16
ENDBRANCH   9  14
ENDBRANCH   6   8
ENDBRANCH   5   6
ENDBRANCH   4   5
ENDBRANCH   3   4
ENDBRANCH   2   3
ENDBRANCH   1   2
BRANCH   1  31
ATOM     31  C   UNL A   1      51.083  22.048  37.440  1.00  0.00     0.188 C 
BRANCH  31  32
ATOM     32  O   UNL A   1      51.081  21.772  36.052  1.00  0.00    -0.376 OA
BRANCH  32  33
ATOM     33  C   UNL A   1      51.125  22.852  35.130  1.00  0.00     0.202 C 
BRANCH  33  34
ATOM     34  C   UNL A   1      51.856  22.676  33.799  1.00  0.00     0.261 C 
BRANCH  34  35
ATOM     35  O   UNL A   1      51.215  23.364  32.715  1.00  0.00    -0.460 OA
BRANCH  35  36
ATOM     36  C   UNL A   1      51.369  24.711  32.704  1.00  0.00     0.338 C 
ATOM     37  O   UNL A   1      52.414  25.339  32.764  1.00  0.00    -0.246 OA
BRANCH  36  38
ATOM     38  C   UNL A   1      50.065  25.327  32.399  1.00  0.00     0.060 A 
ATOM     39  C   UNL A   1      49.963  26.351  31.457  1.00  0.00     0.016 A 
ATOM     40  C   UNL A   1      48.932  24.867  33.082  1.00  0.00     0.016 A 
ATOM     41  C   UNL A   1      48.710  26.904  31.182  1.00  0.00     0.010 A 
ATOM     42  C   UNL A   1      47.685  25.435  32.822  1.00  0.00     0.010 A 
ATOM     43  C   UNL A   1      47.565  26.446  31.857  1.00  0.00    -0.014 A 
BRANCH  43  44
ATOM     44  C   UNL A   1      46.224  26.913  31.437  1.00  0.00     0.031 A 
ATOM     45  C   UNL A   1      45.363  26.111  30.512  1.00  0.00     0.074 A 
ATOM     46  C   UNL A   1      45.791  28.095  31.917  1.00  0.00     0.049 A 
ATOM     47  N   UNL A   1      44.142  26.360  30.117  1.00  0.00    -0.248 NA
ATOM     48  C   UNL A   1      45.936  24.873  29.960  1.00  0.00     0.031 C 
ATOM     49  C   UNL A   1      46.558  28.960  32.817  1.00  0.00     0.029 A 
ATOM     50  N   UNL A   1      44.613  28.769  31.727  1.00  0.00    -0.354 N 
ATOM     51  C   UNL A   1      43.781  25.298  29.300  1.00  0.00     0.074 A 
ATOM     52  C   UNL A   1      44.933  24.424  29.212  1.00  0.00     0.031 C 
ATOM     53  C   UNL A   1      45.826  30.044  33.109  1.00  0.00     0.029 A 
ATOM     54  C   UNL A   1      44.549  29.965  32.402  1.00  0.00     0.049 A 
ATOM     55  H   UNL A   1      43.882  28.429  31.161  1.00  0.00     0.167 HD
ATOM     56  C   UNL A   1      42.587  25.068  28.705  1.00  0.00     0.031 A 
ATOM     57  C   UNL A   1      43.577  30.897  32.453  1.00  0.00     0.031 A 
ATOM     58  C   UNL A   1      41.457  25.961  28.784  1.00  0.00     0.049 A 
ATOM     59  C   UNL A   1      42.287  30.651  31.726  1.00  0.00     0.074 A 
ATOM     60  C   UNL A   1      40.197  25.793  28.237  1.00  0.00     0.029 A 
ATOM     61  N   UNL A   1      41.446  27.185  29.437  1.00  0.00    -0.354 N 
ATOM     62  N   UNL A   1      41.935  29.605  31.018  1.00  0.00    -0.248 NA
ATOM     63  C   UNL A   1      41.256  31.696  31.811  1.00  0.00     0.031 C 
ATOM     64  C   UNL A   1      39.450  26.943  28.494  1.00  0.00     0.029 A 
ATOM     65  C   UNL A   1      40.215  27.799  29.271  1.00  0.00     0.049 A 
ATOM     66  H   UNL A   1      42.201  27.562  29.944  1.00  0.00     0.167 HD
ATOM     67  C   UNL A   1      40.641  29.859  30.582  1.00  0.00     0.074 A 
ATOM     68  C   UNL A   1      40.262  31.148  31.122  1.00  0.00     0.031 C 
ATOM     69  C   UNL A   1      39.845  29.089  29.801  1.00  0.00     0.031 A 
BRANCH  56  70
ATOM     70  C   UNL A   1      42.396  23.787  27.933  1.00  0.00    -0.014 A 
ATOM     71  C   UNL A   1      41.779  22.679  28.543  1.00  0.00     0.010 A 
ATOM     72  C   UNL A   1      42.991  23.627  26.668  1.00  0.00     0.010 A 
ATOM     73  C   UNL A   1      41.802  21.425  27.927  1.00  0.00     0.020 A 
ATOM     74  C   UNL A   1      42.994  22.380  26.037  1.00  0.00     0.020 A 
ATOM     75  C   UNL A   1      42.424  21.280  26.683  1.00  0.00     0.054 A 
BRANCH  75  76
ATOM     76  S   UNL A   1      42.504  19.631  25.931  1.00  0.00     0.124 S 
ATOM     77  O   UNL A   1      42.631  18.764  27.098  1.00  0.00    -0.237 OA
ATOM     78  O   UNL A   1      41.233  19.545  25.215  1.00  0.00    -0.237 OA
ATOM     79  O   UNL A   1      43.687  19.702  25.074  1.00  0.00    -0.744 OA
ENDBRANCH  75  76
ENDBRANCH  56  70
BRANCH  57  80
ATOM     80  C   UNL A   1      43.810  32.129  33.254  1.00  0.00    -0.014 A 
ATOM     81  C   UNL A   1      43.502  32.144  34.628  1.00  0.00     0.010 A 
ATOM     82  C   UNL A   1      44.231  33.318  32.634  1.00  0.00     0.010 A 
ATOM     83  C   UNL A   1      43.548  33.336  35.352  1.00  0.00     0.020 A 
ATOM     84  C   UNL A   1      44.308  34.508  33.364  1.00  0.00     0.020 A 
ATOM     85  C   UNL A   1      43.935  34.515  34.711  1.00  0.00     0.054 A 
BRANCH  85  86
ATOM     86  S   UNL A   1      43.921  36.065  35.654  1.00  0.00     0.124 S 
ATOM     87  O   UNL A   1      44.716  35.708  36.825  1.00  0.00    -0.237 OA
ATOM     88  O   UNL A   1      44.549  37.006  34.730  1.00  0.00    -0.237 OA
ATOM     89  O   UNL A   1      42.502  36.298  35.907  1.00  0.00    -0.744 OA
ENDBRANCH  85  86
ENDBRANCH  57  80
BRANCH  69  90
ATOM     90  C   UNL A   1      38.477  29.606  29.437  1.00  0.00    -0.014 A 
ATOM     91  C   UNL A   1      38.247  30.147  28.158  1.00  0.00     0.010 A 
ATOM     92  C   UNL A   1      37.474  29.716  30.418  1.00  0.00     0.010 A 
ATOM     93  C   UNL A   1      37.065  30.838  27.882  1.00  0.00     0.020 A 
ATOM     94  C   UNL A   1      36.278  30.382  30.136  1.00  0.00     0.020 A 
ATOM     95  C   UNL A   1      36.094  30.967  28.880  1.00  0.00     0.054 A 
BRANCH  95  96
ATOM     96  S   UNL A   1      34.603  31.938  28.529  1.00  0.00     0.124 S 
ATOM     97  O   UNL A   1      33.746  30.958  27.869  1.00  0.00    -0.237 OA
ATOM     98  O   UNL A   1      34.170  32.355  29.862  1.00  0.00    -0.237 OA
ATOM     99  O   UNL A   1      35.089  33.018  27.674  1.00  0.00    -0.744 OA
ENDBRANCH  95  96
ENDBRANCH  69  90
ENDBRANCH  43  44
ENDBRANCH  36  38
ENDBRANCH  35  36
ENDBRANCH  34  35
ENDBRANCH  33  34
ENDBRANCH  32  33
ENDBRANCH  31  32
ENDBRANCH   1  31
TORSDOF 23
ENDMDL
MODEL 3
REMARK VINA RESULT:      -7.7      4.783     11.781
REMARK SMILES CC(C)(C)c1cc(Nc2ccccc2C(=O)OCCOCCOCCOC(=O)c2ccc(-c3c4nc(c(-c5ccc(S(=O)(=O)[O-])cc5)c5ccc([nH]5)c(-c5ccc(S(=O)(=O)[O-])cc5)c5nc(c(-c6ccc(S(=O)(=O)[O-])cc6)c6ccc3[nH]6)C=C5)C=C4)cc2)cc2c1OCC2(C)C
REMARK SMILES IDX 21 1 20 2 19 3 18 4 17 5 15 6 16 7 14 8 9 9 10 10 11 11
REMARK SMILES IDX 13 12 12 13 8 14 7 16 5 17 6 18 91 19 90 20 92 21 89 22
REMARK SMILES IDX 94 23 93 24 95 25 96 26 2 27 1 28 3 29 4 30 22 31 23 32
REMARK SMILES IDX 24 33 25 34 26 35 27 36 28 37 29 38 30 39 88 40 31 41 87 42
REMARK SMILES IDX 32 43 33 44 34 45 81 46 35 47 86 48 80 49 82 50 36 51 85 52
REMARK SMILES IDX 79 53 78 54 37 56 67 57 48 58 66 59 49 60 52 61 65 62 83 63
REMARK SMILES IDX 50 64 51 65 64 67 84 68 53 69 38 70 39 71 47 72 40 73 46 74
REMARK SMILES IDX 41 75 42 76 43 77 44 78 45 79 68 80 69 81 77 82 70 83 76 84
REMARK SMILES IDX 71 85 72 86 73 87 74 88 75 89 54 90 55 91 63 92 56 93 62 94
REMARK SMILES IDX 57 95 58 96 59 97 60 98 61 99
REMARK H PARENT 8 15 82 55 52 66
REMARK Flexibility Score: inf
ROOT
ATOM      1  C   UNL A   1      47.205  25.266  27.177  1.00  0.00     0.188 C 
ENDROOT
BRANCH   1   2
ATOM      2  O   UNL A   1      48.467  25.781  26.794  1.00  0.00    -0.376 OA
BRANCH   2   3
ATOM      3  C   UNL A   1      48.541  26.921  25.948  1.00  0.00     0.202 C 
BRANCH   3   4
ATOM      4  C   UNL A   1      47.293  27.768  25.704  1.00  0.00     0.261 C 
BRANCH   4   5
ATOM      5  O   UNL A   1      46.976  28.624  26.815  1.00  0.00    -0.460 OA
BRANCH   5   6
ATOM      6  C   UNL A   1      46.206  29.694  26.499  1.00  0.00     0.340 C 
ATOM      7  O   UNL A   1      46.151  30.235  25.404  1.00  0.00    -0.246 OA
BRANCH   6   8
ATOM      8  C   UNL A   1      45.300  30.084  27.605  1.00  0.00     0.083 A 
ATOM      9  C   UNL A   1      44.355  31.125  27.548  1.00  0.00     0.053 A 
ATOM     10  C   UNL A   1      43.463  31.243  28.634  1.00  0.00     0.027 A 
ATOM     11  C   UNL A   1      43.606  30.481  29.796  1.00  0.00     0.002 A 
ATOM     12  C   UNL A   1      45.445  29.323  28.783  1.00  0.00     0.018 A 
ATOM     13  C   UNL A   1      44.626  29.548  29.887  1.00  0.00     0.001 A 
BRANCH   9  14
ATOM     14  N   UNL A   1      44.375  32.131  26.551  1.00  0.00    -0.355 N 
ATOM     15  H   UNL A   1      44.084  31.854  25.651  1.00  0.00     0.167 HD
BRANCH  14  16
ATOM     16  C   UNL A   1      44.761  33.490  26.689  1.00  0.00     0.039 A 
ATOM     17  C   UNL A   1      44.170  35.813  27.353  1.00  0.00     0.002 A 
ATOM     18  C   UNL A   1      43.822  34.456  27.116  1.00  0.00     0.034 A 
ATOM     19  C   UNL A   1      45.521  36.128  27.191  1.00  0.00     0.127 A 
ATOM     20  C   UNL A   1      46.451  35.203  26.751  1.00  0.00     0.006 A 
ATOM     21  O   UNL A   1      46.092  37.341  27.487  1.00  0.00    -0.492 OA
ATOM     22  C   UNL A   1      46.080  33.902  26.475  1.00  0.00     0.034 A 
ATOM     23  C   UNL A   1      47.818  35.791  26.714  1.00  0.00     0.028 C 
ATOM     24  C   UNL A   1      47.455  37.257  27.005  1.00  0.00     0.240 C 
ATOM     25  C   UNL A   1      48.692  35.186  27.822  1.00  0.00     0.020 C 
ATOM     26  C   UNL A   1      48.503  35.634  25.354  1.00  0.00     0.020 C 
BRANCH  17  27
ATOM     27  C   UNL A   1      43.139  36.868  27.791  1.00  0.00    -0.009 C 
ATOM     28  C   UNL A   1      43.141  38.136  26.904  1.00  0.00     0.016 C 
ATOM     29  C   UNL A   1      43.417  37.356  29.233  1.00  0.00     0.016 C 
ATOM     30  C   UNL A   1      41.724  36.259  27.720  1.00  0.00     0.016 C 
ENDBRANCH  17  27
ENDBRANCH  14  16
ENDBRANCH   9  14
ENDBRANCH   6   8
ENDBRANCH   5   6
ENDBRANCH   4   5
ENDBRANCH   3   4
ENDBRANCH   2   3
ENDBRANCH   1   2
BRANCH   1  31
ATOM     31  C   UNL A   1      46.354  24.452  26.182  1.00  0.00     0.188 C 
BRANCH  31  32
ATOM     32  O   UNL A   1      44.994  24.174  26.456  1.00  0.00    -0.376 OA
BRANCH  32  33
ATOM     33  C   UNL A   1      43.989  25.005  25.892  1.00  0.00     0.202 C 
BRANCH  33  34
ATOM     34  C   UNL A   1      42.541  24.515  25.853  1.00  0.00     0.261 C 
BRANCH  34  35
ATOM     35  O   UNL A   1      41.605  25.563  25.563  1.00  0.00    -0.460 OA
BRANCH  35  36
ATOM     36  C   UNL A   1      40.421  25.486  26.220  1.00  0.00     0.338 C 
ATOM     37  O   UNL A   1      39.482  24.747  25.973  1.00  0.00    -0.246 OA
BRANCH  36  38
ATOM     38  C   UNL A   1      40.509  26.311  27.438  1.00  0.00     0.060 A 
ATOM     39  C   UNL A   1      41.410  27.373  27.518  1.00  0.00     0.016 A 
ATOM     40  C   UNL A   1      39.671  26.000  28.517  1.00  0.00     0.016 A 
ATOM     41  C   UNL A   1      41.458  28.143  28.682  1.00  0.00     0.010 A 
ATOM     42  C   UNL A   1      39.735  26.757  29.687  1.00  0.00     0.010 A 
ATOM     43  C   UNL A   1      40.618  27.845  29.769  1.00  0.00    -0.014 A 
BRANCH  43  44
ATOM     44  C   UNL A   1      40.551  28.766  30.926  1.00  0.00     0.031 A 
ATOM     45  C   UNL A   1      41.431  28.592  32.124  1.00  0.00     0.074 A 
ATOM     46  C   UNL A   1      39.667  29.781  30.872  1.00  0.00     0.049 A 
ATOM     47  N   UNL A   1      41.533  29.362  33.177  1.00  0.00    -0.248 NA
ATOM     48  C   UNL A   1      42.310  27.413  32.151  1.00  0.00     0.031 C 
ATOM     49  C   UNL A   1      38.755  30.032  29.753  1.00  0.00     0.029 A 
ATOM     50  N   UNL A   1      39.392  30.786  31.762  1.00  0.00    -0.354 N 
ATOM     51  C   UNL A   1      42.510  28.787  33.977  1.00  0.00     0.074 A 
ATOM     52  C   UNL A   1      42.936  27.572  33.313  1.00  0.00     0.031 C 
ATOM     53  C   UNL A   1      38.030  31.127  30.019  1.00  0.00     0.029 A 
ATOM     54  C   UNL A   1      38.406  31.644  31.334  1.00  0.00     0.049 A 
ATOM     55  H   UNL A   1      39.856  30.885  32.624  1.00  0.00     0.167 HD
ATOM     56  C   UNL A   1      43.018  29.251  35.143  1.00  0.00     0.031 A 
ATOM     57  C   UNL A   1      37.861  32.725  31.925  1.00  0.00     0.031 A 
ATOM     58  C   UNL A   1      42.565  30.452  35.801  1.00  0.00     0.049 A 
ATOM     59  C   UNL A   1      38.394  33.181  33.253  1.00  0.00     0.074 A 
ATOM     60  C   UNL A   1      43.044  31.016  36.972  1.00  0.00     0.029 A 
ATOM     61  N   UNL A   1      41.533  31.268  35.363  1.00  0.00    -0.354 N 
ATOM     62  N   UNL A   1      39.371  32.667  33.961  1.00  0.00    -0.248 NA
ATOM     63  C   UNL A   1      37.769  34.366  33.859  1.00  0.00     0.031 C 
ATOM     64  C   UNL A   1      42.257  32.125  37.279  1.00  0.00     0.029 A 
ATOM     65  C   UNL A   1      41.333  32.304  36.260  1.00  0.00     0.049 A 
ATOM     66  H   UNL A   1      41.017  31.131  34.535  1.00  0.00     0.167 HD
ATOM     67  C   UNL A   1      39.485  33.469  35.090  1.00  0.00     0.074 A 
ATOM     68  C   UNL A   1      38.493  34.516  34.962  1.00  0.00     0.031 C 
ATOM     69  C   UNL A   1      40.336  33.339  36.135  1.00  0.00     0.031 A 
BRANCH  56  70
ATOM     70  C   UNL A   1      44.150  28.497  35.793  1.00  0.00    -0.014 A 
ATOM     71  C   UNL A   1      43.881  27.534  36.783  1.00  0.00     0.010 A 
ATOM     72  C   UNL A   1      45.483  28.874  35.550  1.00  0.00     0.010 A 
ATOM     73  C   UNL A   1      44.918  26.998  37.552  1.00  0.00     0.020 A 
ATOM     74  C   UNL A   1      46.526  28.321  36.299  1.00  0.00     0.020 A 
ATOM     75  C   UNL A   1      46.234  27.408  37.314  1.00  0.00     0.054 A 
BRANCH  75  76
ATOM     76  S   UNL A   1      47.558  26.753  38.367  1.00  0.00     0.124 S 
ATOM     77  O   UNL A   1      47.012  26.943  39.708  1.00  0.00    -0.237 OA
ATOM     78  O   UNL A   1      47.664  25.366  37.921  1.00  0.00    -0.237 OA
ATOM     79  O   UNL A   1      48.707  27.594  38.036  1.00  0.00    -0.744 OA
ENDBRANCH  75  76
ENDBRANCH  56  70
BRANCH  57  80
ATOM     80  C   UNL A   1      36.765  33.447  31.224  1.00  0.00    -0.014 A 
ATOM     81  C   UNL A   1      35.477  33.494  31.791  1.00  0.00     0.010 A 
ATOM     82  C   UNL A   1      36.971  33.993  29.946  1.00  0.00     0.010 A 
ATOM     83  C   UNL A   1      34.402  34.013  31.067  1.00  0.00     0.020 A 
ATOM     84  C   UNL A   1      35.902  34.542  29.230  1.00  0.00     0.020 A 
ATOM     85  C   UNL A   1      34.619  34.518  29.783  1.00  0.00     0.054 A 
BRANCH  85  86
ATOM     86  S   UNL A   1      33.196  35.125  28.835  1.00  0.00     0.124 S 
ATOM     87  O   UNL A   1      32.263  35.488  29.896  1.00  0.00    -0.237 OA
ATOM     88  O   UNL A   1      33.765  36.243  28.086  1.00  0.00    -0.237 OA
ATOM     89  O   UNL A   1      32.809  33.972  28.026  1.00  0.00    -0.744 OA
ENDBRANCH  85  86
ENDBRANCH  57  80
BRANCH  69  90
ATOM     90  C   UNL A   1      40.241  34.332  37.266  1.00  0.00    -0.014 A 
ATOM     91  C   UNL A   1      39.329  34.114  38.317  1.00  0.00     0.010 A 
ATOM     92  C   UNL A   1      40.925  35.559  37.196  1.00  0.00     0.010 A 
ATOM     93  C   UNL A   1      39.061  35.125  39.243  1.00  0.00     0.020 A 
ATOM     94  C   UNL A   1      40.680  36.562  38.139  1.00  0.00     0.020 A 
ATOM     95  C   UNL A   1      39.725  36.350  39.137  1.00  0.00     0.054 A 
BRANCH  95  96
ATOM     96  S   UNL A   1      39.302  37.678  40.298  1.00  0.00     0.124 S 
ATOM     97  O   UNL A   1      38.198  38.345  39.613  1.00  0.00    -0.237 OA
ATOM     98  O   UNL A   1      38.940  36.943  41.508  1.00  0.00    -0.237 OA
ATOM     99  O   UNL A   1      40.535  38.455  40.396  1.00  0.00    -0.744 OA
ENDBRANCH  95  96
ENDBRANCH  69  90
ENDBRANCH  43  44
ENDBRANCH  36  38
ENDBRANCH  35  36
ENDBRANCH  34  35
ENDBRANCH  33  34
ENDBRANCH  32  33
ENDBRANCH  31  32
ENDBRANCH   1  31
TORSDOF 23
ENDMDL
