MODEL 1
REMARK VINA RESULT:      -8.0      0.000      0.000
REMARK SMILES CC[C@@H](C)[C@H](NC(=O)[C@H](C)N1C(=O)N2CCC3=c4cc(OC)ccc4=N[C@H]3[C@@]2(C)C1=O)C(=O)OCCOCCOCCOC(=O)c1ccc(-c2c3nc(c(-c4ccc(S(=O)(=O)[O-])cc4)c4ccc([nH]4)c(-c4ccc(S(=O)(=O)[O-])cc4)c4nc(c(-c5ccc(S(=O)(=O)[O-])cc5)c5ccc2[nH]5)C=C4)C=C3)cc1
REMARK SMILES IDX 38 1 37 2 36 3 35 4 34 5 32 6 33 7 5 8 3 9 4 10 2 11 1 12
REMARK SMILES IDX 6 13 7 14 8 16 9 17 10 18 11 19 12 20 30 21 14 22 13 23
REMARK SMILES IDX 28 24 31 25 15 26 27 27 29 28 16 29 17 30 26 31 18 32 25 33
REMARK SMILES IDX 19 34 24 35 20 36 23 37 21 38 22 39 39 40 40 41 41 42 42 43
REMARK SMILES IDX 43 44 44 45 45 46 46 47 47 48 105 49 48 50 104 51 49 52
REMARK SMILES IDX 50 53 51 54 98 55 52 56 103 57 97 58 99 59 53 60 102 61
REMARK SMILES IDX 96 62 95 63 54 65 84 66 65 67 83 68 66 69 69 70 82 71 100 72
REMARK SMILES IDX 67 73 68 74 81 76 101 77 70 78 55 79 56 80 64 81 57 82 63 83
REMARK SMILES IDX 58 84 59 85 60 86 61 87 62 88 85 89 86 90 94 91 87 92 93 93
REMARK SMILES IDX 88 94 89 95 90 96 91 97 92 98 71 99 72 100 80 101 73 102
REMARK SMILES IDX 79 103 74 104 75 105 76 106 77 107 78 108
REMARK H PARENT 6 15 99 64 69 75
REMARK Flexibility Score: inf
ROOT
ATOM      1  C   UNL A   1      42.560  41.154  30.430  1.00  0.00     0.188 C 
ENDROOT
BRANCH   1   2
ATOM      2  O   UNL A   1      42.699  40.928  31.831  1.00  0.00    -0.376 OA
BRANCH   2   3
ATOM      3  C   UNL A   1      43.933  40.457  32.339  1.00  0.00     0.202 C 
BRANCH   3   4
ATOM      4  C   UNL A   1      43.950  40.222  33.851  1.00  0.00     0.261 C 
BRANCH   4   5
ATOM      5  O   UNL A   1      43.584  38.877  34.219  1.00  0.00    -0.462 OA
BRANCH   5   6
ATOM      6  C   UNL A   1      43.962  38.485  35.468  1.00  0.00     0.328 C 
ATOM      7  O   UNL A   1      44.986  38.867  36.024  1.00  0.00    -0.250 OA
BRANCH   6   8
ATOM      8  C   UNL A   1      43.074  37.335  36.025  1.00  0.00     0.195 C 
BRANCH   8   9
ATOM      9  C   UNL A   1      44.026  36.560  37.009  1.00  0.00     0.019 C 
ATOM     10  C   UNL A   1      44.204  35.082  36.647  1.00  0.00     0.010 C 
BRANCH   9  11
ATOM     11  C   UNL A   1      43.689  36.775  38.496  1.00  0.00     0.002 C 
ATOM     12  C   UNL A   1      42.787  37.981  38.746  1.00  0.00     0.004 C 
ENDBRANCH   9  11
ENDBRANCH   8   9
BRANCH   8  13
ATOM     13  N   UNL A   1      42.333  36.525  34.990  1.00  0.00    -0.341 N 
ATOM     14  C   UNL A   1      42.807  35.313  34.478  1.00  0.00     0.243 C 
ATOM     15  H   UNL A   1      41.471  36.868  34.659  1.00  0.00     0.164 HD
ATOM     16  O   UNL A   1      43.889  35.309  33.897  1.00  0.00    -0.273 OA
BRANCH  14  17
ATOM     17  C   UNL A   1      42.140  33.952  34.970  1.00  0.00     0.181 C 
ATOM     18  C   UNL A   1      42.895  33.064  33.918  1.00  0.00     0.042 C 
BRANCH  17  19
ATOM     19  N   UNL A   1      40.607  33.601  34.962  1.00  0.00    -0.250 N 
ATOM     20  C   UNL A   1      39.340  34.359  35.098  1.00  0.00     0.328 C 
ATOM     21  C   UNL A   1      40.280  32.311  34.717  1.00  0.00     0.259 C 
ATOM     22  N   UNL A   1      38.179  33.349  35.060  1.00  0.00    -0.307 N 
ATOM     23  O   UNL A   1      39.224  35.573  35.135  1.00  0.00    -0.248 OA
ATOM     24  C   UNL A   1      38.852  32.283  34.498  1.00  0.00     0.147 C 
ATOM     25  O   UNL A   1      40.949  31.305  34.538  1.00  0.00    -0.271 OA
ATOM     26  C   UNL A   1      36.607  33.138  34.381  1.00  0.00     0.127 C 
ATOM     27  C   UNL A   1      38.778  32.799  33.008  1.00  0.00     0.168 C 
ATOM     28  C   UNL A   1      38.291  31.029  35.223  1.00  0.00     0.048 C 
ATOM     29  C   UNL A   1      36.676  31.965  32.888  1.00  0.00     0.055 C 
ATOM     30  C   UNL A   1      38.190  31.891  32.074  1.00  0.00    -0.032 C 
ATOM     31  N   UNL A   1      38.806  34.213  32.328  1.00  0.00    -0.274 NA
ATOM     32  C   UNL A   1      38.846  32.377  30.953  1.00  0.00     0.005 A 
ATOM     33  C   UNL A   1      38.457  33.808  31.111  1.00  0.00     0.066 A 
ATOM     34  C   UNL A   1      40.463  32.711  30.899  1.00  0.00     0.056 A 
ATOM     35  C   UNL A   1      38.550  34.589  29.871  1.00  0.00     0.032 A 
ATOM     36  C   UNL A   1      40.794  33.985  30.443  1.00  0.00     0.119 A 
ATOM     37  C   UNL A   1      39.852  34.674  29.568  1.00  0.00     0.048 A 
BRANCH  36  38
ATOM     38  O   UNL A   1      41.704  34.872  31.010  1.00  0.00    -0.497 OA
ATOM     39  C   UNL A   1      43.076  34.762  30.513  1.00  0.00     0.278 C 
ENDBRANCH  36  38
ENDBRANCH  17  19
ENDBRANCH  14  17
ENDBRANCH   8  13
ENDBRANCH   6   8
ENDBRANCH   5   6
ENDBRANCH   4   5
ENDBRANCH   3   4
ENDBRANCH   2   3
ENDBRANCH   1   2
BRANCH   1  40
ATOM     40  C   UNL A   1      43.225  40.248  29.377  1.00  0.00     0.188 C 
BRANCH  40  41
ATOM     41  O   UNL A   1      44.220  40.923  28.613  1.00  0.00    -0.376 OA
BRANCH  41  42
ATOM     42  C   UNL A   1      45.394  40.154  28.382  1.00  0.00     0.202 C 
BRANCH  42  43
ATOM     43  C   UNL A   1      45.034  38.683  28.168  1.00  0.00     0.261 C 
BRANCH  43  44
ATOM     44  O   UNL A   1      46.167  37.799  28.147  1.00  0.00    -0.460 OA
BRANCH  44  45
ATOM     45  C   UNL A   1      46.421  37.134  29.315  1.00  0.00     0.338 C 
ATOM     46  O   UNL A   1      46.502  37.615  30.396  1.00  0.00    -0.246 OA
BRANCH  45  47
ATOM     47  C   UNL A   1      46.397  35.672  29.004  1.00  0.00     0.060 A 
ATOM     48  C   UNL A   1      46.734  34.709  29.951  1.00  0.00     0.016 A 
ATOM     49  C   UNL A   1      46.041  35.277  27.708  1.00  0.00     0.016 A 
ATOM     50  C   UNL A   1      46.695  33.354  29.612  1.00  0.00     0.010 A 
ATOM     51  C   UNL A   1      46.013  33.919  27.361  1.00  0.00     0.010 A 
ATOM     52  C   UNL A   1      46.326  32.944  28.323  1.00  0.00    -0.014 A 
BRANCH  52  53
ATOM     53  C   UNL A   1      46.083  31.505  28.045  1.00  0.00     0.031 A 
ATOM     54  C   UNL A   1      44.722  30.884  28.137  1.00  0.00     0.074 A 
ATOM     55  C   UNL A   1      47.136  30.746  27.685  1.00  0.00     0.049 A 
ATOM     56  N   UNL A   1      44.344  29.692  27.753  1.00  0.00    -0.248 NA
ATOM     57  C   UNL A   1      43.654  31.691  28.743  1.00  0.00     0.031 C 
ATOM     58  C   UNL A   1      48.515  31.229  27.593  1.00  0.00     0.029 A 
ATOM     59  N   UNL A   1      47.214  29.427  27.316  1.00  0.00    -0.354 N 
ATOM     60  C   UNL A   1      42.990  29.604  28.047  1.00  0.00     0.074 A 
ATOM     61  C   UNL A   1      42.624  30.852  28.688  1.00  0.00     0.031 C 
ATOM     62  C   UNL A   1      49.296  30.231  27.157  1.00  0.00     0.029 A 
ATOM     63  C   UNL A   1      48.481  29.036  26.950  1.00  0.00     0.049 A 
ATOM     64  H   UNL A   1      46.440  28.820  27.312  1.00  0.00     0.167 HD
ATOM     65  C   UNL A   1      42.135  28.583  27.790  1.00  0.00     0.031 A 
ATOM     66  C   UNL A   1      48.941  27.861  26.474  1.00  0.00     0.031 A 
ATOM     67  C   UNL A   1      42.520  27.339  27.167  1.00  0.00     0.049 A 
ATOM     68  C   UNL A   1      47.982  26.736  26.214  1.00  0.00     0.074 A 
ATOM     69  C   UNL A   1      41.701  26.289  26.782  1.00  0.00     0.029 A 
ATOM     70  N   UNL A   1      43.818  26.960  26.860  1.00  0.00    -0.354 N 
ATOM     71  N   UNL A   1      46.682  26.716  26.378  1.00  0.00    -0.248 NA
ATOM     72  C   UNL A   1      48.543  25.485  25.688  1.00  0.00     0.031 C 
ATOM     73  C   UNL A   1      42.511  25.245  26.326  1.00  0.00     0.029 A 
ATOM     74  C   UNL A   1      43.828  25.672  26.344  1.00  0.00     0.049 A 
ATOM     75  H   UNL A   1      44.616  27.522  26.990  1.00  0.00     0.167 HD
ATOM     76  C   UNL A   1      46.265  25.459  25.956  1.00  0.00     0.074 A 
ATOM     77  C   UNL A   1      47.451  24.750  25.519  1.00  0.00     0.031 C 
ATOM     78  C   UNL A   1      45.008  24.950  25.930  1.00  0.00     0.031 A 
BRANCH  65  79
ATOM     79  C   UNL A   1      40.682  28.748  28.162  1.00  0.00    -0.014 A 
ATOM     80  C   UNL A   1      39.753  29.171  27.193  1.00  0.00     0.010 A 
ATOM     81  C   UNL A   1      40.259  28.627  29.499  1.00  0.00     0.010 A 
ATOM     82  C   UNL A   1      38.442  29.494  27.552  1.00  0.00     0.020 A 
ATOM     83  C   UNL A   1      38.940  28.922  29.860  1.00  0.00     0.020 A 
ATOM     84  C   UNL A   1      38.045  29.376  28.886  1.00  0.00     0.054 A 
BRANCH  84  85
ATOM     85  S   UNL A   1      36.345  29.819  29.340  1.00  0.00     0.124 S 
ATOM     86  O   UNL A   1      36.372  31.276  29.261  1.00  0.00    -0.237 OA
ATOM     87  O   UNL A   1      35.553  29.145  28.313  1.00  0.00    -0.237 OA
ATOM     88  O   UNL A   1      36.196  29.270  30.687  1.00  0.00    -0.744 OA
ENDBRANCH  84  85
ENDBRANCH  65  79
BRANCH  66  89
ATOM     89  C   UNL A   1      50.384  27.759  26.128  1.00  0.00    -0.014 A 
ATOM     90  C   UNL A   1      50.822  28.017  24.816  1.00  0.00     0.010 A 
ATOM     91  C   UNL A   1      51.297  27.256  27.071  1.00  0.00     0.010 A 
ATOM     92  C   UNL A   1      52.128  27.701  24.432  1.00  0.00     0.020 A 
ATOM     93  C   UNL A   1      52.611  26.963  26.696  1.00  0.00     0.020 A 
ATOM     94  C   UNL A   1      53.006  27.152  25.370  1.00  0.00     0.054 A 
BRANCH  94  95
ATOM     95  S   UNL A   1      54.657  26.641  24.819  1.00  0.00     0.124 S 
ATOM     96  O   UNL A   1      54.667  27.106  23.435  1.00  0.00    -0.237 OA
ATOM     97  O   UNL A   1      55.536  27.367  25.733  1.00  0.00    -0.237 OA
ATOM     98  O   UNL A   1      54.642  25.191  24.992  1.00  0.00    -0.744 OA
ENDBRANCH  94  95
ENDBRANCH  66  89
BRANCH  78  99
ATOM     99  C   UNL A   1      44.817  23.536  25.433  1.00  0.00    -0.014 A 
ATOM    100  C   UNL A   1      44.747  22.473  26.352  1.00  0.00     0.010 A 
ATOM    101  C   UNL A   1      44.846  23.246  24.057  1.00  0.00     0.010 A 
ATOM    102  C   UNL A   1      44.756  21.146  25.910  1.00  0.00     0.020 A 
ATOM    103  C   UNL A   1      44.823  21.921  23.609  1.00  0.00     0.020 A 
ATOM    104  C   UNL A   1      44.807  20.879  24.540  1.00  0.00     0.054 A 
BRANCH 104 105
ATOM    105  S   UNL A   1      44.865  19.152  23.987  1.00  0.00     0.124 S 
ATOM    106  O   UNL A   1      46.265  18.803  24.211  1.00  0.00    -0.237 OA
ATOM    107  O   UNL A   1      43.903  18.498  24.870  1.00  0.00    -0.237 OA
ATOM    108  O   UNL A   1      44.458  19.226  22.584  1.00  0.00    -0.744 OA
ENDBRANCH 104 105
ENDBRANCH  78  99
ENDBRANCH  52  53
ENDBRANCH  45  47
ENDBRANCH  44  45
ENDBRANCH  43  44
ENDBRANCH  42  43
ENDBRANCH  41  42
ENDBRANCH  40  41
ENDBRANCH   1  40
TORSDOF 26
ENDMDL
MODEL 2
REMARK VINA RESULT:      -7.8      3.883      7.746
REMARK SMILES CC[C@@H](C)[C@H](NC(=O)[C@H](C)N1C(=O)N2CCC3=c4cc(OC)ccc4=N[C@H]3[C@@]2(C)C1=O)C(=O)OCCOCCOCCOC(=O)c1ccc(-c2c3nc(c(-c4ccc(S(=O)(=O)[O-])cc4)c4ccc([nH]4)c(-c4ccc(S(=O)(=O)[O-])cc4)c4nc(c(-c5ccc(S(=O)(=O)[O-])cc5)c5ccc2[nH]5)C=C4)C=C3)cc1
REMARK SMILES IDX 38 1 37 2 36 3 35 4 34 5 32 6 33 7 5 8 3 9 4 10 2 11 1 12
REMARK SMILES IDX 6 13 7 14 8 16 9 17 10 18 11 19 12 20 30 21 14 22 13 23
REMARK SMILES IDX 28 24 31 25 15 26 27 27 29 28 16 29 17 30 26 31 18 32 25 33
REMARK SMILES IDX 19 34 24 35 20 36 23 37 21 38 22 39 39 40 40 41 41 42 42 43
REMARK SMILES IDX 43 44 44 45 45 46 46 47 47 48 105 49 48 50 104 51 49 52
REMARK SMILES IDX 50 53 51 54 98 55 52 56 103 57 97 58 99 59 53 60 102 61
REMARK SMILES IDX 96 62 95 63 54 65 84 66 65 67 83 68 66 69 69 70 82 71 100 72
REMARK SMILES IDX 67 73 68 74 81 76 101 77 70 78 55 79 56 80 64 81 57 82 63 83
REMARK SMILES IDX 58 84 59 85 60 86 61 87 62 88 85 89 86 90 94 91 87 92 93 93
REMARK SMILES IDX 88 94 89 95 90 96 91 97 92 98 71 99 72 100 80 101 73 102
REMARK SMILES IDX 79 103 74 104 75 105 76 106 77 107 78 108
REMARK H PARENT 6 15 99 64 69 75
REMARK Flexibility Score: inf
ROOT
ATOM      1  C   UNL A   1      52.001  42.068  29.230  1.00  0.00     0.188 C 
ENDROOT
BRANCH   1   2
ATOM      2  O   UNL A   1      50.995  42.687  28.430  1.00  0.00    -0.376 OA
BRANCH   2   3
ATOM      3  C   UNL A   1      50.715  44.062  28.610  1.00  0.00     0.202 C 
BRANCH   3   4
ATOM      4  C   UNL A   1      49.418  44.538  27.952  1.00  0.00     0.261 C 
BRANCH   4   5
ATOM      5  O   UNL A   1      49.424  44.396  26.518  1.00  0.00    -0.462 OA
BRANCH   5   6
ATOM      6  C   UNL A   1      48.453  45.083  25.854  1.00  0.00     0.328 C 
ATOM      7  O   UNL A   1      47.726  45.920  26.379  1.00  0.00    -0.250 OA
BRANCH   6   8
ATOM      8  C   UNL A   1      48.216  44.537  24.416  1.00  0.00     0.195 C 
BRANCH   8   9
ATOM      9  C   UNL A   1      48.713  45.700  23.480  1.00  0.00     0.019 C 
ATOM     10  C   UNL A   1      47.718  46.057  22.371  1.00  0.00     0.010 C 
BRANCH   9  11
ATOM     11  C   UNL A   1      50.148  45.503  22.955  1.00  0.00     0.002 C 
ATOM     12  C   UNL A   1      50.774  46.783  22.406  1.00  0.00     0.004 C 
ENDBRANCH   9  11
ENDBRANCH   8   9
BRANCH   8  13
ATOM     13  N   UNL A   1      46.843  43.969  24.152  1.00  0.00    -0.341 N 
ATOM     14  C   UNL A   1      46.481  42.655  24.462  1.00  0.00     0.243 C 
ATOM     15  H   UNL A   1      46.168  44.555  23.740  1.00  0.00     0.164 HD
ATOM     16  O   UNL A   1      47.105  41.738  23.935  1.00  0.00    -0.273 OA
BRANCH  14  17
ATOM     17  C   UNL A   1      45.555  42.387  25.731  1.00  0.00     0.181 C 
ATOM     18  C   UNL A   1      44.449  43.412  25.288  1.00  0.00     0.042 C 
BRANCH  17  19
ATOM     19  N   UNL A   1      45.933  42.629  27.238  1.00  0.00    -0.250 N 
ATOM     20  C   UNL A   1      45.695  43.699  28.237  1.00  0.00     0.328 C 
ATOM     21  C   UNL A   1      46.591  41.630  27.868  1.00  0.00     0.259 C 
ATOM     22  N   UNL A   1      46.425  43.306  29.533  1.00  0.00    -0.307 N 
ATOM     23  O   UNL A   1      44.971  44.671  28.096  1.00  0.00    -0.248 OA
ATOM     24  C   UNL A   1      46.592  41.960  29.275  1.00  0.00     0.147 C 
ATOM     25  O   UNL A   1      47.016  40.548  27.491  1.00  0.00    -0.271 OA
ATOM     26  C   UNL A   1      46.202  43.285  31.245  1.00  0.00     0.127 C 
ATOM     27  C   UNL A   1      45.128  41.526  29.676  1.00  0.00     0.168 C 
ATOM     28  C   UNL A   1      48.000  41.618  29.836  1.00  0.00     0.048 C 
ATOM     29  C   UNL A   1      45.785  41.531  31.843  1.00  0.00     0.055 C 
ATOM     30  C   UNL A   1      45.044  40.508  30.675  1.00  0.00    -0.032 C 
ATOM     31  N   UNL A   1      43.712  42.191  29.569  1.00  0.00    -0.274 NA
ATOM     32  C   UNL A   1      43.806  40.016  30.290  1.00  0.00     0.005 A 
ATOM     33  C   UNL A   1      43.068  41.311  30.329  1.00  0.00     0.066 A 
ATOM     34  C   UNL A   1      43.382  39.697  28.726  1.00  0.00     0.056 A 
ATOM     35  C   UNL A   1      41.612  41.161  30.448  1.00  0.00     0.032 A 
ATOM     36  C   UNL A   1      42.193  40.284  28.298  1.00  0.00     0.119 A 
ATOM     37  C   UNL A   1      41.186  40.619  29.300  1.00  0.00     0.048 A 
BRANCH  36  38
ATOM     38  O   UNL A   1      41.974  40.970  27.108  1.00  0.00    -0.497 OA
ATOM     39  C   UNL A   1      41.054  40.322  26.174  1.00  0.00     0.278 C 
ENDBRANCH  36  38
ENDBRANCH  17  19
ENDBRANCH  14  17
ENDBRANCH   8  13
ENDBRANCH   6   8
ENDBRANCH   5   6
ENDBRANCH   4   5
ENDBRANCH   3   4
ENDBRANCH   2   3
ENDBRANCH   1   2
BRANCH   1  40
ATOM     40  C   UNL A   1      51.669  41.011  30.299  1.00  0.00     0.188 C 
BRANCH  40  41
ATOM     41  O   UNL A   1      51.563  39.694  29.764  1.00  0.00    -0.376 OA
BRANCH  41  42
ATOM     42  C   UNL A   1      50.385  39.002  30.158  1.00  0.00     0.202 C 
BRANCH  42  43
ATOM     43  C   UNL A   1      49.660  38.445  28.931  1.00  0.00     0.261 C 
BRANCH  43  44
ATOM     44  O   UNL A   1      49.161  37.107  29.102  1.00  0.00    -0.460 OA
BRANCH  44  45
ATOM     45  C   UNL A   1      47.800  36.978  29.089  1.00  0.00     0.338 C 
ATOM     46  O   UNL A   1      47.009  37.861  29.052  1.00  0.00    -0.246 OA
BRANCH  45  47
ATOM     47  C   UNL A   1      47.497  35.521  28.949  1.00  0.00     0.060 A 
ATOM     48  C   UNL A   1      47.685  34.622  29.995  1.00  0.00     0.016 A 
ATOM     49  C   UNL A   1      47.027  35.059  27.713  1.00  0.00     0.016 A 
ATOM     50  C   UNL A   1      47.385  33.269  29.814  1.00  0.00     0.010 A 
ATOM     51  C   UNL A   1      46.737  33.700  27.524  1.00  0.00     0.010 A 
ATOM     52  C   UNL A   1      46.900  32.796  28.588  1.00  0.00    -0.014 A 
BRANCH  52  53
ATOM     53  C   UNL A   1      46.386  31.406  28.480  1.00  0.00     0.031 A 
ATOM     54  C   UNL A   1      44.948  31.057  28.719  1.00  0.00     0.074 A 
ATOM     55  C   UNL A   1      47.258  30.437  28.142  1.00  0.00     0.049 A 
ATOM     56  N   UNL A   1      44.337  29.923  28.487  1.00  0.00    -0.248 NA
ATOM     57  C   UNL A   1      44.089  32.099  29.296  1.00  0.00     0.031 C 
ATOM     58  C   UNL A   1      48.689  30.648  27.918  1.00  0.00     0.029 A 
ATOM     59  N   UNL A   1      47.074  29.096  27.913  1.00  0.00    -0.354 N 
ATOM     60  C   UNL A   1      43.016  30.113  28.869  1.00  0.00     0.074 A 
ATOM     61  C   UNL A   1      42.927  31.462  29.393  1.00  0.00     0.031 C 
ATOM     62  C   UNL A   1      49.246  29.487  27.546  1.00  0.00     0.029 A 
ATOM     63  C   UNL A   1      48.219  28.447  27.517  1.00  0.00     0.049 A 
ATOM     64  H   UNL A   1      46.206  28.644  28.020  1.00  0.00     0.167 HD
ATOM     65  C   UNL A   1      41.977  29.246  28.774  1.00  0.00     0.031 A 
ATOM     66  C   UNL A   1      48.427  27.168  27.144  1.00  0.00     0.031 A 
ATOM     67  C   UNL A   1      42.087  27.899  28.266  1.00  0.00     0.049 A 
ATOM     68  C   UNL A   1      47.267  26.218  27.063  1.00  0.00     0.074 A 
ATOM     69  C   UNL A   1      41.069  26.985  28.045  1.00  0.00     0.029 A 
ATOM     70  N   UNL A   1      43.270  27.261  27.926  1.00  0.00    -0.354 N 
ATOM     71  N   UNL A   1      46.000  26.452  27.304  1.00  0.00    -0.248 NA
ATOM     72  C   UNL A   1      47.557  24.841  26.641  1.00  0.00     0.031 C 
ATOM     73  C   UNL A   1      41.644  25.772  27.657  1.00  0.00     0.029 A 
ATOM     74  C   UNL A   1      43.014  25.951  27.551  1.00  0.00     0.049 A 
ATOM     75  H   UNL A   1      44.162  27.678  27.947  1.00  0.00     0.167 HD
ATOM     76  C   UNL A   1      45.337  25.258  27.045  1.00  0.00     0.074 A 
ATOM     77  C   UNL A   1      46.342  24.306  26.617  1.00  0.00     0.031 C 
ATOM     78  C   UNL A   1      44.012  24.988  27.148  1.00  0.00     0.031 A 
BRANCH  65  79
ATOM     79  C   UNL A   1      40.609  29.709  29.211  1.00  0.00    -0.014 A 
ATOM     80  C   UNL A   1      39.552  29.748  28.283  1.00  0.00     0.010 A 
ATOM     81  C   UNL A   1      40.403  30.242  30.497  1.00  0.00     0.010 A 
ATOM     82  C   UNL A   1      38.327  30.332  28.618  1.00  0.00     0.020 A 
ATOM     83  C   UNL A   1      39.169  30.802  30.848  1.00  0.00     0.020 A 
ATOM     84  C   UNL A   1      38.146  30.863  29.897  1.00  0.00     0.054 A 
BRANCH  84  85
ATOM     85  S   UNL A   1      36.556  31.636  30.311  1.00  0.00     0.124 S 
ATOM     86  O   UNL A   1      36.974  32.872  30.964  1.00  0.00    -0.237 OA
ATOM     87  O   UNL A   1      35.927  31.793  29.002  1.00  0.00    -0.237 OA
ATOM     88  O   UNL A   1      35.916  30.654  31.185  1.00  0.00    -0.744 OA
ENDBRANCH  84  85
ENDBRANCH  65  79
BRANCH  66  89
ATOM     89  C   UNL A   1      49.798  26.771  26.726  1.00  0.00    -0.014 A 
ATOM     90  C   UNL A   1      50.166  26.800  25.368  1.00  0.00     0.010 A 
ATOM     91  C   UNL A   1      50.685  26.218  27.666  1.00  0.00     0.010 A 
ATOM     92  C   UNL A   1      51.362  26.214  24.947  1.00  0.00     0.020 A 
ATOM     93  C   UNL A   1      51.895  25.655  27.251  1.00  0.00     0.020 A 
ATOM     94  C   UNL A   1      52.207  25.623  25.890  1.00  0.00     0.054 A 
BRANCH  94  95
ATOM     95  S   UNL A   1      53.695  24.766  25.308  1.00  0.00     0.124 S 
ATOM     96  O   UNL A   1      53.176  23.433  25.012  1.00  0.00    -0.237 OA
ATOM     97  O   UNL A   1      54.086  25.561  24.145  1.00  0.00    -0.237 OA
ATOM     98  O   UNL A   1      54.605  24.845  26.448  1.00  0.00    -0.744 OA
ENDBRANCH  94  95
ENDBRANCH  66  89
BRANCH  78  99
ATOM     99  C   UNL A   1      43.537  23.593  26.818  1.00  0.00    -0.014 A 
ATOM    100  C   UNL A   1      43.085  22.745  27.846  1.00  0.00     0.010 A 
ATOM    101  C   UNL A   1      43.668  23.076  25.516  1.00  0.00     0.010 A 
ATOM    102  C   UNL A   1      42.816  21.396  27.590  1.00  0.00     0.020 A 
ATOM    103  C   UNL A   1      43.370  21.735  25.250  1.00  0.00     0.020 A 
ATOM    104  C   UNL A   1      42.973  20.897  26.295  1.00  0.00     0.054 A 
BRANCH 104 105
ATOM    105  S   UNL A   1      42.666  19.135  25.993  1.00  0.00     0.124 S 
ATOM    106  O   UNL A   1      41.337  19.152  25.386  1.00  0.00    -0.237 OA
ATOM    107  O   UNL A   1      43.761  18.765  25.099  1.00  0.00    -0.237 OA
ATOM    108  O   UNL A   1      42.735  18.540  27.327  1.00  0.00    -0.744 OA
ENDBRANCH 104 105
ENDBRANCH  78  99
ENDBRANCH  52  53
ENDBRANCH  45  47
ENDBRANCH  44  45
ENDBRANCH  43  44
ENDBRANCH  42  43
ENDBRANCH  41  42
ENDBRANCH  40  41
ENDBRANCH   1  40
TORSDOF 26
ENDMDL
MODEL 3
REMARK VINA RESULT:      -7.7      5.305     13.444
REMARK SMILES CC[C@@H](C)[C@H](NC(=O)[C@H](C)N1C(=O)N2CCC3=c4cc(OC)ccc4=N[C@H]3[C@@]2(C)C1=O)C(=O)OCCOCCOCCOC(=O)c1ccc(-c2c3nc(c(-c4ccc(S(=O)(=O)[O-])cc4)c4ccc([nH]4)c(-c4ccc(S(=O)(=O)[O-])cc4)c4nc(c(-c5ccc(S(=O)(=O)[O-])cc5)c5ccc2[nH]5)C=C4)C=C3)cc1
REMARK SMILES IDX 38 1 37 2 36 3 35 4 34 5 32 6 33 7 5 8 3 9 4 10 2 11 1 12
REMARK SMILES IDX 6 13 7 14 8 16 9 17 10 18 11 19 12 20 30 21 14 22 13 23
REMARK SMILES IDX 28 24 31 25 15 26 27 27 29 28 16 29 17 30 26 31 18 32 25 33
REMARK SMILES IDX 19 34 24 35 20 36 23 37 21 38 22 39 39 40 40 41 41 42 42 43
REMARK SMILES IDX 43 44 44 45 45 46 46 47 47 48 105 49 48 50 104 51 49 52
REMARK SMILES IDX 50 53 51 54 98 55 52 56 103 57 97 58 99 59 53 60 102 61
REMARK SMILES IDX 96 62 95 63 54 65 84 66 65 67 83 68 66 69 69 70 82 71 100 72
REMARK SMILES IDX 67 73 68 74 81 76 101 77 70 78 55 79 56 80 64 81 57 82 63 83
REMARK SMILES IDX 58 84 59 85 60 86 61 87 62 88 85 89 86 90 94 91 87 92 93 93
REMARK SMILES IDX 88 94 89 95 90 96 91 97 92 98 71 99 72 100 80 101 73 102
REMARK SMILES IDX 79 103 74 104 75 105 76 106 77 107 78 108
REMARK H PARENT 6 15 99 64 69 75
REMARK Flexibility Score: inf
ROOT
ATOM      1  C   UNL A   1      44.959  22.214  35.102  1.00  0.00     0.188 C 
ENDROOT
BRANCH   1   2
ATOM      2  O   UNL A   1      44.817  23.574  34.698  1.00  0.00    -0.376 OA
BRANCH   2   3
ATOM      3  C   UNL A   1      44.009  23.885  33.579  1.00  0.00     0.202 C 
BRANCH   3   4
ATOM      4  C   UNL A   1      44.745  24.597  32.441  1.00  0.00     0.261 C 
BRANCH   4   5
ATOM      5  O   UNL A   1      45.620  25.645  32.902  1.00  0.00    -0.462 OA
BRANCH   5   6
ATOM      6  C   UNL A   1      46.953  25.411  32.741  1.00  0.00     0.328 C 
ATOM      7  O   UNL A   1      47.587  24.588  33.392  1.00  0.00    -0.250 OA
BRANCH   6   8
ATOM      8  C   UNL A   1      47.630  26.451  31.801  1.00  0.00     0.195 C 
BRANCH   8   9
ATOM      9  C   UNL A   1      48.916  25.710  31.276  1.00  0.00     0.019 C 
ATOM     10  C   UNL A   1      50.195  26.112  32.016  1.00  0.00     0.010 C 
BRANCH   9  11
ATOM     11  C   UNL A   1      49.073  25.751  29.745  1.00  0.00     0.002 C 
ATOM     12  C   UNL A   1      50.390  25.154  29.254  1.00  0.00     0.004 C 
ENDBRANCH   9  11
ENDBRANCH   8   9
BRANCH   8  13
ATOM     13  N   UNL A   1      47.810  27.833  32.379  1.00  0.00    -0.341 N 
ATOM     14  C   UNL A   1      48.137  28.952  31.608  1.00  0.00     0.243 C 
ATOM     15  H   UNL A   1      47.692  27.951  33.350  1.00  0.00     0.164 HD
ATOM     16  O   UNL A   1      49.189  28.937  30.975  1.00  0.00    -0.273 OA
BRANCH  14  17
ATOM     17  C   UNL A   1      47.003  30.024  31.283  1.00  0.00     0.181 C 
ATOM     18  C   UNL A   1      46.008  29.476  32.368  1.00  0.00     0.042 C 
BRANCH  17  19
ATOM     19  N   UNL A   1      46.251  30.209  29.915  1.00  0.00    -0.250 N 
ATOM     20  C   UNL A   1      44.969  29.742  29.333  1.00  0.00     0.328 C 
ATOM     21  C   UNL A   1      46.826  31.035  29.011  1.00  0.00     0.259 C 
ATOM     22  N   UNL A   1      44.891  30.261  27.886  1.00  0.00    -0.307 N 
ATOM     23  O   UNL A   1      44.086  29.139  29.920  1.00  0.00    -0.248 OA
ATOM     24  C   UNL A   1      45.846  31.253  27.971  1.00  0.00     0.147 C 
ATOM     25  O   UNL A   1      47.874  31.661  29.008  1.00  0.00    -0.271 OA
ATOM     26  C   UNL A   1      43.779  30.971  26.774  1.00  0.00     0.127 C 
ATOM     27  C   UNL A   1      44.919  32.325  28.666  1.00  0.00     0.168 C 
ATOM     28  C   UNL A   1      46.591  31.207  26.608  1.00  0.00     0.048 C 
ATOM     29  C   UNL A   1      44.087  32.840  26.625  1.00  0.00     0.055 C 
ATOM     30  C   UNL A   1      44.823  33.581  27.991  1.00  0.00    -0.032 C 
ATOM     31  N   UNL A   1      43.739  32.259  29.698  1.00  0.00    -0.274 NA
ATOM     32  C   UNL A   1      44.519  34.336  29.114  1.00  0.00     0.005 A 
ATOM     33  C   UNL A   1      43.355  33.526  29.577  1.00  0.00     0.066 A 
ATOM     34  C   UNL A   1      45.315  34.213  30.556  1.00  0.00     0.056 A 
ATOM     35  C   UNL A   1      42.446  34.252  30.473  1.00  0.00     0.032 A 
ATOM     36  C   UNL A   1      44.504  34.014  31.671  1.00  0.00     0.119 A 
ATOM     37  C   UNL A   1      43.120  34.469  31.611  1.00  0.00     0.048 A 
BRANCH  36  38
ATOM     38  O   UNL A   1      44.693  33.089  32.693  1.00  0.00    -0.497 OA
ATOM     39  C   UNL A   1      43.520  32.836  33.531  1.00  0.00     0.278 C 
ENDBRANCH  36  38
ENDBRANCH  17  19
ENDBRANCH  14  17
ENDBRANCH   8  13
ENDBRANCH   6   8
ENDBRANCH   5   6
ENDBRANCH   4   5
ENDBRANCH   3   4
ENDBRANCH   2   3
ENDBRANCH   1   2
BRANCH   1  40
ATOM     40  C   UNL A   1      45.768  21.803  36.347  1.00  0.00     0.188 C 
BRANCH  40  41
ATOM     41  O   UNL A   1      47.127  22.226  36.290  1.00  0.00    -0.376 OA
BRANCH  41  42
ATOM     42  C   UNL A   1      47.442  23.286  37.184  1.00  0.00     0.202 C 
BRANCH  42  43
ATOM     43  C   UNL A   1      47.714  24.575  36.405  1.00  0.00     0.261 C 
BRANCH  43  44
ATOM     44  O   UNL A   1      48.139  25.677  37.225  1.00  0.00    -0.460 OA
BRANCH  44  45
ATOM     45  C   UNL A   1      47.248  26.082  38.180  1.00  0.00     0.338 C 
ATOM     46  O   UNL A   1      47.386  25.995  39.354  1.00  0.00    -0.246 OA
BRANCH  45  47
ATOM     47  C   UNL A   1      46.151  26.815  37.476  1.00  0.00     0.060 A 
ATOM     48  C   UNL A   1      44.828  26.384  37.518  1.00  0.00     0.016 A 
ATOM     49  C   UNL A   1      46.486  27.961  36.743  1.00  0.00     0.016 A 
ATOM     50  C   UNL A   1      43.839  27.106  36.844  1.00  0.00     0.010 A 
ATOM     51  C   UNL A   1      45.498  28.680  36.056  1.00  0.00     0.010 A 
ATOM     52  C   UNL A   1      44.157  28.262  36.118  1.00  0.00    -0.014 A 
BRANCH  52  53
ATOM     53  C   UNL A   1      43.072  29.130  35.594  1.00  0.00     0.031 A 
ATOM     54  C   UNL A   1      42.372  28.851  34.297  1.00  0.00     0.074 A 
ATOM     55  C   UNL A   1      42.707  30.197  36.329  1.00  0.00     0.049 A 
ATOM     56  N   UNL A   1      41.298  29.422  33.814  1.00  0.00    -0.248 NA
ATOM     57  C   UNL A   1      42.948  27.815  33.430  1.00  0.00     0.031 C 
ATOM     58  C   UNL A   1      43.336  30.589  37.591  1.00  0.00     0.029 A 
ATOM     59  N   UNL A   1      41.718  31.129  36.140  1.00  0.00    -0.354 N 
ATOM     60  C   UNL A   1      41.051  28.805  32.595  1.00  0.00     0.074 A 
ATOM     61  C   UNL A   1      42.119  27.847  32.391  1.00  0.00     0.031 C 
ATOM     62  C   UNL A   1      42.694  31.659  38.082  1.00  0.00     0.029 A 
ATOM     63  C   UNL A   1      41.619  32.037  37.167  1.00  0.00     0.049 A 
ATOM     64  H   UNL A   1      41.136  31.146  35.346  1.00  0.00     0.167 HD
ATOM     65  C   UNL A   1      40.020  29.013  31.738  1.00  0.00     0.031 A 
ATOM     66  C   UNL A   1      40.748  33.045  37.376  1.00  0.00     0.031 A 
ATOM     67  C   UNL A   1      38.973  29.985  31.947  1.00  0.00     0.049 A 
ATOM     68  C   UNL A   1      39.624  33.271  36.407  1.00  0.00     0.074 A 
ATOM     69  C   UNL A   1      37.839  30.196  31.179  1.00  0.00     0.029 A 
ATOM     70  N   UNL A   1      38.936  30.920  32.970  1.00  0.00    -0.354 N 
ATOM     71  N   UNL A   1      39.330  32.593  35.323  1.00  0.00    -0.248 NA
ATOM     72  C   UNL A   1      38.704  34.380  36.693  1.00  0.00     0.031 C 
ATOM     73  C   UNL A   1      37.165  31.310  31.686  1.00  0.00     0.029 A 
ATOM     74  C   UNL A   1      37.830  31.744  32.821  1.00  0.00     0.049 A 
ATOM     75  H   UNL A   1      39.597  30.989  33.696  1.00  0.00     0.167 HD
ATOM     76  C   UNL A   1      38.179  33.180  34.809  1.00  0.00     0.074 A 
ATOM     77  C   UNL A   1      37.824  34.261  35.706  1.00  0.00     0.031 C 
ATOM     78  C   UNL A   1      37.483  32.840  33.696  1.00  0.00     0.031 A 
BRANCH  65  79
ATOM     79  C   UNL A   1      39.941  28.172  30.487  1.00  0.00    -0.014 A 
ATOM     80  C   UNL A   1      39.146  27.010  30.473  1.00  0.00     0.010 A 
ATOM     81  C   UNL A   1      40.761  28.447  29.378  1.00  0.00     0.010 A 
ATOM     82  C   UNL A   1      39.192  26.127  29.390  1.00  0.00     0.020 A 
ATOM     83  C   UNL A   1      40.789  27.581  28.279  1.00  0.00     0.020 A 
ATOM     84  C   UNL A   1      40.020  26.414  28.302  1.00  0.00     0.054 A 
BRANCH  84  85
ATOM     85  S   UNL A   1      40.082  25.247  26.913  1.00  0.00     0.124 S 
ATOM     86  O   UNL A   1      38.681  24.868  26.764  1.00  0.00    -0.237 OA
ATOM     87  O   UNL A   1      40.635  26.064  25.835  1.00  0.00    -0.237 OA
ATOM     88  O   UNL A   1      40.968  24.189  27.396  1.00  0.00    -0.744 OA
ENDBRANCH  84  85
ENDBRANCH  65  79
BRANCH  66  89
ATOM     89  C   UNL A   1      40.878  33.840  38.626  1.00  0.00    -0.014 A 
ATOM     90  C   UNL A   1      40.238  33.422  39.807  1.00  0.00     0.010 A 
ATOM     91  C   UNL A   1      41.515  35.094  38.597  1.00  0.00     0.010 A 
ATOM     92  C   UNL A   1      40.164  34.275  40.911  1.00  0.00     0.020 A 
ATOM     93  C   UNL A   1      41.465  35.938  39.709  1.00  0.00     0.020 A 
ATOM     94  C   UNL A   1      40.758  35.539  40.845  1.00  0.00     0.054 A 
BRANCH  94  95
ATOM     95  S   UNL A   1      40.549  36.672  42.245  1.00  0.00     0.124 S 
ATOM     96  O   UNL A   1      41.656  37.603  42.043  1.00  0.00    -0.237 OA
ATOM     97  O   UNL A   1      39.215  37.221  42.013  1.00  0.00    -0.237 OA
ATOM     98  O   UNL A   1      40.668  35.801  43.412  1.00  0.00    -0.744 OA
ENDBRANCH  94  95
ENDBRANCH  66  89
BRANCH  78  99
ATOM     99  C   UNL A   1      36.259  33.650  33.340  1.00  0.00    -0.014 A 
ATOM    100  C   UNL A   1      34.976  33.126  33.585  1.00  0.00     0.010 A 
ATOM    101  C   UNL A   1      36.377  34.864  32.640  1.00  0.00     0.010 A 
ATOM    102  C   UNL A   1      33.837  33.774  33.098  1.00  0.00     0.020 A 
ATOM    103  C   UNL A   1      35.238  35.532  32.178  1.00  0.00     0.020 A 
ATOM    104  C   UNL A   1      33.976  34.968  32.385  1.00  0.00     0.054 A 
BRANCH 104 105
ATOM    105  S   UNL A   1      32.491  35.770  31.721  1.00  0.00     0.124 S 
ATOM    106  O   UNL A   1      31.440  35.242  32.588  1.00  0.00    -0.237 OA
ATOM    107  O   UNL A   1      32.790  37.190  31.886  1.00  0.00    -0.237 OA
ATOM    108  O   UNL A   1      32.444  35.309  30.334  1.00  0.00    -0.744 OA
ENDBRANCH 104 105
ENDBRANCH  78  99
ENDBRANCH  52  53
ENDBRANCH  45  47
ENDBRANCH  44  45
ENDBRANCH  43  44
ENDBRANCH  42  43
ENDBRANCH  41  42
ENDBRANCH  40  41
ENDBRANCH   1  40
TORSDOF 26
ENDMDL
