MODEL 1
REMARK VINA RESULT:     -11.1      0.000      0.000
REMARK SMILES CC1=C(C(=O)OCCOCCOCCOC(=O)c2ccc(-c3c4nc(c(-c5ccc(S(=O)(=O)[O-])cc5)c5ccc([nH]5)c(-c5ccc(S(=O)(=O)[O-])cc5)c5nc(c(-c6ccc(S(=O)(=O)[O-])cc6)c6ccc3[nH]6)C=C5)C=C4)cc2)[C@H](c2ccc(Cl)cc2)n2ncnc2N1
REMARK SMILES IDX 11 1 10 2 9 3 8 4 7 5 6 6 4 7 5 8 3 9 1 10 2 11 91 12 78 13
REMARK SMILES IDX 90 14 86 16 89 17 87 18 88 19 79 20 80 21 85 22 81 23 84 24
REMARK SMILES IDX 82 25 83 26 12 27 13 28 14 29 15 30 16 31 17 32 18 33 19 34
REMARK SMILES IDX 77 35 20 36 76 37 21 38 22 39 23 40 70 41 24 42 75 43 69 44
REMARK SMILES IDX 71 45 25 46 74 47 68 48 67 49 26 51 56 52 37 53 55 54 38 55
REMARK SMILES IDX 41 56 54 57 72 58 39 59 40 60 53 62 73 63 42 64 27 65 28 66
REMARK SMILES IDX 36 67 29 68 35 69 30 70 31 71 32 72 33 73 34 74 57 75 58 76
REMARK SMILES IDX 66 77 59 78 65 79 60 80 61 81 62 82 63 83 64 84 43 85 44 86
REMARK SMILES IDX 52 87 45 88 51 89 46 90 47 91 48 92 49 93 50 94
REMARK H PARENT 91 15 71 50 41 61
REMARK Flexibility Score: inf
ROOT
ATOM      1  C   UNL A   1      40.678  20.292  26.277  1.00  0.00     0.188 C 
ENDROOT
BRANCH   1   2
ATOM      2  C   UNL A   1      39.882  21.609  26.134  1.00  0.00     0.188 C 
BRANCH   2   3
ATOM      3  O   UNL A   1      38.504  21.463  25.816  1.00  0.00    -0.376 OA
BRANCH   3   4
ATOM      4  C   UNL A   1      37.837  22.681  25.483  1.00  0.00     0.202 C 
BRANCH   4   5
ATOM      5  C   UNL A   1      36.303  22.607  25.493  1.00  0.00     0.261 C 
BRANCH   5   6
ATOM      6  O   UNL A   1      35.711  23.874  25.163  1.00  0.00    -0.460 OA
BRANCH   6   7
ATOM      7  C   UNL A   1      34.898  23.983  24.100  1.00  0.00     0.338 C 
ATOM      8  O   UNL A   1      35.208  23.809  22.929  1.00  0.00    -0.246 OA
BRANCH   7   9
ATOM      9  C   UNL A   1      33.532  24.277  24.584  1.00  0.00     0.085 C 
ATOM     10  C   UNL A   1      33.739  26.727  23.948  1.00  0.00     0.065 C 
ATOM     11  C   UNL A   1      33.022  25.534  24.528  1.00  0.00     0.028 C 
ATOM     12  N   UNL A   1      31.780  25.804  25.090  1.00  0.00    -0.328 N 
ATOM     13  C   UNL A   1      32.811  23.153  25.323  1.00  0.00     0.181 C 
ATOM     14  C   UNL A   1      31.061  24.897  25.773  1.00  0.00     0.226 A 
ATOM     15  H   UNL A   1      31.408  26.709  24.982  1.00  0.00     0.169 HD
ATOM     16  N   UNL A   1      31.546  23.625  25.912  1.00  0.00    -0.219 N 
ATOM     17  N   UNL A   1      29.918  25.002  26.401  1.00  0.00    -0.200 NA
ATOM     18  N   UNL A   1      30.747  22.884  26.710  1.00  0.00    -0.157 NA
ATOM     19  C   UNL A   1      29.769  23.762  26.966  1.00  0.00     0.248 A 
BRANCH  13  20
ATOM     20  C   UNL A   1      32.616  21.886  24.494  1.00  0.00    -0.018 A 
ATOM     21  C   UNL A   1      32.190  21.914  23.157  1.00  0.00     0.008 A 
ATOM     22  C   UNL A   1      32.908  20.638  25.079  1.00  0.00     0.008 A 
ATOM     23  C   UNL A   1      32.056  20.729  22.428  1.00  0.00     0.021 A 
ATOM     24  C   UNL A   1      32.801  19.458  24.343  1.00  0.00     0.021 A 
ATOM     25  C   UNL A   1      32.375  19.509  23.020  1.00  0.00     0.041 A 
ATOM     26  Cl  UNL A   1      32.249  18.056  22.107  1.00  0.00    -0.084 Cl
ENDBRANCH  13  20
ENDBRANCH   7   9
ENDBRANCH   6   7
ENDBRANCH   5   6
ENDBRANCH   4   5
ENDBRANCH   3   4
ENDBRANCH   2   3
ENDBRANCH   1   2
BRANCH   1  27
ATOM     27  O   UNL A   1      42.100  20.273  26.357  1.00  0.00    -0.376 OA
BRANCH  27  28
ATOM     28  C   UNL A   1      42.819  19.047  26.313  1.00  0.00     0.202 C 
BRANCH  28  29
ATOM     29  C   UNL A   1      43.741  18.747  25.136  1.00  0.00     0.261 C 
BRANCH  29  30
ATOM     30  O   UNL A   1      43.945  19.864  24.286  1.00  0.00    -0.460 OA
BRANCH  30  31
ATOM     31  C   UNL A   1      45.211  20.326  24.283  1.00  0.00     0.338 C 
ATOM     32  O   UNL A   1      46.239  19.659  24.252  1.00  0.00    -0.246 OA
BRANCH  31  33
ATOM     33  C   UNL A   1      45.194  21.790  24.334  1.00  0.00     0.060 A 
ATOM     34  C   UNL A   1      46.383  22.423  24.710  1.00  0.00     0.016 A 
ATOM     35  C   UNL A   1      43.977  22.480  24.259  1.00  0.00     0.016 A 
ATOM     36  C   UNL A   1      46.309  23.685  25.256  1.00  0.00     0.010 A 
ATOM     37  C   UNL A   1      43.901  23.734  24.819  1.00  0.00     0.010 A 
ATOM     38  C   UNL A   1      45.051  24.269  25.403  1.00  0.00    -0.014 A 
BRANCH  38  39
ATOM     39  C   UNL A   1      44.924  25.363  26.342  1.00  0.00     0.031 A 
ATOM     40  C   UNL A   1      45.950  26.415  26.278  1.00  0.00     0.074 A 
ATOM     41  C   UNL A   1      43.834  25.460  27.128  1.00  0.00     0.049 A 
ATOM     42  N   UNL A   1      46.782  26.764  27.200  1.00  0.00    -0.248 NA
ATOM     43  C   UNL A   1      46.127  27.110  24.996  1.00  0.00     0.031 C 
ATOM     44  C   UNL A   1      42.610  24.653  27.050  1.00  0.00     0.029 A 
ATOM     45  N   UNL A   1      43.534  26.395  28.069  1.00  0.00    -0.354 N 
ATOM     46  C   UNL A   1      47.467  27.855  26.684  1.00  0.00     0.074 A 
ATOM     47  C   UNL A   1      47.144  27.921  25.280  1.00  0.00     0.031 C 
ATOM     48  C   UNL A   1      41.630  25.276  27.737  1.00  0.00     0.029 A 
ATOM     49  C   UNL A   1      42.184  26.456  28.383  1.00  0.00     0.049 A 
ATOM     50  H   UNL A   1      44.211  26.974  28.488  1.00  0.00     0.167 HD
ATOM     51  C   UNL A   1      48.069  28.779  27.479  1.00  0.00     0.031 A 
ATOM     52  C   UNL A   1      41.552  27.455  29.045  1.00  0.00     0.031 A 
ATOM     53  C   UNL A   1      48.214  28.337  28.838  1.00  0.00     0.049 A 
ATOM     54  C   UNL A   1      42.579  28.244  29.768  1.00  0.00     0.074 A 
ATOM     55  C   UNL A   1      48.849  27.275  29.451  1.00  0.00     0.029 A 
ATOM     56  N   UNL A   1      47.340  28.849  29.769  1.00  0.00    -0.354 N 
ATOM     57  N   UNL A   1      43.242  27.801  30.798  1.00  0.00    -0.248 NA
ATOM     58  C   UNL A   1      43.165  29.406  29.114  1.00  0.00     0.031 C 
ATOM     59  C   UNL A   1      48.025  26.933  30.562  1.00  0.00     0.029 A 
ATOM     60  C   UNL A   1      46.942  27.814  30.579  1.00  0.00     0.049 A 
ATOM     61  H   UNL A   1      47.052  29.787  29.841  1.00  0.00     0.167 HD
ATOM     62  C   UNL A   1      44.513  28.339  30.668  1.00  0.00     0.074 A 
ATOM     63  C   UNL A   1      44.365  29.420  29.700  1.00  0.00     0.031 C 
ATOM     64  C   UNL A   1      45.612  27.676  31.139  1.00  0.00     0.031 A 
BRANCH  51  65
ATOM     65  C   UNL A   1      48.195  30.221  27.077  1.00  0.00    -0.014 A 
ATOM     66  C   UNL A   1      49.444  30.860  27.160  1.00  0.00     0.010 A 
ATOM     67  C   UNL A   1      47.062  31.033  26.852  1.00  0.00     0.010 A 
ATOM     68  C   UNL A   1      49.546  32.254  27.053  1.00  0.00     0.020 A 
ATOM     69  C   UNL A   1      47.159  32.414  26.693  1.00  0.00     0.020 A 
ATOM     70  C   UNL A   1      48.398  33.021  26.831  1.00  0.00     0.054 A 
BRANCH  70  71
ATOM     71  S   UNL A   1      48.519  34.825  26.797  1.00  0.00     0.124 S 
ATOM     72  O   UNL A   1      48.198  35.116  25.403  1.00  0.00    -0.237 OA
ATOM     73  O   UNL A   1      47.515  35.226  27.778  1.00  0.00    -0.237 OA
ATOM     74  O   UNL A   1      49.903  35.080  27.189  1.00  0.00    -0.744 OA
ENDBRANCH  70  71
ENDBRANCH  51  65
BRANCH  52  75
ATOM     75  C   UNL A   1      40.149  27.909  28.885  1.00  0.00    -0.014 A 
ATOM     76  C   UNL A   1      39.239  27.829  29.954  1.00  0.00     0.010 A 
ATOM     77  C   UNL A   1      39.761  28.651  27.750  1.00  0.00     0.010 A 
ATOM     78  C   UNL A   1      38.014  28.514  29.912  1.00  0.00     0.020 A 
ATOM     79  C   UNL A   1      38.534  29.320  27.692  1.00  0.00     0.020 A 
ATOM     80  C   UNL A   1      37.678  29.271  28.786  1.00  0.00     0.054 A 
BRANCH  80  81
ATOM     81  S   UNL A   1      36.180  30.297  28.811  1.00  0.00     0.124 S 
ATOM     82  O   UNL A   1      35.184  29.408  28.220  1.00  0.00    -0.237 OA
ATOM     83  O   UNL A   1      36.014  30.580  30.234  1.00  0.00    -0.237 OA
ATOM     84  O   UNL A   1      36.543  31.453  27.993  1.00  0.00    -0.744 OA
ENDBRANCH  80  81
ENDBRANCH  52  75
BRANCH  64  85
ATOM     85  C   UNL A   1      45.388  26.515  32.085  1.00  0.00    -0.014 A 
ATOM     86  C   UNL A   1      45.017  25.227  31.648  1.00  0.00     0.010 A 
ATOM     87  C   UNL A   1      45.682  26.697  33.448  1.00  0.00     0.010 A 
ATOM     88  C   UNL A   1      44.899  24.165  32.553  1.00  0.00     0.020 A 
ATOM     89  C   UNL A   1      45.588  25.634  34.354  1.00  0.00     0.020 A 
ATOM     90  C   UNL A   1      45.182  24.377  33.904  1.00  0.00     0.054 A 
BRANCH  90  91
ATOM     91  S   UNL A   1      45.072  22.983  35.061  1.00  0.00     0.124 S 
ATOM     92  O   UNL A   1      43.975  22.196  34.504  1.00  0.00    -0.237 OA
ATOM     93  O   UNL A   1      46.397  22.372  34.964  1.00  0.00    -0.237 OA
ATOM     94  O   UNL A   1      44.788  23.619  36.345  1.00  0.00    -0.744 OA
ENDBRANCH  90  91
ENDBRANCH  64  85
ENDBRANCH  38  39
ENDBRANCH  31  33
ENDBRANCH  30  31
ENDBRANCH  29  30
ENDBRANCH  28  29
ENDBRANCH  27  28
ENDBRANCH   1  27
TORSDOF 21
ENDMDL
MODEL 2
REMARK VINA RESULT:     -10.8      2.020      2.739
REMARK SMILES CC1=C(C(=O)OCCOCCOCCOC(=O)c2ccc(-c3c4nc(c(-c5ccc(S(=O)(=O)[O-])cc5)c5ccc([nH]5)c(-c5ccc(S(=O)(=O)[O-])cc5)c5nc(c(-c6ccc(S(=O)(=O)[O-])cc6)c6ccc3[nH]6)C=C5)C=C4)cc2)[C@H](c2ccc(Cl)cc2)n2ncnc2N1
REMARK SMILES IDX 11 1 10 2 9 3 8 4 7 5 6 6 4 7 5 8 3 9 1 10 2 11 91 12 78 13
REMARK SMILES IDX 90 14 86 16 89 17 87 18 88 19 79 20 80 21 85 22 81 23 84 24
REMARK SMILES IDX 82 25 83 26 12 27 13 28 14 29 15 30 16 31 17 32 18 33 19 34
REMARK SMILES IDX 77 35 20 36 76 37 21 38 22 39 23 40 70 41 24 42 75 43 69 44
REMARK SMILES IDX 71 45 25 46 74 47 68 48 67 49 26 51 56 52 37 53 55 54 38 55
REMARK SMILES IDX 41 56 54 57 72 58 39 59 40 60 53 62 73 63 42 64 27 65 28 66
REMARK SMILES IDX 36 67 29 68 35 69 30 70 31 71 32 72 33 73 34 74 57 75 58 76
REMARK SMILES IDX 66 77 59 78 65 79 60 80 61 81 62 82 63 83 64 84 43 85 44 86
REMARK SMILES IDX 52 87 45 88 51 89 46 90 47 91 48 92 49 93 50 94
REMARK H PARENT 91 15 71 50 41 61
REMARK Flexibility Score: inf
ROOT
ATOM      1  C   UNL A   1      39.268  20.531  25.383  1.00  0.00     0.188 C 
ENDROOT
BRANCH   1   2
ATOM      2  C   UNL A   1      39.171  21.591  26.505  1.00  0.00     0.188 C 
BRANCH   2   3
ATOM      3  O   UNL A   1      39.326  22.941  26.090  1.00  0.00    -0.376 OA
BRANCH   3   4
ATOM      4  C   UNL A   1      38.119  23.705  26.083  1.00  0.00     0.202 C 
BRANCH   4   5
ATOM      5  C   UNL A   1      36.935  23.044  25.363  1.00  0.00     0.261 C 
BRANCH   5   6
ATOM      6  O   UNL A   1      35.791  23.913  25.319  1.00  0.00    -0.460 OA
BRANCH   6   7
ATOM      7  C   UNL A   1      34.979  23.908  24.250  1.00  0.00     0.338 C 
ATOM      8  O   UNL A   1      35.297  23.636  23.100  1.00  0.00    -0.246 OA
BRANCH   7   9
ATOM      9  C   UNL A   1      33.605  24.211  24.705  1.00  0.00     0.085 C 
ATOM     10  C   UNL A   1      33.877  26.678  24.163  1.00  0.00     0.065 C 
ATOM     11  C   UNL A   1      33.121  25.479  24.679  1.00  0.00     0.028 C 
ATOM     12  N   UNL A   1      31.868  25.754  25.215  1.00  0.00    -0.328 N 
ATOM     13  C   UNL A   1      32.842  23.077  25.383  1.00  0.00     0.181 C 
ATOM     14  C   UNL A   1      31.113  24.839  25.844  1.00  0.00     0.226 A 
ATOM     15  H   UNL A   1      31.516  26.670  25.128  1.00  0.00     0.169 HD
ATOM     16  N   UNL A   1      31.569  23.553  25.952  1.00  0.00    -0.219 N 
ATOM     17  N   UNL A   1      29.954  24.944  26.443  1.00  0.00    -0.200 NA
ATOM     18  N   UNL A   1      30.733  22.801  26.700  1.00  0.00    -0.157 NA
ATOM     19  C   UNL A   1      29.765  23.689  26.959  1.00  0.00     0.248 A 
BRANCH  13  20
ATOM     20  C   UNL A   1      32.648  21.843  24.504  1.00  0.00    -0.018 A 
ATOM     21  C   UNL A   1      32.176  21.920  23.185  1.00  0.00     0.008 A 
ATOM     22  C   UNL A   1      32.987  20.578  25.023  1.00  0.00     0.008 A 
ATOM     23  C   UNL A   1      32.044  20.766  22.408  1.00  0.00     0.021 A 
ATOM     24  C   UNL A   1      32.882  19.430  24.238  1.00  0.00     0.021 A 
ATOM     25  C   UNL A   1      32.410  19.529  22.933  1.00  0.00     0.041 A 
ATOM     26  Cl  UNL A   1      32.286  18.116  21.960  1.00  0.00    -0.084 Cl
ENDBRANCH  13  20
ENDBRANCH   7   9
ENDBRANCH   6   7
ENDBRANCH   5   6
ENDBRANCH   4   5
ENDBRANCH   3   4
ENDBRANCH   2   3
ENDBRANCH   1   2
BRANCH   1  27
ATOM     27  O   UNL A   1      40.398  19.675  25.247  1.00  0.00    -0.376 OA
BRANCH  27  28
ATOM     28  C   UNL A   1      41.289  19.462  26.334  1.00  0.00     0.202 C 
BRANCH  28  29
ATOM     29  C   UNL A   1      42.796  19.532  26.107  1.00  0.00     0.261 C 
BRANCH  29  30
ATOM     30  O   UNL A   1      43.171  20.493  25.134  1.00  0.00    -0.460 OA
BRANCH  30  31
ATOM     31  C   UNL A   1      43.914  21.505  25.622  1.00  0.00     0.338 C 
ATOM     32  O   UNL A   1      45.137  21.589  25.621  1.00  0.00    -0.246 OA
BRANCH  31  33
ATOM     33  C   UNL A   1      43.031  22.529  26.188  1.00  0.00     0.060 A 
ATOM     34  C   UNL A   1      42.710  23.613  25.363  1.00  0.00     0.016 A 
ATOM     35  C   UNL A   1      42.749  22.531  27.560  1.00  0.00     0.016 A 
ATOM     36  C   UNL A   1      42.339  24.798  25.955  1.00  0.00     0.010 A 
ATOM     37  C   UNL A   1      42.394  23.720  28.153  1.00  0.00     0.010 A 
ATOM     38  C   UNL A   1      42.298  24.858  27.349  1.00  0.00    -0.014 A 
BRANCH  38  39
ATOM     39  C   UNL A   1      42.339  26.166  27.966  1.00  0.00     0.031 A 
ATOM     40  C   UNL A   1      43.507  27.007  27.660  1.00  0.00     0.074 A 
ATOM     41  C   UNL A   1      41.282  26.619  28.666  1.00  0.00     0.049 A 
ATOM     42  N   UNL A   1      44.388  27.465  28.484  1.00  0.00    -0.248 NA
ATOM     43  C   UNL A   1      43.771  27.310  26.247  1.00  0.00     0.031 C 
ATOM     44  C   UNL A   1      39.954  26.002  28.765  1.00  0.00     0.029 A 
ATOM     45  N   UNL A   1      41.129  27.802  29.322  1.00  0.00    -0.354 N 
ATOM     46  C   UNL A   1      45.220  28.273  27.722  1.00  0.00     0.074 A 
ATOM     47  C   UNL A   1      44.897  28.014  26.341  1.00  0.00     0.031 C 
ATOM     48  C   UNL A   1      39.079  26.917  29.236  1.00  0.00     0.029 A 
ATOM     49  C   UNL A   1      39.804  28.134  29.569  1.00  0.00     0.049 A 
ATOM     50  H   UNL A   1      41.886  28.367  29.596  1.00  0.00     0.167 HD
ATOM     51  C   UNL A   1      45.956  29.278  28.266  1.00  0.00     0.031 A 
ATOM     52  C   UNL A   1      39.329  29.351  29.928  1.00  0.00     0.031 A 
ATOM     53  C   UNL A   1      46.047  29.192  29.698  1.00  0.00     0.049 A 
ATOM     54  C   UNL A   1      40.466  30.147  30.451  1.00  0.00     0.074 A 
ATOM     55  C   UNL A   1      46.527  28.249  30.585  1.00  0.00     0.029 A 
ATOM     56  N   UNL A   1      45.264  30.049  30.436  1.00  0.00    -0.354 N 
ATOM     57  N   UNL A   1      41.066  29.900  31.580  1.00  0.00    -0.248 NA
ATOM     58  C   UNL A   1      41.209  31.002  29.534  1.00  0.00     0.031 C 
ATOM     59  C   UNL A   1      45.671  28.330  31.721  1.00  0.00     0.029 A 
ATOM     60  C   UNL A   1      44.728  29.330  31.476  1.00  0.00     0.049 A 
ATOM     61  H   UNL A   1      45.116  31.004  30.253  1.00  0.00     0.167 HD
ATOM     62  C   UNL A   1      42.402  30.200  31.352  1.00  0.00     0.074 A 
ATOM     63  C   UNL A   1      42.404  30.998  30.132  1.00  0.00     0.031 C 
ATOM     64  C   UNL A   1      43.396  29.534  32.012  1.00  0.00     0.031 A 
BRANCH  51  65
ATOM     65  C   UNL A   1      46.287  30.531  27.506  1.00  0.00    -0.014 A 
ATOM     66  C   UNL A   1      47.630  30.890  27.307  1.00  0.00     0.010 A 
ATOM     67  C   UNL A   1      45.302  31.495  27.196  1.00  0.00     0.010 A 
ATOM     68  C   UNL A   1      47.971  32.169  26.845  1.00  0.00     0.020 A 
ATOM     69  C   UNL A   1      45.628  32.750  26.688  1.00  0.00     0.020 A 
ATOM     70  C   UNL A   1      46.965  33.093  26.550  1.00  0.00     0.054 A 
BRANCH  70  71
ATOM     71  S   UNL A   1      47.410  34.775  26.055  1.00  0.00     0.124 S 
ATOM     72  O   UNL A   1      46.142  35.274  25.530  1.00  0.00    -0.237 OA
ATOM     73  O   UNL A   1      47.855  35.366  27.313  1.00  0.00    -0.237 OA
ATOM     74  O   UNL A   1      48.462  34.568  25.063  1.00  0.00    -0.744 OA
ENDBRANCH  70  71
ENDBRANCH  51  65
BRANCH  52  75
ATOM     75  C   UNL A   1      38.006  29.941  29.613  1.00  0.00    -0.014 A 
ATOM     76  C   UNL A   1      37.252  30.590  30.607  1.00  0.00     0.010 A 
ATOM     77  C   UNL A   1      37.585  30.084  28.274  1.00  0.00     0.010 A 
ATOM     78  C   UNL A   1      36.154  31.399  30.267  1.00  0.00     0.020 A 
ATOM     79  C   UNL A   1      36.481  30.871  27.929  1.00  0.00     0.020 A 
ATOM     80  C   UNL A   1      35.788  31.547  28.927  1.00  0.00     0.054 A 
BRANCH  80  81
ATOM     81  S   UNL A   1      34.486  32.731  28.481  1.00  0.00     0.124 S 
ATOM     82  O   UNL A   1      34.064  33.236  29.783  1.00  0.00    -0.237 OA
ATOM     83  O   UNL A   1      35.199  33.682  27.632  1.00  0.00    -0.237 OA
ATOM     84  O   UNL A   1      33.498  31.908  27.784  1.00  0.00    -0.744 OA
ENDBRANCH  80  81
ENDBRANCH  52  75
BRANCH  64  85
ATOM     85  C   UNL A   1      43.015  28.706  33.221  1.00  0.00    -0.014 A 
ATOM     86  C   UNL A   1      42.793  29.264  34.496  1.00  0.00     0.010 A 
ATOM     87  C   UNL A   1      42.750  27.337  33.038  1.00  0.00     0.010 A 
ATOM     88  C   UNL A   1      42.364  28.469  35.567  1.00  0.00     0.020 A 
ATOM     89  C   UNL A   1      42.299  26.542  34.098  1.00  0.00     0.020 A 
ATOM     90  C   UNL A   1      42.123  27.110  35.361  1.00  0.00     0.054 A 
BRANCH  90  91
ATOM     91  S   UNL A   1      41.522  26.098  36.743  1.00  0.00     0.124 S 
ATOM     92  O   UNL A   1      40.705  27.045  37.496  1.00  0.00    -0.237 OA
ATOM     93  O   UNL A   1      40.785  25.029  36.069  1.00  0.00    -0.237 OA
ATOM     94  O   UNL A   1      42.745  25.664  37.415  1.00  0.00    -0.744 OA
ENDBRANCH  90  91
ENDBRANCH  64  85
ENDBRANCH  38  39
ENDBRANCH  31  33
ENDBRANCH  30  31
ENDBRANCH  29  30
ENDBRANCH  28  29
ENDBRANCH  27  28
ENDBRANCH   1  27
TORSDOF 21
ENDMDL
MODEL 3
REMARK VINA RESULT:     -10.3      4.822     10.780
REMARK SMILES CC1=C(C(=O)OCCOCCOCCOC(=O)c2ccc(-c3c4nc(c(-c5ccc(S(=O)(=O)[O-])cc5)c5ccc([nH]5)c(-c5ccc(S(=O)(=O)[O-])cc5)c5nc(c(-c6ccc(S(=O)(=O)[O-])cc6)c6ccc3[nH]6)C=C5)C=C4)cc2)[C@H](c2ccc(Cl)cc2)n2ncnc2N1
REMARK SMILES IDX 11 1 10 2 9 3 8 4 7 5 6 6 4 7 5 8 3 9 1 10 2 11 91 12 78 13
REMARK SMILES IDX 90 14 86 16 89 17 87 18 88 19 79 20 80 21 85 22 81 23 84 24
REMARK SMILES IDX 82 25 83 26 12 27 13 28 14 29 15 30 16 31 17 32 18 33 19 34
REMARK SMILES IDX 77 35 20 36 76 37 21 38 22 39 23 40 70 41 24 42 75 43 69 44
REMARK SMILES IDX 71 45 25 46 74 47 68 48 67 49 26 51 56 52 37 53 55 54 38 55
REMARK SMILES IDX 41 56 54 57 72 58 39 59 40 60 53 62 73 63 42 64 27 65 28 66
REMARK SMILES IDX 36 67 29 68 35 69 30 70 31 71 32 72 33 73 34 74 57 75 58 76
REMARK SMILES IDX 66 77 59 78 65 79 60 80 61 81 62 82 63 83 64 84 43 85 44 86
REMARK SMILES IDX 52 87 45 88 51 89 46 90 47 91 48 92 49 93 50 94
REMARK H PARENT 91 15 71 50 41 61
REMARK Flexibility Score: inf
ROOT
ATOM      1  C   UNL A   1      34.801  32.967  28.021  1.00  0.00     0.188 C 
ENDROOT
BRANCH   1   2
ATOM      2  C   UNL A   1      34.249  31.528  27.914  1.00  0.00     0.188 C 
BRANCH   2   3
ATOM      3  O   UNL A   1      32.957  31.405  27.336  1.00  0.00    -0.376 OA
BRANCH   3   4
ATOM      4  C   UNL A   1      32.505  30.062  27.164  1.00  0.00     0.202 C 
BRANCH   4   5
ATOM      5  C   UNL A   1      32.203  29.657  25.713  1.00  0.00     0.261 C 
BRANCH   5   6
ATOM      6  O   UNL A   1      33.007  28.541  25.298  1.00  0.00    -0.460 OA
BRANCH   6   7
ATOM      7  C   UNL A   1      32.625  27.783  24.257  1.00  0.00     0.338 C 
ATOM      8  O   UNL A   1      32.967  27.927  23.091  1.00  0.00    -0.246 OA
BRANCH   7   9
ATOM      9  C   UNL A   1      31.773  26.686  24.766  1.00  0.00     0.085 C 
ATOM     10  C   UNL A   1      29.674  27.758  23.819  1.00  0.00     0.065 C 
ATOM     11  C   UNL A   1      30.429  26.695  24.578  1.00  0.00     0.028 C 
ATOM     12  N   UNL A   1      29.640  25.711  25.160  1.00  0.00    -0.328 N 
ATOM     13  C   UNL A   1      32.447  25.661  25.674  1.00  0.00     0.181 C 
ATOM     14  C   UNL A   1      30.122  24.766  25.985  1.00  0.00     0.226 A 
ATOM     15  H   UNL A   1      28.676  25.706  24.958  1.00  0.00     0.169 HD
ATOM     16  N   UNL A   1      31.462  24.735  26.259  1.00  0.00    -0.219 N 
ATOM     17  N   UNL A   1      29.517  23.814  26.650  1.00  0.00    -0.200 NA
ATOM     18  N   UNL A   1      31.749  23.791  27.181  1.00  0.00    -0.157 NA
ATOM     19  C   UNL A   1      30.537  23.253  27.372  1.00  0.00     0.248 A 
BRANCH  13  20
ATOM     20  C   UNL A   1      33.610  24.918  25.021  1.00  0.00    -0.018 A 
ATOM     21  C   UNL A   1      34.853  24.753  25.652  1.00  0.00     0.008 A 
ATOM     22  C   UNL A   1      33.423  24.345  23.748  1.00  0.00     0.008 A 
ATOM     23  C   UNL A   1      35.879  24.038  25.027  1.00  0.00     0.021 A 
ATOM     24  C   UNL A   1      34.437  23.607  23.137  1.00  0.00     0.021 A 
ATOM     25  C   UNL A   1      35.662  23.458  23.780  1.00  0.00     0.041 A 
ATOM     26  Cl  UNL A   1      36.912  22.543  23.033  1.00  0.00    -0.084 Cl
ENDBRANCH  13  20
ENDBRANCH   7   9
ENDBRANCH   6   7
ENDBRANCH   5   6
ENDBRANCH   4   5
ENDBRANCH   3   4
ENDBRANCH   2   3
ENDBRANCH   1   2
BRANCH   1  27
ATOM     27  O   UNL A   1      34.515  33.806  29.137  1.00  0.00    -0.376 OA
BRANCH  27  28
ATOM     28  C   UNL A   1      33.908  35.079  28.958  1.00  0.00     0.202 C 
BRANCH  28  29
ATOM     29  C   UNL A   1      33.151  35.730  30.112  1.00  0.00     0.261 C 
BRANCH  29  30
ATOM     30  O   UNL A   1      33.907  35.797  31.309  1.00  0.00    -0.460 OA
BRANCH  30  31
ATOM     31  C   UNL A   1      33.422  35.031  32.306  1.00  0.00     0.338 C 
ATOM     32  O   UNL A   1      32.250  34.919  32.647  1.00  0.00    -0.246 OA
BRANCH  31  33
ATOM     33  C   UNL A   1      34.529  34.331  32.963  1.00  0.00     0.060 A 
ATOM     34  C   UNL A   1      35.602  35.114  33.403  1.00  0.00     0.016 A 
ATOM     35  C   UNL A   1      34.605  32.933  32.908  1.00  0.00     0.016 A 
ATOM     36  C   UNL A   1      36.833  34.517  33.548  1.00  0.00     0.010 A 
ATOM     37  C   UNL A   1      35.839  32.339  33.037  1.00  0.00     0.010 A 
ATOM     38  C   UNL A   1      36.949  33.159  33.250  1.00  0.00    -0.014 A 
BRANCH  38  39
ATOM     39  C   UNL A   1      38.273  32.641  32.981  1.00  0.00     0.031 A 
ATOM     40  C   UNL A   1      39.163  32.463  34.138  1.00  0.00     0.074 A 
ATOM     41  C   UNL A   1      38.598  32.219  31.744  1.00  0.00     0.049 A 
ATOM     42  N   UNL A   1      40.297  33.039  34.359  1.00  0.00    -0.248 NA
ATOM     43  C   UNL A   1      38.694  31.594  35.226  1.00  0.00     0.031 C 
ATOM     44  C   UNL A   1      37.696  32.053  30.598  1.00  0.00     0.029 A 
ATOM     45  N   UNL A   1      39.778  31.714  31.290  1.00  0.00    -0.354 N 
ATOM     46  C   UNL A   1      40.780  32.466  35.527  1.00  0.00     0.074 A 
ATOM     47  C   UNL A   1      39.691  31.712  36.100  1.00  0.00     0.031 C 
ATOM     48  C   UNL A   1      38.301  31.279  29.672  1.00  0.00     0.029 A 
ATOM     49  C   UNL A   1      39.658  30.992  30.112  1.00  0.00     0.049 A 
ATOM     50  H   UNL A   1      40.635  31.849  31.755  1.00  0.00     0.167 HD
ATOM     51  C   UNL A   1      42.103  32.445  35.835  1.00  0.00     0.031 A 
ATOM     52  C   UNL A   1      40.574  30.143  29.587  1.00  0.00     0.031 A 
ATOM     53  C   UNL A   1      42.878  33.349  35.029  1.00  0.00     0.049 A 
ATOM     54  C   UNL A   1      41.885  30.444  30.213  1.00  0.00     0.074 A 
ATOM     55  C   UNL A   1      42.865  34.712  34.814  1.00  0.00     0.029 A 
ATOM     56  N   UNL A   1      43.626  32.807  34.009  1.00  0.00    -0.354 N 
ATOM     57  N   UNL A   1      42.564  31.531  29.985  1.00  0.00    -0.248 NA
ATOM     58  C   UNL A   1      42.281  29.711  31.407  1.00  0.00     0.031 C 
ATOM     59  C   UNL A   1      43.237  34.883  33.449  1.00  0.00     0.029 A 
ATOM     60  C   UNL A   1      43.476  33.617  32.910  1.00  0.00     0.049 A 
ATOM     61  H   UNL A   1      44.169  31.988  34.058  1.00  0.00     0.167 HD
ATOM     62  C   UNL A   1      43.164  31.843  31.196  1.00  0.00     0.074 A 
ATOM     63  C   UNL A   1      43.067  30.622  31.987  1.00  0.00     0.031 C 
ATOM     64  C   UNL A   1      43.422  33.140  31.542  1.00  0.00     0.031 A 
BRANCH  51  65
ATOM     65  C   UNL A   1      42.724  31.333  36.631  1.00  0.00    -0.014 A 
ATOM     66  C   UNL A   1      43.475  31.634  37.780  1.00  0.00     0.010 A 
ATOM     67  C   UNL A   1      42.791  30.011  36.137  1.00  0.00     0.010 A 
ATOM     68  C   UNL A   1      44.282  30.660  38.386  1.00  0.00     0.020 A 
ATOM     69  C   UNL A   1      43.549  29.024  36.762  1.00  0.00     0.020 A 
ATOM     70  C   UNL A   1      44.319  29.364  37.863  1.00  0.00     0.054 A 
BRANCH  70  71
ATOM     71  S   UNL A   1      45.439  28.140  38.585  1.00  0.00     0.124 S 
ATOM     72  O   UNL A   1      46.078  27.587  37.394  1.00  0.00    -0.237 OA
ATOM     73  O   UNL A   1      46.291  28.960  39.442  1.00  0.00    -0.237 OA
ATOM     74  O   UNL A   1      44.539  27.234  39.293  1.00  0.00    -0.744 OA
ENDBRANCH  70  71
ENDBRANCH  51  65
BRANCH  52  75
ATOM     75  C   UNL A   1      40.329  28.933  28.766  1.00  0.00    -0.014 A 
ATOM     76  C   UNL A   1      40.953  28.771  27.517  1.00  0.00     0.010 A 
ATOM     77  C   UNL A   1      39.669  27.814  29.317  1.00  0.00     0.010 A 
ATOM     78  C   UNL A   1      40.967  27.523  26.873  1.00  0.00     0.020 A 
ATOM     79  C   UNL A   1      39.660  26.573  28.673  1.00  0.00     0.020 A 
ATOM     80  C   UNL A   1      40.334  26.427  27.465  1.00  0.00     0.054 A 
BRANCH  80  81
ATOM     81  S   UNL A   1      40.507  24.781  26.719  1.00  0.00     0.124 S 
ATOM     82  O   UNL A   1      40.976  23.977  27.843  1.00  0.00    -0.237 OA
ATOM     83  O   UNL A   1      39.151  24.498  26.257  1.00  0.00    -0.237 OA
ATOM     84  O   UNL A   1      41.487  24.989  25.654  1.00  0.00    -0.744 OA
ENDBRANCH  80  81
ENDBRANCH  52  75
BRANCH  64  85
ATOM     85  C   UNL A   1      43.347  34.192  30.457  1.00  0.00    -0.014 A 
ATOM     86  C   UNL A   1      44.476  34.646  29.745  1.00  0.00     0.010 A 
ATOM     87  C   UNL A   1      42.079  34.650  30.054  1.00  0.00     0.010 A 
ATOM     88  C   UNL A   1      44.347  35.563  28.695  1.00  0.00     0.020 A 
ATOM     89  C   UNL A   1      41.941  35.548  28.990  1.00  0.00     0.020 A 
ATOM     90  C   UNL A   1      43.078  36.012  28.325  1.00  0.00     0.054 A 
BRANCH  90  91
ATOM     91  S   UNL A   1      42.916  37.164  26.932  1.00  0.00     0.124 S 
ATOM     92  O   UNL A   1      44.194  37.871  26.957  1.00  0.00    -0.237 OA
ATOM     93  O   UNL A   1      42.714  36.271  25.792  1.00  0.00    -0.237 OA
ATOM     94  O   UNL A   1      41.752  37.975  27.284  1.00  0.00    -0.744 OA
ENDBRANCH  90  91
ENDBRANCH  64  85
ENDBRANCH  38  39
ENDBRANCH  31  33
ENDBRANCH  30  31
ENDBRANCH  29  30
ENDBRANCH  28  29
ENDBRANCH  27  28
ENDBRANCH   1  27
TORSDOF 21
ENDMDL
