MODEL 1
REMARK VINA RESULT:      -9.0      0.000      0.000
REMARK SMILES O=C(OCCOCCOCCOC(=O)c1ccccc1C(=O)Nc1ccc(N2C(=O)[C@H]3[C@@H]4CC[C@@H](C4)[C@@H]3C2=O)cc1)c1ccc(-c2c3nc(c(-c4ccc(S(=O)(=O)[O-])cc4)c4ccc([nH]4)c(-c4ccc(S(=O)(=O)[O-])cc4)c4nc(c(-c5ccc(S(=O)(=O)[O-])cc5)c5ccc2[nH]5)C=C4)C=C3)cc1
REMARK SMILES IDX 7 1 6 2 5 3 4 4 3 5 2 6 1 7 42 8 43 9 101 10 44 11 100 12
REMARK SMILES IDX 45 13 46 14 47 15 94 16 48 17 99 18 93 19 95 20 49 21 98 22
REMARK SMILES IDX 92 23 91 24 50 26 80 27 61 28 79 29 62 30 65 31 78 32 96 33
REMARK SMILES IDX 63 34 64 35 77 37 97 38 66 39 51 40 52 41 60 42 53 43 59 44
REMARK SMILES IDX 54 45 55 46 56 47 57 48 58 49 81 50 82 51 90 52 83 53 89 54
REMARK SMILES IDX 84 55 85 56 86 57 87 58 88 59 67 60 68 61 76 62 69 63 75 64
REMARK SMILES IDX 70 65 71 66 72 67 73 68 74 69 8 70 9 71 10 72 11 73 12 74
REMARK SMILES IDX 13 75 14 76 15 77 16 78 20 79 17 80 19 81 18 82 21 83 22 84
REMARK SMILES IDX 23 85 24 87 25 88 41 89 26 90 40 91 27 92 28 93 29 94 38 95
REMARK SMILES IDX 30 96 31 97 37 98 39 99 32 100 35 101 33 102 36 103 34 104
REMARK H PARENT 95 25 65 36 23 86
REMARK Flexibility Score: inf
ROOT
ATOM      1  C   UNL A   1      33.288  30.318  26.533  1.00  0.00     0.188 C 
ENDROOT
BRANCH   1   2
ATOM      2  O   UNL A   1      32.875  31.151  27.643  1.00  0.00    -0.376 OA
BRANCH   2   3
ATOM      3  C   UNL A   1      33.273  32.538  27.579  1.00  0.00     0.202 C 
BRANCH   3   4
ATOM      4  C   UNL A   1      34.416  33.014  28.474  1.00  0.00     0.261 C 
BRANCH   4   5
ATOM      5  O   UNL A   1      34.082  32.853  29.850  1.00  0.00    -0.460 OA
BRANCH   5   6
ATOM      6  C   UNL A   1      34.143  33.845  30.771  1.00  0.00     0.338 C 
ATOM      7  O   UNL A   1      33.326  34.759  30.744  1.00  0.00    -0.246 OA
BRANCH   6   8
ATOM      8  C   UNL A   1      35.133  33.789  31.879  1.00  0.00     0.060 A 
ATOM      9  C   UNL A   1      35.459  34.894  32.664  1.00  0.00     0.016 A 
ATOM     10  C   UNL A   1      35.726  32.559  32.171  1.00  0.00     0.016 A 
ATOM     11  C   UNL A   1      36.446  34.818  33.643  1.00  0.00     0.010 A 
ATOM     12  C   UNL A   1      36.656  32.459  33.211  1.00  0.00     0.010 A 
ATOM     13  C   UNL A   1      37.049  33.597  33.937  1.00  0.00    -0.014 A 
BRANCH  13  14
ATOM     14  C   UNL A   1      38.176  33.528  34.902  1.00  0.00     0.031 A 
ATOM     15  C   UNL A   1      39.569  33.704  34.373  1.00  0.00     0.074 A 
ATOM     16  C   UNL A   1      37.983  33.376  36.227  1.00  0.00     0.049 A 
ATOM     17  N   UNL A   1      40.709  33.387  34.923  1.00  0.00    -0.248 NA
ATOM     18  C   UNL A   1      39.687  34.293  33.028  1.00  0.00     0.031 C 
ATOM     19  C   UNL A   1      36.687  33.340  36.901  1.00  0.00     0.029 A 
ATOM     20  N   UNL A   1      38.887  33.247  37.251  1.00  0.00    -0.354 N 
ATOM     21  C   UNL A   1      41.670  33.641  33.953  1.00  0.00     0.074 A 
ATOM     22  C   UNL A   1      40.986  34.174  32.796  1.00  0.00     0.031 C 
ATOM     23  C   UNL A   1      36.876  33.263  38.228  1.00  0.00     0.029 A 
ATOM     24  C   UNL A   1      38.304  33.133  38.492  1.00  0.00     0.049 A 
ATOM     25  H   UNL A   1      39.862  33.239  37.112  1.00  0.00     0.167 HD
ATOM     26  C   UNL A   1      43.003  33.410  34.020  1.00  0.00     0.031 A 
ATOM     27  C   UNL A   1      38.859  32.903  39.699  1.00  0.00     0.031 A 
ATOM     28  C   UNL A   1      43.662  32.936  35.204  1.00  0.00     0.049 A 
ATOM     29  C   UNL A   1      40.343  32.663  39.763  1.00  0.00     0.074 A 
ATOM     30  C   UNL A   1      44.981  32.564  35.379  1.00  0.00     0.029 A 
ATOM     31  N   UNL A   1      43.040  32.814  36.439  1.00  0.00    -0.354 N 
ATOM     32  N   UNL A   1      41.226  32.698  38.791  1.00  0.00    -0.248 NA
ATOM     33  C   UNL A   1      40.904  32.311  41.075  1.00  0.00     0.031 C 
ATOM     34  C   UNL A   1      45.155  32.214  36.726  1.00  0.00     0.029 A 
ATOM     35  C   UNL A   1      43.950  32.395  37.389  1.00  0.00     0.049 A 
ATOM     36  H   UNL A   1      42.089  33.000  36.612  1.00  0.00     0.167 HD
ATOM     37  C   UNL A   1      42.443  32.362  39.370  1.00  0.00     0.074 A 
ATOM     38  C   UNL A   1      42.189  32.157  40.784  1.00  0.00     0.031 C 
ATOM     39  C   UNL A   1      43.658  32.212  38.786  1.00  0.00     0.031 A 
BRANCH  26  40
ATOM     40  C   UNL A   1      43.775  33.578  32.743  1.00  0.00    -0.014 A 
ATOM     41  C   UNL A   1      44.331  34.813  32.370  1.00  0.00     0.010 A 
ATOM     42  C   UNL A   1      43.869  32.486  31.860  1.00  0.00     0.010 A 
ATOM     43  C   UNL A   1      44.914  34.970  31.109  1.00  0.00     0.020 A 
ATOM     44  C   UNL A   1      44.467  32.634  30.607  1.00  0.00     0.020 A 
ATOM     45  C   UNL A   1      44.960  33.884  30.228  1.00  0.00     0.054 A 
BRANCH  45  46
ATOM     46  S   UNL A   1      45.671  34.114  28.575  1.00  0.00     0.124 S 
ATOM     47  O   UNL A   1      46.508  32.924  28.440  1.00  0.00    -0.237 OA
ATOM     48  O   UNL A   1      44.491  34.152  27.713  1.00  0.00    -0.237 OA
ATOM     49  O   UNL A   1      46.396  35.377  28.684  1.00  0.00    -0.744 OA
ENDBRANCH  45  46
ENDBRANCH  26  40
BRANCH  27  50
ATOM     50  C   UNL A   1      38.007  32.816  40.918  1.00  0.00    -0.014 A 
ATOM     51  C   UNL A   1      37.493  31.580  41.346  1.00  0.00     0.010 A 
ATOM     52  C   UNL A   1      37.716  33.969  41.671  1.00  0.00     0.010 A 
ATOM     53  C   UNL A   1      36.706  31.495  42.502  1.00  0.00     0.020 A 
ATOM     54  C   UNL A   1      36.952  33.886  42.839  1.00  0.00     0.020 A 
ATOM     55  C   UNL A   1      36.441  32.651  43.243  1.00  0.00     0.054 A 
BRANCH  55  56
ATOM     56  S   UNL A   1      35.480  32.533  44.779  1.00  0.00     0.124 S 
ATOM     57  O   UNL A   1      34.128  32.311  44.274  1.00  0.00    -0.237 OA
ATOM     58  O   UNL A   1      36.090  31.398  45.466  1.00  0.00    -0.237 OA
ATOM     59  O   UNL A   1      35.706  33.829  45.415  1.00  0.00    -0.744 OA
ENDBRANCH  55  56
ENDBRANCH  27  50
BRANCH  39  60
ATOM     60  C   UNL A   1      44.796  31.828  39.684  1.00  0.00    -0.014 A 
ATOM     61  C   UNL A   1      45.121  30.477  39.889  1.00  0.00     0.010 A 
ATOM     62  C   UNL A   1      45.575  32.831  40.287  1.00  0.00     0.010 A 
ATOM     63  C   UNL A   1      46.200  30.131  40.704  1.00  0.00     0.020 A 
ATOM     64  C   UNL A   1      46.662  32.489  41.092  1.00  0.00     0.020 A 
ATOM     65  C   UNL A   1      46.960  31.139  41.306  1.00  0.00     0.054 A 
BRANCH  65  66
ATOM     66  S   UNL A   1      48.386  30.678  42.327  1.00  0.00     0.124 S 
ATOM     67  O   UNL A   1      49.464  31.441  41.704  1.00  0.00    -0.237 OA
ATOM     68  O   UNL A   1      47.991  31.123  43.662  1.00  0.00    -0.237 OA
ATOM     69  O   UNL A   1      48.469  29.228  42.162  1.00  0.00    -0.744 OA
ENDBRANCH  65  66
ENDBRANCH  39  60
ENDBRANCH  13  14
ENDBRANCH   6   8
ENDBRANCH   5   6
ENDBRANCH   4   5
ENDBRANCH   3   4
ENDBRANCH   2   3
ENDBRANCH   1   2
BRANCH   1  70
ATOM     70  C   UNL A   1      34.084  28.912  26.794  1.00  0.00     0.188 C 
BRANCH  70  71
ATOM     71  O   UNL A   1      35.525  28.951  27.007  1.00  0.00    -0.376 OA
BRANCH  71  72
ATOM     72  C   UNL A   1      36.218  29.881  27.929  1.00  0.00     0.202 C 
BRANCH  72  73
ATOM     73  C   UNL A   1      35.948  29.796  29.731  1.00  0.00     0.261 C 
BRANCH  73  74
ATOM     74  O   UNL A   1      37.140  28.743  31.019  1.00  0.00    -0.460 OA
BRANCH  74  75
ATOM     75  C   UNL A   1      37.994  28.494  32.167  1.00  0.00     0.339 C 
ATOM     76  O   UNL A   1      37.470  28.216  33.249  1.00  0.00    -0.246 OA
BRANCH  75  77
ATOM     77  C   UNL A   1      39.523  28.715  32.197  1.00  0.00     0.072 A 
ATOM     78  C   UNL A   1      40.302  27.959  33.105  1.00  0.00     0.016 A 
ATOM     79  C   UNL A   1      40.219  29.613  31.367  1.00  0.00     0.054 A 
ATOM     80  C   UNL A   1      41.709  28.008  33.114  1.00  0.00     0.001 A 
ATOM     81  C   UNL A   1      41.637  29.628  31.356  1.00  0.00     0.015 A 
ATOM     82  C   UNL A   1      42.379  28.818  32.211  1.00  0.00     0.001 A 
BRANCH  79  83
ATOM     83  C   UNL A   1      39.601  30.626  30.488  1.00  0.00     0.256 C 
ATOM     84  O   UNL A   1      39.207  31.682  30.977  1.00  0.00    -0.269 OA
ATOM     85  N   UNL A   1      39.438  30.428  29.140  1.00  0.00    -0.322 N 
ATOM     86  H   UNL A   1      38.895  31.094  28.660  1.00  0.00     0.170 HD
BRANCH  85  87
ATOM     87  C   UNL A   1      39.962  29.385  28.381  1.00  0.00     0.041 A 
ATOM     88  C   UNL A   1      41.585  29.779  27.758  1.00  0.00     0.028 A 
ATOM     89  C   UNL A   1      39.485  27.669  28.664  1.00  0.00     0.028 A 
ATOM     90  C   UNL A   1      42.805  28.528  27.484  1.00  0.00     0.029 A 
ATOM     91  C   UNL A   1      40.777  26.383  28.466  1.00  0.00     0.029 A 
ATOM     92  C   UNL A   1      42.434  26.820  27.763  1.00  0.00     0.052 A 
BRANCH  92  93
ATOM     93  N   UNL A   1      43.229  25.941  26.897  1.00  0.00    -0.250 N 
ATOM     94  C   UNL A   1      43.014  25.710  25.512  1.00  0.00     0.237 C 
ATOM     95  C   UNL A   1      44.552  25.572  27.111  1.00  0.00     0.237 C 
ATOM     96  O   UNL A   1      42.589  26.430  24.627  1.00  0.00    -0.274 OA
ATOM     97  C   UNL A   1      43.602  24.338  25.354  1.00  0.00     0.095 C 
ATOM     98  C   UNL A   1      44.955  24.675  25.942  1.00  0.00     0.095 C 
ATOM     99  O   UNL A   1      45.327  25.955  27.971  1.00  0.00    -0.274 OA
ATOM    100  C   UNL A   1      43.886  23.140  24.439  1.00  0.00     0.002 C 
ATOM    101  C   UNL A   1      45.645  23.306  25.857  1.00  0.00     0.002 C 
ATOM    102  C   UNL A   1      43.714  21.886  25.360  1.00  0.00     0.005 C 
ATOM    103  C   UNL A   1      45.421  23.074  24.339  1.00  0.00     0.009 C 
ATOM    104  C   UNL A   1      44.827  22.115  26.424  1.00  0.00     0.005 C 
ENDBRANCH  92  93
ENDBRANCH  85  87
ENDBRANCH  79  83
ENDBRANCH  75  77
ENDBRANCH  74  75
ENDBRANCH  73  74
ENDBRANCH  72  73
ENDBRANCH  71  72
ENDBRANCH  70  71
ENDBRANCH   1  70
TORSDOF 23
ENDMDL
MODEL 2
REMARK VINA RESULT:      -8.9      5.587     10.911
REMARK SMILES O=C(OCCOCCOCCOC(=O)c1ccccc1C(=O)Nc1ccc(N2C(=O)[C@H]3[C@@H]4CC[C@@H](C4)[C@@H]3C2=O)cc1)c1ccc(-c2c3nc(c(-c4ccc(S(=O)(=O)[O-])cc4)c4ccc([nH]4)c(-c4ccc(S(=O)(=O)[O-])cc4)c4nc(c(-c5ccc(S(=O)(=O)[O-])cc5)c5ccc2[nH]5)C=C4)C=C3)cc1
REMARK SMILES IDX 7 1 6 2 5 3 4 4 3 5 2 6 1 7 42 8 43 9 101 10 44 11 100 12
REMARK SMILES IDX 45 13 46 14 47 15 94 16 48 17 99 18 93 19 95 20 49 21 98 22
REMARK SMILES IDX 92 23 91 24 50 26 80 27 61 28 79 29 62 30 65 31 78 32 96 33
REMARK SMILES IDX 63 34 64 35 77 37 97 38 66 39 51 40 52 41 60 42 53 43 59 44
REMARK SMILES IDX 54 45 55 46 56 47 57 48 58 49 81 50 82 51 90 52 83 53 89 54
REMARK SMILES IDX 84 55 85 56 86 57 87 58 88 59 67 60 68 61 76 62 69 63 75 64
REMARK SMILES IDX 70 65 71 66 72 67 73 68 74 69 8 70 9 71 10 72 11 73 12 74
REMARK SMILES IDX 13 75 14 76 15 77 16 78 20 79 17 80 19 81 18 82 21 83 22 84
REMARK SMILES IDX 23 85 24 87 25 88 41 89 26 90 40 91 27 92 28 93 29 94 38 95
REMARK SMILES IDX 30 96 31 97 37 98 39 99 32 100 35 101 33 102 36 103 34 104
REMARK H PARENT 95 25 65 36 23 86
REMARK Flexibility Score: inf
ROOT
ATOM      1  C   UNL A   1      37.101  32.999  35.227  1.00  0.00     0.188 C 
ENDROOT
BRANCH   1   2
ATOM      2  O   UNL A   1      35.756  33.114  34.703  1.00  0.00    -0.376 OA
BRANCH   2   3
ATOM      3  C   UNL A   1      35.603  33.925  33.517  1.00  0.00     0.202 C 
BRANCH   3   4
ATOM      4  C   UNL A   1      34.254  33.926  32.801  1.00  0.00     0.261 C 
BRANCH   4   5
ATOM      5  O   UNL A   1      34.149  32.813  31.917  1.00  0.00    -0.460 OA
BRANCH   5   6
ATOM      6  C   UNL A   1      34.715  32.759  30.687  1.00  0.00     0.338 C 
ATOM      7  O   UNL A   1      34.172  33.313  29.737  1.00  0.00    -0.246 OA
BRANCH   6   8
ATOM      8  C   UNL A   1      36.041  32.118  30.491  1.00  0.00     0.060 A 
ATOM      9  C   UNL A   1      36.582  31.198  31.389  1.00  0.00     0.016 A 
ATOM     10  C   UNL A   1      36.754  32.420  29.329  1.00  0.00     0.016 A 
ATOM     11  C   UNL A   1      37.860  30.677  31.207  1.00  0.00     0.010 A 
ATOM     12  C   UNL A   1      38.003  31.832  29.100  1.00  0.00     0.010 A 
ATOM     13  C   UNL A   1      38.583  30.978  30.054  1.00  0.00    -0.014 A 
BRANCH  13  14
ATOM     14  C   UNL A   1      39.985  30.515  29.904  1.00  0.00     0.031 A 
ATOM     15  C   UNL A   1      41.086  31.467  30.268  1.00  0.00     0.074 A 
ATOM     16  C   UNL A   1      40.293  29.262  29.513  1.00  0.00     0.049 A 
ATOM     17  N   UNL A   1      42.350  31.433  29.946  1.00  0.00    -0.248 NA
ATOM     18  C   UNL A   1      40.699  32.629  31.086  1.00  0.00     0.031 C 
ATOM     19  C   UNL A   1      39.334  28.186  29.268  1.00  0.00     0.029 A 
ATOM     20  N   UNL A   1      41.510  28.674  29.277  1.00  0.00    -0.354 N 
ATOM     21  C   UNL A   1      42.887  32.618  30.431  1.00  0.00     0.074 A 
ATOM     22  C   UNL A   1      41.823  33.331  31.103  1.00  0.00     0.031 C 
ATOM     23  C   UNL A   1      39.999  27.055  28.979  1.00  0.00     0.029 A 
ATOM     24  C   UNL A   1      41.424  27.351  28.910  1.00  0.00     0.049 A 
ATOM     25  H   UNL A   1      42.366  29.155  29.364  1.00  0.00     0.167 HD
ATOM     26  C   UNL A   1      44.151  33.080  30.291  1.00  0.00     0.031 A 
ATOM     27  C   UNL A   1      42.385  26.491  28.518  1.00  0.00     0.031 A 
ATOM     28  C   UNL A   1      45.201  32.323  29.670  1.00  0.00     0.049 A 
ATOM     29  C   UNL A   1      43.790  27.011  28.379  1.00  0.00     0.074 A 
ATOM     30  C   UNL A   1      46.495  32.706  29.370  1.00  0.00     0.029 A 
ATOM     31  N   UNL A   1      45.077  30.993  29.294  1.00  0.00    -0.354 N 
ATOM     32  N   UNL A   1      44.254  28.210  28.645  1.00  0.00    -0.248 NA
ATOM     33  C   UNL A   1      44.795  26.079  27.850  1.00  0.00     0.031 C 
ATOM     34  C   UNL A   1      47.153  31.603  28.808  1.00  0.00     0.029 A 
ATOM     35  C   UNL A   1      46.275  30.529  28.785  1.00  0.00     0.049 A 
ATOM     36  H   UNL A   1      44.255  30.458  29.378  1.00  0.00     0.167 HD
ATOM     37  C   UNL A   1      45.600  28.182  28.304  1.00  0.00     0.074 A 
ATOM     38  C   UNL A   1      45.885  26.836  27.843  1.00  0.00     0.031 C 
ATOM     39  C   UNL A   1      46.517  29.181  28.345  1.00  0.00     0.031 A 
BRANCH  26  40
ATOM     40  C   UNL A   1      44.400  34.494  30.730  1.00  0.00    -0.014 A 
ATOM     41  C   UNL A   1      44.826  34.801  32.034  1.00  0.00     0.010 A 
ATOM     42  C   UNL A   1      44.116  35.541  29.834  1.00  0.00     0.010 A 
ATOM     43  C   UNL A   1      44.904  36.133  32.453  1.00  0.00     0.020 A 
ATOM     44  C   UNL A   1      44.212  36.873  30.243  1.00  0.00     0.020 A 
ATOM     45  C   UNL A   1      44.577  37.159  31.560  1.00  0.00     0.054 A 
BRANCH  45  46
ATOM     46  S   UNL A   1      44.632  38.881  32.132  1.00  0.00     0.124 S 
ATOM     47  O   UNL A   1      45.583  39.477  31.196  1.00  0.00    -0.237 OA
ATOM     48  O   UNL A   1      43.246  39.320  31.981  1.00  0.00    -0.237 OA
ATOM     49  O   UNL A   1      45.098  38.771  33.511  1.00  0.00    -0.744 OA
ENDBRANCH  45  46
ENDBRANCH  26  40
BRANCH  27  50
ATOM     50  C   UNL A   1      42.040  25.086  28.162  1.00  0.00    -0.014 A 
ATOM     51  C   UNL A   1      41.237  24.807  27.043  1.00  0.00     0.010 A 
ATOM     52  C   UNL A   1      42.527  24.012  28.932  1.00  0.00     0.010 A 
ATOM     53  C   UNL A   1      40.927  23.485  26.698  1.00  0.00     0.020 A 
ATOM     54  C   UNL A   1      42.241  22.690  28.577  1.00  0.00     0.020 A 
ATOM     55  C   UNL A   1      41.433  22.434  27.468  1.00  0.00     0.054 A 
BRANCH  55  56
ATOM     56  S   UNL A   1      41.090  20.718  26.983  1.00  0.00     0.124 S 
ATOM     57  O   UNL A   1      40.746  20.104  28.262  1.00  0.00    -0.237 OA
ATOM     58  O   UNL A   1      39.988  20.854  26.034  1.00  0.00    -0.237 OA
ATOM     59  O   UNL A   1      42.354  20.277  26.396  1.00  0.00    -0.744 OA
ENDBRANCH  55  56
ENDBRANCH  27  50
BRANCH  39  60
ATOM     60  C   UNL A   1      47.907  28.841  27.897  1.00  0.00    -0.014 A 
ATOM     61  C   UNL A   1      48.258  28.912  26.540  1.00  0.00     0.010 A 
ATOM     62  C   UNL A   1      48.879  28.495  28.851  1.00  0.00     0.010 A 
ATOM     63  C   UNL A   1      49.563  28.622  26.136  1.00  0.00     0.020 A 
ATOM     64  C   UNL A   1      50.188  28.216  28.453  1.00  0.00     0.020 A 
ATOM     65  C   UNL A   1      50.518  28.269  27.095  1.00  0.00     0.054 A 
BRANCH  65  66
ATOM     66  S   UNL A   1      52.219  27.936  26.563  1.00  0.00     0.124 S 
ATOM     67  O   UNL A   1      52.043  26.776  25.694  1.00  0.00    -0.237 OA
ATOM     68  O   UNL A   1      52.601  29.174  25.888  1.00  0.00    -0.237 OA
ATOM     69  O   UNL A   1      52.924  27.676  27.817  1.00  0.00    -0.744 OA
ENDBRANCH  65  66
ENDBRANCH  39  60
ENDBRANCH  13  14
ENDBRANCH   6   8
ENDBRANCH   5   6
ENDBRANCH   4   5
ENDBRANCH   3   4
ENDBRANCH   2   3
ENDBRANCH   1   2
BRANCH   1  70
ATOM     70  C   UNL A   1      38.090  31.793  34.733  1.00  0.00     0.188 C 
BRANCH  70  71
ATOM     71  O   UNL A   1      39.416  32.133  34.232  1.00  0.00    -0.376 OA
BRANCH  71  72
ATOM     72  C   UNL A   1      40.496  31.153  33.973  1.00  0.00     0.202 C 
BRANCH  72  73
ATOM     73  C   UNL A   1      41.124  30.070  35.299  1.00  0.00     0.261 C 
BRANCH  73  74
ATOM     74  O   UNL A   1      42.409  28.508  34.990  1.00  0.00    -0.460 OA
BRANCH  74  75
ATOM     75  C   UNL A   1      43.045  27.220  35.211  1.00  0.00     0.339 C 
ATOM     76  O   UNL A   1      43.352  26.899  36.363  1.00  0.00    -0.246 OA
BRANCH  75  77
ATOM     77  C   UNL A   1      43.533  26.271  34.095  1.00  0.00     0.072 A 
ATOM     78  C   UNL A   1      44.001  26.831  32.882  1.00  0.00     0.016 A 
ATOM     79  C   UNL A   1      43.566  24.867  34.194  1.00  0.00     0.054 A 
ATOM     80  C   UNL A   1      44.576  26.049  31.863  1.00  0.00     0.001 A 
ATOM     81  C   UNL A   1      44.182  24.091  33.179  1.00  0.00     0.015 A 
ATOM     82  C   UNL A   1      44.700  24.678  32.029  1.00  0.00     0.001 A 
BRANCH  79  83
ATOM     83  C   UNL A   1      42.961  24.068  35.278  1.00  0.00     0.256 C 
ATOM     84  O   UNL A   1      41.744  23.899  35.289  1.00  0.00    -0.269 OA
ATOM     85  N   UNL A   1      43.709  23.512  36.286  1.00  0.00    -0.322 N 
ATOM     86  H   UNL A   1      43.210  23.116  37.036  1.00  0.00     0.170 HD
BRANCH  85  87
ATOM     87  C   UNL A   1      45.097  23.449  36.357  1.00  0.00     0.041 A 
ATOM     88  C   UNL A   1      45.739  22.063  35.439  1.00  0.00     0.028 A 
ATOM     89  C   UNL A   1      46.105  24.924  36.605  1.00  0.00     0.028 A 
ATOM     90  C   UNL A   1      47.330  22.114  34.667  1.00  0.00     0.029 A 
ATOM     91  C   UNL A   1      47.715  25.011  35.731  1.00  0.00     0.029 A 
ATOM     92  C   UNL A   1      48.376  23.532  34.833  1.00  0.00     0.052 A 
BRANCH  92  93
ATOM     93  N   UNL A   1      49.796  23.174  34.750  1.00  0.00    -0.250 N 
ATOM     94  C   UNL A   1      50.806  23.900  34.064  1.00  0.00     0.237 C 
ATOM     95  C   UNL A   1      50.491  22.392  35.666  1.00  0.00     0.237 C 
ATOM     96  O   UNL A   1      50.951  25.091  33.861  1.00  0.00    -0.274 OA
ATOM     97  C   UNL A   1      51.786  22.806  33.753  1.00  0.00     0.095 C 
ATOM     98  C   UNL A   1      51.936  22.315  35.176  1.00  0.00     0.095 C 
ATOM     99  O   UNL A   1      50.110  21.935  36.731  1.00  0.00    -0.274 OA
ATOM    100  C   UNL A   1      53.098  22.387  33.079  1.00  0.00     0.002 C 
ATOM    101  C   UNL A   1      52.914  21.151  34.968  1.00  0.00     0.002 C 
ATOM    102  C   UNL A   1      52.822  20.947  32.530  1.00  0.00     0.005 C 
ATOM    103  C   UNL A   1      54.019  21.959  34.236  1.00  0.00     0.009 C 
ATOM    104  C   UNL A   1      52.532  20.156  33.839  1.00  0.00     0.005 C 
ENDBRANCH  92  93
ENDBRANCH  85  87
ENDBRANCH  79  83
ENDBRANCH  75  77
ENDBRANCH  74  75
ENDBRANCH  73  74
ENDBRANCH  72  73
ENDBRANCH  71  72
ENDBRANCH  70  71
ENDBRANCH   1  70
TORSDOF 23
ENDMDL
MODEL 3
REMARK VINA RESULT:      -8.6      3.016      5.455
REMARK SMILES O=C(OCCOCCOCCOC(=O)c1ccccc1C(=O)Nc1ccc(N2C(=O)[C@H]3[C@@H]4CC[C@@H](C4)[C@@H]3C2=O)cc1)c1ccc(-c2c3nc(c(-c4ccc(S(=O)(=O)[O-])cc4)c4ccc([nH]4)c(-c4ccc(S(=O)(=O)[O-])cc4)c4nc(c(-c5ccc(S(=O)(=O)[O-])cc5)c5ccc2[nH]5)C=C4)C=C3)cc1
REMARK SMILES IDX 7 1 6 2 5 3 4 4 3 5 2 6 1 7 42 8 43 9 101 10 44 11 100 12
REMARK SMILES IDX 45 13 46 14 47 15 94 16 48 17 99 18 93 19 95 20 49 21 98 22
REMARK SMILES IDX 92 23 91 24 50 26 80 27 61 28 79 29 62 30 65 31 78 32 96 33
REMARK SMILES IDX 63 34 64 35 77 37 97 38 66 39 51 40 52 41 60 42 53 43 59 44
REMARK SMILES IDX 54 45 55 46 56 47 57 48 58 49 81 50 82 51 90 52 83 53 89 54
REMARK SMILES IDX 84 55 85 56 86 57 87 58 88 59 67 60 68 61 76 62 69 63 75 64
REMARK SMILES IDX 70 65 71 66 72 67 73 68 74 69 8 70 9 71 10 72 11 73 12 74
REMARK SMILES IDX 13 75 14 76 15 77 16 78 20 79 17 80 19 81 18 82 21 83 22 84
REMARK SMILES IDX 23 85 24 87 25 88 41 89 26 90 40 91 27 92 28 93 29 94 38 95
REMARK SMILES IDX 30 96 31 97 37 98 39 99 32 100 35 101 33 102 36 103 34 104
REMARK H PARENT 95 25 65 36 23 86
REMARK Flexibility Score: inf
ROOT
ATOM      1  C   UNL A   1      37.937  30.519  29.593  1.00  0.00     0.188 C 
ENDROOT
BRANCH   1   2
ATOM      2  O   UNL A   1      36.551  30.561  29.175  1.00  0.00    -0.376 OA
BRANCH   2   3
ATOM      3  C   UNL A   1      36.241  31.469  28.095  1.00  0.00     0.202 C 
BRANCH   3   4
ATOM      4  C   UNL A   1      35.044  32.406  28.248  1.00  0.00     0.261 C 
BRANCH   4   5
ATOM      5  O   UNL A   1      34.534  32.364  29.579  1.00  0.00    -0.460 OA
BRANCH   5   6
ATOM      6  C   UNL A   1      34.587  33.400  30.449  1.00  0.00     0.338 C 
ATOM      7  O   UNL A   1      33.762  34.305  30.377  1.00  0.00    -0.246 OA
BRANCH   6   8
ATOM      8  C   UNL A   1      35.575  33.407  31.559  1.00  0.00     0.060 A 
ATOM      9  C   UNL A   1      36.119  34.579  32.086  1.00  0.00     0.016 A 
ATOM     10  C   UNL A   1      35.939  32.184  32.125  1.00  0.00     0.016 A 
ATOM     11  C   UNL A   1      37.098  34.539  33.075  1.00  0.00     0.010 A 
ATOM     12  C   UNL A   1      36.860  32.145  33.178  1.00  0.00     0.010 A 
ATOM     13  C   UNL A   1      37.473  33.322  33.642  1.00  0.00    -0.014 A 
BRANCH  13  14
ATOM     14  C   UNL A   1      38.592  33.261  34.617  1.00  0.00     0.031 A 
ATOM     15  C   UNL A   1      39.994  33.260  34.084  1.00  0.00     0.074 A 
ATOM     16  C   UNL A   1      38.388  33.266  35.949  1.00  0.00     0.049 A 
ATOM     17  N   UNL A   1      41.103  32.908  34.674  1.00  0.00    -0.248 NA
ATOM     18  C   UNL A   1      40.160  33.691  32.685  1.00  0.00     0.031 C 
ATOM     19  C   UNL A   1      37.094  33.413  36.613  1.00  0.00     0.029 A 
ATOM     20  N   UNL A   1      39.278  33.171  36.989  1.00  0.00    -0.354 N 
ATOM     21  C   UNL A   1      42.081  32.974  33.690  1.00  0.00     0.074 A 
ATOM     22  C   UNL A   1      41.444  33.438  32.478  1.00  0.00     0.031 C 
ATOM     23  C   UNL A   1      37.278  33.461  37.942  1.00  0.00     0.029 A 
ATOM     24  C   UNL A   1      38.689  33.239  38.230  1.00  0.00     0.049 A 
ATOM     25  H   UNL A   1      40.249  33.065  36.858  1.00  0.00     0.167 HD
ATOM     26  C   UNL A   1      43.389  32.640  33.791  1.00  0.00     0.031 A 
ATOM     27  C   UNL A   1      39.224  33.091  39.458  1.00  0.00     0.031 A 
ATOM     28  C   UNL A   1      44.006  32.239  35.023  1.00  0.00     0.049 A 
ATOM     29  C   UNL A   1      40.682  32.734  39.560  1.00  0.00     0.074 A 
ATOM     30  C   UNL A   1      45.290  31.776  35.248  1.00  0.00     0.029 A 
ATOM     31  N   UNL A   1      43.378  32.302  36.259  1.00  0.00    -0.354 N 
ATOM     32  N   UNL A   1      41.564  32.591  38.597  1.00  0.00    -0.248 NA
ATOM     33  C   UNL A   1      41.212  32.477  40.906  1.00  0.00     0.031 C 
ATOM     34  C   UNL A   1      45.435  31.557  36.625  1.00  0.00     0.029 A 
ATOM     35  C   UNL A   1      44.250  31.910  37.256  1.00  0.00     0.049 A 
ATOM     36  H   UNL A   1      42.447  32.586  36.404  1.00  0.00     0.167 HD
ATOM     37  C   UNL A   1      42.748  32.216  39.217  1.00  0.00     0.074 A 
ATOM     38  C   UNL A   1      42.480  32.184  40.643  1.00  0.00     0.031 C 
ATOM     39  C   UNL A   1      43.945  31.902  38.662  1.00  0.00     0.031 A 
BRANCH  26  40
ATOM     40  C   UNL A   1      44.172  32.605  32.510  1.00  0.00    -0.014 A 
ATOM     41  C   UNL A   1      44.237  31.449  31.713  1.00  0.00     0.010 A 
ATOM     42  C   UNL A   1      44.927  33.735  32.146  1.00  0.00     0.010 A 
ATOM     43  C   UNL A   1      45.092  31.405  30.607  1.00  0.00     0.020 A 
ATOM     44  C   UNL A   1      45.768  33.701  31.031  1.00  0.00     0.020 A 
ATOM     45  C   UNL A   1      45.867  32.525  30.286  1.00  0.00     0.054 A 
BRANCH  45  46
ATOM     46  S   UNL A   1      47.012  32.436  28.881  1.00  0.00     0.124 S 
ATOM     47  O   UNL A   1      47.454  31.045  28.943  1.00  0.00    -0.237 OA
ATOM     48  O   UNL A   1      46.159  32.772  27.743  1.00  0.00    -0.237 OA
ATOM     49  O   UNL A   1      48.031  33.431  29.204  1.00  0.00    -0.744 OA
ENDBRANCH  45  46
ENDBRANCH  26  40
BRANCH  27  50
ATOM     50  C   UNL A   1      38.369  33.207  40.673  1.00  0.00    -0.014 A 
ATOM     51  C   UNL A   1      38.256  34.432  41.355  1.00  0.00     0.010 A 
ATOM     52  C   UNL A   1      37.646  32.098  41.149  1.00  0.00     0.010 A 
ATOM     53  C   UNL A   1      37.439  34.546  42.487  1.00  0.00     0.020 A 
ATOM     54  C   UNL A   1      36.809  32.213  42.263  1.00  0.00     0.020 A 
ATOM     55  C   UNL A   1      36.719  33.434  42.934  1.00  0.00     0.054 A 
BRANCH  55  56
ATOM     56  S   UNL A   1      35.605  33.598  44.359  1.00  0.00     0.124 S 
ATOM     57  O   UNL A   1      36.326  32.862  45.393  1.00  0.00    -0.237 OA
ATOM     58  O   UNL A   1      35.526  35.043  44.554  1.00  0.00    -0.237 OA
ATOM     59  O   UNL A   1      34.370  32.973  43.891  1.00  0.00    -0.744 OA
ENDBRANCH  55  56
ENDBRANCH  27  50
BRANCH  39  60
ATOM     60  C   UNL A   1      45.047  31.520  39.604  1.00  0.00    -0.014 A 
ATOM     61  C   UNL A   1      45.857  32.503  40.195  1.00  0.00     0.010 A 
ATOM     62  C   UNL A   1      45.239  30.168  39.937  1.00  0.00     0.010 A 
ATOM     63  C   UNL A   1      46.862  32.139  41.093  1.00  0.00     0.020 A 
ATOM     64  C   UNL A   1      46.235  29.801  40.844  1.00  0.00     0.020 A 
ATOM     65  C   UNL A   1      47.048  30.789  41.408  1.00  0.00     0.054 A 
BRANCH  65  66
ATOM     66  S   UNL A   1      48.328  30.332  42.608  1.00  0.00     0.124 S 
ATOM     67  O   UNL A   1      49.399  29.851  41.740  1.00  0.00    -0.237 OA
ATOM     68  O   UNL A   1      48.596  31.593  43.297  1.00  0.00    -0.237 OA
ATOM     69  O   UNL A   1      47.679  29.310  43.427  1.00  0.00    -0.744 OA
ENDBRANCH  65  66
ENDBRANCH  39  60
ENDBRANCH  13  14
ENDBRANCH   6   8
ENDBRANCH   5   6
ENDBRANCH   4   5
ENDBRANCH   3   4
ENDBRANCH   2   3
ENDBRANCH   1   2
BRANCH   1  70
ATOM     70  C   UNL A   1      38.809  29.142  29.455  1.00  0.00     0.188 C 
BRANCH  70  71
ATOM     71  O   UNL A   1      38.993  28.556  28.133  1.00  0.00    -0.376 OA
BRANCH  71  72
ATOM     72  C   UNL A   1      39.749  29.189  27.027  1.00  0.00     0.202 C 
BRANCH  72  73
ATOM     73  C   UNL A   1      41.110  28.309  26.192  1.00  0.00     0.261 C 
BRANCH  73  74
ATOM     74  O   UNL A   1      41.878  26.521  26.827  1.00  0.00    -0.460 OA
BRANCH  74  75
ATOM     75  C   UNL A   1      42.885  25.538  27.190  1.00  0.00     0.339 C 
ATOM     76  O   UNL A   1      43.577  25.739  28.193  1.00  0.00    -0.246 OA
BRANCH  75  77
ATOM     77  C   UNL A   1      43.291  24.325  26.324  1.00  0.00     0.072 A 
ATOM     78  C   UNL A   1      43.781  24.557  25.017  1.00  0.00     0.016 A 
ATOM     79  C   UNL A   1      43.226  22.984  26.744  1.00  0.00     0.054 A 
ATOM     80  C   UNL A   1      44.286  23.522  24.207  1.00  0.00     0.001 A 
ATOM     81  C   UNL A   1      43.772  21.953  25.937  1.00  0.00     0.015 A 
ATOM     82  C   UNL A   1      44.315  22.221  24.684  1.00  0.00     0.001 A 
BRANCH  79  83
ATOM     83  C   UNL A   1      42.580  22.501  27.981  1.00  0.00     0.256 C 
ATOM     84  O   UNL A   1      43.272  22.291  28.975  1.00  0.00    -0.269 OA
ATOM     85  N   UNL A   1      41.231  22.265  28.061  1.00  0.00    -0.322 N 
ATOM     86  H   UNL A   1      40.910  21.816  28.876  1.00  0.00     0.170 HD
BRANCH  85  87
ATOM     87  C   UNL A   1      40.268  22.596  27.112  1.00  0.00     0.041 A 
ATOM     88  C   UNL A   1      39.571  21.143  26.350  1.00  0.00     0.028 A 
ATOM     89  C   UNL A   1      39.306  24.118  27.223  1.00  0.00     0.028 A 
ATOM     90  C   UNL A   1      37.903  21.109  25.764  1.00  0.00     0.029 A 
ATOM     91  C   UNL A   1      37.550  24.054  26.698  1.00  0.00     0.029 A 
ATOM     92  C   UNL A   1      36.876  22.547  25.859  1.00  0.00     0.052 A 
BRANCH  92  93
ATOM     93  N   UNL A   1      35.868  22.568  24.793  1.00  0.00    -0.250 N 
ATOM     94  C   UNL A   1      36.025  23.139  23.502  1.00  0.00     0.237 C 
ATOM     95  C   UNL A   1      34.817  21.670  24.652  1.00  0.00     0.237 C 
ATOM     96  O   UNL A   1      36.996  23.248  22.776  1.00  0.00    -0.274 OA
ATOM     97  C   UNL A   1      34.600  23.466  23.157  1.00  0.00     0.095 C 
ATOM     98  C   UNL A   1      34.054  22.075  23.392  1.00  0.00     0.095 C 
ATOM     99  O   UNL A   1      34.574  20.665  25.299  1.00  0.00    -0.274 OA
ATOM    100  C   UNL A   1      33.611  24.087  22.163  1.00  0.00     0.002 C 
ATOM    101  C   UNL A   1      32.567  22.304  23.092  1.00  0.00     0.002 C 
ATOM    102  C   UNL A   1      32.512  24.752  23.058  1.00  0.00     0.005 C 
ATOM    103  C   UNL A   1      32.750  22.908  21.674  1.00  0.00     0.009 C 
ATOM    104  C   UNL A   1      31.925  23.522  23.810  1.00  0.00     0.005 C 
ENDBRANCH  92  93
ENDBRANCH  85  87
ENDBRANCH  79  83
ENDBRANCH  75  77
ENDBRANCH  74  75
ENDBRANCH  73  74
ENDBRANCH  72  73
ENDBRANCH  71  72
ENDBRANCH  70  71
ENDBRANCH   1  70
TORSDOF 23
ENDMDL
