MODEL 1
REMARK VINA RESULT:      -9.5      0.000      0.000
REMARK SMILES Cc1nccn1CCC[NH+]1CCC2(CC1)[C@@H](C(=O)OCCOCCOCCOC(=O)c1ccc(-c3c4nc(c(-c5ccc(S(=O)(=O)[O-])cc5)c5ccc([nH]5)c(-c5ccc(S(=O)(=O)[O-])cc5)c5nc(c(-c6ccc(S(=O)(=O)[O-])cc6)c6ccc3[nH]6)C=C5)C=C4)cc1)CC(=O)N2C
REMARK SMILES IDX 23 1 22 2 21 3 20 4 19 5 17 6 18 7 16 8 10 9 11 10 15 11
REMARK SMILES IDX 12 13 14 14 13 15 94 16 91 17 92 18 95 19 93 20 9 21 8 22
REMARK SMILES IDX 7 23 6 24 1 25 2 26 3 27 4 28 5 29 24 30 25 31 26 32 27 33
REMARK SMILES IDX 28 34 29 35 30 36 31 37 32 38 90 39 33 40 89 41 34 42 35 43
REMARK SMILES IDX 36 44 83 45 37 46 88 47 82 48 84 49 38 50 87 51 81 52 80 53
REMARK SMILES IDX 39 55 69 56 50 57 68 58 51 59 54 60 67 61 85 62 52 63 53 64
REMARK SMILES IDX 66 66 86 67 55 68 40 69 41 70 49 71 42 72 48 73 43 74 44 75
REMARK SMILES IDX 45 76 46 77 47 78 70 79 71 80 79 81 72 82 78 83 73 84 74 85
REMARK SMILES IDX 75 86 76 87 77 88 56 89 57 90 65 91 58 92 64 93 59 94 60 95
REMARK SMILES IDX 61 96 62 97 63 98
REMARK H PARENT 10 12 84 54 54 65
REMARK Flexibility Score: inf
ROOT
ATOM      1  C   UNL A   1      35.456  31.686  27.676  1.00  0.00     0.188 C 
ENDROOT
BRANCH   1   2
ATOM      2  O   UNL A   1      34.252  31.095  27.215  1.00  0.00    -0.376 OA
BRANCH   2   3
ATOM      3  C   UNL A   1      34.145  29.678  27.214  1.00  0.00     0.202 C 
BRANCH   3   4
ATOM      4  C   UNL A   1      33.236  29.006  26.167  1.00  0.00     0.261 C 
BRANCH   4   5
ATOM      5  O   UNL A   1      31.839  28.824  26.525  1.00  0.00    -0.463 OA
BRANCH   5   6
ATOM      6  C   UNL A   1      31.290  27.600  26.357  1.00  0.00     0.311 C 
ATOM      7  O   UNL A   1      31.201  26.792  27.280  1.00  0.00    -0.252 OA
BRANCH   6   8
ATOM      8  C   UNL A   1      30.772  27.227  24.953  1.00  0.00     0.134 C 
ATOM      9  N   UNL A   1      31.814  23.213  23.930  1.00  0.00    -0.335 N 
ATOM     10  C   UNL A   1      30.615  23.694  23.281  1.00  0.00     0.264 C 
ATOM     11  C   UNL A   1      32.951  24.075  23.728  1.00  0.00     0.264 C 
ATOM     12  H   UNL A   1      32.056  22.377  23.398  1.00  0.00     0.348 HD
ATOM     13  C   UNL A   1      30.191  25.075  23.750  1.00  0.00     0.091 C 
ATOM     14  C   UNL A   1      32.701  25.504  24.201  1.00  0.00     0.091 C 
ATOM     15  C   UNL A   1      31.318  26.145  23.909  1.00  0.00     0.067 C 
ATOM     16  N   UNL A   1      31.390  26.942  22.657  1.00  0.00    -0.339 N 
ATOM     17  C   UNL A   1      30.628  28.547  24.181  1.00  0.00     0.118 C 
ATOM     18  C   UNL A   1      30.941  28.242  22.759  1.00  0.00     0.223 C 
ATOM     19  C   UNL A   1      31.835  26.453  21.365  1.00  0.00     0.147 C 
ATOM     20  O   UNL A   1      30.834  29.044  21.845  1.00  0.00    -0.275 OA
BRANCH   9  21
ATOM     21  C   UNL A   1      31.716  22.401  25.129  1.00  0.00     0.264 C 
BRANCH  21  22
ATOM     22  C   UNL A   1      32.244  20.957  25.206  1.00  0.00     0.083 C 
BRANCH  22  23
ATOM     23  C   UNL A   1      33.505  20.620  26.002  1.00  0.00     0.129 C 
BRANCH  23  24
ATOM     24  N   UNL A   1      34.840  20.946  25.551  1.00  0.00    -0.335 N 
ATOM     25  C   UNL A   1      35.000  23.263  26.645  1.00  0.00     0.087 C 
ATOM     26  C   UNL A   1      35.548  22.082  25.923  1.00  0.00     0.105 A 
ATOM     27  N   UNL A   1      36.816  21.969  25.584  1.00  0.00    -0.242 NA
ATOM     28  C   UNL A   1      36.939  20.756  24.978  1.00  0.00     0.131 A 
ATOM     29  C   UNL A   1      35.724  20.122  24.914  1.00  0.00     0.107 A 
ENDBRANCH  23  24
ENDBRANCH  22  23
ENDBRANCH  21  22
ENDBRANCH   9  21
ENDBRANCH   6   8
ENDBRANCH   5   6
ENDBRANCH   4   5
ENDBRANCH   3   4
ENDBRANCH   2   3
ENDBRANCH   1   2
BRANCH   1  30
ATOM     30  C   UNL A   1      35.536  33.217  27.792  1.00  0.00     0.188 C 
BRANCH  30  31
ATOM     31  O   UNL A   1      34.291  33.875  27.977  1.00  0.00    -0.376 OA
BRANCH  31  32
ATOM     32  C   UNL A   1      33.821  34.157  29.290  1.00  0.00     0.202 C 
BRANCH  32  33
ATOM     33  C   UNL A   1      34.726  33.635  30.402  1.00  0.00     0.261 C 
BRANCH  33  34
ATOM     34  O   UNL A   1      34.898  34.589  31.430  1.00  0.00    -0.460 OA
BRANCH  34  35
ATOM     35  C   UNL A   1      34.395  34.263  32.638  1.00  0.00     0.338 C 
ATOM     36  O   UNL A   1      33.222  34.111  32.936  1.00  0.00    -0.246 OA
BRANCH  35  37
ATOM     37  C   UNL A   1      35.543  34.038  33.526  1.00  0.00     0.060 A 
ATOM     38  C   UNL A   1      36.568  34.975  33.456  1.00  0.00     0.016 A 
ATOM     39  C   UNL A   1      35.721  32.751  34.052  1.00  0.00     0.016 A 
ATOM     40  C   UNL A   1      37.843  34.477  33.457  1.00  0.00     0.010 A 
ATOM     41  C   UNL A   1      36.979  32.244  34.004  1.00  0.00     0.010 A 
ATOM     42  C   UNL A   1      37.982  33.092  33.553  1.00  0.00    -0.014 A 
BRANCH  42  43
ATOM     43  C   UNL A   1      39.162  32.493  32.996  1.00  0.00     0.031 A 
ATOM     44  C   UNL A   1      40.185  32.208  34.005  1.00  0.00     0.074 A 
ATOM     45  C   UNL A   1      39.199  32.102  31.710  1.00  0.00     0.049 A 
ATOM     46  N   UNL A   1      41.215  32.926  34.295  1.00  0.00    -0.248 NA
ATOM     47  C   UNL A   1      39.874  31.150  34.979  1.00  0.00     0.031 C 
ATOM     48  C   UNL A   1      38.098  31.989  30.745  1.00  0.00     0.029 A 
ATOM     49  N   UNL A   1      40.253  31.602  31.031  1.00  0.00    -0.354 N 
ATOM     50  C   UNL A   1      41.801  32.264  35.361  1.00  0.00     0.074 A 
ATOM     51  C   UNL A   1      40.780  31.417  35.918  1.00  0.00     0.031 C 
ATOM     52  C   UNL A   1      38.510  31.232  29.699  1.00  0.00     0.029 A 
ATOM     53  C   UNL A   1      39.923  30.929  29.866  1.00  0.00     0.049 A 
ATOM     54  H   UNL A   1      41.182  31.705  31.338  1.00  0.00     0.167 HD
ATOM     55  C   UNL A   1      43.151  32.181  35.499  1.00  0.00     0.031 A 
ATOM     56  C   UNL A   1      40.752  30.100  29.183  1.00  0.00     0.031 A 
ATOM     57  C   UNL A   1      43.832  33.092  34.613  1.00  0.00     0.049 A 
ATOM     58  C   UNL A   1      42.139  30.386  29.653  1.00  0.00     0.074 A 
ATOM     59  C   UNL A   1      43.842  34.464  34.458  1.00  0.00     0.029 A 
ATOM     60  N   UNL A   1      44.315  32.568  33.433  1.00  0.00    -0.354 N 
ATOM     61  N   UNL A   1      42.749  31.524  29.460  1.00  0.00    -0.248 NA
ATOM     62  C   UNL A   1      42.665  29.586  30.750  1.00  0.00     0.031 C 
ATOM     63  C   UNL A   1      43.919  34.681  33.051  1.00  0.00     0.029 A 
ATOM     64  C   UNL A   1      44.007  33.439  32.418  1.00  0.00     0.049 A 
ATOM     65  H   UNL A   1      44.798  31.714  33.337  1.00  0.00     0.167 HD
ATOM     66  C   UNL A   1      43.451  31.769  30.636  1.00  0.00     0.074 A 
ATOM     67  C   UNL A   1      43.436  30.498  31.354  1.00  0.00     0.031 C 
ATOM     68  C   UNL A   1      43.730  33.044  31.046  1.00  0.00     0.031 A 
BRANCH  55  69
ATOM     69  C   UNL A   1      43.829  30.995  36.132  1.00  0.00    -0.014 A 
ATOM     70  C   UNL A   1      43.681  29.731  35.539  1.00  0.00     0.010 A 
ATOM     71  C   UNL A   1      44.425  31.033  37.414  1.00  0.00     0.010 A 
ATOM     72  C   UNL A   1      44.074  28.567  36.214  1.00  0.00     0.020 A 
ATOM     73  C   UNL A   1      44.869  29.890  38.070  1.00  0.00     0.020 A 
ATOM     74  C   UNL A   1      44.658  28.657  37.479  1.00  0.00     0.054 A 
BRANCH  74  75
ATOM     75  S   UNL A   1      45.072  27.151  38.386  1.00  0.00     0.124 S 
ATOM     76  O   UNL A   1      46.480  26.976  38.042  1.00  0.00    -0.237 OA
ATOM     77  O   UNL A   1      44.796  27.535  39.767  1.00  0.00    -0.237 OA
ATOM     78  O   UNL A   1      44.162  26.154  37.827  1.00  0.00    -0.744 OA
ENDBRANCH  74  75
ENDBRANCH  55  69
BRANCH  56  79
ATOM     79  C   UNL A   1      40.377  28.836  28.498  1.00  0.00    -0.014 A 
ATOM     80  C   UNL A   1      40.810  28.562  27.189  1.00  0.00     0.010 A 
ATOM     81  C   UNL A   1      39.813  27.773  29.236  1.00  0.00     0.010 A 
ATOM     82  C   UNL A   1      40.728  27.262  26.657  1.00  0.00     0.020 A 
ATOM     83  C   UNL A   1      39.722  26.479  28.712  1.00  0.00     0.020 A 
ATOM     84  C   UNL A   1      40.200  26.224  27.430  1.00  0.00     0.054 A 
BRANCH  84  85
ATOM     85  S   UNL A   1      40.247  24.520  26.799  1.00  0.00     0.124 S 
ATOM     86  O   UNL A   1      38.983  24.422  26.076  1.00  0.00    -0.237 OA
ATOM     87  O   UNL A   1      41.450  24.521  25.972  1.00  0.00    -0.237 OA
ATOM     88  O   UNL A   1      40.333  23.707  28.011  1.00  0.00    -0.744 OA
ENDBRANCH  84  85
ENDBRANCH  56  79
BRANCH  68  89
ATOM     89  C   UNL A   1      43.515  34.175  30.059  1.00  0.00    -0.014 A 
ATOM     90  C   UNL A   1      42.244  34.652  29.679  1.00  0.00     0.010 A 
ATOM     91  C   UNL A   1      44.649  34.887  29.631  1.00  0.00     0.010 A 
ATOM     92  C   UNL A   1      42.117  35.799  28.878  1.00  0.00     0.020 A 
ATOM     93  C   UNL A   1      44.529  36.038  28.847  1.00  0.00     0.020 A 
ATOM     94  C   UNL A   1      43.264  36.486  28.468  1.00  0.00     0.054 A 
BRANCH  94  95
ATOM     95  S   UNL A   1      43.094  38.001  27.480  1.00  0.00     0.124 S 
ATOM     96  O   UNL A   1      42.050  37.643  26.525  1.00  0.00    -0.237 OA
ATOM     97  O   UNL A   1      42.718  39.000  28.478  1.00  0.00    -0.237 OA
ATOM     98  O   UNL A   1      44.424  38.189  26.901  1.00  0.00    -0.744 OA
ENDBRANCH  94  95
ENDBRANCH  68  89
ENDBRANCH  42  43
ENDBRANCH  35  37
ENDBRANCH  34  35
ENDBRANCH  33  34
ENDBRANCH  32  33
ENDBRANCH  31  32
ENDBRANCH  30  31
ENDBRANCH   1  30
TORSDOF 24
ENDMDL
MODEL 2
REMARK VINA RESULT:      -9.4      3.427      8.725
REMARK SMILES Cc1nccn1CCC[NH+]1CCC2(CC1)[C@@H](C(=O)OCCOCCOCCOC(=O)c1ccc(-c3c4nc(c(-c5ccc(S(=O)(=O)[O-])cc5)c5ccc([nH]5)c(-c5ccc(S(=O)(=O)[O-])cc5)c5nc(c(-c6ccc(S(=O)(=O)[O-])cc6)c6ccc3[nH]6)C=C5)C=C4)cc1)CC(=O)N2C
REMARK SMILES IDX 23 1 22 2 21 3 20 4 19 5 17 6 18 7 16 8 10 9 11 10 15 11
REMARK SMILES IDX 12 13 14 14 13 15 94 16 91 17 92 18 95 19 93 20 9 21 8 22
REMARK SMILES IDX 7 23 6 24 1 25 2 26 3 27 4 28 5 29 24 30 25 31 26 32 27 33
REMARK SMILES IDX 28 34 29 35 30 36 31 37 32 38 90 39 33 40 89 41 34 42 35 43
REMARK SMILES IDX 36 44 83 45 37 46 88 47 82 48 84 49 38 50 87 51 81 52 80 53
REMARK SMILES IDX 39 55 69 56 50 57 68 58 51 59 54 60 67 61 85 62 52 63 53 64
REMARK SMILES IDX 66 66 86 67 55 68 40 69 41 70 49 71 42 72 48 73 43 74 44 75
REMARK SMILES IDX 45 76 46 77 47 78 70 79 71 80 79 81 72 82 78 83 73 84 74 85
REMARK SMILES IDX 75 86 76 87 77 88 56 89 57 90 65 91 58 92 64 93 59 94 60 95
REMARK SMILES IDX 61 96 62 97 63 98
REMARK H PARENT 10 12 84 54 54 65
REMARK Flexibility Score: inf
ROOT
ATOM      1  C   UNL A   1      37.035  31.197  29.137  1.00  0.00     0.188 C 
ENDROOT
BRANCH   1   2
ATOM      2  O   UNL A   1      37.357  30.481  27.955  1.00  0.00    -0.376 OA
BRANCH   2   3
ATOM      3  C   UNL A   1      36.555  29.365  27.595  1.00  0.00     0.202 C 
BRANCH   3   4
ATOM      4  C   UNL A   1      35.041  29.422  27.874  1.00  0.00     0.261 C 
BRANCH   4   5
ATOM      5  O   UNL A   1      34.153  29.118  26.763  1.00  0.00    -0.463 OA
BRANCH   5   6
ATOM      6  C   UNL A   1      33.114  29.951  26.530  1.00  0.00     0.311 C 
ATOM      7  O   UNL A   1      33.094  31.105  26.952  1.00  0.00    -0.252 OA
BRANCH   6   8
ATOM      8  C   UNL A   1      31.925  29.408  25.710  1.00  0.00     0.134 C 
ATOM      9  N   UNL A   1      33.104  26.109  23.266  1.00  0.00    -0.335 N 
ATOM     10  C   UNL A   1      31.710  26.090  23.649  1.00  0.00     0.264 C 
ATOM     11  C   UNL A   1      33.500  27.344  22.637  1.00  0.00     0.264 C 
ATOM     12  H   UNL A   1      33.153  25.432  22.504  1.00  0.00     0.348 HD
ATOM     13  C   UNL A   1      31.337  27.200  24.618  1.00  0.00     0.091 C 
ATOM     14  C   UNL A   1      33.236  28.565  23.514  1.00  0.00     0.091 C 
ATOM     15  C   UNL A   1      31.910  28.622  24.318  1.00  0.00     0.067 C 
ATOM     16  N   UNL A   1      30.892  29.385  23.549  1.00  0.00    -0.339 N 
ATOM     17  C   UNL A   1      30.931  30.570  25.569  1.00  0.00     0.118 C 
ATOM     18  C   UNL A   1      30.280  30.411  24.240  1.00  0.00     0.223 C 
ATOM     19  C   UNL A   1      30.471  29.108  22.189  1.00  0.00     0.147 C 
ATOM     20  O   UNL A   1      29.365  31.110  23.836  1.00  0.00    -0.275 OA
BRANCH   9  21
ATOM     21  C   UNL A   1      34.073  25.321  24.006  1.00  0.00     0.264 C 
BRANCH  21  22
ATOM     22  C   UNL A   1      34.365  23.844  23.690  1.00  0.00     0.083 C 
BRANCH  22  23
ATOM     23  C   UNL A   1      33.657  22.721  24.448  1.00  0.00     0.129 C 
BRANCH  23  24
ATOM     24  N   UNL A   1      33.460  22.730  25.881  1.00  0.00    -0.335 N 
ATOM     25  C   UNL A   1      30.962  23.325  25.867  1.00  0.00     0.087 C 
ATOM     26  C   UNL A   1      32.234  22.899  26.513  1.00  0.00     0.105 A 
ATOM     27  N   UNL A   1      32.325  22.588  27.790  1.00  0.00    -0.242 NA
ATOM     28  C   UNL A   1      33.619  22.221  27.999  1.00  0.00     0.131 A 
ATOM     29  C   UNL A   1      34.347  22.337  26.842  1.00  0.00     0.107 A 
ENDBRANCH  23  24
ENDBRANCH  22  23
ENDBRANCH  21  22
ENDBRANCH   9  21
ENDBRANCH   6   8
ENDBRANCH   5   6
ENDBRANCH   4   5
ENDBRANCH   3   4
ENDBRANCH   2   3
ENDBRANCH   1   2
BRANCH   1  30
ATOM     30  C   UNL A   1      36.928  32.729  29.073  1.00  0.00     0.188 C 
BRANCH  30  31
ATOM     31  O   UNL A   1      36.258  33.241  27.930  1.00  0.00    -0.376 OA
BRANCH  31  32
ATOM     32  C   UNL A   1      34.868  33.536  27.989  1.00  0.00     0.202 C 
BRANCH  32  33
ATOM     33  C   UNL A   1      34.450  34.324  29.228  1.00  0.00     0.261 C 
BRANCH  33  34
ATOM     34  O   UNL A   1      34.023  33.473  30.273  1.00  0.00    -0.460 OA
BRANCH  34  35
ATOM     35  C   UNL A   1      33.684  34.074  31.431  1.00  0.00     0.338 C 
ATOM     36  O   UNL A   1      32.923  35.016  31.583  1.00  0.00    -0.246 OA
BRANCH  35  37
ATOM     37  C   UNL A   1      34.345  33.322  32.506  1.00  0.00     0.060 A 
ATOM     38  C   UNL A   1      34.480  33.980  33.723  1.00  0.00     0.016 A 
ATOM     39  C   UNL A   1      35.127  32.216  32.145  1.00  0.00     0.016 A 
ATOM     40  C   UNL A   1      35.688  33.844  34.353  1.00  0.00     0.010 A 
ATOM     41  C   UNL A   1      36.344  32.115  32.736  1.00  0.00     0.010 A 
ATOM     42  C   UNL A   1      36.643  33.045  33.724  1.00  0.00    -0.014 A 
BRANCH  42  43
ATOM     43  C   UNL A   1      38.028  33.316  33.988  1.00  0.00     0.031 A 
ATOM     44  C   UNL A   1      38.780  33.662  32.780  1.00  0.00     0.074 A 
ATOM     45  C   UNL A   1      38.489  33.395  35.248  1.00  0.00     0.049 A 
ATOM     46  N   UNL A   1      39.520  32.879  32.071  1.00  0.00    -0.248 NA
ATOM     47  C   UNL A   1      38.452  34.948  32.144  1.00  0.00     0.031 C 
ATOM     48  C   UNL A   1      37.736  33.454  36.508  1.00  0.00     0.029 A 
ATOM     49  N   UNL A   1      39.768  33.563  35.650  1.00  0.00    -0.354 N 
ATOM     50  C   UNL A   1      39.925  33.668  31.008  1.00  0.00     0.074 A 
ATOM     51  C   UNL A   1      38.996  34.765  30.943  1.00  0.00     0.031 C 
ATOM     52  C   UNL A   1      38.564  33.884  37.492  1.00  0.00     0.029 A 
ATOM     53  C   UNL A   1      39.912  33.997  36.957  1.00  0.00     0.049 A 
ATOM     54  H   UNL A   1      40.537  33.392  35.060  1.00  0.00     0.167 HD
ATOM     55  C   UNL A   1      41.176  33.573  30.481  1.00  0.00     0.031 A 
ATOM     56  C   UNL A   1      41.049  34.514  37.486  1.00  0.00     0.031 A 
ATOM     57  C   UNL A   1      41.860  32.393  30.947  1.00  0.00     0.049 A 
ATOM     58  C   UNL A   1      42.166  34.134  36.574  1.00  0.00     0.074 A 
ATOM     59  C   UNL A   1      41.620  31.037  30.853  1.00  0.00     0.029 A 
ATOM     60  N   UNL A   1      42.740  32.558  31.994  1.00  0.00    -0.354 N 
ATOM     61  N   UNL A   1      42.551  32.902  36.373  1.00  0.00    -0.248 NA
ATOM     62  C   UNL A   1      42.537  35.071  35.523  1.00  0.00     0.031 C 
ATOM     63  C   UNL A   1      42.022  30.498  32.110  1.00  0.00     0.029 A 
ATOM     64  C   UNL A   1      42.538  31.537  32.890  1.00  0.00     0.049 A 
ATOM     65  H   UNL A   1      43.400  33.283  32.084  1.00  0.00     0.167 HD
ATOM     66  C   UNL A   1      42.845  32.825  35.015  1.00  0.00     0.074 A 
ATOM     67  C   UNL A   1      42.907  34.213  34.565  1.00  0.00     0.031 C 
ATOM     68  C   UNL A   1      42.727  31.649  34.327  1.00  0.00     0.031 A 
BRANCH  55  69
ATOM     69  C   UNL A   1      41.894  34.755  29.884  1.00  0.00    -0.014 A 
ATOM     70  C   UNL A   1      41.698  35.055  28.526  1.00  0.00     0.010 A 
ATOM     71  C   UNL A   1      42.928  35.452  30.550  1.00  0.00     0.010 A 
ATOM     72  C   UNL A   1      42.522  35.976  27.865  1.00  0.00     0.020 A 
ATOM     73  C   UNL A   1      43.717  36.409  29.918  1.00  0.00     0.020 A 
ATOM     74  C   UNL A   1      43.531  36.639  28.567  1.00  0.00     0.054 A 
BRANCH  74  75
ATOM     75  S   UNL A   1      44.653  37.750  27.689  1.00  0.00     0.124 S 
ATOM     76  O   UNL A   1      43.718  38.579  26.934  1.00  0.00    -0.237 OA
ATOM     77  O   UNL A   1      45.351  38.414  28.786  1.00  0.00    -0.237 OA
ATOM     78  O   UNL A   1      45.475  36.845  26.890  1.00  0.00    -0.744 OA
ENDBRANCH  74  75
ENDBRANCH  55  69
BRANCH  56  79
ATOM     79  C   UNL A   1      41.147  35.633  38.459  1.00  0.00    -0.014 A 
ATOM     80  C   UNL A   1      42.392  36.179  38.816  1.00  0.00     0.010 A 
ATOM     81  C   UNL A   1      39.988  36.346  38.835  1.00  0.00     0.010 A 
ATOM     82  C   UNL A   1      42.476  37.418  39.479  1.00  0.00     0.020 A 
ATOM     83  C   UNL A   1      40.063  37.574  39.501  1.00  0.00     0.020 A 
ATOM     84  C   UNL A   1      41.309  38.116  39.802  1.00  0.00     0.054 A 
BRANCH  84  85
ATOM     85  S   UNL A   1      41.427  39.786  40.510  1.00  0.00     0.124 S 
ATOM     86  O   UNL A   1      41.687  39.508  41.919  1.00  0.00    -0.237 OA
ATOM     87  O   UNL A   1      42.540  40.368  39.764  1.00  0.00    -0.237 OA
ATOM     88  O   UNL A   1      40.120  40.374  40.225  1.00  0.00    -0.744 OA
ENDBRANCH  84  85
ENDBRANCH  56  79
BRANCH  68  89
ATOM     89  C   UNL A   1      42.550  30.370  35.122  1.00  0.00    -0.014 A 
ATOM     90  C   UNL A   1      41.295  29.802  35.420  1.00  0.00     0.010 A 
ATOM     91  C   UNL A   1      43.706  29.635  35.436  1.00  0.00     0.010 A 
ATOM     92  C   UNL A   1      41.205  28.539  36.030  1.00  0.00     0.020 A 
ATOM     93  C   UNL A   1      43.623  28.371  36.029  1.00  0.00     0.020 A 
ATOM     94  C   UNL A   1      42.373  27.831  36.329  1.00  0.00     0.054 A 
BRANCH  94  95
ATOM     95  S   UNL A   1      42.252  26.175  37.066  1.00  0.00     0.124 S 
ATOM     96  O   UNL A   1      42.766  25.316  36.002  1.00  0.00    -0.237 OA
ATOM     97  O   UNL A   1      43.101  26.283  38.251  1.00  0.00    -0.237 OA
ATOM     98  O   UNL A   1      40.826  26.023  37.348  1.00  0.00    -0.744 OA
ENDBRANCH  94  95
ENDBRANCH  68  89
ENDBRANCH  42  43
ENDBRANCH  35  37
ENDBRANCH  34  35
ENDBRANCH  33  34
ENDBRANCH  32  33
ENDBRANCH  31  32
ENDBRANCH  30  31
ENDBRANCH   1  30
TORSDOF 24
ENDMDL
MODEL 3
REMARK VINA RESULT:      -9.4      3.882      8.563
REMARK SMILES Cc1nccn1CCC[NH+]1CCC2(CC1)[C@@H](C(=O)OCCOCCOCCOC(=O)c1ccc(-c3c4nc(c(-c5ccc(S(=O)(=O)[O-])cc5)c5ccc([nH]5)c(-c5ccc(S(=O)(=O)[O-])cc5)c5nc(c(-c6ccc(S(=O)(=O)[O-])cc6)c6ccc3[nH]6)C=C5)C=C4)cc1)CC(=O)N2C
REMARK SMILES IDX 23 1 22 2 21 3 20 4 19 5 17 6 18 7 16 8 10 9 11 10 15 11
REMARK SMILES IDX 12 13 14 14 13 15 94 16 91 17 92 18 95 19 93 20 9 21 8 22
REMARK SMILES IDX 7 23 6 24 1 25 2 26 3 27 4 28 5 29 24 30 25 31 26 32 27 33
REMARK SMILES IDX 28 34 29 35 30 36 31 37 32 38 90 39 33 40 89 41 34 42 35 43
REMARK SMILES IDX 36 44 83 45 37 46 88 47 82 48 84 49 38 50 87 51 81 52 80 53
REMARK SMILES IDX 39 55 69 56 50 57 68 58 51 59 54 60 67 61 85 62 52 63 53 64
REMARK SMILES IDX 66 66 86 67 55 68 40 69 41 70 49 71 42 72 48 73 43 74 44 75
REMARK SMILES IDX 45 76 46 77 47 78 70 79 71 80 79 81 72 82 78 83 73 84 74 85
REMARK SMILES IDX 75 86 76 87 77 88 56 89 57 90 65 91 58 92 64 93 59 94 60 95
REMARK SMILES IDX 61 96 62 97 63 98
REMARK H PARENT 10 12 84 54 54 65
REMARK Flexibility Score: inf
ROOT
ATOM      1  C   UNL A   1      35.914  29.898  27.529  1.00  0.00     0.188 C 
ENDROOT
BRANCH   1   2
ATOM      2  O   UNL A   1      34.859  30.846  27.547  1.00  0.00    -0.376 OA
BRANCH   2   3
ATOM      3  C   UNL A   1      33.522  30.379  27.435  1.00  0.00     0.202 C 
BRANCH   3   4
ATOM      4  C   UNL A   1      33.088  29.683  26.131  1.00  0.00     0.261 C 
BRANCH   4   5
ATOM      5  O   UNL A   1      32.936  28.238  26.173  1.00  0.00    -0.463 OA
BRANCH   5   6
ATOM      6  C   UNL A   1      31.686  27.729  26.266  1.00  0.00     0.311 C 
ATOM      7  O   UNL A   1      31.113  27.601  27.346  1.00  0.00    -0.252 OA
BRANCH   6   8
ATOM      8  C   UNL A   1      30.983  27.300  24.963  1.00  0.00     0.134 C 
ATOM      9  N   UNL A   1      31.977  23.280  23.915  1.00  0.00    -0.335 N 
ATOM     10  C   UNL A   1      30.685  23.711  23.432  1.00  0.00     0.264 C 
ATOM     11  C   UNL A   1      33.049  24.162  23.526  1.00  0.00     0.264 C 
ATOM     12  H   UNL A   1      32.163  22.433  23.378  1.00  0.00     0.348 HD
ATOM     13  C   UNL A   1      30.294  25.097  23.918  1.00  0.00     0.091 C 
ATOM     14  C   UNL A   1      32.830  25.599  23.990  1.00  0.00     0.091 C 
ATOM     15  C   UNL A   1      31.402  26.198  23.883  1.00  0.00     0.067 C 
ATOM     16  N   UNL A   1      31.272  26.955  22.611  1.00  0.00    -0.339 N 
ATOM     17  C   UNL A   1      30.692  28.590  24.183  1.00  0.00     0.118 C 
ATOM     18  C   UNL A   1      30.807  28.247  22.739  1.00  0.00     0.223 C 
ATOM     19  C   UNL A   1      31.540  26.435  21.282  1.00  0.00     0.147 C 
ATOM     20  O   UNL A   1      30.547  29.017  21.828  1.00  0.00    -0.275 OA
BRANCH   9  21
ATOM     21  C   UNL A   1      32.075  22.505  25.139  1.00  0.00     0.264 C 
BRANCH  21  22
ATOM     22  C   UNL A   1      32.775  21.136  25.207  1.00  0.00     0.083 C 
BRANCH  22  23
ATOM     23  C   UNL A   1      34.264  20.996  24.892  1.00  0.00     0.129 C 
BRANCH  23  24
ATOM     24  N   UNL A   1      35.209  22.084  25.018  1.00  0.00    -0.335 N 
ATOM     25  C   UNL A   1      34.613  22.761  27.422  1.00  0.00     0.087 C 
ATOM     26  C   UNL A   1      35.437  22.806  26.184  1.00  0.00     0.105 A 
ATOM     27  N   UNL A   1      36.530  23.533  26.071  1.00  0.00    -0.242 NA
ATOM     28  C   UNL A   1      37.018  23.293  24.823  1.00  0.00     0.131 A 
ATOM     29  C   UNL A   1      36.198  22.429  24.142  1.00  0.00     0.107 A 
ENDBRANCH  23  24
ENDBRANCH  22  23
ENDBRANCH  21  22
ENDBRANCH   9  21
ENDBRANCH   6   8
ENDBRANCH   5   6
ENDBRANCH   4   5
ENDBRANCH   3   4
ENDBRANCH   2   3
ENDBRANCH   1   2
BRANCH   1  30
ATOM     30  C   UNL A   1      36.984  29.956  28.631  1.00  0.00     0.188 C 
BRANCH  30  31
ATOM     31  O   UNL A   1      37.833  31.094  28.591  1.00  0.00    -0.376 OA
BRANCH  31  32
ATOM     32  C   UNL A   1      38.613  31.445  29.727  1.00  0.00     0.202 C 
BRANCH  32  33
ATOM     33  C   UNL A   1      37.790  31.832  30.952  1.00  0.00     0.261 C 
BRANCH  33  34
ATOM     34  O   UNL A   1      38.080  31.006  32.062  1.00  0.00    -0.460 OA
BRANCH  34  35
ATOM     35  C   UNL A   1      39.120  31.383  32.832  1.00  0.00     0.338 C 
ATOM     36  O   UNL A   1      39.334  32.489  33.301  1.00  0.00    -0.246 OA
BRANCH  35  37
ATOM     37  C   UNL A   1      39.922  30.177  33.078  1.00  0.00     0.060 A 
ATOM     38  C   UNL A   1      41.171  30.377  33.657  1.00  0.00     0.016 A 
ATOM     39  C   UNL A   1      39.585  29.013  32.375  1.00  0.00     0.016 A 
ATOM     40  C   UNL A   1      42.204  29.649  33.132  1.00  0.00     0.010 A 
ATOM     41  C   UNL A   1      40.611  28.324  31.814  1.00  0.00     0.010 A 
ATOM     42  C   UNL A   1      41.896  28.771  32.092  1.00  0.00    -0.014 A 
BRANCH  42  43
ATOM     43  C   UNL A   1      42.934  28.445  31.155  1.00  0.00     0.031 A 
ATOM     44  C   UNL A   1      43.095  29.458  30.110  1.00  0.00     0.074 A 
ATOM     45  C   UNL A   1      43.749  27.397  31.364  1.00  0.00     0.049 A 
ATOM     46  N   UNL A   1      42.609  29.430  28.916  1.00  0.00    -0.248 NA
ATOM     47  C   UNL A   1      43.623  30.765  30.533  1.00  0.00     0.031 C 
ATOM     48  C   UNL A   1      43.911  26.575  32.570  1.00  0.00     0.029 A 
ATOM     49  N   UNL A   1      44.710  26.923  30.541  1.00  0.00    -0.354 N 
ATOM     50  C   UNL A   1      42.978  30.649  28.372  1.00  0.00     0.074 A 
ATOM     51  C   UNL A   1      43.282  31.510  29.484  1.00  0.00     0.031 C 
ATOM     52  C   UNL A   1      45.068  25.875  32.470  1.00  0.00     0.029 A 
ATOM     53  C   UNL A   1      45.643  26.103  31.153  1.00  0.00     0.049 A 
ATOM     54  H   UNL A   1      44.746  27.144  29.582  1.00  0.00     0.167 HD
ATOM     55  C   UNL A   1      43.349  30.769  27.069  1.00  0.00     0.031 A 
ATOM     56  C   UNL A   1      46.842  25.755  30.623  1.00  0.00     0.031 A 
ATOM     57  C   UNL A   1      43.018  29.589  26.311  1.00  0.00     0.049 A 
ATOM     58  C   UNL A   1      46.774  26.045  29.161  1.00  0.00     0.074 A 
ATOM     59  C   UNL A   1      41.840  28.934  26.008  1.00  0.00     0.029 A 
ATOM     60  N   UNL A   1      44.030  28.677  26.106  1.00  0.00    -0.354 N 
ATOM     61  N   UNL A   1      45.974  25.425  28.336  1.00  0.00    -0.248 NA
ATOM     62  C   UNL A   1      47.240  27.346  28.702  1.00  0.00     0.031 C 
ATOM     63  C   UNL A   1      42.162  27.546  26.055  1.00  0.00     0.029 A 
ATOM     64  C   UNL A   1      43.527  27.419  26.328  1.00  0.00     0.049 A 
ATOM     65  H   UNL A   1      44.955  28.892  25.845  1.00  0.00     0.167 HD
ATOM     66  C   UNL A   1      45.517  26.404  27.460  1.00  0.00     0.074 A 
ATOM     67  C   UNL A   1      46.403  27.545  27.677  1.00  0.00     0.031 C 
ATOM     68  C   UNL A   1      44.296  26.301  26.851  1.00  0.00     0.031 A 
BRANCH  55  69
ATOM     69  C   UNL A   1      44.366  31.780  26.607  1.00  0.00    -0.014 A 
ATOM     70  C   UNL A   1      45.721  31.569  26.910  1.00  0.00     0.010 A 
ATOM     71  C   UNL A   1      44.019  33.045  26.078  1.00  0.00     0.010 A 
ATOM     72  C   UNL A   1      46.667  32.586  26.728  1.00  0.00     0.020 A 
ATOM     73  C   UNL A   1      44.959  34.043  25.841  1.00  0.00     0.020 A 
ATOM     74  C   UNL A   1      46.275  33.819  26.202  1.00  0.00     0.054 A 
BRANCH  74  75
ATOM     75  S   UNL A   1      47.479  35.158  26.062  1.00  0.00     0.124 S 
ATOM     76  O   UNL A   1      46.624  36.290  25.715  1.00  0.00    -0.237 OA
ATOM     77  O   UNL A   1      48.066  35.189  27.398  1.00  0.00    -0.237 OA
ATOM     78  O   UNL A   1      48.376  34.702  25.002  1.00  0.00    -0.744 OA
ENDBRANCH  74  75
ENDBRANCH  55  69
BRANCH  56  79
ATOM     79  C   UNL A   1      48.126  25.602  31.355  1.00  0.00    -0.014 A 
ATOM     80  C   UNL A   1      48.154  25.464  32.754  1.00  0.00     0.010 A 
ATOM     81  C   UNL A   1      49.314  25.319  30.646  1.00  0.00     0.010 A 
ATOM     82  C   UNL A   1      49.312  25.012  33.414  1.00  0.00     0.020 A 
ATOM     83  C   UNL A   1      50.471  24.875  31.296  1.00  0.00     0.020 A 
ATOM     84  C   UNL A   1      50.459  24.703  32.677  1.00  0.00     0.054 A 
BRANCH  84  85
ATOM     85  S   UNL A   1      51.894  23.967  33.514  1.00  0.00     0.124 S 
ATOM     86  O   UNL A   1      52.286  22.910  32.587  1.00  0.00    -0.237 OA
ATOM     87  O   UNL A   1      52.816  25.095  33.614  1.00  0.00    -0.237 OA
ATOM     88  O   UNL A   1      51.348  23.503  34.788  1.00  0.00    -0.744 OA
ENDBRANCH  84  85
ENDBRANCH  56  79
BRANCH  68  89
ATOM     89  C   UNL A   1      43.573  24.971  26.921  1.00  0.00    -0.014 A 
ATOM     90  C   UNL A   1      42.718  24.599  27.978  1.00  0.00     0.010 A 
ATOM     91  C   UNL A   1      43.636  24.138  25.790  1.00  0.00     0.010 A 
ATOM     92  C   UNL A   1      41.962  23.417  27.908  1.00  0.00     0.020 A 
ATOM     93  C   UNL A   1      42.874  22.968  25.708  1.00  0.00     0.020 A 
ATOM     94  C   UNL A   1      42.045  22.609  26.771  1.00  0.00     0.054 A 
BRANCH  94  95
ATOM     95  S   UNL A   1      41.024  21.111  26.659  1.00  0.00     0.124 S 
ATOM     96  O   UNL A   1      39.785  21.614  26.071  1.00  0.00    -0.237 OA
ATOM     97  O   UNL A   1      41.820  20.237  25.799  1.00  0.00    -0.237 OA
ATOM     98  O   UNL A   1      40.911  20.662  28.047  1.00  0.00    -0.744 OA
ENDBRANCH  94  95
ENDBRANCH  68  89
ENDBRANCH  42  43
ENDBRANCH  35  37
ENDBRANCH  34  35
ENDBRANCH  33  34
ENDBRANCH  32  33
ENDBRANCH  31  32
ENDBRANCH  30  31
ENDBRANCH   1  30
TORSDOF 24
ENDMDL
