MODEL 1
REMARK VINA RESULT:     -10.0      0.000      0.000
REMARK SMILES Nc1ncc(C(=O)OCCOCCOCCOC(=O)c2ccc(-c3c4nc(c(-c5ccc(S(=O)(=O)[O-])cc5)c5ccc([nH]5)c(-c5ccc(S(=O)(=O)[O-])cc5)c5nc(c(-c6ccc(S(=O)(=O)[O-])cc6)c6ccc3[nH]6)C=C5)C=C4)cc2)c(-c2ccccc2)n1
REMARK SMILES IDX 13 1 12 2 11 3 10 4 9 5 8 6 6 7 7 8 5 9 2 10 3 11 87 12 4 13
REMARK SMILES IDX 80 14 1 15 81 18 82 19 86 20 83 21 85 22 84 23 14 24 15 25
REMARK SMILES IDX 16 26 17 27 18 28 19 29 20 30 21 31 79 32 22 33 78 34 23 35
REMARK SMILES IDX 24 36 25 37 72 38 26 39 77 40 71 41 73 42 27 43 76 44 70 45
REMARK SMILES IDX 69 46 28 48 58 49 39 50 57 51 40 52 43 53 56 54 74 55 41 56
REMARK SMILES IDX 42 57 55 59 75 60 44 61 29 62 30 63 38 64 31 65 37 66 32 67
REMARK SMILES IDX 33 68 34 69 35 70 36 71 59 72 60 73 68 74 61 75 67 76 62 77
REMARK SMILES IDX 63 78 64 79 65 80 66 81 45 82 46 83 54 84 47 85 53 86 48 87
REMARK SMILES IDX 49 88 50 89 51 90 52 91
REMARK H PARENT 1 16 1 17 73 47 43 58
REMARK Flexibility Score: inf
ROOT
ATOM      1  C   UNL A   1      31.647  26.288  25.783  1.00  0.00     0.188 C 
ENDROOT
BRANCH   1   2
ATOM      2  C   UNL A   1      32.215  24.994  26.398  1.00  0.00     0.188 C 
BRANCH   2   3
ATOM      3  O   UNL A   1      31.380  24.223  27.261  1.00  0.00    -0.376 OA
BRANCH   3   4
ATOM      4  C   UNL A   1      30.895  22.963  26.801  1.00  0.00     0.202 C 
BRANCH   4   5
ATOM      5  C   UNL A   1      31.096  22.643  25.319  1.00  0.00     0.261 C 
BRANCH   5   6
ATOM      6  O   UNL A   1      31.685  21.346  25.127  1.00  0.00    -0.460 OA
BRANCH   6   7
ATOM      7  C   UNL A   1      32.454  21.200  24.026  1.00  0.00     0.342 C 
ATOM      8  O   UNL A   1      32.083  21.258  22.865  1.00  0.00    -0.246 OA
BRANCH   7   9
ATOM      9  C   UNL A   1      33.870  21.095  24.389  1.00  0.00     0.104 A 
ATOM     10  C   UNL A   1      36.490  21.168  25.087  1.00  0.00     0.220 A 
ATOM     11  N   UNL A   1      35.882  22.329  24.851  1.00  0.00    -0.221 NA
ATOM     12  N   UNL A   1      35.890  19.975  25.022  1.00  0.00    -0.212 NA
ATOM     13  C   UNL A   1      34.582  22.271  24.497  1.00  0.00     0.133 A 
ATOM     14  C   UNL A   1      34.572  19.936  24.675  1.00  0.00     0.090 A 
BRANCH  10  15
ATOM     15  N   UNL A   1      37.813  21.204  25.404  1.00  0.00    -0.368 N 
ATOM     16  H   UNL A   1      38.386  21.918  25.041  1.00  0.00     0.159 HD
ATOM     17  H   UNL A   1      38.197  20.517  25.995  1.00  0.00     0.159 HD
ENDBRANCH  10  15
BRANCH  14  18
ATOM     18  C   UNL A   1      33.996  18.576  24.684  1.00  0.00     0.001 A 
ATOM     19  C   UNL A   1      33.014  18.178  25.608  1.00  0.00     0.010 A 
ATOM     20  C   UNL A   1      34.451  17.613  23.762  1.00  0.00     0.010 A 
ATOM     21  C   UNL A   1      32.556  16.858  25.651  1.00  0.00     0.001 A 
ATOM     22  C   UNL A   1      33.985  16.296  23.796  1.00  0.00     0.001 A 
ATOM     23  C   UNL A   1      33.048  15.916  24.750  1.00  0.00     0.000 A 
ENDBRANCH  14  18
ENDBRANCH   7   9
ENDBRANCH   6   7
ENDBRANCH   5   6
ENDBRANCH   4   5
ENDBRANCH   3   4
ENDBRANCH   2   3
ENDBRANCH   1   2
BRANCH   1  24
ATOM     24  O   UNL A   1      31.165  27.208  26.747  1.00  0.00    -0.376 OA
BRANCH  24  25
ATOM     25  C   UNL A   1      31.604  28.551  26.625  1.00  0.00     0.202 C 
BRANCH  25  26
ATOM     26  C   UNL A   1      33.103  28.776  26.378  1.00  0.00     0.261 C 
BRANCH  26  27
ATOM     27  O   UNL A   1      33.935  28.858  27.544  1.00  0.00    -0.460 OA
BRANCH  27  28
ATOM     28  C   UNL A   1      34.444  30.069  27.864  1.00  0.00     0.338 C 
ATOM     29  O   UNL A   1      33.829  31.112  27.979  1.00  0.00    -0.246 OA
BRANCH  28  30
ATOM     30  C   UNL A   1      35.865  29.871  28.229  1.00  0.00     0.060 A 
ATOM     31  C   UNL A   1      36.853  30.046  27.251  1.00  0.00     0.016 A 
ATOM     32  C   UNL A   1      36.222  29.536  29.539  1.00  0.00     0.016 A 
ATOM     33  C   UNL A   1      38.199  29.861  27.578  1.00  0.00     0.010 A 
ATOM     34  C   UNL A   1      37.567  29.333  29.859  1.00  0.00     0.010 A 
ATOM     35  C   UNL A   1      38.562  29.469  28.875  1.00  0.00    -0.014 A 
BRANCH  35  36
ATOM     36  C   UNL A   1      39.950  29.031  29.166  1.00  0.00     0.031 A 
ATOM     37  C   UNL A   1      40.896  30.018  29.793  1.00  0.00     0.074 A 
ATOM     38  C   UNL A   1      40.371  27.787  28.872  1.00  0.00     0.049 A 
ATOM     39  N   UNL A   1      42.161  29.878  30.096  1.00  0.00    -0.248 NA
ATOM     40  C   UNL A   1      40.340  31.341  30.120  1.00  0.00     0.031 C 
ATOM     41  C   UNL A   1      39.548  26.727  28.292  1.00  0.00     0.029 A 
ATOM     42  N   UNL A   1      41.609  27.210  29.017  1.00  0.00    -0.354 N 
ATOM     43  C   UNL A   1      42.552  31.093  30.647  1.00  0.00     0.074 A 
ATOM     44  C   UNL A   1      41.399  31.966  30.614  1.00  0.00     0.031 C 
ATOM     45  C   UNL A   1      40.309  25.630  28.120  1.00  0.00     0.029 A 
ATOM     46  C   UNL A   1      41.677  25.920  28.549  1.00  0.00     0.049 A 
ATOM     47  H   UNL A   1      42.377  27.678  29.418  1.00  0.00     0.167 HD
ATOM     48  C   UNL A   1      43.761  31.451  31.139  1.00  0.00     0.031 A 
ATOM     49  C   UNL A   1      42.725  25.076  28.460  1.00  0.00     0.031 A 
ATOM     50  C   UNL A   1      44.916  30.595  31.151  1.00  0.00     0.049 A 
ATOM     51  C   UNL A   1      44.081  25.522  28.947  1.00  0.00     0.074 A 
ATOM     52  C   UNL A   1      46.183  30.867  31.634  1.00  0.00     0.029 A 
ATOM     53  N   UNL A   1      44.948  29.306  30.645  1.00  0.00    -0.354 N 
ATOM     54  N   UNL A   1      44.427  26.664  29.493  1.00  0.00    -0.248 NA
ATOM     55  C   UNL A   1      45.186  24.561  28.812  1.00  0.00     0.031 C 
ATOM     56  C   UNL A   1      46.996  29.757  31.377  1.00  0.00     0.029 A 
ATOM     57  C   UNL A   1      46.219  28.775  30.783  1.00  0.00     0.049 A 
ATOM     58  H   UNL A   1      44.180  28.835  30.246  1.00  0.00     0.167 HD
ATOM     59  C   UNL A   1      45.782  26.546  29.793  1.00  0.00     0.074 A 
ATOM     60  C   UNL A   1      46.189  25.221  29.375  1.00  0.00     0.031 C 
ATOM     61  C   UNL A   1      46.610  27.452  30.368  1.00  0.00     0.031 A 
BRANCH  48  62
ATOM     62  C   UNL A   1      43.898  32.848  31.678  1.00  0.00    -0.014 A 
ATOM     63  C   UNL A   1      44.004  33.953  30.814  1.00  0.00     0.010 A 
ATOM     64  C   UNL A   1      43.897  33.063  33.069  1.00  0.00     0.010 A 
ATOM     65  C   UNL A   1      44.143  35.243  31.331  1.00  0.00     0.020 A 
ATOM     66  C   UNL A   1      44.013  34.354  33.589  1.00  0.00     0.020 A 
ATOM     67  C   UNL A   1      44.153  35.435  32.716  1.00  0.00     0.054 A 
BRANCH  67  68
ATOM     68  S   UNL A   1      44.320  37.122  33.361  1.00  0.00     0.124 S 
ATOM     69  O   UNL A   1      45.148  36.910  34.545  1.00  0.00    -0.237 OA
ATOM     70  O   UNL A   1      44.969  37.825  32.258  1.00  0.00    -0.237 OA
ATOM     71  O   UNL A   1      42.942  37.529  33.629  1.00  0.00    -0.744 OA
ENDBRANCH  67  68
ENDBRANCH  48  62
BRANCH  49  72
ATOM     72  C   UNL A   1      42.545  23.721  27.867  1.00  0.00    -0.014 A 
ATOM     73  C   UNL A   1      42.248  22.615  28.681  1.00  0.00     0.010 A 
ATOM     74  C   UNL A   1      42.683  23.531  26.480  1.00  0.00     0.010 A 
ATOM     75  C   UNL A   1      42.108  21.341  28.122  1.00  0.00     0.020 A 
ATOM     76  C   UNL A   1      42.520  22.264  25.913  1.00  0.00     0.020 A 
ATOM     77  C   UNL A   1      42.245  21.173  26.741  1.00  0.00     0.054 A 
BRANCH  77  78
ATOM     78  S   UNL A   1      42.014  19.520  26.030  1.00  0.00     0.124 S 
ATOM     79  O   UNL A   1      40.580  19.502  25.763  1.00  0.00    -0.237 OA
ATOM     80  O   UNL A   1      42.877  19.559  24.851  1.00  0.00    -0.237 OA
ATOM     81  O   UNL A   1      42.465  18.625  27.092  1.00  0.00    -0.744 OA
ENDBRANCH  77  78
ENDBRANCH  49  72
BRANCH  61  82
ATOM     82  C   UNL A   1      48.035  27.035  30.621  1.00  0.00    -0.014 A 
ATOM     83  C   UNL A   1      49.062  27.355  29.717  1.00  0.00     0.010 A 
ATOM     84  C   UNL A   1      48.358  26.374  31.820  1.00  0.00     0.010 A 
ATOM     85  C   UNL A   1      50.385  26.999  29.996  1.00  0.00     0.020 A 
ATOM     86  C   UNL A   1      49.682  26.037  32.115  1.00  0.00     0.020 A 
ATOM     87  C   UNL A   1      50.687  26.341  31.193  1.00  0.00     0.054 A 
BRANCH  87  88
ATOM     88  S   UNL A   1      52.416  25.934  31.559  1.00  0.00     0.124 S 
ATOM     89  O   UNL A   1      53.033  26.018  30.239  1.00  0.00    -0.237 OA
ATOM     90  O   UNL A   1      52.802  26.984  32.500  1.00  0.00    -0.237 OA
ATOM     91  O   UNL A   1      52.344  24.591  32.130  1.00  0.00    -0.744 OA
ENDBRANCH  87  88
ENDBRANCH  61  82
ENDBRANCH  35  36
ENDBRANCH  28  30
ENDBRANCH  27  28
ENDBRANCH  26  27
ENDBRANCH  25  26
ENDBRANCH  24  25
ENDBRANCH   1  24
TORSDOF 22
ENDMDL
MODEL 2
REMARK VINA RESULT:      -9.7      5.032     10.525
REMARK SMILES Nc1ncc(C(=O)OCCOCCOCCOC(=O)c2ccc(-c3c4nc(c(-c5ccc(S(=O)(=O)[O-])cc5)c5ccc([nH]5)c(-c5ccc(S(=O)(=O)[O-])cc5)c5nc(c(-c6ccc(S(=O)(=O)[O-])cc6)c6ccc3[nH]6)C=C5)C=C4)cc2)c(-c2ccccc2)n1
REMARK SMILES IDX 13 1 12 2 11 3 10 4 9 5 8 6 6 7 7 8 5 9 2 10 3 11 87 12 4 13
REMARK SMILES IDX 80 14 1 15 81 18 82 19 86 20 83 21 85 22 84 23 14 24 15 25
REMARK SMILES IDX 16 26 17 27 18 28 19 29 20 30 21 31 79 32 22 33 78 34 23 35
REMARK SMILES IDX 24 36 25 37 72 38 26 39 77 40 71 41 73 42 27 43 76 44 70 45
REMARK SMILES IDX 69 46 28 48 58 49 39 50 57 51 40 52 43 53 56 54 74 55 41 56
REMARK SMILES IDX 42 57 55 59 75 60 44 61 29 62 30 63 38 64 31 65 37 66 32 67
REMARK SMILES IDX 33 68 34 69 35 70 36 71 59 72 60 73 68 74 61 75 67 76 62 77
REMARK SMILES IDX 63 78 64 79 65 80 66 81 45 82 46 83 54 84 47 85 53 86 48 87
REMARK SMILES IDX 49 88 50 89 51 90 52 91
REMARK H PARENT 1 16 1 17 73 47 43 58
REMARK Flexibility Score: inf
ROOT
ATOM      1  C   UNL A   1      40.670  20.896  26.475  1.00  0.00     0.188 C 
ENDROOT
BRANCH   1   2
ATOM      2  C   UNL A   1      39.337  20.607  25.757  1.00  0.00     0.188 C 
BRANCH   2   3
ATOM      3  O   UNL A   1      38.334  21.622  25.741  1.00  0.00    -0.376 OA
BRANCH   3   4
ATOM      4  C   UNL A   1      37.019  21.281  25.307  1.00  0.00     0.202 C 
BRANCH   4   5
ATOM      5  C   UNL A   1      36.437  22.103  24.155  1.00  0.00     0.261 C 
BRANCH   5   6
ATOM      6  O   UNL A   1      35.294  22.869  24.571  1.00  0.00    -0.460 OA
BRANCH   6   7
ATOM      7  C   UNL A   1      34.201  22.781  23.782  1.00  0.00     0.342 C 
ATOM      8  O   UNL A   1      34.184  22.736  22.562  1.00  0.00    -0.246 OA
BRANCH   7   9
ATOM      9  C   UNL A   1      32.989  22.598  24.587  1.00  0.00     0.104 A 
ATOM     10  C   UNL A   1      30.721  22.526  26.071  1.00  0.00     0.220 A 
ATOM     11  N   UNL A   1      31.267  23.718  25.837  1.00  0.00    -0.221 NA
ATOM     12  N   UNL A   1      31.205  21.370  25.607  1.00  0.00    -0.212 NA
ATOM     13  C   UNL A   1      32.399  23.731  25.105  1.00  0.00     0.133 A 
ATOM     14  C   UNL A   1      32.343  21.403  24.857  1.00  0.00     0.090 A 
BRANCH  10  15
ATOM     15  N   UNL A   1      29.601  22.490  26.845  1.00  0.00    -0.368 N 
ATOM     16  H   UNL A   1      29.340  23.280  27.369  1.00  0.00     0.159 HD
ATOM     17  H   UNL A   1      29.054  21.673  26.880  1.00  0.00     0.159 HD
ENDBRANCH  10  15
BRANCH  14  18
ATOM     18  C   UNL A   1      32.760  20.080  24.352  1.00  0.00     0.001 A 
ATOM     19  C   UNL A   1      33.809  19.346  24.933  1.00  0.00     0.010 A 
ATOM     20  C   UNL A   1      32.119  19.521  23.229  1.00  0.00     0.010 A 
ATOM     21  C   UNL A   1      34.242  18.140  24.375  1.00  0.00     0.001 A 
ATOM     22  C   UNL A   1      32.542  18.310  22.677  1.00  0.00     0.001 A 
ATOM     23  C   UNL A   1      33.612  17.626  23.243  1.00  0.00     0.000 A 
ENDBRANCH  14  18
ENDBRANCH   7   9
ENDBRANCH   6   7
ENDBRANCH   5   6
ENDBRANCH   4   5
ENDBRANCH   3   4
ENDBRANCH   2   3
ENDBRANCH   1   2
BRANCH   1  24
ATOM     24  O   UNL A   1      41.289  22.099  26.054  1.00  0.00    -0.376 OA
BRANCH  24  25
ATOM     25  C   UNL A   1      42.232  22.678  26.941  1.00  0.00     0.202 C 
BRANCH  25  26
ATOM     26  C   UNL A   1      41.701  23.710  27.948  1.00  0.00     0.261 C 
BRANCH  26  27
ATOM     27  O   UNL A   1      40.453  24.336  27.619  1.00  0.00    -0.460 OA
BRANCH  27  28
ATOM     28  C   UNL A   1      40.501  25.562  27.049  1.00  0.00     0.338 C 
ATOM     29  O   UNL A   1      40.505  25.813  25.858  1.00  0.00    -0.246 OA
BRANCH  28  30
ATOM     30  C   UNL A   1      40.364  26.561  28.133  1.00  0.00     0.060 A 
ATOM     31  C   UNL A   1      41.225  27.666  28.155  1.00  0.00     0.016 A 
ATOM     32  C   UNL A   1      39.374  26.418  29.110  1.00  0.00     0.016 A 
ATOM     33  C   UNL A   1      41.111  28.618  29.172  1.00  0.00     0.010 A 
ATOM     34  C   UNL A   1      39.275  27.361  30.137  1.00  0.00     0.010 A 
ATOM     35  C   UNL A   1      40.159  28.453  30.188  1.00  0.00    -0.014 A 
BRANCH  35  36
ATOM     36  C   UNL A   1      40.194  29.314  31.397  1.00  0.00     0.031 A 
ATOM     37  C   UNL A   1      41.294  29.096  32.401  1.00  0.00     0.074 A 
ATOM     38  C   UNL A   1      39.267  30.266  31.610  1.00  0.00     0.049 A 
ATOM     39  N   UNL A   1      41.502  29.692  33.546  1.00  0.00    -0.248 NA
ATOM     40  C   UNL A   1      42.290  28.065  32.067  1.00  0.00     0.031 C 
ATOM     41  C   UNL A   1      38.170  30.600  30.703  1.00  0.00     0.029 A 
ATOM     42  N   UNL A   1      39.100  31.123  32.671  1.00  0.00    -0.354 N 
ATOM     43  C   UNL A   1      42.650  29.108  34.070  1.00  0.00     0.074 A 
ATOM     44  C   UNL A   1      43.078  28.095  33.131  1.00  0.00     0.031 C 
ATOM     45  C   UNL A   1      37.435  31.585  31.254  1.00  0.00     0.029 A 
ATOM     46  C   UNL A   1      37.992  31.929  32.562  1.00  0.00     0.049 A 
ATOM     47  H   UNL A   1      39.715  31.155  33.439  1.00  0.00     0.167 HD
ATOM     48  C   UNL A   1      43.293  29.390  35.228  1.00  0.00     0.031 A 
ATOM     49  C   UNL A   1      37.475  32.827  33.426  1.00  0.00     0.031 A 
ATOM     50  C   UNL A   1      42.856  30.379  36.175  1.00  0.00     0.049 A 
ATOM     51  C   UNL A   1      38.168  33.073  34.742  1.00  0.00     0.074 A 
ATOM     52  C   UNL A   1      43.445  30.741  37.374  1.00  0.00     0.029 A 
ATOM     53  N   UNL A   1      41.717  31.155  36.039  1.00  0.00    -0.354 N 
ATOM     54  N   UNL A   1      39.269  32.533  35.210  1.00  0.00    -0.248 NA
ATOM     55  C   UNL A   1      37.550  34.055  35.647  1.00  0.00     0.031 C 
ATOM     56  C   UNL A   1      42.634  31.703  37.986  1.00  0.00     0.029 A 
ATOM     57  C   UNL A   1      41.571  31.979  37.141  1.00  0.00     0.049 A 
ATOM     58  H   UNL A   1      41.101  31.125  35.270  1.00  0.00     0.167 HD
ATOM     59  C   UNL A   1      39.490  33.133  36.447  1.00  0.00     0.074 A 
ATOM     60  C   UNL A   1      38.414  34.080  36.652  1.00  0.00     0.031 C 
ATOM     61  C   UNL A   1      40.497  32.921  37.329  1.00  0.00     0.031 A 
BRANCH  48  62
ATOM     62  C   UNL A   1      44.525  28.589  35.543  1.00  0.00    -0.014 A 
ATOM     63  C   UNL A   1      45.807  29.066  35.212  1.00  0.00     0.010 A 
ATOM     64  C   UNL A   1      44.403  27.352  36.203  1.00  0.00     0.010 A 
ATOM     65  C   UNL A   1      46.941  28.303  35.501  1.00  0.00     0.020 A 
ATOM     66  C   UNL A   1      45.536  26.598  36.515  1.00  0.00     0.020 A 
ATOM     67  C   UNL A   1      46.798  27.070  36.146  1.00  0.00     0.054 A 
BRANCH  67  68
ATOM     68  S   UNL A   1      48.287  26.106  36.523  1.00  0.00     0.124 S 
ATOM     69  O   UNL A   1      49.195  27.138  37.016  1.00  0.00    -0.237 OA
ATOM     70  O   UNL A   1      47.811  25.158  37.526  1.00  0.00    -0.237 OA
ATOM     71  O   UNL A   1      48.654  25.517  35.237  1.00  0.00    -0.744 OA
ENDBRANCH  67  68
ENDBRANCH  48  62
BRANCH  49  72
ATOM     72  C   UNL A   1      36.221  33.554  33.086  1.00  0.00    -0.014 A 
ATOM     73  C   UNL A   1      36.266  34.785  32.410  1.00  0.00     0.010 A 
ATOM     74  C   UNL A   1      34.971  33.020  33.449  1.00  0.00     0.010 A 
ATOM     75  C   UNL A   1      35.086  35.477  32.118  1.00  0.00     0.020 A 
ATOM     76  C   UNL A   1      33.788  33.696  33.138  1.00  0.00     0.020 A 
ATOM     77  C   UNL A   1      33.854  34.928  32.485  1.00  0.00     0.054 A 
BRANCH  77  78
ATOM     78  S   UNL A   1      32.333  35.820  32.056  1.00  0.00     0.124 S 
ATOM     79  O   UNL A   1      32.598  37.149  32.594  1.00  0.00    -0.237 OA
ATOM     80  O   UNL A   1      32.307  35.720  30.598  1.00  0.00    -0.237 OA
ATOM     81  O   UNL A   1      31.289  35.062  32.743  1.00  0.00    -0.744 OA
ENDBRANCH  77  78
ENDBRANCH  49  72
BRANCH  61  82
ATOM     82  C   UNL A   1      40.514  33.754  38.584  1.00  0.00    -0.014 A 
ATOM     83  C   UNL A   1      41.159  35.002  38.625  1.00  0.00     0.010 A 
ATOM     84  C   UNL A   1      39.811  33.308  39.718  1.00  0.00     0.010 A 
ATOM     85  C   UNL A   1      41.122  35.779  39.786  1.00  0.00     0.020 A 
ATOM     86  C   UNL A   1      39.751  34.092  40.874  1.00  0.00     0.020 A 
ATOM     87  C   UNL A   1      40.418  35.318  40.905  1.00  0.00     0.054 A 
BRANCH  87  88
ATOM     88  S   UNL A   1      40.339  36.366  42.384  1.00  0.00     0.124 S 
ATOM     89  O   UNL A   1      41.405  35.807  43.209  1.00  0.00    -0.237 OA
ATOM     90  O   UNL A   1      40.595  37.701  41.847  1.00  0.00    -0.237 OA
ATOM     91  O   UNL A   1      38.984  36.153  42.887  1.00  0.00    -0.744 OA
ENDBRANCH  87  88
ENDBRANCH  61  82
ENDBRANCH  35  36
ENDBRANCH  28  30
ENDBRANCH  27  28
ENDBRANCH  26  27
ENDBRANCH  25  26
ENDBRANCH  24  25
ENDBRANCH   1  24
TORSDOF 22
ENDMDL
MODEL 3
REMARK VINA RESULT:      -9.7      4.790     10.661
REMARK SMILES Nc1ncc(C(=O)OCCOCCOCCOC(=O)c2ccc(-c3c4nc(c(-c5ccc(S(=O)(=O)[O-])cc5)c5ccc([nH]5)c(-c5ccc(S(=O)(=O)[O-])cc5)c5nc(c(-c6ccc(S(=O)(=O)[O-])cc6)c6ccc3[nH]6)C=C5)C=C4)cc2)c(-c2ccccc2)n1
REMARK SMILES IDX 13 1 12 2 11 3 10 4 9 5 8 6 6 7 7 8 5 9 2 10 3 11 87 12 4 13
REMARK SMILES IDX 80 14 1 15 81 18 82 19 86 20 83 21 85 22 84 23 14 24 15 25
REMARK SMILES IDX 16 26 17 27 18 28 19 29 20 30 21 31 79 32 22 33 78 34 23 35
REMARK SMILES IDX 24 36 25 37 72 38 26 39 77 40 71 41 73 42 27 43 76 44 70 45
REMARK SMILES IDX 69 46 28 48 58 49 39 50 57 51 40 52 43 53 56 54 74 55 41 56
REMARK SMILES IDX 42 57 55 59 75 60 44 61 29 62 30 63 38 64 31 65 37 66 32 67
REMARK SMILES IDX 33 68 34 69 35 70 36 71 59 72 60 73 68 74 61 75 67 76 62 77
REMARK SMILES IDX 63 78 64 79 65 80 66 81 45 82 46 83 54 84 47 85 53 86 48 87
REMARK SMILES IDX 49 88 50 89 51 90 52 91
REMARK H PARENT 1 16 1 17 73 47 43 58
REMARK Flexibility Score: inf
ROOT
ATOM      1  C   UNL A   1      37.663  21.581  24.920  1.00  0.00     0.188 C 
ENDROOT
BRANCH   1   2
ATOM      2  C   UNL A   1      36.575  20.511  25.143  1.00  0.00     0.188 C 
BRANCH   2   3
ATOM      3  O   UNL A   1      35.226  20.827  24.801  1.00  0.00    -0.376 OA
BRANCH   3   4
ATOM      4  C   UNL A   1      34.411  21.492  25.764  1.00  0.00     0.202 C 
BRANCH   4   5
ATOM      5  C   UNL A   1      34.336  23.018  25.671  1.00  0.00     0.261 C 
BRANCH   5   6
ATOM      6  O   UNL A   1      33.569  23.581  26.747  1.00  0.00    -0.460 OA
BRANCH   6   7
ATOM      7  C   UNL A   1      32.290  23.905  26.460  1.00  0.00     0.342 C 
ATOM      8  O   UNL A   1      31.338  23.864  27.223  1.00  0.00    -0.246 OA
BRANCH   7   9
ATOM      9  C   UNL A   1      32.184  24.467  25.110  1.00  0.00     0.104 A 
ATOM     10  C   UNL A   1      31.897  25.269  22.535  1.00  0.00     0.220 A 
ATOM     11  N   UNL A   1      31.741  23.973  22.798  1.00  0.00    -0.221 NA
ATOM     12  N   UNL A   1      32.164  26.199  23.457  1.00  0.00    -0.212 NA
ATOM     13  C   UNL A   1      31.897  23.594  24.083  1.00  0.00     0.133 A 
ATOM     14  C   UNL A   1      32.306  25.800  24.752  1.00  0.00     0.090 A 
BRANCH  10  15
ATOM     15  N   UNL A   1      31.786  25.664  21.237  1.00  0.00    -0.368 N 
ATOM     16  H   UNL A   1      31.944  25.018  20.511  1.00  0.00     0.159 HD
ATOM     17  H   UNL A   1      31.548  26.595  21.024  1.00  0.00     0.159 HD
ENDBRANCH  10  15
BRANCH  14  18
ATOM     18  C   UNL A   1      32.547  26.912  25.693  1.00  0.00     0.001 A 
ATOM     19  C   UNL A   1      31.526  27.470  26.481  1.00  0.00     0.010 A 
ATOM     20  C   UNL A   1      33.835  27.473  25.804  1.00  0.00     0.010 A 
ATOM     21  C   UNL A   1      31.767  28.583  27.293  1.00  0.00     0.001 A 
ATOM     22  C   UNL A   1      34.080  28.577  26.624  1.00  0.00     0.001 A 
ATOM     23  C   UNL A   1      33.042  29.139  27.358  1.00  0.00     0.000 A 
ENDBRANCH  14  18
ENDBRANCH   7   9
ENDBRANCH   6   7
ENDBRANCH   5   6
ENDBRANCH   4   5
ENDBRANCH   3   4
ENDBRANCH   2   3
ENDBRANCH   1   2
BRANCH   1  24
ATOM     24  O   UNL A   1      38.276  22.022  26.119  1.00  0.00    -0.376 OA
BRANCH  24  25
ATOM     25  C   UNL A   1      39.673  21.808  26.238  1.00  0.00     0.202 C 
BRANCH  25  26
ATOM     26  C   UNL A   1      40.540  23.030  26.575  1.00  0.00     0.261 C 
BRANCH  26  27
ATOM     27  O   UNL A   1      39.906  24.311  26.458  1.00  0.00    -0.460 OA
BRANCH  27  28
ATOM     28  C   UNL A   1      40.696  25.378  26.199  1.00  0.00     0.338 C 
ATOM     29  O   UNL A   1      41.201  25.668  25.131  1.00  0.00    -0.246 OA
BRANCH  28  30
ATOM     30  C   UNL A   1      40.695  26.236  27.405  1.00  0.00     0.060 A 
ATOM     31  C   UNL A   1      39.704  26.048  28.376  1.00  0.00     0.016 A 
ATOM     32  C   UNL A   1      41.683  27.209  27.585  1.00  0.00     0.016 A 
ATOM     33  C   UNL A   1      39.686  26.851  29.520  1.00  0.00     0.010 A 
ATOM     34  C   UNL A   1      41.653  28.024  28.720  1.00  0.00     0.010 A 
ATOM     35  C   UNL A   1      40.639  27.867  29.682  1.00  0.00    -0.014 A 
BRANCH  35  36
ATOM     36  C   UNL A   1      40.483  28.878  30.757  1.00  0.00     0.031 A 
ATOM     37  C   UNL A   1      41.350  28.763  31.982  1.00  0.00     0.074 A 
ATOM     38  C   UNL A   1      39.584  29.874  30.661  1.00  0.00     0.049 A 
ATOM     39  N   UNL A   1      41.362  29.498  33.063  1.00  0.00    -0.248 NA
ATOM     40  C   UNL A   1      42.336  27.669  31.984  1.00  0.00     0.031 C 
ATOM     41  C   UNL A   1      38.705  30.117  29.518  1.00  0.00     0.029 A 
ATOM     42  N   UNL A   1      39.258  30.868  31.552  1.00  0.00    -0.354 N 
ATOM     43  C   UNL A   1      42.351  28.957  33.875  1.00  0.00     0.074 A 
ATOM     44  C   UNL A   1      42.901  27.817  33.173  1.00  0.00     0.031 C 
ATOM     45  C   UNL A   1      37.930  31.186  29.783  1.00  0.00     0.029 A 
ATOM     46  C   UNL A   1      38.237  31.683  31.124  1.00  0.00     0.049 A 
ATOM     47  H   UNL A   1      39.712  30.984  32.418  1.00  0.00     0.167 HD
ATOM     48  C   UNL A   1      42.769  29.370  35.095  1.00  0.00     0.031 A 
ATOM     49  C   UNL A   1      37.610  32.701  31.749  1.00  0.00     0.031 A 
ATOM     50  C   UNL A   1      42.209  30.487  35.806  1.00  0.00     0.049 A 
ATOM     51  C   UNL A   1      38.043  33.098  33.137  1.00  0.00     0.074 A 
ATOM     52  C   UNL A   1      42.570  30.986  37.045  1.00  0.00     0.029 A 
ATOM     53  N   UNL A   1      41.161  31.269  35.348  1.00  0.00    -0.354 N 
ATOM     54  N   UNL A   1      39.001  32.594  33.880  1.00  0.00    -0.248 NA
ATOM     55  C   UNL A   1      37.313  34.207  33.771  1.00  0.00     0.031 C 
ATOM     56  C   UNL A   1      41.707  32.043  37.357  1.00  0.00     0.029 A 
ATOM     57  C   UNL A   1      40.846  32.235  36.288  1.00  0.00     0.049 A 
ATOM     58  H   UNL A   1      40.707  31.156  34.481  1.00  0.00     0.167 HD
ATOM     59  C   UNL A   1      39.007  33.345  35.053  1.00  0.00     0.074 A 
ATOM     60  C   UNL A   1      37.964  34.340  34.919  1.00  0.00     0.031 C 
ATOM     61  C   UNL A   1      39.808  33.223  36.139  1.00  0.00     0.031 A 
BRANCH  48  62
ATOM     62  C   UNL A   1      43.871  28.583  35.748  1.00  0.00    -0.014 A 
ATOM     63  C   UNL A   1      43.584  27.490  36.587  1.00  0.00     0.010 A 
ATOM     64  C   UNL A   1      45.213  28.925  35.502  1.00  0.00     0.010 A 
ATOM     65  C   UNL A   1      44.619  26.777  37.196  1.00  0.00     0.020 A 
ATOM     66  C   UNL A   1      46.251  28.199  36.091  1.00  0.00     0.020 A 
ATOM     67  C   UNL A   1      45.947  27.140  36.949  1.00  0.00     0.054 A 
BRANCH  67  68
ATOM     68  S   UNL A   1      47.272  26.189  37.742  1.00  0.00     0.124 S 
ATOM     69  O   UNL A   1      46.565  24.981  38.160  1.00  0.00    -0.237 OA
ATOM     70  O   UNL A   1      48.233  26.009  36.656  1.00  0.00    -0.237 OA
ATOM     71  O   UNL A   1      47.720  27.056  38.828  1.00  0.00    -0.744 OA
ENDBRANCH  67  68
ENDBRANCH  48  62
BRANCH  49  72
ATOM     72  C   UNL A   1      36.488  33.412  31.076  1.00  0.00    -0.014 A 
ATOM     73  C   UNL A   1      36.634  33.910  29.771  1.00  0.00     0.010 A 
ATOM     74  C   UNL A   1      35.267  33.603  31.748  1.00  0.00     0.010 A 
ATOM     75  C   UNL A   1      35.586  34.602  29.155  1.00  0.00     0.020 A 
ATOM     76  C   UNL A   1      34.208  34.272  31.127  1.00  0.00     0.020 A 
ATOM     77  C   UNL A   1      34.379  34.779  29.837  1.00  0.00     0.054 A 
BRANCH  77  78
ATOM     78  S   UNL A   1      33.016  35.638  29.003  1.00  0.00     0.124 S 
ATOM     79  O   UNL A   1      32.517  34.609  28.098  1.00  0.00    -0.237 OA
ATOM     80  O   UNL A   1      32.133  35.986  30.115  1.00  0.00    -0.237 OA
ATOM     81  O   UNL A   1      33.671  36.775  28.360  1.00  0.00    -0.744 OA
ENDBRANCH  77  78
ENDBRANCH  49  72
BRANCH  61  82
ATOM     82  C   UNL A   1      39.624  34.213  37.259  1.00  0.00    -0.014 A 
ATOM     83  C   UNL A   1      39.010  33.843  38.468  1.00  0.00     0.010 A 
ATOM     84  C   UNL A   1      40.139  35.515  37.121  1.00  0.00     0.010 A 
ATOM     85  C   UNL A   1      38.891  34.766  39.511  1.00  0.00     0.020 A 
ATOM     86  C   UNL A   1      40.044  36.434  38.170  1.00  0.00     0.020 A 
ATOM     87  C   UNL A   1      39.409  36.057  39.355  1.00  0.00     0.054 A 
BRANCH  87  88
ATOM     88  S   UNL A   1      39.291  37.223  40.741  1.00  0.00     0.124 S 
ATOM     89  O   UNL A   1      38.582  38.344  40.134  1.00  0.00    -0.237 OA
ATOM     90  O   UNL A   1      38.534  36.465  41.736  1.00  0.00    -0.237 OA
ATOM     91  O   UNL A   1      40.684  37.483  41.094  1.00  0.00    -0.744 OA
ENDBRANCH  87  88
ENDBRANCH  61  82
ENDBRANCH  35  36
ENDBRANCH  28  30
ENDBRANCH  27  28
ENDBRANCH  26  27
ENDBRANCH  25  26
ENDBRANCH  24  25
ENDBRANCH   1  24
TORSDOF 22
ENDMDL
