MODEL 1
REMARK VINA RESULT:      -9.3      0.000      0.000
REMARK SMILES Cc1ccc(-c2cc(OCC(=O)OCCOCCOCCOC(=O)c3ccc(-c4c5nc(c(-c6ccc(S(=O)(=O)[O-])cc6)c6ccc([nH]6)c(-c6ccc(S(=O)(=O)[O-])cc6)c6nc(c(-c7ccc(S(=O)(=O)[O-])cc7)c7ccc4[nH]7)C=C6)C=C5)cc3)nc(NCc3ccc4c(c3)OCO4)n2)cc1
REMARK SMILES IDX 17 1 16 2 15 3 14 4 13 5 11 6 12 7 10 8 9 9 8 10 6 11 7 12
REMARK SMILES IDX 98 13 86 14 85 15 5 16 1 17 2 18 3 19 100 20 4 21 99 22
REMARK SMILES IDX 87 23 88 25 89 26 90 27 94 28 91 29 93 30 92 31 95 32 97 33
REMARK SMILES IDX 96 34 18 35 19 36 20 37 21 38 22 39 23 40 24 41 25 42 26 43
REMARK SMILES IDX 84 44 27 45 83 46 28 47 29 48 30 49 77 50 31 51 82 52 76 53
REMARK SMILES IDX 78 54 32 55 81 56 75 57 74 58 33 60 63 61 44 62 62 63 45 64
REMARK SMILES IDX 48 65 61 66 79 67 46 68 47 69 60 71 80 72 49 73 34 74 35 75
REMARK SMILES IDX 43 76 36 77 42 78 37 79 38 80 39 81 40 82 41 83 64 84 65 85
REMARK SMILES IDX 73 86 66 87 72 88 67 89 68 90 69 91 70 92 71 93 50 94 51 95
REMARK SMILES IDX 59 96 52 97 58 98 53 99 54 100 55 101 56 102 57 103
REMARK H PARENT 87 24 78 59 48 70
REMARK Flexibility Score: inf
ROOT
ATOM      1  C   UNL A   1      40.392  32.808  35.508  1.00  0.00     0.188 C 
ENDROOT
BRANCH   1   2
ATOM      2  O   UNL A   1      40.749  34.186  35.390  1.00  0.00    -0.376 OA
BRANCH   2   3
ATOM      3  C   UNL A   1      40.121  34.913  34.360  1.00  0.00     0.202 C 
BRANCH   3   4
ATOM      4  C   UNL A   1      38.633  34.636  34.166  1.00  0.00     0.261 C 
BRANCH   4   5
ATOM      5  O   UNL A   1      38.098  33.912  32.939  1.00  0.00    -0.461 OA
BRANCH   5   6
ATOM      6  C   UNL A   1      37.107  34.052  31.950  1.00  0.00     0.344 C 
ATOM      7  O   UNL A   1      36.009  34.485  32.208  1.00  0.00    -0.248 OA
BRANCH   6   8
ATOM      8  C   UNL A   1      37.417  33.373  30.615  1.00  0.00     0.353 C 
BRANCH   8   9
ATOM      9  O   UNL A   1      37.788  32.098  30.963  1.00  0.00    -0.466 OA
BRANCH   9  10
ATOM     10  C   UNL A   1      36.392  31.129  30.685  1.00  0.00     0.219 A 
ATOM     11  C   UNL A   1      37.789  29.813  28.486  1.00  0.00     0.080 A 
ATOM     12  C   UNL A   1      37.701  30.149  30.051  1.00  0.00     0.097 A 
ATOM     13  N   UNL A   1      36.629  30.315  27.352  1.00  0.00    -0.213 NA
ATOM     14  C   UNL A   1      35.197  31.198  27.745  1.00  0.00     0.226 A 
ATOM     15  N   UNL A   1      34.952  31.713  29.467  1.00  0.00    -0.177 NA
BRANCH  11  16
ATOM     16  C   UNL A   1      38.775  28.661  28.275  1.00  0.00     0.000 A 
ATOM     17  C   UNL A   1      42.514  26.894  29.606  1.00  0.00     0.044 C 
ATOM     18  C   UNL A   1      41.186  27.214  28.958  1.00  0.00    -0.051 A 
ATOM     19  C   UNL A   1      41.100  28.013  27.801  1.00  0.00     0.004 A 
ATOM     20  C   UNL A   1      40.015  26.966  29.655  1.00  0.00     0.004 A 
ATOM     21  C   UNL A   1      39.918  28.749  27.478  1.00  0.00     0.010 A 
ATOM     22  C   UNL A   1      38.850  27.661  29.292  1.00  0.00     0.010 A 
ENDBRANCH  11  16
BRANCH  14  23
ATOM     23  N   UNL A   1      34.159  30.839  26.890  1.00  0.00    -0.350 N 
ATOM     24  H   UNL A   1      34.164  31.085  25.937  1.00  0.00     0.164 HD
BRANCH  23  25
ATOM     25  C   UNL A   1      33.046  30.068  27.492  1.00  0.00     0.152 C 
BRANCH  25  26
ATOM     26  C   UNL A   1      32.897  28.686  26.885  1.00  0.00    -0.025 A 
ATOM     27  C   UNL A   1      33.728  28.256  25.808  1.00  0.00     0.009 A 
ATOM     28  C   UNL A   1      31.804  27.908  27.269  1.00  0.00     0.056 A 
ATOM     29  C   UNL A   1      33.387  27.134  25.038  1.00  0.00     0.051 A 
ATOM     30  C   UNL A   1      31.458  26.869  26.455  1.00  0.00     0.166 A 
ATOM     31  C   UNL A   1      32.199  26.513  25.349  1.00  0.00     0.165 A 
ATOM     32  O   UNL A   1      30.258  26.229  26.510  1.00  0.00    -0.454 OA
ATOM     33  O   UNL A   1      31.511  25.625  24.572  1.00  0.00    -0.454 OA
ATOM     34  C   UNL A   1      30.192  25.830  25.132  1.00  0.00     0.468 C 
ENDBRANCH  25  26
ENDBRANCH  23  25
ENDBRANCH  14  23
ENDBRANCH   9  10
ENDBRANCH   8   9
ENDBRANCH   6   8
ENDBRANCH   5   6
ENDBRANCH   4   5
ENDBRANCH   3   4
ENDBRANCH   2   3
ENDBRANCH   1   2
BRANCH   1  35
ATOM     35  C   UNL A   1      41.090  31.973  36.561  1.00  0.00     0.188 C 
BRANCH  35  36
ATOM     36  O   UNL A   1      40.878  30.583  36.494  1.00  0.00    -0.376 OA
BRANCH  36  37
ATOM     37  C   UNL A   1      41.917  29.653  36.416  1.00  0.00     0.202 C 
BRANCH  37  38
ATOM     38  C   UNL A   1      41.713  28.628  35.311  1.00  0.00     0.261 C 
BRANCH  38  39
ATOM     39  O   UNL A   1      40.942  29.295  34.252  1.00  0.00    -0.460 OA
BRANCH  39  40
ATOM     40  C   UNL A   1      40.660  28.755  33.010  1.00  0.00     0.338 C 
ATOM     41  O   UNL A   1      39.825  27.872  32.958  1.00  0.00    -0.246 OA
BRANCH  40  42
ATOM     42  C   UNL A   1      41.553  29.539  31.815  1.00  0.00     0.060 A 
ATOM     43  C   UNL A   1      41.441  30.719  30.157  1.00  0.00     0.016 A 
ATOM     44  C   UNL A   1      43.199  29.230  32.412  1.00  0.00     0.016 A 
ATOM     45  C   UNL A   1      43.124  31.178  29.457  1.00  0.00     0.010 A 
ATOM     46  C   UNL A   1      44.549  29.627  31.569  1.00  0.00     0.010 A 
ATOM     47  C   UNL A   1      44.584  30.327  30.065  1.00  0.00    -0.014 A 
BRANCH  47  48
ATOM     48  C   UNL A   1      45.918  29.368  29.290  1.00  0.00     0.031 A 
ATOM     49  C   UNL A   1      46.917  30.367  28.883  1.00  0.00     0.074 A 
ATOM     50  C   UNL A   1      46.358  27.955  29.018  1.00  0.00     0.049 A 
ATOM     51  N   UNL A   1      47.637  30.285  27.815  1.00  0.00    -0.248 NA
ATOM     52  C   UNL A   1      47.033  31.672  29.558  1.00  0.00     0.031 C 
ATOM     53  C   UNL A   1      47.704  27.249  29.204  1.00  0.00     0.029 A 
ATOM     54  N   UNL A   1      45.653  26.689  28.915  1.00  0.00    -0.354 N 
ATOM     55  C   UNL A   1      48.633  31.195  28.062  1.00  0.00     0.074 A 
ATOM     56  C   UNL A   1      48.000  32.233  28.833  1.00  0.00     0.031 C 
ATOM     57  C   UNL A   1      47.650  25.874  29.064  1.00  0.00     0.029 A 
ATOM     58  C   UNL A   1      46.291  25.472  28.735  1.00  0.00     0.049 A 
ATOM     59  H   UNL A   1      44.671  26.695  28.977  1.00  0.00     0.167 HD
ATOM     60  C   UNL A   1      49.918  30.742  28.132  1.00  0.00     0.031 A 
ATOM     61  C   UNL A   1      45.741  24.466  27.985  1.00  0.00     0.031 A 
ATOM     62  C   UNL A   1      50.035  29.304  27.790  1.00  0.00     0.049 A 
ATOM     63  C   UNL A   1      46.434  24.753  26.713  1.00  0.00     0.074 A 
ATOM     64  C   UNL A   1      50.586  28.206  28.433  1.00  0.00     0.029 A 
ATOM     65  N   UNL A   1      49.290  28.767  26.734  1.00  0.00    -0.354 N 
ATOM     66  N   UNL A   1      47.049  25.883  26.561  1.00  0.00    -0.248 NA
ATOM     67  C   UNL A   1      46.538  23.867  25.578  1.00  0.00     0.031 C 
ATOM     68  C   UNL A   1      50.263  27.034  27.677  1.00  0.00     0.029 A 
ATOM     69  C   UNL A   1      49.433  27.396  26.622  1.00  0.00     0.049 A 
ATOM     70  H   UNL A   1      48.726  29.307  26.135  1.00  0.00     0.167 HD
ATOM     71  C   UNL A   1      47.922  25.752  25.574  1.00  0.00     0.074 A 
ATOM     72  C   UNL A   1      47.478  24.536  24.891  1.00  0.00     0.031 C 
ATOM     73  C   UNL A   1      48.890  26.689  25.450  1.00  0.00     0.031 A 
BRANCH  60  74
ATOM     74  C   UNL A   1      51.055  31.543  28.752  1.00  0.00    -0.014 A 
ATOM     75  C   UNL A   1      51.511  32.688  28.075  1.00  0.00     0.010 A 
ATOM     76  C   UNL A   1      51.667  31.291  30.001  1.00  0.00     0.010 A 
ATOM     77  C   UNL A   1      52.464  33.555  28.622  1.00  0.00     0.020 A 
ATOM     78  C   UNL A   1      52.626  32.148  30.564  1.00  0.00     0.020 A 
ATOM     79  C   UNL A   1      52.993  33.296  29.879  1.00  0.00     0.054 A 
BRANCH  79  80
ATOM     80  S   UNL A   1      54.082  34.524  30.633  1.00  0.00     0.124 S 
ATOM     81  O   UNL A   1      54.210  34.028  32.000  1.00  0.00    -0.237 OA
ATOM     82  O   UNL A   1      55.281  34.419  29.807  1.00  0.00    -0.237 OA
ATOM     83  O   UNL A   1      53.341  35.777  30.496  1.00  0.00    -0.744 OA
ENDBRANCH  79  80
ENDBRANCH  60  74
BRANCH  61  84
ATOM     84  C   UNL A   1      44.258  24.201  27.953  1.00  0.00    -0.014 A 
ATOM     85  C   UNL A   1      43.455  24.606  26.863  1.00  0.00     0.010 A 
ATOM     86  C   UNL A   1      43.708  23.296  28.885  1.00  0.00     0.010 A 
ATOM     87  C   UNL A   1      42.227  23.964  26.621  1.00  0.00     0.020 A 
ATOM     88  C   UNL A   1      42.496  22.646  28.642  1.00  0.00     0.020 A 
ATOM     89  C   UNL A   1      41.797  22.937  27.481  1.00  0.00     0.054 A 
BRANCH  89  90
ATOM     90  S   UNL A   1      40.725  21.654  26.800  1.00  0.00     0.124 S 
ATOM     91  O   UNL A   1      41.469  21.161  25.648  1.00  0.00    -0.237 OA
ATOM     92  O   UNL A   1      40.677  20.778  27.956  1.00  0.00    -0.237 OA
ATOM     93  O   UNL A   1      39.465  22.331  26.496  1.00  0.00    -0.744 OA
ENDBRANCH  89  90
ENDBRANCH  61  84
BRANCH  73  94
ATOM     94  C   UNL A   1      49.430  26.981  24.119  1.00  0.00    -0.014 A 
ATOM     95  C   UNL A   1      50.802  27.038  23.878  1.00  0.00     0.010 A 
ATOM     96  C   UNL A   1      48.545  27.073  23.034  1.00  0.00     0.010 A 
ATOM     97  C   UNL A   1      51.279  27.385  22.641  1.00  0.00     0.020 A 
ATOM     98  C   UNL A   1      49.019  27.295  21.760  1.00  0.00     0.020 A 
ATOM     99  C   UNL A   1      50.381  27.508  21.592  1.00  0.00     0.054 A 
BRANCH  99 100
ATOM    100  S   UNL A   1      51.070  27.928  20.004  1.00  0.00     0.124 S 
ATOM    101  O   UNL A   1      50.132  27.267  19.100  1.00  0.00    -0.237 OA
ATOM    102  O   UNL A   1      51.006  29.387  20.024  1.00  0.00    -0.237 OA
ATOM    103  O   UNL A   1      52.412  27.357  20.050  1.00  0.00    -0.744 OA
ENDBRANCH  99 100
ENDBRANCH  73  94
ENDBRANCH  47  48
ENDBRANCH  40  42
ENDBRANCH  39  40
ENDBRANCH  38  39
ENDBRANCH  37  38
ENDBRANCH  36  37
ENDBRANCH  35  36
ENDBRANCH   1  35
TORSDOF 26
ENDMDL
MODEL 2
REMARK VINA RESULT:      -9.3      5.085     11.971
REMARK SMILES Cc1ccc(-c2cc(OCC(=O)OCCOCCOCCOC(=O)c3ccc(-c4c5nc(c(-c6ccc(S(=O)(=O)[O-])cc6)c6ccc([nH]6)c(-c6ccc(S(=O)(=O)[O-])cc6)c6nc(c(-c7ccc(S(=O)(=O)[O-])cc7)c7ccc4[nH]7)C=C6)C=C5)cc3)nc(NCc3ccc4c(c3)OCO4)n2)cc1
REMARK SMILES IDX 17 1 16 2 15 3 14 4 13 5 11 6 12 7 10 8 9 9 8 10 6 11 7 12
REMARK SMILES IDX 98 13 86 14 85 15 5 16 1 17 2 18 3 19 100 20 4 21 99 22
REMARK SMILES IDX 87 23 88 25 89 26 90 27 94 28 91 29 93 30 92 31 95 32 97 33
REMARK SMILES IDX 96 34 18 35 19 36 20 37 21 38 22 39 23 40 24 41 25 42 26 43
REMARK SMILES IDX 84 44 27 45 83 46 28 47 29 48 30 49 77 50 31 51 82 52 76 53
REMARK SMILES IDX 78 54 32 55 81 56 75 57 74 58 33 60 63 61 44 62 62 63 45 64
REMARK SMILES IDX 48 65 61 66 79 67 46 68 47 69 60 71 80 72 49 73 34 74 35 75
REMARK SMILES IDX 43 76 36 77 42 78 37 79 38 80 39 81 40 82 41 83 64 84 65 85
REMARK SMILES IDX 73 86 66 87 72 88 67 89 68 90 69 91 70 92 71 93 50 94 51 95
REMARK SMILES IDX 59 96 52 97 58 98 53 99 54 100 55 101 56 102 57 103
REMARK H PARENT 87 24 78 59 48 70
REMARK Flexibility Score: inf
ROOT
ATOM      1  C   UNL A   1      34.741  21.993  25.087  1.00  0.00     0.188 C 
ENDROOT
BRANCH   1   2
ATOM      2  O   UNL A   1      33.334  22.021  25.333  1.00  0.00    -0.376 OA
BRANCH   2   3
ATOM      3  C   UNL A   1      32.531  22.600  24.333  1.00  0.00     0.202 C 
BRANCH   3   4
ATOM      4  C   UNL A   1      33.112  22.580  22.922  1.00  0.00     0.261 C 
BRANCH   4   5
ATOM      5  O   UNL A   1      33.651  23.835  22.250  1.00  0.00    -0.461 OA
BRANCH   5   6
ATOM      6  C   UNL A   1      33.389  25.215  22.173  1.00  0.00     0.344 C 
ATOM      7  O   UNL A   1      33.456  25.816  21.127  1.00  0.00    -0.248 OA
BRANCH   6   8
ATOM      8  C   UNL A   1      33.289  25.936  23.518  1.00  0.00     0.353 C 
BRANCH   8   9
ATOM      9  O   UNL A   1      32.087  26.598  23.458  1.00  0.00    -0.466 OA
BRANCH   9  10
ATOM     10  C   UNL A   1      31.664  26.915  25.097  1.00  0.00     0.219 A 
ATOM     11  C   UNL A   1      30.742  29.569  24.305  1.00  0.00     0.080 A 
ATOM     12  C   UNL A   1      30.603  27.976  24.189  1.00  0.00     0.097 A 
ATOM     13  N   UNL A   1      31.857  30.342  25.327  1.00  0.00    -0.213 NA
ATOM     14  C   UNL A   1      32.935  29.518  26.397  1.00  0.00     0.226 A 
ATOM     15  N   UNL A   1      32.955  27.704  26.366  1.00  0.00    -0.177 NA
BRANCH  11  16
ATOM     16  C   UNL A   1      29.484  30.226  23.729  1.00  0.00     0.000 A 
ATOM     17  C   UNL A   1      27.863  32.471  20.382  1.00  0.00     0.044 C 
ATOM     18  C   UNL A   1      28.093  31.671  21.644  1.00  0.00    -0.051 A 
ATOM     19  C   UNL A   1      28.465  32.286  22.855  1.00  0.00     0.004 A 
ATOM     20  C   UNL A   1      28.221  30.293  21.558  1.00  0.00     0.004 A 
ATOM     21  C   UNL A   1      29.176  31.579  23.874  1.00  0.00     0.010 A 
ATOM     22  C   UNL A   1      28.879  29.609  22.592  1.00  0.00     0.010 A 
ENDBRANCH  11  16
BRANCH  14  23
ATOM     23  N   UNL A   1      33.145  30.274  27.545  1.00  0.00    -0.350 N 
ATOM     24  H   UNL A   1      32.398  30.591  28.102  1.00  0.00     0.164 HD
BRANCH  23  25
ATOM     25  C   UNL A   1      34.555  30.576  27.887  1.00  0.00     0.152 C 
BRANCH  25  26
ATOM     26  C   UNL A   1      34.735  31.973  28.449  1.00  0.00    -0.025 A 
ATOM     27  C   UNL A   1      35.684  32.239  29.481  1.00  0.00     0.009 A 
ATOM     28  C   UNL A   1      33.825  32.961  28.076  1.00  0.00     0.056 A 
ATOM     29  C   UNL A   1      35.628  33.429  30.222  1.00  0.00     0.051 A 
ATOM     30  C   UNL A   1      33.746  34.072  28.863  1.00  0.00     0.166 A 
ATOM     31  C   UNL A   1      34.592  34.287  29.930  1.00  0.00     0.165 A 
ATOM     32  O   UNL A   1      32.714  34.959  28.827  1.00  0.00    -0.454 OA
ATOM     33  O   UNL A   1      34.147  35.325  30.699  1.00  0.00    -0.454 OA
ATOM     34  C   UNL A   1      32.793  35.399  30.191  1.00  0.00     0.468 C 
ENDBRANCH  25  26
ENDBRANCH  23  25
ENDBRANCH  14  23
ENDBRANCH   9  10
ENDBRANCH   8   9
ENDBRANCH   6   8
ENDBRANCH   5   6
ENDBRANCH   4   5
ENDBRANCH   3   4
ENDBRANCH   2   3
ENDBRANCH   1   2
BRANCH   1  35
ATOM     35  C   UNL A   1      35.574  23.171  25.546  1.00  0.00     0.188 C 
BRANCH  35  36
ATOM     36  O   UNL A   1      36.795  22.863  26.174  1.00  0.00    -0.376 OA
BRANCH  36  37
ATOM     37  C   UNL A   1      38.039  23.201  25.636  1.00  0.00     0.202 C 
BRANCH  37  38
ATOM     38  C   UNL A   1      39.173  23.078  26.643  1.00  0.00     0.261 C 
BRANCH  38  39
ATOM     39  O   UNL A   1      39.103  24.264  27.509  1.00  0.00    -0.460 OA
BRANCH  39  40
ATOM     40  C   UNL A   1      40.081  25.235  27.610  1.00  0.00     0.338 C 
ATOM     41  O   UNL A   1      39.778  26.371  27.301  1.00  0.00    -0.246 OA
BRANCH  40  42
ATOM     42  C   UNL A   1      41.504  24.571  28.224  1.00  0.00     0.060 A 
ATOM     43  C   UNL A   1      42.422  22.846  28.803  1.00  0.00     0.016 A 
ATOM     44  C   UNL A   1      42.546  26.010  28.203  1.00  0.00     0.016 A 
ATOM     45  C   UNL A   1      44.202  23.100  29.350  1.00  0.00     0.010 A 
ATOM     46  C   UNL A   1      44.056  26.035  28.845  1.00  0.00     0.010 A 
ATOM     47  C   UNL A   1      44.805  24.770  29.613  1.00  0.00    -0.014 A 
BRANCH  47  48
ATOM     48  C   UNL A   1      45.571  25.645  31.009  1.00  0.00     0.031 A 
ATOM     49  C   UNL A   1      44.971  25.044  32.210  1.00  0.00     0.074 A 
ATOM     50  C   UNL A   1      46.627  26.667  31.332  1.00  0.00     0.049 A 
ATOM     51  N   UNL A   1      44.697  25.693  33.291  1.00  0.00    -0.248 NA
ATOM     52  C   UNL A   1      44.427  23.675  32.206  1.00  0.00     0.031 C 
ATOM     53  C   UNL A   1      47.751  26.684  32.372  1.00  0.00     0.029 A 
ATOM     54  N   UNL A   1      47.248  27.740  30.573  1.00  0.00    -0.354 N 
ATOM     55  C   UNL A   1      44.529  24.684  34.205  1.00  0.00     0.074 A 
ATOM     56  C   UNL A   1      43.960  23.598  33.452  1.00  0.00     0.031 C 
ATOM     57  C   UNL A   1      48.671  27.703  32.200  1.00  0.00     0.029 A 
ATOM     58  C   UNL A   1      48.283  28.521  31.061  1.00  0.00     0.049 A 
ATOM     59  H   UNL A   1      46.916  27.921  29.664  1.00  0.00     0.167 HD
ATOM     60  C   UNL A   1      45.378  24.632  35.272  1.00  0.00     0.031 A 
ATOM     61  C   UNL A   1      48.404  29.848  30.745  1.00  0.00     0.031 A 
ATOM     62  C   UNL A   1      46.294  25.797  35.329  1.00  0.00     0.049 A 
ATOM     63  C   UNL A   1      47.732  30.407  31.936  1.00  0.00     0.074 A 
ATOM     64  C   UNL A   1      47.671  25.932  35.413  1.00  0.00     0.029 A 
ATOM     65  N   UNL A   1      45.824  27.080  35.027  1.00  0.00    -0.354 N 
ATOM     66  N   UNL A   1      47.036  29.628  32.702  1.00  0.00    -0.248 NA
ATOM     67  C   UNL A   1      47.790  31.778  32.384  1.00  0.00     0.031 C 
ATOM     68  C   UNL A   1      47.996  27.320  35.281  1.00  0.00     0.029 A 
ATOM     69  C   UNL A   1      46.829  28.030  35.021  1.00  0.00     0.049 A 
ATOM     70  H   UNL A   1      44.879  27.285  34.840  1.00  0.00     0.167 HD
ATOM     71  C   UNL A   1      46.901  30.216  33.880  1.00  0.00     0.074 A 
ATOM     72  C   UNL A   1      47.255  31.609  33.604  1.00  0.00     0.031 C 
ATOM     73  C   UNL A   1      46.494  29.461  34.927  1.00  0.00     0.031 A 
BRANCH  60  74
ATOM     74  C   UNL A   1      45.551  23.396  36.143  1.00  0.00    -0.014 A 
ATOM     75  C   UNL A   1      45.809  22.166  35.513  1.00  0.00     0.010 A 
ATOM     76  C   UNL A   1      45.552  23.367  37.557  1.00  0.00     0.010 A 
ATOM     77  C   UNL A   1      46.103  21.001  36.230  1.00  0.00     0.020 A 
ATOM     78  C   UNL A   1      45.842  22.207  38.293  1.00  0.00     0.020 A 
ATOM     79  C   UNL A   1      46.149  21.036  37.617  1.00  0.00     0.054 A 
BRANCH  79  80
ATOM     80  S   UNL A   1      46.707  19.566  38.506  1.00  0.00     0.124 S 
ATOM     81  O   UNL A   1      48.063  19.391  37.994  1.00  0.00    -0.237 OA
ATOM     82  O   UNL A   1      46.607  19.992  39.899  1.00  0.00    -0.237 OA
ATOM     83  O   UNL A   1      45.755  18.533  38.103  1.00  0.00    -0.744 OA
ENDBRANCH  79  80
ENDBRANCH  60  74
BRANCH  61  84
ATOM     84  C   UNL A   1      48.035  30.392  29.388  1.00  0.00    -0.014 A 
ATOM     85  C   UNL A   1      46.714  30.791  29.083  1.00  0.00     0.010 A 
ATOM     86  C   UNL A   1      49.066  30.772  28.505  1.00  0.00     0.010 A 
ATOM     87  C   UNL A   1      46.482  31.704  28.038  1.00  0.00     0.020 A 
ATOM     88  C   UNL A   1      48.844  31.688  27.474  1.00  0.00     0.020 A 
ATOM     89  C   UNL A   1      47.568  32.196  27.290  1.00  0.00     0.054 A 
BRANCH  89  90
ATOM     90  S   UNL A   1      47.413  33.836  26.551  1.00  0.00     0.124 S 
ATOM     91  O   UNL A   1      48.688  34.027  25.870  1.00  0.00    -0.237 OA
ATOM     92  O   UNL A   1      46.264  33.581  25.701  1.00  0.00    -0.237 OA
ATOM     93  O   UNL A   1      47.153  34.737  27.672  1.00  0.00    -0.744 OA
ENDBRANCH  89  90
ENDBRANCH  61  84
BRANCH  73  94
ATOM     94  C   UNL A   1      45.729  30.094  36.005  1.00  0.00    -0.014 A 
ATOM     95  C   UNL A   1      46.297  31.049  36.847  1.00  0.00     0.010 A 
ATOM     96  C   UNL A   1      44.355  29.830  36.106  1.00  0.00     0.010 A 
ATOM     97  C   UNL A   1      45.582  31.571  37.893  1.00  0.00     0.020 A 
ATOM     98  C   UNL A   1      43.592  30.446  37.074  1.00  0.00     0.020 A 
ATOM     99  C   UNL A   1      44.233  31.264  37.994  1.00  0.00     0.054 A 
BRANCH  99 100
ATOM    100  S   UNL A   1      43.354  32.002  39.356  1.00  0.00     0.124 S 
ATOM    101  O   UNL A   1      43.719  31.108  40.453  1.00  0.00    -0.237 OA
ATOM    102  O   UNL A   1      43.943  33.338  39.407  1.00  0.00    -0.237 OA
ATOM    103  O   UNL A   1      41.958  31.946  38.934  1.00  0.00    -0.744 OA
ENDBRANCH  99 100
ENDBRANCH  73  94
ENDBRANCH  47  48
ENDBRANCH  40  42
ENDBRANCH  39  40
ENDBRANCH  38  39
ENDBRANCH  37  38
ENDBRANCH  36  37
ENDBRANCH  35  36
ENDBRANCH   1  35
TORSDOF 26
ENDMDL
MODEL 3
REMARK VINA RESULT:      -9.2      4.835     11.877
REMARK SMILES Cc1ccc(-c2cc(OCC(=O)OCCOCCOCCOC(=O)c3ccc(-c4c5nc(c(-c6ccc(S(=O)(=O)[O-])cc6)c6ccc([nH]6)c(-c6ccc(S(=O)(=O)[O-])cc6)c6nc(c(-c7ccc(S(=O)(=O)[O-])cc7)c7ccc4[nH]7)C=C6)C=C5)cc3)nc(NCc3ccc4c(c3)OCO4)n2)cc1
REMARK SMILES IDX 17 1 16 2 15 3 14 4 13 5 11 6 12 7 10 8 9 9 8 10 6 11 7 12
REMARK SMILES IDX 98 13 86 14 85 15 5 16 1 17 2 18 3 19 100 20 4 21 99 22
REMARK SMILES IDX 87 23 88 25 89 26 90 27 94 28 91 29 93 30 92 31 95 32 97 33
REMARK SMILES IDX 96 34 18 35 19 36 20 37 21 38 22 39 23 40 24 41 25 42 26 43
REMARK SMILES IDX 84 44 27 45 83 46 28 47 29 48 30 49 77 50 31 51 82 52 76 53
REMARK SMILES IDX 78 54 32 55 81 56 75 57 74 58 33 60 63 61 44 62 62 63 45 64
REMARK SMILES IDX 48 65 61 66 79 67 46 68 47 69 60 71 80 72 49 73 34 74 35 75
REMARK SMILES IDX 43 76 36 77 42 78 37 79 38 80 39 81 40 82 41 83 64 84 65 85
REMARK SMILES IDX 73 86 66 87 72 88 67 89 68 90 69 91 70 92 71 93 50 94 51 95
REMARK SMILES IDX 59 96 52 97 58 98 53 99 54 100 55 101 56 102 57 103
REMARK H PARENT 87 24 78 59 48 70
REMARK Flexibility Score: inf
ROOT
ATOM      1  C   UNL A   1      35.078  21.686  24.930  1.00  0.00     0.188 C 
ENDROOT
BRANCH   1   2
ATOM      2  O   UNL A   1      33.826  22.142  25.444  1.00  0.00    -0.376 OA
BRANCH   2   3
ATOM      3  C   UNL A   1      32.925  22.691  24.512  1.00  0.00     0.202 C 
BRANCH   3   4
ATOM      4  C   UNL A   1      33.449  22.828  23.085  1.00  0.00     0.261 C 
BRANCH   4   5
ATOM      5  O   UNL A   1      33.916  24.162  22.519  1.00  0.00    -0.461 OA
BRANCH   5   6
ATOM      6  C   UNL A   1      33.443  25.470  22.308  1.00  0.00     0.344 C 
ATOM      7  O   UNL A   1      33.492  25.994  21.220  1.00  0.00    -0.248 OA
BRANCH   6   8
ATOM      8  C   UNL A   1      33.128  26.263  23.577  1.00  0.00     0.353 C 
BRANCH   8   9
ATOM      9  O   UNL A   1      31.760  26.379  23.572  1.00  0.00    -0.466 OA
BRANCH   9  10
ATOM     10  C   UNL A   1      31.334  26.783  25.192  1.00  0.00     0.219 A 
ATOM     11  C   UNL A   1      30.573  29.451  24.284  1.00  0.00     0.080 A 
ATOM     12  C   UNL A   1      30.346  27.865  24.228  1.00  0.00     0.097 A 
ATOM     13  N   UNL A   1      31.717  30.200  25.292  1.00  0.00    -0.213 NA
ATOM     14  C   UNL A   1      32.733  29.360  26.408  1.00  0.00     0.226 A 
ATOM     15  N   UNL A   1      32.652  27.548  26.448  1.00  0.00    -0.177 NA
BRANCH  11  16
ATOM     16  C   UNL A   1      29.361  30.154  23.665  1.00  0.00     0.000 A 
ATOM     17  C   UNL A   1      27.943  32.455  20.265  1.00  0.00     0.044 C 
ATOM     18  C   UNL A   1      28.098  31.648  21.533  1.00  0.00    -0.051 A 
ATOM     19  C   UNL A   1      28.451  32.250  22.757  1.00  0.00     0.004 A 
ATOM     20  C   UNL A   1      28.178  30.267  21.451  1.00  0.00     0.004 A 
ATOM     21  C   UNL A   1      29.099  31.518  23.800  1.00  0.00     0.010 A 
ATOM     22  C   UNL A   1      28.774  29.559  22.508  1.00  0.00     0.010 A 
ENDBRANCH  11  16
BRANCH  14  23
ATOM     23  N   UNL A   1      32.972  30.148  27.530  1.00  0.00    -0.350 N 
ATOM     24  H   UNL A   1      32.874  29.794  28.443  1.00  0.00     0.164 HD
BRANCH  23  25
ATOM     25  C   UNL A   1      33.383  31.549  27.277  1.00  0.00     0.152 C 
BRANCH  25  26
ATOM     26  C   UNL A   1      34.286  32.100  28.363  1.00  0.00    -0.025 A 
ATOM     27  C   UNL A   1      35.167  31.249  29.096  1.00  0.00     0.009 A 
ATOM     28  C   UNL A   1      34.107  33.423  28.767  1.00  0.00     0.056 A 
ATOM     29  C   UNL A   1      35.749  31.679  30.297  1.00  0.00     0.051 A 
ATOM     30  C   UNL A   1      34.626  33.785  29.976  1.00  0.00     0.166 A 
ATOM     31  C   UNL A   1      35.390  32.931  30.742  1.00  0.00     0.165 A 
ATOM     32  O   UNL A   1      34.271  34.915  30.646  1.00  0.00    -0.454 OA
ATOM     33  O   UNL A   1      35.565  33.435  31.999  1.00  0.00    -0.454 OA
ATOM     34  C   UNL A   1      34.514  34.431  31.976  1.00  0.00     0.468 C 
ENDBRANCH  25  26
ENDBRANCH  23  25
ENDBRANCH  14  23
ENDBRANCH   9  10
ENDBRANCH   8   9
ENDBRANCH   6   8
ENDBRANCH   5   6
ENDBRANCH   4   5
ENDBRANCH   3   4
ENDBRANCH   2   3
ENDBRANCH   1   2
BRANCH   1  35
ATOM     35  C   UNL A   1      36.314  22.516  25.206  1.00  0.00     0.188 C 
BRANCH  35  36
ATOM     36  O   UNL A   1      37.314  21.904  25.983  1.00  0.00    -0.376 OA
BRANCH  36  37
ATOM     37  C   UNL A   1      38.613  21.677  25.521  1.00  0.00     0.202 C 
BRANCH  37  38
ATOM     38  C   UNL A   1      39.650  21.695  26.634  1.00  0.00     0.261 C 
BRANCH  38  39
ATOM     39  O   UNL A   1      39.510  22.986  27.322  1.00  0.00    -0.460 OA
BRANCH  39  40
ATOM     40  C   UNL A   1      40.340  24.078  27.143  1.00  0.00     0.338 C 
ATOM     41  O   UNL A   1      39.932  24.984  26.442  1.00  0.00    -0.246 OA
BRANCH  40  42
ATOM     42  C   UNL A   1      41.756  23.890  28.037  1.00  0.00     0.060 A 
ATOM     43  C   UNL A   1      42.900  22.569  29.086  1.00  0.00     0.016 A 
ATOM     44  C   UNL A   1      42.484  25.494  27.798  1.00  0.00     0.016 A 
ATOM     45  C   UNL A   1      44.491  23.323  29.744  1.00  0.00     0.010 A 
ATOM     46  C   UNL A   1      43.844  25.988  28.572  1.00  0.00     0.010 A 
ATOM     47  C   UNL A   1      44.703  25.105  29.682  1.00  0.00    -0.014 A 
BRANCH  47  48
ATOM     48  C   UNL A   1      45.061  26.390  30.914  1.00  0.00     0.031 A 
ATOM     49  C   UNL A   1      44.599  25.830  32.193  1.00  0.00     0.074 A 
ATOM     50  C   UNL A   1      45.720  27.735  31.068  1.00  0.00     0.049 A 
ATOM     51  N   UNL A   1      44.062  26.523  33.141  1.00  0.00    -0.248 NA
ATOM     52  C   UNL A   1      44.512  24.377  32.420  1.00  0.00     0.031 C 
ATOM     53  C   UNL A   1      46.708  28.277  32.104  1.00  0.00     0.029 A 
ATOM     54  N   UNL A   1      46.023  28.813  30.143  1.00  0.00    -0.354 N 
ATOM     55  C   UNL A   1      44.157  25.674  34.214  1.00  0.00     0.074 A 
ATOM     56  C   UNL A   1      44.009  24.356  33.655  1.00  0.00     0.031 C 
ATOM     57  C   UNL A   1      47.272  29.495  31.769  1.00  0.00     0.029 A 
ATOM     58  C   UNL A   1      46.726  29.952  30.501  1.00  0.00     0.049 A 
ATOM     59  H   UNL A   1      45.714  28.730  29.212  1.00  0.00     0.167 HD
ATOM     60  C   UNL A   1      44.905  26.068  35.285  1.00  0.00     0.031 A 
ATOM     61  C   UNL A   1      46.448  31.179  29.961  1.00  0.00     0.031 A 
ATOM     62  C   UNL A   1      45.404  27.458  35.151  1.00  0.00     0.049 A 
ATOM     63  C   UNL A   1      45.555  31.677  31.027  1.00  0.00     0.074 A 
ATOM     64  C   UNL A   1      46.661  28.037  35.228  1.00  0.00     0.029 A 
ATOM     65  N   UNL A   1      44.578  28.457  34.624  1.00  0.00    -0.354 N 
ATOM     66  N   UNL A   1      45.088  30.850  31.908  1.00  0.00    -0.248 NA
ATOM     67  C   UNL A   1      45.150  33.048  31.231  1.00  0.00     0.031 C 
ATOM     68  C   UNL A   1      46.544  29.416  34.861  1.00  0.00     0.029 A 
ATOM     69  C   UNL A   1      45.234  29.664  34.467  1.00  0.00     0.049 A 
ATOM     70  H   UNL A   1      43.632  28.316  34.392  1.00  0.00     0.167 HD
ATOM     71  C   UNL A   1      44.695  31.545  32.964  1.00  0.00     0.074 A 
ATOM     72  C   UNL A   1      44.613  32.915  32.454  1.00  0.00     0.031 C 
ATOM     73  C   UNL A   1      44.475  30.878  34.121  1.00  0.00     0.031 A 
BRANCH  60  74
ATOM     74  C   UNL A   1      45.397  25.109  36.360  1.00  0.00    -0.014 A 
ATOM     75  C   UNL A   1      44.677  25.031  37.565  1.00  0.00     0.010 A 
ATOM     76  C   UNL A   1      46.486  24.215  36.243  1.00  0.00     0.010 A 
ATOM     77  C   UNL A   1      44.978  24.095  38.562  1.00  0.00     0.020 A 
ATOM     78  C   UNL A   1      46.804  23.271  37.233  1.00  0.00     0.020 A 
ATOM     79  C   UNL A   1      46.022  23.199  38.375  1.00  0.00     0.054 A 
BRANCH  79  80
ATOM     80  S   UNL A   1      46.270  21.889  39.594  1.00  0.00     0.124 S 
ATOM     81  O   UNL A   1      45.412  22.322  40.693  1.00  0.00    -0.237 OA
ATOM     82  O   UNL A   1      45.819  20.705  38.868  1.00  0.00    -0.237 OA
ATOM     83  O   UNL A   1      47.705  21.939  39.872  1.00  0.00    -0.744 OA
ENDBRANCH  79  80
ENDBRANCH  60  74
BRANCH  61  84
ATOM     84  C   UNL A   1      46.020  31.351  28.525  1.00  0.00    -0.014 A 
ATOM     85  C   UNL A   1      44.665  31.244  28.137  1.00  0.00     0.010 A 
ATOM     86  C   UNL A   1      46.936  31.901  27.604  1.00  0.00     0.010 A 
ATOM     87  C   UNL A   1      44.228  31.854  26.947  1.00  0.00     0.020 A 
ATOM     88  C   UNL A   1      46.505  32.520  26.428  1.00  0.00     0.020 A 
ATOM     89  C   UNL A   1      45.150  32.548  26.141  1.00  0.00     0.054 A 
BRANCH  89  90
ATOM     90  S   UNL A   1      44.533  33.909  25.128  1.00  0.00     0.124 S 
ATOM     91  O   UNL A   1      43.421  34.441  25.907  1.00  0.00    -0.237 OA
ATOM     92  O   UNL A   1      45.738  34.717  25.095  1.00  0.00    -0.237 OA
ATOM     93  O   UNL A   1      44.172  33.300  23.849  1.00  0.00    -0.744 OA
ENDBRANCH  89  90
ENDBRANCH  61  84
BRANCH  73  94
ATOM     94  C   UNL A   1      43.479  31.398  35.062  1.00  0.00    -0.014 A 
ATOM     95  C   UNL A   1      43.666  31.331  36.442  1.00  0.00     0.010 A 
ATOM     96  C   UNL A   1      42.374  32.100  34.559  1.00  0.00     0.010 A 
ATOM     97  C   UNL A   1      42.686  31.758  37.300  1.00  0.00     0.020 A 
ATOM     98  C   UNL A   1      41.443  32.648  35.415  1.00  0.00     0.020 A 
ATOM     99  C   UNL A   1      41.584  32.415  36.776  1.00  0.00     0.054 A 
BRANCH  99 100
ATOM    100  S   UNL A   1      40.364  32.974  37.948  1.00  0.00     0.124 S 
ATOM    101  O   UNL A   1      40.042  34.297  37.418  1.00  0.00    -0.237 OA
ATOM    102  O   UNL A   1      39.319  31.964  37.800  1.00  0.00    -0.237 OA
ATOM    103  O   UNL A   1      41.078  32.959  39.220  1.00  0.00    -0.744 OA
ENDBRANCH  99 100
ENDBRANCH  73  94
ENDBRANCH  47  48
ENDBRANCH  40  42
ENDBRANCH  39  40
ENDBRANCH  38  39
ENDBRANCH  37  38
ENDBRANCH  36  37
ENDBRANCH  35  36
ENDBRANCH   1  35
TORSDOF 26
ENDMDL
