MODEL 1
REMARK VINA RESULT:      -9.8      0.000      0.000
REMARK SMILES Cc1ccc(OCCn2ccnc2)c(/C=C/C(=O)OCCOCCOCCOC(=O)c2ccc(-c3c4nc(c(-c5ccc(S(=O)(=O)[O-])cc5)c5ccc([nH]5)c(-c5ccc(S(=O)(=O)[O-])cc5)c5nc(c(-c6ccc(S(=O)(=O)[O-])cc6)c6ccc3[nH]6)C=C5)C=C4)cc2)n1
REMARK SMILES IDX 23 1 22 2 21 3 20 4 19 5 17 6 18 7 16 8 15 9 14 10 1 11 2 12
REMARK SMILES IDX 3 13 91 14 4 15 5 16 6 17 7 18 8 19 9 20 10 21 13 22 11 23
REMARK SMILES IDX 12 24 24 25 25 26 26 27 27 28 28 29 29 30 30 31 31 32 32 33
REMARK SMILES IDX 90 34 33 35 89 36 34 37 35 38 36 39 83 40 37 41 88 42 82 43
REMARK SMILES IDX 84 44 38 45 87 46 81 47 80 48 39 50 69 51 50 52 68 53 51 54
REMARK SMILES IDX 54 55 67 56 85 57 52 58 53 59 66 61 86 62 55 63 40 64 41 65
REMARK SMILES IDX 49 66 42 67 48 68 43 69 44 70 45 71 46 72 47 73 70 74 71 75
REMARK SMILES IDX 79 76 72 77 78 78 73 79 74 80 75 81 76 82 77 83 56 84 57 85
REMARK SMILES IDX 65 86 58 87 64 88 59 89 60 90 61 91 62 92 63 93
REMARK H PARENT 84 49 54 60
REMARK Flexibility Score: inf
ROOT
ATOM      1  C   UNL A   1      33.341  34.629  28.931  1.00  0.00     0.188 C 
ENDROOT
BRANCH   1   2
ATOM      2  O   UNL A   1      34.661  34.159  29.159  1.00  0.00    -0.376 OA
BRANCH   2   3
ATOM      3  C   UNL A   1      35.002  32.810  28.870  1.00  0.00     0.202 C 
BRANCH   3   4
ATOM      4  C   UNL A   1      34.510  32.077  27.602  1.00  0.00     0.261 C 
BRANCH   4   5
ATOM      5  O   UNL A   1      33.898  30.794  27.797  1.00  0.00    -0.460 OA
BRANCH   5   6
ATOM      6  C   UNL A   1      34.611  29.717  27.393  1.00  0.00     0.330 C 
ATOM      7  O   UNL A   1      35.829  29.657  27.282  1.00  0.00    -0.247 OA
BRANCH   6   8
ATOM      8  C   UNL A   1      33.762  28.521  27.230  1.00  0.00     0.096 C 
ATOM      9  C   UNL A   1      33.392  27.975  26.059  1.00  0.00     0.040 C 
BRANCH   9  10
ATOM     10  C   UNL A   1      32.440  26.846  25.970  1.00  0.00     0.105 A 
ATOM     11  C   UNL A   1      32.741  23.203  26.482  1.00  0.00     0.067 C 
ATOM     12  C   UNL A   1      32.130  24.550  26.243  1.00  0.00     0.038 A 
ATOM     13  C   UNL A   1      30.763  24.673  26.045  1.00  0.00     0.027 A 
ATOM     14  N   UNL A   1      32.960  25.620  26.250  1.00  0.00    -0.250 NA
ATOM     15  C   UNL A   1      30.240  25.927  25.746  1.00  0.00     0.050 A 
ATOM     16  C   UNL A   1      31.091  27.028  25.634  1.00  0.00     0.145 A 
BRANCH  16  17
ATOM     17  O   UNL A   1      30.683  28.256  25.183  1.00  0.00    -0.489 OA
BRANCH  17  18
ATOM     18  C   UNL A   1      30.347  28.369  23.792  1.00  0.00     0.251 C 
BRANCH  18  19
ATOM     19  C   UNL A   1      31.556  28.613  22.876  1.00  0.00     0.164 C 
BRANCH  19  20
ATOM     20  N   UNL A   1      32.188  27.408  22.374  1.00  0.00    -0.334 N 
ATOM     21  C   UNL A   1      31.560  26.234  22.062  1.00  0.00     0.107 A 
ATOM     22  C   UNL A   1      33.523  27.234  22.142  1.00  0.00     0.199 A 
ATOM     23  C   UNL A   1      32.550  25.425  21.559  1.00  0.00     0.130 A 
ATOM     24  N   UNL A   1      33.769  26.050  21.627  1.00  0.00    -0.245 NA
ENDBRANCH  19  20
ENDBRANCH  18  19
ENDBRANCH  17  18
ENDBRANCH  16  17
ENDBRANCH   9  10
ENDBRANCH   6   8
ENDBRANCH   5   6
ENDBRANCH   4   5
ENDBRANCH   3   4
ENDBRANCH   2   3
ENDBRANCH   1   2
BRANCH   1  25
ATOM     25  C   UNL A   1      33.011  36.124  29.115  1.00  0.00     0.188 C 
BRANCH  25  26
ATOM     26  O   UNL A   1      32.499  36.462  30.387  1.00  0.00    -0.376 OA
BRANCH  26  27
ATOM     27  C   UNL A   1      33.320  36.424  31.541  1.00  0.00     0.202 C 
BRANCH  27  28
ATOM     28  C   UNL A   1      33.269  35.316  32.594  1.00  0.00     0.261 C 
BRANCH  28  29
ATOM     29  O   UNL A   1      33.821  34.062  32.249  1.00  0.00    -0.460 OA
BRANCH  29  30
ATOM     30  C   UNL A   1      34.760  33.629  33.116  1.00  0.00     0.338 C 
ATOM     31  O   UNL A   1      34.812  33.847  34.314  1.00  0.00    -0.246 OA
BRANCH  30  32
ATOM     32  C   UNL A   1      35.813  32.963  32.356  1.00  0.00     0.060 A 
ATOM     33  C   UNL A   1      35.800  31.568  32.312  1.00  0.00     0.016 A 
ATOM     34  C   UNL A   1      36.927  33.720  31.966  1.00  0.00     0.016 A 
ATOM     35  C   UNL A   1      36.977  30.916  32.019  1.00  0.00     0.010 A 
ATOM     36  C   UNL A   1      38.106  33.067  31.702  1.00  0.00     0.010 A 
ATOM     37  C   UNL A   1      38.130  31.677  31.794  1.00  0.00    -0.014 A 
BRANCH  37  38
ATOM     38  C   UNL A   1      39.370  30.976  31.526  1.00  0.00     0.031 A 
ATOM     39  C   UNL A   1      40.211  30.827  32.733  1.00  0.00     0.074 A 
ATOM     40  C   UNL A   1      39.613  30.405  30.331  1.00  0.00     0.049 A 
ATOM     41  N   UNL A   1      41.394  31.299  32.943  1.00  0.00    -0.248 NA
ATOM     42  C   UNL A   1      39.582  30.224  33.925  1.00  0.00     0.031 C 
ATOM     43  C   UNL A   1      38.675  30.286  29.208  1.00  0.00     0.029 A 
ATOM     44  N   UNL A   1      40.690  29.685  29.911  1.00  0.00    -0.354 N 
ATOM     45  C   UNL A   1      41.749  30.831  34.204  1.00  0.00     0.074 A 
ATOM     46  C   UNL A   1      40.537  30.389  34.838  1.00  0.00     0.031 C 
ATOM     47  C   UNL A   1      39.128  29.345  28.351  1.00  0.00     0.029 A 
ATOM     48  C   UNL A   1      40.431  28.884  28.803  1.00  0.00     0.049 A 
ATOM     49  H   UNL A   1      41.571  29.729  30.350  1.00  0.00     0.167 HD
ATOM     50  C   UNL A   1      43.040  30.521  34.497  1.00  0.00     0.031 A 
ATOM     51  C   UNL A   1      41.187  27.852  28.351  1.00  0.00     0.031 A 
ATOM     52  C   UNL A   1      43.955  31.148  33.580  1.00  0.00     0.049 A 
ATOM     53  C   UNL A   1      42.538  28.004  28.942  1.00  0.00     0.074 A 
ATOM     54  C   UNL A   1      44.261  32.449  33.240  1.00  0.00     0.029 A 
ATOM     55  N   UNL A   1      44.442  30.345  32.578  1.00  0.00    -0.354 N 
ATOM     56  N   UNL A   1      43.361  28.968  28.641  1.00  0.00    -0.248 NA
ATOM     57  C   UNL A   1      42.849  27.281  30.167  1.00  0.00     0.031 C 
ATOM     58  C   UNL A   1      44.615  32.407  31.862  1.00  0.00     0.029 A 
ATOM     59  C   UNL A   1      44.563  31.079  31.430  1.00  0.00     0.049 A 
ATOM     60  H   UNL A   1      44.669  29.393  32.672  1.00  0.00     0.167 HD
ATOM     61  C   UNL A   1      44.024  29.249  29.825  1.00  0.00     0.074 A 
ATOM     62  C   UNL A   1      43.772  28.096  30.682  1.00  0.00     0.031 C 
ATOM     63  C   UNL A   1      44.467  30.511  30.098  1.00  0.00     0.031 A 
BRANCH  50  64
ATOM     64  C   UNL A   1      43.410  29.268  35.265  1.00  0.00    -0.014 A 
ATOM     65  C   UNL A   1      44.100  29.404  36.485  1.00  0.00     0.010 A 
ATOM     66  C   UNL A   1      43.380  27.976  34.695  1.00  0.00     0.010 A 
ATOM     67  C   UNL A   1      44.784  28.324  37.058  1.00  0.00     0.020 A 
ATOM     68  C   UNL A   1      44.017  26.883  35.280  1.00  0.00     0.020 A 
ATOM     69  C   UNL A   1      44.747  27.074  36.442  1.00  0.00     0.054 A 
BRANCH  69  70
ATOM     70  S   UNL A   1      45.708  25.707  37.134  1.00  0.00     0.124 S 
ATOM     71  O   UNL A   1      46.043  24.943  35.936  1.00  0.00    -0.237 OA
ATOM     72  O   UNL A   1      46.817  26.407  37.776  1.00  0.00    -0.237 OA
ATOM     73  O   UNL A   1      44.771  25.061  38.051  1.00  0.00    -0.744 OA
ENDBRANCH  69  70
ENDBRANCH  50  64
BRANCH  51  74
ATOM     74  C   UNL A   1      40.740  26.594  27.696  1.00  0.00    -0.014 A 
ATOM     75  C   UNL A   1      41.474  26.038  26.629  1.00  0.00     0.010 A 
ATOM     76  C   UNL A   1      39.751  25.785  28.293  1.00  0.00     0.010 A 
ATOM     77  C   UNL A   1      41.278  24.706  26.228  1.00  0.00     0.020 A 
ATOM     78  C   UNL A   1      39.537  24.463  27.887  1.00  0.00     0.020 A 
ATOM     79  C   UNL A   1      40.323  23.918  26.876  1.00  0.00     0.054 A 
BRANCH  79  80
ATOM     80  S   UNL A   1      40.205  22.148  26.484  1.00  0.00     0.124 S 
ATOM     81  O   UNL A   1      38.892  22.057  25.849  1.00  0.00    -0.237 OA
ATOM     82  O   UNL A   1      41.349  21.940  25.603  1.00  0.00    -0.237 OA
ATOM     83  O   UNL A   1      40.307  21.499  27.790  1.00  0.00    -0.744 OA
ENDBRANCH  79  80
ENDBRANCH  51  74
BRANCH  63  84
ATOM     84  C   UNL A   1      44.686  31.463  28.949  1.00  0.00    -0.014 A 
ATOM     85  C   UNL A   1      43.741  32.398  28.490  1.00  0.00     0.010 A 
ATOM     86  C   UNL A   1      45.979  31.486  28.395  1.00  0.00     0.010 A 
ATOM     87  C   UNL A   1      44.081  33.320  27.488  1.00  0.00     0.020 A 
ATOM     88  C   UNL A   1      46.331  32.414  27.416  1.00  0.00     0.020 A 
ATOM     89  C   UNL A   1      45.378  33.322  26.960  1.00  0.00     0.054 A 
BRANCH  89  90
ATOM     90  S   UNL A   1      45.834  34.552  25.706  1.00  0.00     0.124 S 
ATOM     91  O   UNL A   1      45.478  35.812  26.354  1.00  0.00    -0.237 OA
ATOM     92  O   UNL A   1      47.264  34.318  25.525  1.00  0.00    -0.237 OA
ATOM     93  O   UNL A   1      45.008  34.196  24.553  1.00  0.00    -0.744 OA
ENDBRANCH  89  90
ENDBRANCH  63  84
ENDBRANCH  37  38
ENDBRANCH  30  32
ENDBRANCH  29  30
ENDBRANCH  28  29
ENDBRANCH  27  28
ENDBRANCH  26  27
ENDBRANCH  25  26
ENDBRANCH   1  25
TORSDOF 25
ENDMDL
MODEL 2
REMARK VINA RESULT:      -9.0      2.754      4.736
REMARK SMILES Cc1ccc(OCCn2ccnc2)c(/C=C/C(=O)OCCOCCOCCOC(=O)c2ccc(-c3c4nc(c(-c5ccc(S(=O)(=O)[O-])cc5)c5ccc([nH]5)c(-c5ccc(S(=O)(=O)[O-])cc5)c5nc(c(-c6ccc(S(=O)(=O)[O-])cc6)c6ccc3[nH]6)C=C5)C=C4)cc2)n1
REMARK SMILES IDX 23 1 22 2 21 3 20 4 19 5 17 6 18 7 16 8 15 9 14 10 1 11 2 12
REMARK SMILES IDX 3 13 91 14 4 15 5 16 6 17 7 18 8 19 9 20 10 21 13 22 11 23
REMARK SMILES IDX 12 24 24 25 25 26 26 27 27 28 28 29 29 30 30 31 31 32 32 33
REMARK SMILES IDX 90 34 33 35 89 36 34 37 35 38 36 39 83 40 37 41 88 42 82 43
REMARK SMILES IDX 84 44 38 45 87 46 81 47 80 48 39 50 69 51 50 52 68 53 51 54
REMARK SMILES IDX 54 55 67 56 85 57 52 58 53 59 66 61 86 62 55 63 40 64 41 65
REMARK SMILES IDX 49 66 42 67 48 68 43 69 44 70 45 71 46 72 47 73 70 74 71 75
REMARK SMILES IDX 79 76 72 77 78 78 73 79 74 80 75 81 76 82 77 83 56 84 57 85
REMARK SMILES IDX 65 86 58 87 64 88 59 89 60 90 61 91 62 92 63 93
REMARK H PARENT 84 49 54 60
REMARK Flexibility Score: inf
ROOT
ATOM      1  C   UNL A   1      30.815  27.313  25.039  1.00  0.00     0.188 C 
ENDROOT
BRANCH   1   2
ATOM      2  O   UNL A   1      30.465  26.556  26.187  1.00  0.00    -0.376 OA
BRANCH   2   3
ATOM      3  C   UNL A   1      30.655  25.148  26.203  1.00  0.00     0.202 C 
BRANCH   3   4
ATOM      4  C   UNL A   1      32.000  24.491  26.584  1.00  0.00     0.261 C 
BRANCH   4   5
ATOM      5  O   UNL A   1      31.930  23.220  27.247  1.00  0.00    -0.460 OA
BRANCH   5   6
ATOM      6  C   UNL A   1      33.086  22.523  27.341  1.00  0.00     0.330 C 
ATOM      7  O   UNL A   1      34.003  22.745  28.123  1.00  0.00    -0.247 OA
BRANCH   6   8
ATOM      8  C   UNL A   1      33.082  21.327  26.478  1.00  0.00     0.096 C 
ATOM      9  C   UNL A   1      33.389  21.302  25.169  1.00  0.00     0.040 C 
BRANCH   9  10
ATOM     10  C   UNL A   1      33.247  20.086  24.338  1.00  0.00     0.105 A 
ATOM     11  C   UNL A   1      34.738  16.712  24.471  1.00  0.00     0.067 C 
ATOM     12  C   UNL A   1      33.859  17.853  24.056  1.00  0.00     0.038 A 
ATOM     13  C   UNL A   1      32.947  17.694  23.025  1.00  0.00     0.027 A 
ATOM     14  N   UNL A   1      33.986  19.016  24.739  1.00  0.00    -0.250 NA
ATOM     15  C   UNL A   1      32.204  18.796  22.612  1.00  0.00     0.050 A 
ATOM     16  C   UNL A   1      32.399  20.035  23.223  1.00  0.00     0.145 A 
BRANCH  16  17
ATOM     17  O   UNL A   1      31.834  21.199  22.770  1.00  0.00    -0.489 OA
BRANCH  17  18
ATOM     18  C   UNL A   1      32.472  22.429  23.145  1.00  0.00     0.251 C 
BRANCH  18  19
ATOM     19  C   UNL A   1      33.180  23.143  21.983  1.00  0.00     0.164 C 
BRANCH  19  20
ATOM     20  N   UNL A   1      33.173  24.591  22.068  1.00  0.00    -0.334 N 
ATOM     21  C   UNL A   1      32.433  25.443  21.296  1.00  0.00     0.107 A 
ATOM     22  C   UNL A   1      33.916  25.352  22.925  1.00  0.00     0.199 A 
ATOM     23  C   UNL A   1      32.700  26.696  21.796  1.00  0.00     0.130 A 
ATOM     24  N   UNL A   1      33.635  26.630  22.798  1.00  0.00    -0.245 NA
ENDBRANCH  19  20
ENDBRANCH  18  19
ENDBRANCH  17  18
ENDBRANCH  16  17
ENDBRANCH   9  10
ENDBRANCH   6   8
ENDBRANCH   5   6
ENDBRANCH   4   5
ENDBRANCH   3   4
ENDBRANCH   2   3
ENDBRANCH   1   2
BRANCH   1  25
ATOM     25  C   UNL A   1      31.939  28.365  25.121  1.00  0.00     0.188 C 
BRANCH  25  26
ATOM     26  O   UNL A   1      32.970  28.056  26.035  1.00  0.00    -0.376 OA
BRANCH  26  27
ATOM     27  C   UNL A   1      33.063  28.715  27.286  1.00  0.00     0.202 C 
BRANCH  27  28
ATOM     28  C   UNL A   1      32.987  30.232  27.463  1.00  0.00     0.261 C 
BRANCH  28  29
ATOM     29  O   UNL A   1      34.155  30.980  27.195  1.00  0.00    -0.460 OA
BRANCH  29  30
ATOM     30  C   UNL A   1      34.800  31.391  28.306  1.00  0.00     0.338 C 
ATOM     31  O   UNL A   1      34.323  31.991  29.254  1.00  0.00    -0.246 OA
BRANCH  30  32
ATOM     32  C   UNL A   1      36.225  31.129  28.133  1.00  0.00     0.060 A 
ATOM     33  C   UNL A   1      36.604  29.857  27.702  1.00  0.00     0.016 A 
ATOM     34  C   UNL A   1      37.138  32.043  28.679  1.00  0.00     0.016 A 
ATOM     35  C   UNL A   1      37.889  29.437  27.964  1.00  0.00     0.010 A 
ATOM     36  C   UNL A   1      38.409  31.612  28.965  1.00  0.00     0.010 A 
ATOM     37  C   UNL A   1      38.748  30.295  28.661  1.00  0.00    -0.014 A 
BRANCH  37  38
ATOM     38  C   UNL A   1      40.085  29.825  28.964  1.00  0.00     0.031 A 
ATOM     39  C   UNL A   1      40.372  29.826  30.415  1.00  0.00     0.074 A 
ATOM     40  C   UNL A   1      40.885  29.308  28.012  1.00  0.00     0.049 A 
ATOM     41  N   UNL A   1      41.272  30.499  31.049  1.00  0.00    -0.248 NA
ATOM     42  C   UNL A   1      39.417  29.119  31.292  1.00  0.00     0.031 C 
ATOM     43  C   UNL A   1      40.520  29.027  26.618  1.00  0.00     0.029 A 
ATOM     44  N   UNL A   1      42.141  28.791  28.113  1.00  0.00    -0.354 N 
ATOM     45  C   UNL A   1      41.152  30.100  32.376  1.00  0.00     0.074 A 
ATOM     46  C   UNL A   1      39.875  29.449  32.498  1.00  0.00     0.031 C 
ATOM     47  C   UNL A   1      41.430  28.182  26.085  1.00  0.00     0.029 A 
ATOM     48  C   UNL A   1      42.490  27.958  27.054  1.00  0.00     0.049 A 
ATOM     49  H   UNL A   1      42.745  28.990  28.865  1.00  0.00     0.167 HD
ATOM     50  C   UNL A   1      42.242  30.023  33.185  1.00  0.00     0.031 A 
ATOM     51  C   UNL A   1      43.522  27.077  27.019  1.00  0.00     0.031 A 
ATOM     52  C   UNL A   1      43.336  30.803  32.671  1.00  0.00     0.049 A 
ATOM     53  C   UNL A   1      44.469  27.465  28.091  1.00  0.00     0.074 A 
ATOM     54  C   UNL A   1      43.539  32.139  32.392  1.00  0.00     0.029 A 
ATOM     55  N   UNL A   1      44.313  30.101  32.010  1.00  0.00    -0.354 N 
ATOM     56  N   UNL A   1      45.174  28.561  28.079  1.00  0.00    -0.248 NA
ATOM     57  C   UNL A   1      44.365  26.807  29.386  1.00  0.00     0.031 C 
ATOM     58  C   UNL A   1      44.427  32.161  31.280  1.00  0.00     0.029 A 
ATOM     59  C   UNL A   1      44.772  30.847  30.959  1.00  0.00     0.049 A 
ATOM     60  H   UNL A   1      44.634  29.204  32.255  1.00  0.00     0.167 HD
ATOM     61  C   UNL A   1      45.240  28.952  29.407  1.00  0.00     0.074 A 
ATOM     62  C   UNL A   1      44.851  27.771  30.170  1.00  0.00     0.031 C 
ATOM     63  C   UNL A   1      45.322  30.272  29.745  1.00  0.00     0.031 A 
BRANCH  50  64
ATOM     64  C   UNL A   1      42.464  28.854  34.124  1.00  0.00    -0.014 A 
ATOM     65  C   UNL A   1      42.939  27.641  33.588  1.00  0.00     0.010 A 
ATOM     66  C   UNL A   1      41.942  28.807  35.435  1.00  0.00     0.010 A 
ATOM     67  C   UNL A   1      42.824  26.438  34.298  1.00  0.00     0.020 A 
ATOM     68  C   UNL A   1      41.865  27.625  36.169  1.00  0.00     0.020 A 
ATOM     69  C   UNL A   1      42.275  26.439  35.580  1.00  0.00     0.054 A 
BRANCH  69  70
ATOM     70  S   UNL A   1      42.042  24.874  36.455  1.00  0.00     0.124 S 
ATOM     71  O   UNL A   1      43.304  24.745  37.176  1.00  0.00    -0.237 OA
ATOM     72  O   UNL A   1      40.865  25.153  37.273  1.00  0.00    -0.237 OA
ATOM     73  O   UNL A   1      41.832  23.910  35.377  1.00  0.00    -0.744 OA
ENDBRANCH  69  70
ENDBRANCH  50  64
BRANCH  51  74
ATOM     74  C   UNL A   1      43.592  25.761  26.331  1.00  0.00    -0.014 A 
ATOM     75  C   UNL A   1      44.683  25.442  25.498  1.00  0.00     0.010 A 
ATOM     76  C   UNL A   1      42.732  24.707  26.705  1.00  0.00     0.010 A 
ATOM     77  C   UNL A   1      44.945  24.114  25.119  1.00  0.00     0.020 A 
ATOM     78  C   UNL A   1      42.976  23.385  26.317  1.00  0.00     0.020 A 
ATOM     79  C   UNL A   1      44.099  23.089  25.551  1.00  0.00     0.054 A 
BRANCH  79  80
ATOM     80  S   UNL A   1      44.546  21.359  25.219  1.00  0.00     0.124 S 
ATOM     81  O   UNL A   1      43.617  20.628  26.078  1.00  0.00    -0.237 OA
ATOM     82  O   UNL A   1      44.308  21.239  23.784  1.00  0.00    -0.237 OA
ATOM     83  O   UNL A   1      45.950  21.284  25.620  1.00  0.00    -0.744 OA
ENDBRANCH  79  80
ENDBRANCH  51  74
BRANCH  63  84
ATOM     84  C   UNL A   1      45.834  31.250  28.716  1.00  0.00    -0.014 A 
ATOM     85  C   UNL A   1      45.022  31.978  27.828  1.00  0.00     0.010 A 
ATOM     86  C   UNL A   1      47.212  31.531  28.753  1.00  0.00     0.010 A 
ATOM     87  C   UNL A   1      45.584  32.950  26.986  1.00  0.00     0.020 A 
ATOM     88  C   UNL A   1      47.773  32.511  27.937  1.00  0.00     0.020 A 
ATOM     89  C   UNL A   1      46.958  33.211  27.049  1.00  0.00     0.054 A 
BRANCH  89  90
ATOM     90  S   UNL A   1      47.675  34.508  26.002  1.00  0.00     0.124 S 
ATOM     91  O   UNL A   1      47.844  35.615  26.939  1.00  0.00    -0.237 OA
ATOM     92  O   UNL A   1      48.910  33.895  25.522  1.00  0.00    -0.237 OA
ATOM     93  O   UNL A   1      46.660  34.723  24.971  1.00  0.00    -0.744 OA
ENDBRANCH  89  90
ENDBRANCH  63  84
ENDBRANCH  37  38
ENDBRANCH  30  32
ENDBRANCH  29  30
ENDBRANCH  28  29
ENDBRANCH  27  28
ENDBRANCH  26  27
ENDBRANCH  25  26
ENDBRANCH   1  25
TORSDOF 25
ENDMDL
MODEL 3
REMARK VINA RESULT:      -8.8      1.096      2.082
REMARK SMILES Cc1ccc(OCCn2ccnc2)c(/C=C/C(=O)OCCOCCOCCOC(=O)c2ccc(-c3c4nc(c(-c5ccc(S(=O)(=O)[O-])cc5)c5ccc([nH]5)c(-c5ccc(S(=O)(=O)[O-])cc5)c5nc(c(-c6ccc(S(=O)(=O)[O-])cc6)c6ccc3[nH]6)C=C5)C=C4)cc2)n1
REMARK SMILES IDX 23 1 22 2 21 3 20 4 19 5 17 6 18 7 16 8 15 9 14 10 1 11 2 12
REMARK SMILES IDX 3 13 91 14 4 15 5 16 6 17 7 18 8 19 9 20 10 21 13 22 11 23
REMARK SMILES IDX 12 24 24 25 25 26 26 27 27 28 28 29 29 30 30 31 31 32 32 33
REMARK SMILES IDX 90 34 33 35 89 36 34 37 35 38 36 39 83 40 37 41 88 42 82 43
REMARK SMILES IDX 84 44 38 45 87 46 81 47 80 48 39 50 69 51 50 52 68 53 51 54
REMARK SMILES IDX 54 55 67 56 85 57 52 58 53 59 66 61 86 62 55 63 40 64 41 65
REMARK SMILES IDX 49 66 42 67 48 68 43 69 44 70 45 71 46 72 47 73 70 74 71 75
REMARK SMILES IDX 79 76 72 77 78 78 73 79 74 80 75 81 76 82 77 83 56 84 57 85
REMARK SMILES IDX 65 86 58 87 64 88 59 89 60 90 61 91 62 92 63 93
REMARK H PARENT 84 49 54 60
REMARK Flexibility Score: inf
ROOT
ATOM      1  C   UNL A   1      33.980  33.894  29.417  1.00  0.00     0.188 C 
ENDROOT
BRANCH   1   2
ATOM      2  O   UNL A   1      35.348  33.549  29.568  1.00  0.00    -0.376 OA
BRANCH   2   3
ATOM      3  C   UNL A   1      35.858  32.363  28.976  1.00  0.00     0.202 C 
BRANCH   3   4
ATOM      4  C   UNL A   1      35.309  31.787  27.652  1.00  0.00     0.261 C 
BRANCH   4   5
ATOM      5  O   UNL A   1      34.273  30.800  27.760  1.00  0.00    -0.460 OA
BRANCH   5   6
ATOM      6  C   UNL A   1      34.583  29.551  27.345  1.00  0.00     0.330 C 
ATOM      7  O   UNL A   1      35.646  28.970  27.531  1.00  0.00    -0.247 OA
BRANCH   6   8
ATOM      8  C   UNL A   1      33.423  28.862  26.748  1.00  0.00     0.096 C 
ATOM      9  C   UNL A   1      33.103  28.850  25.442  1.00  0.00     0.040 C 
BRANCH   9  10
ATOM     10  C   UNL A   1      31.858  28.239  24.930  1.00  0.00     0.105 A 
ATOM     11  C   UNL A   1      29.193  29.397  22.653  1.00  0.00     0.067 C 
ATOM     12  C   UNL A   1      30.011  28.496  23.528  1.00  0.00     0.038 A 
ATOM     13  C   UNL A   1      29.624  27.181  23.733  1.00  0.00     0.027 A 
ATOM     14  N   UNL A   1      31.133  29.016  24.079  1.00  0.00    -0.250 NA
ATOM     15  C   UNL A   1      30.362  26.396  24.615  1.00  0.00     0.050 A 
ATOM     16  C   UNL A   1      31.457  26.944  25.284  1.00  0.00     0.145 A 
BRANCH  16  17
ATOM     17  O   UNL A   1      32.132  26.295  26.286  1.00  0.00    -0.489 OA
BRANCH  17  18
ATOM     18  C   UNL A   1      31.794  24.921  26.525  1.00  0.00     0.251 C 
BRANCH  18  19
ATOM     19  C   UNL A   1      32.959  23.945  26.302  1.00  0.00     0.164 C 
BRANCH  19  20
ATOM     20  N   UNL A   1      33.285  23.699  24.910  1.00  0.00    -0.334 N 
ATOM     21  C   UNL A   1      34.489  23.933  24.307  1.00  0.00     0.107 A 
ATOM     22  C   UNL A   1      32.438  23.205  23.959  1.00  0.00     0.199 A 
ATOM     23  C   UNL A   1      34.337  23.474  23.020  1.00  0.00     0.130 A 
ATOM     24  N   UNL A   1      33.054  23.038  22.809  1.00  0.00    -0.245 NA
ENDBRANCH  19  20
ENDBRANCH  18  19
ENDBRANCH  17  18
ENDBRANCH  16  17
ENDBRANCH   9  10
ENDBRANCH   6   8
ENDBRANCH   5   6
ENDBRANCH   4   5
ENDBRANCH   3   4
ENDBRANCH   2   3
ENDBRANCH   1   2
BRANCH   1  25
ATOM     25  C   UNL A   1      33.517  35.345  29.658  1.00  0.00     0.188 C 
BRANCH  25  26
ATOM     26  O   UNL A   1      32.695  35.520  30.793  1.00  0.00    -0.376 OA
BRANCH  26  27
ATOM     27  C   UNL A   1      33.254  35.696  32.083  1.00  0.00     0.202 C 
BRANCH  27  28
ATOM     28  C   UNL A   1      33.280  34.612  33.161  1.00  0.00     0.261 C 
BRANCH  28  29
ATOM     29  O   UNL A   1      33.985  33.421  32.874  1.00  0.00    -0.460 OA
BRANCH  29  30
ATOM     30  C   UNL A   1      35.101  33.263  33.614  1.00  0.00     0.338 C 
ATOM     31  O   UNL A   1      35.280  33.628  34.764  1.00  0.00    -0.246 OA
BRANCH  30  32
ATOM     32  C   UNL A   1      36.141  32.700  32.760  1.00  0.00     0.060 A 
ATOM     33  C   UNL A   1      36.128  31.321  32.541  1.00  0.00     0.016 A 
ATOM     34  C   UNL A   1      37.250  33.501  32.451  1.00  0.00     0.016 A 
ATOM     35  C   UNL A   1      37.300  30.714  32.150  1.00  0.00     0.010 A 
ATOM     36  C   UNL A   1      38.424  32.890  32.088  1.00  0.00     0.010 A 
ATOM     37  C   UNL A   1      38.450  31.499  32.004  1.00  0.00    -0.014 A 
BRANCH  37  38
ATOM     38  C   UNL A   1      39.685  30.840  31.630  1.00  0.00     0.031 A 
ATOM     39  C   UNL A   1      40.622  30.702  32.766  1.00  0.00     0.074 A 
ATOM     40  C   UNL A   1      39.851  30.292  30.411  1.00  0.00     0.049 A 
ATOM     41  N   UNL A   1      41.803  31.208  32.890  1.00  0.00    -0.248 NA
ATOM     42  C   UNL A   1      40.106  30.066  33.994  1.00  0.00     0.031 C 
ATOM     43  C   UNL A   1      38.832  30.157  29.363  1.00  0.00     0.029 A 
ATOM     44  N   UNL A   1      40.913  29.610  29.898  1.00  0.00    -0.354 N 
ATOM     45  C   UNL A   1      42.270  30.736  34.112  1.00  0.00     0.074 A 
ATOM     46  C   UNL A   1      41.124  30.248  34.832  1.00  0.00     0.031 C 
ATOM     47  C   UNL A   1      39.244  29.241  28.460  1.00  0.00     0.029 A 
ATOM     48  C   UNL A   1      40.591  28.815  28.803  1.00  0.00     0.049 A 
ATOM     49  H   UNL A   1      41.824  29.676  30.269  1.00  0.00     0.167 HD
ATOM     50  C   UNL A   1      43.588  30.462  34.299  1.00  0.00     0.031 A 
ATOM     51  C   UNL A   1      41.341  27.812  28.278  1.00  0.00     0.031 A 
ATOM     52  C   UNL A   1      44.409  31.128  33.323  1.00  0.00     0.049 A 
ATOM     53  C   UNL A   1      42.729  27.998  28.764  1.00  0.00     0.074 A 
ATOM     54  C   UNL A   1      44.649  32.442  32.980  1.00  0.00     0.029 A 
ATOM     55  N   UNL A   1      44.840  30.353  32.275  1.00  0.00    -0.354 N 
ATOM     56  N   UNL A   1      43.496  28.992  28.414  1.00  0.00    -0.248 NA
ATOM     57  C   UNL A   1      43.155  27.271  29.951  1.00  0.00     0.031 C 
ATOM     58  C   UNL A   1      44.895  32.427  31.578  1.00  0.00     0.029 A 
ATOM     59  C   UNL A   1      44.850  31.105  31.132  1.00  0.00     0.049 A 
ATOM     60  H   UNL A   1      45.102  29.407  32.337  1.00  0.00     0.167 HD
ATOM     61  C   UNL A   1      44.241  29.278  29.548  1.00  0.00     0.074 A 
ATOM     62  C   UNL A   1      44.092  28.107  30.404  1.00  0.00     0.031 C 
ATOM     63  C   UNL A   1      44.666  30.550  29.804  1.00  0.00     0.031 A 
BRANCH  50  64
ATOM     64  C   UNL A   1      44.054  29.212  35.018  1.00  0.00    -0.014 A 
ATOM     65  C   UNL A   1      44.044  27.989  34.318  1.00  0.00     0.010 A 
ATOM     66  C   UNL A   1      44.207  29.138  36.420  1.00  0.00     0.010 A 
ATOM     67  C   UNL A   1      44.104  26.764  34.995  1.00  0.00     0.020 A 
ATOM     68  C   UNL A   1      44.315  27.926  37.100  1.00  0.00     0.020 A 
ATOM     69  C   UNL A   1      44.227  26.743  36.384  1.00  0.00     0.054 A 
BRANCH  69  70
ATOM     70  S   UNL A   1      44.209  25.162  37.260  1.00  0.00     0.124 S 
ATOM     71  O   UNL A   1      45.432  24.536  36.768  1.00  0.00    -0.237 OA
ATOM     72  O   UNL A   1      44.227  25.586  38.658  1.00  0.00    -0.237 OA
ATOM     73  O   UNL A   1      42.962  24.541  36.819  1.00  0.00    -0.744 OA
ENDBRANCH  69  70
ENDBRANCH  50  64
BRANCH  51  74
ATOM     74  C   UNL A   1      40.882  26.549  27.642  1.00  0.00    -0.014 A 
ATOM     75  C   UNL A   1      41.652  25.929  26.638  1.00  0.00     0.010 A 
ATOM     76  C   UNL A   1      39.830  25.800  28.208  1.00  0.00     0.010 A 
ATOM     77  C   UNL A   1      41.426  24.591  26.270  1.00  0.00     0.020 A 
ATOM     78  C   UNL A   1      39.587  24.473  27.835  1.00  0.00     0.020 A 
ATOM     79  C   UNL A   1      40.406  23.864  26.889  1.00  0.00     0.054 A 
BRANCH  79  80
ATOM     80  S   UNL A   1      40.240  22.085  26.551  1.00  0.00     0.124 S 
ATOM     81  O   UNL A   1      40.392  21.501  27.881  1.00  0.00    -0.237 OA
ATOM     82  O   UNL A   1      38.905  21.996  25.969  1.00  0.00    -0.237 OA
ATOM     83  O   UNL A   1      41.337  21.809  25.624  1.00  0.00    -0.744 OA
ENDBRANCH  79  80
ENDBRANCH  51  74
BRANCH  63  84
ATOM     84  C   UNL A   1      44.766  31.522  28.655  1.00  0.00    -0.014 A 
ATOM     85  C   UNL A   1      45.660  31.398  27.575  1.00  0.00     0.010 A 
ATOM     86  C   UNL A   1      43.802  32.546  28.617  1.00  0.00     0.010 A 
ATOM     87  C   UNL A   1      45.597  32.292  26.495  1.00  0.00     0.020 A 
ATOM     88  C   UNL A   1      43.720  33.422  27.536  1.00  0.00     0.020 A 
ATOM     89  C   UNL A   1      44.623  33.298  26.483  1.00  0.00     0.054 A 
BRANCH  89  90
ATOM     90  S   UNL A   1      44.506  34.416  25.059  1.00  0.00     0.124 S 
ATOM     91  O   UNL A   1      43.080  34.731  25.020  1.00  0.00    -0.237 OA
ATOM     92  O   UNL A   1      45.384  35.520  25.438  1.00  0.00    -0.237 OA
ATOM     93  O   UNL A   1      44.991  33.609  23.941  1.00  0.00    -0.744 OA
ENDBRANCH  89  90
ENDBRANCH  63  84
ENDBRANCH  37  38
ENDBRANCH  30  32
ENDBRANCH  29  30
ENDBRANCH  28  29
ENDBRANCH  27  28
ENDBRANCH  26  27
ENDBRANCH  25  26
ENDBRANCH   1  25
TORSDOF 25
ENDMDL
