MODEL 1
REMARK VINA RESULT:     -10.9      0.000      0.000
REMARK SMILES CC1=C[C@H](C)[C@H](CN2C[C@]34C=C[C@H](O3)[C@H](C(=O)OCCOCCOCCOC(=O)c3ccc(-c5c6nc(c(-c7ccc(S(=O)(=O)[O-])cc7)c7ccc([nH]7)c(-c7ccc(S(=O)(=O)[O-])cc7)c7nc(c(-c8ccc(S(=O)(=O)[O-])cc8)c8ccc5[nH]8)C=C7)C=C6)cc3)[C@@H]4C2=O)[C@H](C)C1
REMARK SMILES IDX 23 1 22 2 21 3 20 4 19 5 18 6 16 7 17 8 15 9 8 10 9 11 91 12
REMARK SMILES IDX 10 13 90 14 92 15 11 16 14 17 12 18 13 19 7 20 6 21 1 22
REMARK SMILES IDX 2 23 3 24 95 25 4 26 93 27 5 28 94 29 24 30 25 31 26 32
REMARK SMILES IDX 27 33 28 34 29 35 30 36 31 37 89 38 32 39 88 40 33 41 34 42
REMARK SMILES IDX 35 43 82 44 36 45 87 46 81 47 83 48 37 49 86 50 80 51 79 52
REMARK SMILES IDX 38 54 68 55 49 56 67 57 50 58 53 59 66 60 84 61 51 62 52 63
REMARK SMILES IDX 65 65 85 66 54 67 39 68 40 69 48 70 41 71 47 72 42 73 43 74
REMARK SMILES IDX 44 75 45 76 46 77 69 78 70 79 78 80 71 81 77 82 72 83 73 84
REMARK SMILES IDX 74 85 75 86 76 87 55 88 56 89 64 90 57 91 63 92 58 93 59 94
REMARK SMILES IDX 60 95 61 96 62 97
REMARK H PARENT 83 53 53 64
REMARK Flexibility Score: inf
ROOT
ATOM      1  C   UNL A   1      34.003  34.083  29.439  1.00  0.00     0.188 C 
ENDROOT
BRANCH   1   2
ATOM      2  C   UNL A   1      34.513  33.499  28.116  1.00  0.00     0.188 C 
BRANCH   2   3
ATOM      3  O   UNL A   1      33.690  32.463  27.602  1.00  0.00    -0.376 OA
BRANCH   3   4
ATOM      4  C   UNL A   1      34.012  31.157  28.072  1.00  0.00     0.202 C 
BRANCH   4   5
ATOM      5  C   UNL A   1      34.134  30.133  26.934  1.00  0.00     0.261 C 
BRANCH   5   6
ATOM      6  O   UNL A   1      32.909  30.008  26.183  1.00  0.00    -0.463 OA
BRANCH   6   7
ATOM      7  C   UNL A   1      32.124  28.907  26.369  1.00  0.00     0.312 C 
ATOM      8  O   UNL A   1      31.477  28.681  27.381  1.00  0.00    -0.252 OA
BRANCH   7   9
ATOM      9  C   UNL A   1      31.923  28.241  25.034  1.00  0.00     0.148 C 
ATOM     10  N   UNL A   1      31.387  24.575  24.943  1.00  0.00    -0.339 N 
ATOM     11  C   UNL A   1      31.136  25.002  23.596  1.00  0.00     0.160 C 
ATOM     12  C   UNL A   1      31.217  25.746  25.792  1.00  0.00     0.230 C 
ATOM     13  C   UNL A   1      31.716  26.388  23.651  1.00  0.00     0.117 C 
ATOM     14  C   UNL A   1      31.039  26.993  24.880  1.00  0.00     0.133 C 
ATOM     15  O   UNL A   1      31.337  25.758  27.006  1.00  0.00    -0.274 OA
ATOM     16  C   UNL A   1      31.977  27.222  22.439  1.00  0.00     0.009 C 
ATOM     17  O   UNL A   1      33.092  26.426  24.206  1.00  0.00    -0.360 OA
ATOM     18  C   UNL A   1      32.981  28.044  22.785  1.00  0.00     0.004 C 
ATOM     19  C   UNL A   1      33.210  27.852  24.260  1.00  0.00     0.157 C 
BRANCH  10  20
ATOM     20  C   UNL A   1      32.535  23.721  25.285  1.00  0.00     0.124 C 
BRANCH  20  21
ATOM     21  C   UNL A   1      33.541  23.125  24.227  1.00  0.00     0.018 C 
ATOM     22  C   UNL A   1      37.331  20.775  24.874  1.00  0.00     0.039 C 
ATOM     23  C   UNL A   1      36.063  21.461  24.466  1.00  0.00    -0.077 C 
ATOM     24  C   UNL A   1      36.082  22.607  23.767  1.00  0.00    -0.025 C 
ATOM     25  C   UNL A   1      34.773  20.980  25.064  1.00  0.00     0.034 C 
ATOM     26  C   UNL A   1      35.035  23.652  24.105  1.00  0.00     0.014 C 
ATOM     27  C   UNL A   1      33.554  21.543  24.295  1.00  0.00    -0.005 C 
ATOM     28  C   UNL A   1      35.683  24.276  25.353  1.00  0.00     0.012 C 
ATOM     29  C   UNL A   1      32.282  20.880  24.831  1.00  0.00     0.008 C 
ENDBRANCH  20  21
ENDBRANCH  10  20
ENDBRANCH   7   9
ENDBRANCH   6   7
ENDBRANCH   5   6
ENDBRANCH   4   5
ENDBRANCH   3   4
ENDBRANCH   2   3
ENDBRANCH   1   2
BRANCH   1  30
ATOM     30  O   UNL A   1      34.883  34.377  30.512  1.00  0.00    -0.376 OA
BRANCH  30  31
ATOM     31  C   UNL A   1      34.799  33.575  31.680  1.00  0.00     0.202 C 
BRANCH  31  32
ATOM     32  C   UNL A   1      35.166  32.092  31.552  1.00  0.00     0.261 C 
BRANCH  32  33
ATOM     33  O   UNL A   1      36.336  31.845  30.751  1.00  0.00    -0.460 OA
BRANCH  33  34
ATOM     34  C   UNL A   1      36.699  30.545  30.652  1.00  0.00     0.338 C 
ATOM     35  O   UNL A   1      35.960  29.565  30.721  1.00  0.00    -0.246 OA
BRANCH  34  36
ATOM     36  C   UNL A   1      38.112  30.427  30.250  1.00  0.00     0.060 A 
ATOM     37  C   UNL A   1      38.388  30.131  28.907  1.00  0.00     0.016 A 
ATOM     38  C   UNL A   1      39.149  30.513  31.181  1.00  0.00     0.016 A 
ATOM     39  C   UNL A   1      39.697  29.885  28.495  1.00  0.00     0.010 A 
ATOM     40  C   UNL A   1      40.461  30.240  30.770  1.00  0.00     0.010 A 
ATOM     41  C   UNL A   1      40.736  29.893  29.434  1.00  0.00    -0.014 A 
BRANCH  41  42
ATOM     42  C   UNL A   1      42.067  29.354  29.054  1.00  0.00     0.031 A 
ATOM     43  C   UNL A   1      43.251  30.284  29.061  1.00  0.00     0.074 A 
ATOM     44  C   UNL A   1      42.234  28.058  28.734  1.00  0.00     0.049 A 
ATOM     45  N   UNL A   1      44.495  30.045  28.738  1.00  0.00    -0.248 NA
ATOM     46  C   UNL A   1      42.996  31.668  29.496  1.00  0.00     0.031 C 
ATOM     47  C   UNL A   1      41.184  27.041  28.739  1.00  0.00     0.029 A 
ATOM     48  N   UNL A   1      43.359  27.380  28.335  1.00  0.00    -0.354 N 
ATOM     49  C   UNL A   1      45.171  31.246  28.922  1.00  0.00     0.074 A 
ATOM     50  C   UNL A   1      44.195  32.216  29.367  1.00  0.00     0.031 C 
ATOM     51  C   UNL A   1      41.713  25.868  28.346  1.00  0.00     0.029 A 
ATOM     52  C   UNL A   1      43.129  26.060  28.034  1.00  0.00     0.049 A 
ATOM     53  H   UNL A   1      44.246  27.801  28.271  1.00  0.00     0.167 HD
ATOM     54  C   UNL A   1      46.484  31.519  28.738  1.00  0.00     0.031 A 
ATOM     55  C   UNL A   1      43.960  25.117  27.542  1.00  0.00     0.031 A 
ATOM     56  C   UNL A   1      47.455  30.564  28.273  1.00  0.00     0.049 A 
ATOM     57  C   UNL A   1      45.402  25.465  27.267  1.00  0.00     0.074 A 
ATOM     58  C   UNL A   1      48.809  30.749  28.057  1.00  0.00     0.029 A 
ATOM     59  N   UNL A   1      47.173  29.248  27.943  1.00  0.00    -0.354 N 
ATOM     60  N   UNL A   1      46.027  26.602  27.460  1.00  0.00    -0.248 NA
ATOM     61  C   UNL A   1      46.248  24.399  26.713  1.00  0.00     0.031 C 
ATOM     62  C   UNL A   1      49.338  29.557  27.550  1.00  0.00     0.029 A 
ATOM     63  C   UNL A   1      48.323  28.615  27.504  1.00  0.00     0.049 A 
ATOM     64  H   UNL A   1      46.286  28.826  28.012  1.00  0.00     0.167 HD
ATOM     65  C   UNL A   1      47.346  26.378  27.077  1.00  0.00     0.074 A 
ATOM     66  C   UNL A   1      47.430  24.997  26.651  1.00  0.00     0.031 C 
ATOM     67  C   UNL A   1      48.394  27.239  27.082  1.00  0.00     0.031 A 
BRANCH  54  68
ATOM     68  C   UNL A   1      46.938  32.928  29.003  1.00  0.00    -0.014 A 
ATOM     69  C   UNL A   1      47.365  33.325  30.283  1.00  0.00     0.010 A 
ATOM     70  C   UNL A   1      46.960  33.862  27.951  1.00  0.00     0.010 A 
ATOM     71  C   UNL A   1      47.767  34.643  30.514  1.00  0.00     0.020 A 
ATOM     72  C   UNL A   1      47.384  35.175  28.174  1.00  0.00     0.020 A 
ATOM     73  C   UNL A   1      47.769  35.561  29.459  1.00  0.00     0.054 A 
BRANCH  73  74
ATOM     74  S   UNL A   1      48.306  37.263  29.784  1.00  0.00     0.124 S 
ATOM     75  O   UNL A   1      47.226  38.040  29.182  1.00  0.00    -0.237 OA
ATOM     76  O   UNL A   1      48.373  37.306  31.243  1.00  0.00    -0.237 OA
ATOM     77  O   UNL A   1      49.595  37.354  29.103  1.00  0.00    -0.744 OA
ENDBRANCH  73  74
ENDBRANCH  54  68
BRANCH  55  78
ATOM     78  C   UNL A   1      43.447  23.751  27.252  1.00  0.00    -0.014 A 
ATOM     79  C   UNL A   1      43.114  22.872  28.296  1.00  0.00     0.010 A 
ATOM     80  C   UNL A   1      43.301  23.319  25.921  1.00  0.00     0.010 A 
ATOM     81  C   UNL A   1      42.658  21.580  28.017  1.00  0.00     0.020 A 
ATOM     82  C   UNL A   1      42.821  22.037  25.637  1.00  0.00     0.020 A 
ATOM     83  C   UNL A   1      42.514  21.172  26.689  1.00  0.00     0.054 A 
BRANCH  83  84
ATOM     84  S   UNL A   1      41.870  19.510  26.347  1.00  0.00     0.124 S 
ATOM     85  O   UNL A   1      42.561  19.168  25.107  1.00  0.00    -0.237 OA
ATOM     86  O   UNL A   1      42.285  18.762  27.531  1.00  0.00    -0.237 OA
ATOM     87  O   UNL A   1      40.430  19.722  26.226  1.00  0.00    -0.744 OA
ENDBRANCH  83  84
ENDBRANCH  55  78
BRANCH  67  88
ATOM     88  C   UNL A   1      49.736  26.707  26.652  1.00  0.00    -0.014 A 
ATOM     89  C   UNL A   1      50.582  26.039  27.554  1.00  0.00     0.010 A 
ATOM     90  C   UNL A   1      50.130  26.830  25.306  1.00  0.00     0.010 A 
ATOM     91  C   UNL A   1      51.812  25.531  27.126  1.00  0.00     0.020 A 
ATOM     92  C   UNL A   1      51.348  26.302  24.869  1.00  0.00     0.020 A 
ATOM     93  C   UNL A   1      52.189  25.668  25.786  1.00  0.00     0.054 A 
BRANCH  93  94
ATOM     94  S   UNL A   1      53.771  24.966  25.243  1.00  0.00     0.124 S 
ATOM     95  O   UNL A   1      53.420  23.566  25.020  1.00  0.00    -0.237 OA
ATOM     96  O   UNL A   1      54.070  25.738  24.039  1.00  0.00    -0.237 OA
ATOM     97  O   UNL A   1      54.665  25.213  26.370  1.00  0.00    -0.744 OA
ENDBRANCH  93  94
ENDBRANCH  67  88
ENDBRANCH  41  42
ENDBRANCH  34  36
ENDBRANCH  33  34
ENDBRANCH  32  33
ENDBRANCH  31  32
ENDBRANCH  30  31
ENDBRANCH   1  30
TORSDOF 22
ENDMDL
MODEL 2
REMARK VINA RESULT:      -9.8      4.318     10.712
REMARK SMILES CC1=C[C@H](C)[C@H](CN2C[C@]34C=C[C@H](O3)[C@H](C(=O)OCCOCCOCCOC(=O)c3ccc(-c5c6nc(c(-c7ccc(S(=O)(=O)[O-])cc7)c7ccc([nH]7)c(-c7ccc(S(=O)(=O)[O-])cc7)c7nc(c(-c8ccc(S(=O)(=O)[O-])cc8)c8ccc5[nH]8)C=C7)C=C6)cc3)[C@@H]4C2=O)[C@H](C)C1
REMARK SMILES IDX 23 1 22 2 21 3 20 4 19 5 18 6 16 7 17 8 15 9 8 10 9 11 91 12
REMARK SMILES IDX 10 13 90 14 92 15 11 16 14 17 12 18 13 19 7 20 6 21 1 22
REMARK SMILES IDX 2 23 3 24 95 25 4 26 93 27 5 28 94 29 24 30 25 31 26 32
REMARK SMILES IDX 27 33 28 34 29 35 30 36 31 37 89 38 32 39 88 40 33 41 34 42
REMARK SMILES IDX 35 43 82 44 36 45 87 46 81 47 83 48 37 49 86 50 80 51 79 52
REMARK SMILES IDX 38 54 68 55 49 56 67 57 50 58 53 59 66 60 84 61 51 62 52 63
REMARK SMILES IDX 65 65 85 66 54 67 39 68 40 69 48 70 41 71 47 72 42 73 43 74
REMARK SMILES IDX 44 75 45 76 46 77 69 78 70 79 78 80 71 81 77 82 72 83 73 84
REMARK SMILES IDX 74 85 75 86 76 87 55 88 56 89 64 90 57 91 63 92 58 93 59 94
REMARK SMILES IDX 60 95 61 96 62 97
REMARK H PARENT 83 53 53 64
REMARK Flexibility Score: inf
ROOT
ATOM      1  C   UNL A   1      34.607  33.910  32.963  1.00  0.00     0.188 C 
ENDROOT
BRANCH   1   2
ATOM      2  C   UNL A   1      35.583  33.416  34.037  1.00  0.00     0.188 C 
BRANCH   2   3
ATOM      3  O   UNL A   1      36.741  32.790  33.503  1.00  0.00    -0.376 OA
BRANCH   3   4
ATOM      4  C   UNL A   1      37.361  31.844  34.370  1.00  0.00     0.202 C 
BRANCH   4   5
ATOM      5  C   UNL A   1      38.811  32.216  34.709  1.00  0.00     0.261 C 
BRANCH   5   6
ATOM      6  O   UNL A   1      39.754  31.266  34.172  1.00  0.00    -0.463 OA
BRANCH   6   7
ATOM      7  C   UNL A   1      40.708  30.739  34.993  1.00  0.00     0.312 C 
ATOM      8  O   UNL A   1      40.478  30.202  36.066  1.00  0.00    -0.252 OA
BRANCH   7   9
ATOM      9  C   UNL A   1      41.989  30.620  34.210  1.00  0.00     0.148 C 
ATOM     10  N   UNL A   1      43.024  27.273  33.001  1.00  0.00    -0.339 N 
ATOM     11  C   UNL A   1      43.945  28.175  32.373  1.00  0.00     0.160 C 
ATOM     12  C   UNL A   1      41.852  28.057  33.365  1.00  0.00     0.230 C 
ATOM     13  C   UNL A   1      43.687  29.415  33.183  1.00  0.00     0.117 C 
ATOM     14  C   UNL A   1      42.167  29.559  33.112  1.00  0.00     0.133 C 
ATOM     15  O   UNL A   1      40.852  27.617  33.908  1.00  0.00    -0.274 OA
ATOM     16  C   UNL A   1      44.567  30.622  33.148  1.00  0.00     0.009 C 
ATOM     17  O   UNL A   1      43.746  29.181  34.647  1.00  0.00    -0.360 OA
ATOM     18  C   UNL A   1      44.407  31.211  34.345  1.00  0.00     0.004 C 
ATOM     19  C   UNL A   1      43.291  30.480  35.042  1.00  0.00     0.157 C 
BRANCH  10  20
ATOM     20  C   UNL A   1      43.460  26.299  34.014  1.00  0.00     0.124 C 
BRANCH  20  21
ATOM     21  C   UNL A   1      43.609  24.751  33.748  1.00  0.00     0.018 C 
ATOM     22  C   UNL A   1      45.944  21.655  36.042  1.00  0.00     0.039 C 
ATOM     23  C   UNL A   1      45.045  22.520  35.213  1.00  0.00    -0.077 C 
ATOM     24  C   UNL A   1      45.276  22.719  33.905  1.00  0.00    -0.025 C 
ATOM     25  C   UNL A   1      44.023  23.363  35.920  1.00  0.00     0.034 C 
ATOM     26  C   UNL A   1      45.003  24.104  33.347  1.00  0.00     0.014 C 
ATOM     27  C   UNL A   1      42.970  23.914  34.930  1.00  0.00    -0.005 C 
ATOM     28  C   UNL A   1      46.288  24.823  33.795  1.00  0.00     0.012 C 
ATOM     29  C   UNL A   1      41.860  24.609  35.725  1.00  0.00     0.008 C 
ENDBRANCH  20  21
ENDBRANCH  10  20
ENDBRANCH   7   9
ENDBRANCH   6   7
ENDBRANCH   5   6
ENDBRANCH   4   5
ENDBRANCH   3   4
ENDBRANCH   2   3
ENDBRANCH   1   2
BRANCH   1  30
ATOM     30  O   UNL A   1      34.125  33.052  31.943  1.00  0.00    -0.376 OA
BRANCH  30  31
ATOM     31  C   UNL A   1      34.494  33.338  30.602  1.00  0.00     0.202 C 
BRANCH  31  32
ATOM     32  C   UNL A   1      35.861  32.841  30.119  1.00  0.00     0.261 C 
BRANCH  32  33
ATOM     33  O   UNL A   1      35.869  31.462  29.705  1.00  0.00    -0.460 OA
BRANCH  33  34
ATOM     34  C   UNL A   1      36.353  30.592  30.622  1.00  0.00     0.338 C 
ATOM     35  O   UNL A   1      35.780  30.191  31.633  1.00  0.00    -0.246 OA
BRANCH  34  36
ATOM     36  C   UNL A   1      37.626  30.006  30.164  1.00  0.00     0.060 A 
ATOM     37  C   UNL A   1      38.432  29.368  31.118  1.00  0.00     0.016 A 
ATOM     38  C   UNL A   1      38.070  30.153  28.849  1.00  0.00     0.016 A 
ATOM     39  C   UNL A   1      39.701  28.906  30.771  1.00  0.00     0.010 A 
ATOM     40  C   UNL A   1      39.356  29.710  28.509  1.00  0.00     0.010 A 
ATOM     41  C   UNL A   1      40.188  29.116  29.476  1.00  0.00    -0.014 A 
BRANCH  41  42
ATOM     42  C   UNL A   1      41.628  28.886  29.191  1.00  0.00     0.031 A 
ATOM     43  C   UNL A   1      42.059  27.529  28.700  1.00  0.00     0.074 A 
ATOM     44  C   UNL A   1      42.537  29.866  29.338  1.00  0.00     0.049 A 
ATOM     45  N   UNL A   1      43.259  27.092  28.419  1.00  0.00    -0.248 NA
ATOM     46  C   UNL A   1      40.991  26.536  28.495  1.00  0.00     0.031 C 
ATOM     47  C   UNL A   1      42.247  31.237  29.754  1.00  0.00     0.029 A 
ATOM     48  N   UNL A   1      43.898  29.849  29.157  1.00  0.00    -0.354 N 
ATOM     49  C   UNL A   1      43.094  25.773  28.011  1.00  0.00     0.074 A 
ATOM     50  C   UNL A   1      41.682  25.476  28.100  1.00  0.00     0.031 C 
ATOM     51  C   UNL A   1      43.400  31.928  29.809  1.00  0.00     0.029 A 
ATOM     52  C   UNL A   1      44.510  31.040  29.462  1.00  0.00     0.049 A 
ATOM     53  H   UNL A   1      44.388  29.058  28.836  1.00  0.00     0.167 HD
ATOM     54  C   UNL A   1      44.032  24.888  27.601  1.00  0.00     0.031 A 
ATOM     55  C   UNL A   1      45.818  31.372  29.482  1.00  0.00     0.031 A 
ATOM     56  C   UNL A   1      45.441  25.169  27.533  1.00  0.00     0.049 A 
ATOM     57  C   UNL A   1      46.853  30.344  29.099  1.00  0.00     0.074 A 
ATOM     58  C   UNL A   1      46.468  24.334  27.128  1.00  0.00     0.029 A 
ATOM     59  N   UNL A   1      46.023  26.375  27.888  1.00  0.00    -0.354 N 
ATOM     60  N   UNL A   1      46.678  29.106  28.702  1.00  0.00    -0.248 NA
ATOM     61  C   UNL A   1      48.260  30.764  29.162  1.00  0.00     0.031 C 
ATOM     62  C   UNL A   1      47.677  25.021  27.284  1.00  0.00     0.029 A 
ATOM     63  C   UNL A   1      47.397  26.301  27.734  1.00  0.00     0.049 A 
ATOM     64  H   UNL A   1      45.532  27.169  28.204  1.00  0.00     0.167 HD
ATOM     65  C   UNL A   1      47.952  28.609  28.442  1.00  0.00     0.074 A 
ATOM     66  C   UNL A   1      48.885  29.682  28.716  1.00  0.00     0.031 C 
ATOM     67  C   UNL A   1      48.315  27.376  28.010  1.00  0.00     0.031 A 
BRANCH  54  68
ATOM     68  C   UNL A   1      43.561  23.508  27.230  1.00  0.00    -0.014 A 
ATOM     69  C   UNL A   1      43.153  22.590  28.215  1.00  0.00     0.010 A 
ATOM     70  C   UNL A   1      43.503  23.133  25.875  1.00  0.00     0.010 A 
ATOM     71  C   UNL A   1      42.735  21.307  27.852  1.00  0.00     0.020 A 
ATOM     72  C   UNL A   1      43.062  21.858  25.508  1.00  0.00     0.020 A 
ATOM     73  C   UNL A   1      42.697  20.948  26.502  1.00  0.00     0.054 A 
BRANCH  73  74
ATOM     74  S   UNL A   1      42.139  19.280  26.058  1.00  0.00     0.124 S 
ATOM     75  O   UNL A   1      42.916  19.014  24.851  1.00  0.00    -0.237 OA
ATOM     76  O   UNL A   1      42.511  18.493  27.231  1.00  0.00    -0.237 OA
ATOM     77  O   UNL A   1      40.701  19.440  25.851  1.00  0.00    -0.744 OA
ENDBRANCH  73  74
ENDBRANCH  54  68
BRANCH  55  78
ATOM     78  C   UNL A   1      46.233  32.738  29.904  1.00  0.00    -0.014 A 
ATOM     79  C   UNL A   1      46.468  33.742  28.951  1.00  0.00     0.010 A 
ATOM     80  C   UNL A   1      46.406  33.034  31.268  1.00  0.00     0.010 A 
ATOM     81  C   UNL A   1      46.884  35.016  29.352  1.00  0.00     0.020 A 
ATOM     82  C   UNL A   1      46.797  34.312  31.675  1.00  0.00     0.020 A 
ATOM     83  C   UNL A   1      47.045  35.292  30.712  1.00  0.00     0.054 A 
BRANCH  83  84
ATOM     84  S   UNL A   1      47.534  36.966  31.215  1.00  0.00     0.124 S 
ATOM     85  O   UNL A   1      48.987  36.907  31.088  1.00  0.00    -0.237 OA
ATOM     86  O   UNL A   1      46.845  37.803  30.236  1.00  0.00    -0.237 OA
ATOM     87  O   UNL A   1      47.027  37.072  32.581  1.00  0.00    -0.744 OA
ENDBRANCH  83  84
ENDBRANCH  55  78
BRANCH  67  88
ATOM     88  C   UNL A   1      49.780  27.126  27.767  1.00  0.00    -0.014 A 
ATOM     89  C   UNL A   1      50.377  27.419  26.528  1.00  0.00     0.010 A 
ATOM     90  C   UNL A   1      50.584  26.640  28.815  1.00  0.00     0.010 A 
ATOM     91  C   UNL A   1      51.744  27.203  26.332  1.00  0.00     0.020 A 
ATOM     92  C   UNL A   1      51.956  26.445  28.632  1.00  0.00     0.020 A 
ATOM     93  C   UNL A   1      52.525  26.714  27.385  1.00  0.00     0.054 A 
BRANCH  93  94
ATOM     94  S   UNL A   1      54.304  26.479  27.123  1.00  0.00     0.124 S 
ATOM     95  O   UNL A   1      54.389  25.040  26.892  1.00  0.00    -0.237 OA
ATOM     96  O   UNL A   1      54.573  27.319  25.958  1.00  0.00    -0.237 OA
ATOM     97  O   UNL A   1      54.903  26.947  28.371  1.00  0.00    -0.744 OA
ENDBRANCH  93  94
ENDBRANCH  67  88
ENDBRANCH  41  42
ENDBRANCH  34  36
ENDBRANCH  33  34
ENDBRANCH  32  33
ENDBRANCH  31  32
ENDBRANCH  30  31
ENDBRANCH   1  30
TORSDOF 22
ENDMDL
MODEL 3
REMARK VINA RESULT:      -9.7      5.885     13.866
REMARK SMILES CC1=C[C@H](C)[C@H](CN2C[C@]34C=C[C@H](O3)[C@H](C(=O)OCCOCCOCCOC(=O)c3ccc(-c5c6nc(c(-c7ccc(S(=O)(=O)[O-])cc7)c7ccc([nH]7)c(-c7ccc(S(=O)(=O)[O-])cc7)c7nc(c(-c8ccc(S(=O)(=O)[O-])cc8)c8ccc5[nH]8)C=C7)C=C6)cc3)[C@@H]4C2=O)[C@H](C)C1
REMARK SMILES IDX 23 1 22 2 21 3 20 4 19 5 18 6 16 7 17 8 15 9 8 10 9 11 91 12
REMARK SMILES IDX 10 13 90 14 92 15 11 16 14 17 12 18 13 19 7 20 6 21 1 22
REMARK SMILES IDX 2 23 3 24 95 25 4 26 93 27 5 28 94 29 24 30 25 31 26 32
REMARK SMILES IDX 27 33 28 34 29 35 30 36 31 37 89 38 32 39 88 40 33 41 34 42
REMARK SMILES IDX 35 43 82 44 36 45 87 46 81 47 83 48 37 49 86 50 80 51 79 52
REMARK SMILES IDX 38 54 68 55 49 56 67 57 50 58 53 59 66 60 84 61 51 62 52 63
REMARK SMILES IDX 65 65 85 66 54 67 39 68 40 69 48 70 41 71 47 72 42 73 43 74
REMARK SMILES IDX 44 75 45 76 46 77 69 78 70 79 78 80 71 81 77 82 72 83 73 84
REMARK SMILES IDX 74 85 75 86 76 87 55 88 56 89 64 90 57 91 63 92 58 93 59 94
REMARK SMILES IDX 60 95 61 96 62 97
REMARK H PARENT 83 53 53 64
REMARK Flexibility Score: inf
ROOT
ATOM      1  C   UNL A   1      42.238  21.676  26.520  1.00  0.00     0.188 C 
ENDROOT
BRANCH   1   2
ATOM      2  C   UNL A   1      42.750  22.588  25.400  1.00  0.00     0.188 C 
BRANCH   2   3
ATOM      3  O   UNL A   1      43.781  22.001  24.620  1.00  0.00    -0.376 OA
BRANCH   3   4
ATOM      4  C   UNL A   1      45.044  22.654  24.711  1.00  0.00     0.202 C 
BRANCH   4   5
ATOM      5  C   UNL A   1      45.815  22.275  25.984  1.00  0.00     0.261 C 
BRANCH   5   6
ATOM      6  O   UNL A   1      45.783  23.325  26.971  1.00  0.00    -0.463 OA
BRANCH   6   7
ATOM      7  C   UNL A   1      46.759  24.279  26.960  1.00  0.00     0.312 C 
ATOM      8  O   UNL A   1      47.935  24.068  27.218  1.00  0.00    -0.252 OA
BRANCH   7   9
ATOM      9  C   UNL A   1      46.222  25.496  26.256  1.00  0.00     0.148 C 
ATOM     10  N   UNL A   1      46.819  28.827  27.769  1.00  0.00    -0.339 N 
ATOM     11  C   UNL A   1      46.257  29.119  26.481  1.00  0.00     0.160 C 
ATOM     12  C   UNL A   1      47.366  27.480  27.690  1.00  0.00     0.230 C 
ATOM     13  C   UNL A   1      45.729  27.761  26.114  1.00  0.00     0.117 C 
ATOM     14  C   UNL A   1      46.939  26.854  26.332  1.00  0.00     0.133 C 
ATOM     15  O   UNL A   1      47.940  26.899  28.597  1.00  0.00    -0.274 OA
ATOM     16  C   UNL A   1      44.794  27.518  24.974  1.00  0.00     0.009 C 
ATOM     17  O   UNL A   1      44.892  27.149  27.176  1.00  0.00    -0.360 OA
ATOM     18  C   UNL A   1      44.107  26.414  25.308  1.00  0.00     0.004 C 
ATOM     19  C   UNL A   1      44.746  25.867  26.556  1.00  0.00     0.157 C 
BRANCH  10  20
ATOM     20  C   UNL A   1      46.102  29.135  29.017  1.00  0.00     0.124 C 
BRANCH  20  21
ATOM     21  C   UNL A   1      46.190  30.518  29.769  1.00  0.00     0.018 C 
ATOM     22  C   UNL A   1      43.316  32.382  32.697  1.00  0.00     0.039 C 
ATOM     23  C   UNL A   1      44.421  31.885  31.817  1.00  0.00    -0.077 C 
ATOM     24  C   UNL A   1      44.763  32.530  30.690  1.00  0.00    -0.025 C 
ATOM     25  C   UNL A   1      44.979  30.516  32.082  1.00  0.00     0.034 C 
ATOM     26  C   UNL A   1      45.153  31.688  29.489  1.00  0.00     0.014 C 
ATOM     27  C   UNL A   1      46.314  30.299  31.333  1.00  0.00    -0.005 C 
ATOM     28  C   UNL A   1      43.754  31.305  28.975  1.00  0.00     0.012 C 
ATOM     29  C   UNL A   1      46.922  28.967  31.781  1.00  0.00     0.008 C 
ENDBRANCH  20  21
ENDBRANCH  10  20
ENDBRANCH   7   9
ENDBRANCH   6   7
ENDBRANCH   5   6
ENDBRANCH   4   5
ENDBRANCH   3   4
ENDBRANCH   2   3
ENDBRANCH   1   2
BRANCH   1  30
ATOM     30  O   UNL A   1      40.854  21.428  26.705  1.00  0.00    -0.376 OA
BRANCH  30  31
ATOM     31  C   UNL A   1      40.039  22.501  27.152  1.00  0.00     0.202 C 
BRANCH  31  32
ATOM     32  C   UNL A   1      39.169  23.215  26.111  1.00  0.00     0.261 C 
BRANCH  32  33
ATOM     33  O   UNL A   1      38.999  24.623  26.358  1.00  0.00    -0.460 OA
BRANCH  33  34
ATOM     34  C   UNL A   1      40.130  25.360  26.269  1.00  0.00     0.338 C 
ATOM     35  O   UNL A   1      40.835  25.515  25.274  1.00  0.00    -0.246 OA
BRANCH  34  36
ATOM     36  C   UNL A   1      40.338  26.145  27.500  1.00  0.00     0.060 A 
ATOM     37  C   UNL A   1      39.425  25.969  28.550  1.00  0.00     0.016 A 
ATOM     38  C   UNL A   1      41.350  27.102  27.597  1.00  0.00     0.016 A 
ATOM     39  C   UNL A   1      39.498  26.772  29.687  1.00  0.00     0.010 A 
ATOM     40  C   UNL A   1      41.405  27.926  28.731  1.00  0.00     0.010 A 
ATOM     41  C   UNL A   1      40.460  27.786  29.764  1.00  0.00    -0.014 A 
BRANCH  41  42
ATOM     42  C   UNL A   1      40.354  28.814  30.831  1.00  0.00     0.031 A 
ATOM     43  C   UNL A   1      41.271  28.715  32.021  1.00  0.00     0.074 A 
ATOM     44  C   UNL A   1      39.481  29.833  30.739  1.00  0.00     0.049 A 
ATOM     45  N   UNL A   1      41.336  29.477  33.083  1.00  0.00    -0.248 NA
ATOM     46  C   UNL A   1      42.247  27.613  32.008  1.00  0.00     0.031 C 
ATOM     47  C   UNL A   1      38.575  30.076  29.617  1.00  0.00     0.029 A 
ATOM     48  N   UNL A   1      39.213  30.855  31.616  1.00  0.00    -0.354 N 
ATOM     49  C   UNL A   1      42.351  28.944  33.868  1.00  0.00     0.074 A 
ATOM     50  C   UNL A   1      42.862  27.784  33.170  1.00  0.00     0.031 C 
ATOM     51  C   UNL A   1      37.840  31.172  29.882  1.00  0.00     0.029 A 
ATOM     52  C   UNL A   1      38.202  31.687  31.202  1.00  0.00     0.049 A 
ATOM     53  H   UNL A   1      39.701  30.979  32.462  1.00  0.00     0.167 HD
ATOM     54  C   UNL A   1      42.819  29.378  35.062  1.00  0.00     0.031 A 
ATOM     55  C   UNL A   1      37.619  32.733  31.824  1.00  0.00     0.031 A 
ATOM     56  C   UNL A   1      42.300  30.516  35.773  1.00  0.00     0.049 A 
ATOM     57  C   UNL A   1      38.102  33.149  33.191  1.00  0.00     0.074 A 
ATOM     58  C   UNL A   1      42.711  31.032  36.989  1.00  0.00     0.029 A 
ATOM     59  N   UNL A   1      41.251  31.308  35.336  1.00  0.00    -0.354 N 
ATOM     60  N   UNL A   1      39.073  32.643  33.912  1.00  0.00    -0.248 NA
ATOM     61  C   UNL A   1      37.411  34.283  33.823  1.00  0.00     0.031 C 
ATOM     62  C   UNL A   1      41.878  32.108  37.311  1.00  0.00     0.029 A 
ATOM     63  C   UNL A   1      40.984  32.296  36.269  1.00  0.00     0.049 A 
ATOM     64  H   UNL A   1      40.766  31.186  34.488  1.00  0.00     0.167 HD
ATOM     65  C   UNL A   1      39.127  33.414  35.070  1.00  0.00     0.074 A 
ATOM     66  C   UNL A   1      38.098  34.425  34.948  1.00  0.00     0.031 C 
ATOM     67  C   UNL A   1      39.957  33.297  36.136  1.00  0.00     0.031 A 
BRANCH  54  68
ATOM     68  C   UNL A   1      43.929  28.585  35.696  1.00  0.00    -0.014 A 
ATOM     69  C   UNL A   1      45.278  28.918  35.475  1.00  0.00     0.010 A 
ATOM     70  C   UNL A   1      43.619  27.506  36.543  1.00  0.00     0.010 A 
ATOM     71  C   UNL A   1      46.296  28.160  36.058  1.00  0.00     0.020 A 
ATOM     72  C   UNL A   1      44.635  26.760  37.147  1.00  0.00     0.020 A 
ATOM     73  C   UNL A   1      45.968  27.082  36.887  1.00  0.00     0.054 A 
BRANCH  73  74
ATOM     74  S   UNL A   1      47.309  26.122  37.641  1.00  0.00     0.124 S 
ATOM     75  O   UNL A   1      47.503  25.056  36.661  1.00  0.00    -0.237 OA
ATOM     76  O   UNL A   1      48.392  27.097  37.731  1.00  0.00    -0.237 OA
ATOM     77  O   UNL A   1      46.751  25.696  38.922  1.00  0.00    -0.744 OA
ENDBRANCH  73  74
ENDBRANCH  54  68
BRANCH  55  78
ATOM     78  C   UNL A   1      36.491  33.452  31.173  1.00  0.00    -0.014 A 
ATOM     79  C   UNL A   1      36.617  33.949  29.865  1.00  0.00     0.010 A 
ATOM     80  C   UNL A   1      35.285  33.654  31.868  1.00  0.00     0.010 A 
ATOM     81  C   UNL A   1      35.563  34.648  29.268  1.00  0.00     0.020 A 
ATOM     82  C   UNL A   1      34.220  34.329  31.266  1.00  0.00     0.020 A 
ATOM     83  C   UNL A   1      34.371  34.832  29.973  1.00  0.00     0.054 A 
BRANCH  83  84
ATOM     84  S   UNL A   1      32.997  35.695  29.161  1.00  0.00     0.124 S 
ATOM     85  O   UNL A   1      32.402  34.629  28.361  1.00  0.00    -0.237 OA
ATOM     86  O   UNL A   1      32.201  36.156  30.296  1.00  0.00    -0.237 OA
ATOM     87  O   UNL A   1      33.660  36.754  28.403  1.00  0.00    -0.744 OA
ENDBRANCH  83  84
ENDBRANCH  55  78
BRANCH  67  88
ATOM     88  C   UNL A   1      39.819  34.310  37.242  1.00  0.00    -0.014 A 
ATOM     89  C   UNL A   1      39.122  34.010  38.425  1.00  0.00     0.010 A 
ATOM     90  C   UNL A   1      40.446  35.564  37.115  1.00  0.00     0.010 A 
ATOM     91  C   UNL A   1      39.028  34.957  39.450  1.00  0.00     0.020 A 
ATOM     92  C   UNL A   1      40.376  36.504  38.147  1.00  0.00     0.020 A 
ATOM     93  C   UNL A   1      39.653  36.200  39.303  1.00  0.00     0.054 A 
BRANCH  93  94
ATOM     94  S   UNL A   1      39.554  37.399  40.660  1.00  0.00     0.124 S 
ATOM     95  O   UNL A   1      38.537  36.800  41.520  1.00  0.00    -0.237 OA
ATOM     96  O   UNL A   1      40.913  37.392  41.197  1.00  0.00    -0.237 OA
ATOM     97  O   UNL A   1      39.159  38.640  39.999  1.00  0.00    -0.744 OA
ENDBRANCH  93  94
ENDBRANCH  67  88
ENDBRANCH  41  42
ENDBRANCH  34  36
ENDBRANCH  33  34
ENDBRANCH  32  33
ENDBRANCH  31  32
ENDBRANCH  30  31
ENDBRANCH   1  30
TORSDOF 22
ENDMDL
