MODEL 1
REMARK VINA RESULT:      -9.0      0.000      0.000
REMARK SMILES C[C@]1(C(=O)NCc2ccc(C(=O)OCCOCCOCCOC(=O)c3ccc(-c4c5nc(c(-c6ccc(S(=O)(=O)[O-])cc6)c6ccc([nH]6)c(-c6ccc(S(=O)(=O)[O-])cc6)c6nc(c(-c7ccc(S(=O)(=O)[O-])cc7)c7ccc4[nH]7)C=C6)C=C5)cc3)o2)CCC[NH2+]C1
REMARK SMILES IDX 17 1 16 2 15 3 14 4 13 5 11 6 12 7 10 8 7 9 8 10 85 11 9 12
REMARK SMILES IDX 6 13 5 14 3 15 4 16 2 18 1 19 86 20 90 21 87 22 89 23 88 24
REMARK SMILES IDX 18 27 19 28 20 29 21 30 22 31 23 32 24 33 25 34 26 35 84 36
REMARK SMILES IDX 27 37 83 38 28 39 29 40 30 41 77 42 31 43 82 44 76 45 78 46
REMARK SMILES IDX 32 47 81 48 75 49 74 50 33 52 63 53 44 54 62 55 45 56 48 57
REMARK SMILES IDX 61 58 79 59 46 60 47 61 60 63 80 64 49 65 34 66 35 67 43 68
REMARK SMILES IDX 36 69 42 70 37 71 38 72 39 73 40 74 41 75 64 76 65 77 73 78
REMARK SMILES IDX 66 79 72 80 67 81 68 82 69 83 70 84 71 85 50 86 51 87 59 88
REMARK SMILES IDX 52 89 58 90 53 91 54 92 55 93 56 94 57 95
REMARK H PARENT 5 17 89 25 89 26 78 51 48 62
REMARK Flexibility Score: inf
ROOT
ATOM      1  C   UNL A   1      36.066  20.297  24.644  1.00  0.00     0.188 C 
ENDROOT
BRANCH   1   2
ATOM      2  O   UNL A   1      34.932  19.691  25.258  1.00  0.00    -0.376 OA
BRANCH   2   3
ATOM      3  C   UNL A   1      34.193  18.708  24.538  1.00  0.00     0.202 C 
BRANCH   3   4
ATOM      4  C   UNL A   1      32.690  18.939  24.347  1.00  0.00     0.261 C 
BRANCH   4   5
ATOM      5  O   UNL A   1      32.304  20.310  24.555  1.00  0.00    -0.457 OA
BRANCH   5   6
ATOM      6  C   UNL A   1      32.061  21.038  23.422  1.00  0.00     0.374 C 
ATOM      7  O   UNL A   1      31.881  20.551  22.311  1.00  0.00    -0.242 OA
BRANCH   6   8
ATOM      8  C   UNL A   1      31.952  22.440  23.753  1.00  0.00     0.211 A 
ATOM      9  C   UNL A   1      32.653  24.317  24.692  1.00  0.00     0.124 A 
ATOM     10  C   UNL A   1      31.564  24.653  23.917  1.00  0.00     0.048 A 
ATOM     11  O   UNL A   1      32.869  22.971  24.624  1.00  0.00    -0.452 OA
ATOM     12  C   UNL A   1      31.112  23.451  23.316  1.00  0.00     0.058 A 
BRANCH   9  13
ATOM     13  C   UNL A   1      33.559  25.103  25.569  1.00  0.00     0.191 C 
BRANCH  13  14
ATOM     14  N   UNL A   1      32.796  26.043  26.359  1.00  0.00    -0.348 N 
ATOM     15  C   UNL A   1      32.367  27.311  26.146  1.00  0.00     0.232 C 
ATOM     16  O   UNL A   1      31.334  27.600  26.766  1.00  0.00    -0.274 OA
ATOM     17  H   UNL A   1      32.532  25.687  27.238  1.00  0.00     0.163 HD
BRANCH  15  18
ATOM     18  C   UNL A   1      33.180  28.430  25.447  1.00  0.00     0.095 C 
ATOM     19  C   UNL A   1      34.150  28.924  26.541  1.00  0.00     0.028 C 
ATOM     20  C   UNL A   1      34.016  28.113  24.200  1.00  0.00     0.028 C 
ATOM     21  C   UNL A   1      32.222  29.607  25.105  1.00  0.00     0.277 C 
ATOM     22  C   UNL A   1      33.149  27.917  22.958  1.00  0.00     0.063 C 
ATOM     23  N   UNL A   1      31.412  29.354  23.905  1.00  0.00    -0.345 N 
ATOM     24  C   UNL A   1      32.241  29.121  22.731  1.00  0.00     0.260 C 
ATOM     25  H   UNL A   1      30.831  28.531  24.065  1.00  0.00     0.346 HD
ATOM     26  H   UNL A   1      30.839  30.179  23.729  1.00  0.00     0.346 HD
ENDBRANCH  15  18
ENDBRANCH  13  14
ENDBRANCH   9  13
ENDBRANCH   6   8
ENDBRANCH   5   6
ENDBRANCH   4   5
ENDBRANCH   3   4
ENDBRANCH   2   3
ENDBRANCH   1   2
BRANCH   1  27
ATOM     27  C   UNL A   1      36.959  21.218  25.498  1.00  0.00     0.188 C 
BRANCH  27  28
ATOM     28  O   UNL A   1      38.305  21.270  25.062  1.00  0.00    -0.376 OA
BRANCH  28  29
ATOM     29  C   UNL A   1      39.288  21.511  26.058  1.00  0.00     0.202 C 
BRANCH  29  30
ATOM     30  C   UNL A   1      40.165  20.338  26.531  1.00  0.00     0.261 C 
BRANCH  30  31
ATOM     31  O   UNL A   1      41.132  19.840  25.594  1.00  0.00    -0.460 OA
BRANCH  31  32
ATOM     32  C   UNL A   1      42.428  19.858  25.977  1.00  0.00     0.338 C 
ATOM     33  O   UNL A   1      43.216  18.932  25.942  1.00  0.00    -0.246 OA
BRANCH  32  34
ATOM     34  C   UNL A   1      42.777  21.254  26.311  1.00  0.00     0.060 A 
ATOM     35  C   UNL A   1      42.900  22.185  25.277  1.00  0.00     0.016 A 
ATOM     36  C   UNL A   1      42.992  21.640  27.637  1.00  0.00     0.016 A 
ATOM     37  C   UNL A   1      43.253  23.502  25.573  1.00  0.00     0.010 A 
ATOM     38  C   UNL A   1      43.369  22.959  27.924  1.00  0.00     0.010 A 
ATOM     39  C   UNL A   1      43.529  23.893  26.888  1.00  0.00    -0.014 A 
BRANCH  39  40
ATOM     40  C   UNL A   1      44.132  25.228  27.137  1.00  0.00     0.031 A 
ATOM     41  C   UNL A   1      43.285  26.299  27.771  1.00  0.00     0.074 A 
ATOM     42  C   UNL A   1      45.431  25.473  26.879  1.00  0.00     0.049 A 
ATOM     43  N   UNL A   1      43.587  27.541  28.053  1.00  0.00    -0.248 NA
ATOM     44  C   UNL A   1      41.914  25.914  28.147  1.00  0.00     0.031 C 
ATOM     45  C   UNL A   1      46.389  24.500  26.358  1.00  0.00     0.029 A 
ATOM     46  N   UNL A   1      46.168  26.622  27.034  1.00  0.00    -0.354 N 
ATOM     47  C   UNL A   1      42.444  28.089  28.623  1.00  0.00     0.074 A 
ATOM     48  C   UNL A   1      41.437  27.049  28.634  1.00  0.00     0.031 C 
ATOM     49  C   UNL A   1      47.591  25.092  26.238  1.00  0.00     0.029 A 
ATOM     50  C   UNL A   1      47.478  26.495  26.633  1.00  0.00     0.049 A 
ATOM     51  H   UNL A   1      45.796  27.457  27.398  1.00  0.00     0.167 HD
ATOM     52  C   UNL A   1      42.246  29.344  29.093  1.00  0.00     0.031 A 
ATOM     53  C   UNL A   1      48.467  27.410  26.567  1.00  0.00     0.031 A 
ATOM     54  C   UNL A   1      43.240  30.383  29.074  1.00  0.00     0.049 A 
ATOM     55  C   UNL A   1      48.195  28.827  27.002  1.00  0.00     0.074 A 
ATOM     56  C   UNL A   1      43.127  31.691  29.513  1.00  0.00     0.029 A 
ATOM     57  N   UNL A   1      44.530  30.235  28.586  1.00  0.00    -0.354 N 
ATOM     58  N   UNL A   1      47.098  29.340  27.510  1.00  0.00    -0.248 NA
ATOM     59  C   UNL A   1      49.293  29.792  26.847  1.00  0.00     0.031 C 
ATOM     60  C   UNL A   1      44.333  32.348  29.244  1.00  0.00     0.029 A 
ATOM     61  C   UNL A   1      45.214  31.434  28.687  1.00  0.00     0.049 A 
ATOM     62  H   UNL A   1      44.903  29.401  28.220  1.00  0.00     0.167 HD
ATOM     63  C   UNL A   1      47.383  30.680  27.754  1.00  0.00     0.074 A 
ATOM     64  C   UNL A   1      48.756  30.898  27.348  1.00  0.00     0.031 C 
ATOM     65  C   UNL A   1      46.579  31.641  28.271  1.00  0.00     0.031 A 
BRANCH  52  66
ATOM     66  C   UNL A   1      40.875  29.670  29.619  1.00  0.00    -0.014 A 
ATOM     67  C   UNL A   1      39.789  29.880  28.751  1.00  0.00     0.010 A 
ATOM     68  C   UNL A   1      40.673  29.766  31.008  1.00  0.00     0.010 A 
ATOM     69  C   UNL A   1      38.535  30.224  29.262  1.00  0.00     0.020 A 
ATOM     70  C   UNL A   1      39.415  30.087  31.524  1.00  0.00     0.020 A 
ATOM     71  C   UNL A   1      38.358  30.336  30.646  1.00  0.00     0.054 A 
BRANCH  71  72
ATOM     72  S   UNL A   1      36.723  30.790  31.285  1.00  0.00     0.124 S 
ATOM     73  O   UNL A   1      35.935  30.877  30.057  1.00  0.00    -0.237 OA
ATOM     74  O   UNL A   1      36.396  29.669  32.162  1.00  0.00    -0.237 OA
ATOM     75  O   UNL A   1      36.957  32.062  31.964  1.00  0.00    -0.744 OA
ENDBRANCH  71  72
ENDBRANCH  52  66
BRANCH  53  76
ATOM     76  C   UNL A   1      49.800  27.027  26.025  1.00  0.00    -0.014 A 
ATOM     77  C   UNL A   1      50.130  27.266  24.680  1.00  0.00     0.010 A 
ATOM     78  C   UNL A   1      50.752  26.415  26.862  1.00  0.00     0.010 A 
ATOM     79  C   UNL A   1      51.381  26.889  24.179  1.00  0.00     0.020 A 
ATOM     80  C   UNL A   1      52.012  26.060  26.373  1.00  0.00     0.020 A 
ATOM     81  C   UNL A   1      52.315  26.289  25.030  1.00  0.00     0.054 A 
BRANCH  81  82
ATOM     82  S   UNL A   1      53.951  25.851  24.376  1.00  0.00     0.124 S 
ATOM     83  O   UNL A   1      54.811  26.840  25.017  1.00  0.00    -0.237 OA
ATOM     84  O   UNL A   1      54.121  24.474  24.833  1.00  0.00    -0.237 OA
ATOM     85  O   UNL A   1      53.792  26.002  22.930  1.00  0.00    -0.744 OA
ENDBRANCH  81  82
ENDBRANCH  53  76
BRANCH  65  86
ATOM     86  C   UNL A   1      47.163  33.017  28.451  1.00  0.00    -0.014 A 
ATOM     87  C   UNL A   1      47.759  33.402  29.665  1.00  0.00     0.010 A 
ATOM     88  C   UNL A   1      47.172  33.916  27.368  1.00  0.00     0.010 A 
ATOM     89  C   UNL A   1      48.329  34.671  29.801  1.00  0.00     0.020 A 
ATOM     90  C   UNL A   1      47.762  35.177  27.493  1.00  0.00     0.020 A 
ATOM     91  C   UNL A   1      48.327  35.551  28.714  1.00  0.00     0.054 A 
BRANCH  91  92
ATOM     92  S   UNL A   1      49.118  37.173  28.897  1.00  0.00     0.124 S 
ATOM     93  O   UNL A   1      49.639  37.412  27.554  1.00  0.00    -0.237 OA
ATOM     94  O   UNL A   1      48.006  38.032  29.301  1.00  0.00    -0.237 OA
ATOM     95  O   UNL A   1      50.130  36.952  29.928  1.00  0.00    -0.744 OA
ENDBRANCH  91  92
ENDBRANCH  65  86
ENDBRANCH  39  40
ENDBRANCH  32  34
ENDBRANCH  31  32
ENDBRANCH  30  31
ENDBRANCH  29  30
ENDBRANCH  28  29
ENDBRANCH  27  28
ENDBRANCH   1  27
TORSDOF 23
ENDMDL
MODEL 2
REMARK VINA RESULT:      -8.7      4.284     10.835
REMARK SMILES C[C@]1(C(=O)NCc2ccc(C(=O)OCCOCCOCCOC(=O)c3ccc(-c4c5nc(c(-c6ccc(S(=O)(=O)[O-])cc6)c6ccc([nH]6)c(-c6ccc(S(=O)(=O)[O-])cc6)c6nc(c(-c7ccc(S(=O)(=O)[O-])cc7)c7ccc4[nH]7)C=C6)C=C5)cc3)o2)CCC[NH2+]C1
REMARK SMILES IDX 17 1 16 2 15 3 14 4 13 5 11 6 12 7 10 8 7 9 8 10 85 11 9 12
REMARK SMILES IDX 6 13 5 14 3 15 4 16 2 18 1 19 86 20 90 21 87 22 89 23 88 24
REMARK SMILES IDX 18 27 19 28 20 29 21 30 22 31 23 32 24 33 25 34 26 35 84 36
REMARK SMILES IDX 27 37 83 38 28 39 29 40 30 41 77 42 31 43 82 44 76 45 78 46
REMARK SMILES IDX 32 47 81 48 75 49 74 50 33 52 63 53 44 54 62 55 45 56 48 57
REMARK SMILES IDX 61 58 79 59 46 60 47 61 60 63 80 64 49 65 34 66 35 67 43 68
REMARK SMILES IDX 36 69 42 70 37 71 38 72 39 73 40 74 41 75 64 76 65 77 73 78
REMARK SMILES IDX 66 79 72 80 67 81 68 82 69 83 70 84 71 85 50 86 51 87 59 88
REMARK SMILES IDX 52 89 58 90 53 91 54 92 55 93 56 94 57 95
REMARK H PARENT 5 17 89 25 89 26 78 51 48 62
REMARK Flexibility Score: inf
ROOT
ATOM      1  C   UNL A   1      34.834  32.700  28.688  1.00  0.00     0.188 C 
ENDROOT
BRANCH   1   2
ATOM      2  O   UNL A   1      35.183  34.066  28.483  1.00  0.00    -0.376 OA
BRANCH   2   3
ATOM      3  C   UNL A   1      34.263  35.084  28.867  1.00  0.00     0.202 C 
BRANCH   3   4
ATOM      4  C   UNL A   1      33.477  34.886  30.168  1.00  0.00     0.261 C 
BRANCH   4   5
ATOM      5  O   UNL A   1      34.282  35.091  31.344  1.00  0.00    -0.457 OA
BRANCH   5   6
ATOM      6  C   UNL A   1      34.724  33.956  31.966  1.00  0.00     0.374 C 
ATOM      7  O   UNL A   1      34.035  32.961  32.167  1.00  0.00    -0.242 OA
BRANCH   6   8
ATOM      8  C   UNL A   1      36.135  34.072  32.256  1.00  0.00     0.211 A 
ATOM      9  C   UNL A   1      37.922  33.842  33.541  1.00  0.00     0.124 A 
ATOM     10  C   UNL A   1      38.382  34.218  32.298  1.00  0.00     0.048 A 
ATOM     11  O   UNL A   1      36.558  33.787  33.529  1.00  0.00    -0.452 OA
ATOM     12  C   UNL A   1      37.239  34.368  31.474  1.00  0.00     0.058 A 
BRANCH   9  13
ATOM     13  C   UNL A   1      38.599  33.540  34.829  1.00  0.00     0.191 C 
BRANCH  13  14
ATOM     14  N   UNL A   1      38.523  32.125  35.112  1.00  0.00    -0.348 N 
ATOM     15  C   UNL A   1      39.379  31.236  35.672  1.00  0.00     0.232 C 
ATOM     16  O   UNL A   1      38.817  30.283  36.230  1.00  0.00    -0.274 OA
ATOM     17  H   UNL A   1      37.667  31.720  34.842  1.00  0.00     0.163 HD
BRANCH  15  18
ATOM     18  C   UNL A   1      40.910  31.190  35.435  1.00  0.00     0.095 C 
ATOM     19  C   UNL A   1      41.246  29.684  35.457  1.00  0.00     0.028 C 
ATOM     20  C   UNL A   1      41.510  31.777  34.150  1.00  0.00     0.028 C 
ATOM     21  C   UNL A   1      41.626  31.847  36.650  1.00  0.00     0.277 C 
ATOM     22  C   UNL A   1      41.520  33.304  34.162  1.00  0.00     0.063 C 
ATOM     23  N   UNL A   1      41.595  33.316  36.606  1.00  0.00    -0.345 N 
ATOM     24  C   UNL A   1      42.230  33.835  35.403  1.00  0.00     0.260 C 
ATOM     25  H   UNL A   1      40.623  33.627  36.625  1.00  0.00     0.346 HD
ATOM     26  H   UNL A   1      42.109  33.669  37.413  1.00  0.00     0.346 HD
ENDBRANCH  15  18
ENDBRANCH  13  14
ENDBRANCH   9  13
ENDBRANCH   6   8
ENDBRANCH   5   6
ENDBRANCH   4   5
ENDBRANCH   3   4
ENDBRANCH   2   3
ENDBRANCH   1   2
BRANCH   1  27
ATOM     27  C   UNL A   1      35.305  31.658  27.654  1.00  0.00     0.188 C 
BRANCH  27  28
ATOM     28  O   UNL A   1      36.456  30.937  28.056  1.00  0.00    -0.376 OA
BRANCH  28  29
ATOM     29  C   UNL A   1      36.239  29.646  28.605  1.00  0.00     0.202 C 
BRANCH  29  30
ATOM     30  C   UNL A   1      36.365  29.459  30.128  1.00  0.00     0.261 C 
BRANCH  30  31
ATOM     31  O   UNL A   1      36.521  30.652  30.911  1.00  0.00    -0.460 OA
BRANCH  31  32
ATOM     32  C   UNL A   1      37.314  30.575  32.003  1.00  0.00     0.338 C 
ATOM     33  O   UNL A   1      36.960  30.555  33.166  1.00  0.00    -0.246 OA
BRANCH  32  34
ATOM     34  C   UNL A   1      38.700  30.366  31.535  1.00  0.00     0.060 A 
ATOM     35  C   UNL A   1      39.170  31.122  30.459  1.00  0.00     0.016 A 
ATOM     36  C   UNL A   1      39.527  29.422  32.150  1.00  0.00     0.016 A 
ATOM     37  C   UNL A   1      40.468  30.919  29.989  1.00  0.00     0.010 A 
ATOM     38  C   UNL A   1      40.821  29.207  31.657  1.00  0.00     0.010 A 
ATOM     39  C   UNL A   1      41.290  29.938  30.553  1.00  0.00    -0.014 A 
BRANCH  39  40
ATOM     40  C   UNL A   1      42.567  29.584  29.879  1.00  0.00     0.031 A 
ATOM     41  C   UNL A   1      42.691  28.236  29.220  1.00  0.00     0.074 A 
ATOM     42  C   UNL A   1      43.579  30.467  29.783  1.00  0.00     0.049 A 
ATOM     43  N   UNL A   1      43.714  27.703  28.603  1.00  0.00    -0.248 NA
ATOM     44  C   UNL A   1      41.494  27.379  29.253  1.00  0.00     0.031 C 
ATOM     45  C   UNL A   1      43.558  31.839  30.289  1.00  0.00     0.029 A 
ATOM     46  N   UNL A   1      44.822  30.338  29.211  1.00  0.00    -0.354 N 
ATOM     47  C   UNL A   1      43.293  26.445  28.189  1.00  0.00     0.074 A 
ATOM     48  C   UNL A   1      41.925  26.288  28.637  1.00  0.00     0.031 C 
ATOM     49  C   UNL A   1      44.733  32.427  30.002  1.00  0.00     0.029 A 
ATOM     50  C   UNL A   1      45.605  31.463  29.333  1.00  0.00     0.049 A 
ATOM     51  H   UNL A   1      45.124  29.519  28.758  1.00  0.00     0.167 HD
ATOM     52  C   UNL A   1      43.979  25.502  27.500  1.00  0.00     0.031 A 
ATOM     53  C   UNL A   1      46.884  31.684  28.970  1.00  0.00     0.031 A 
ATOM     54  C   UNL A   1      45.341  25.649  27.063  1.00  0.00     0.049 A 
ATOM     55  C   UNL A   1      47.663  30.584  28.294  1.00  0.00     0.074 A 
ATOM     56  C   UNL A   1      46.126  24.741  26.373  1.00  0.00     0.029 A 
ATOM     57  N   UNL A   1      46.123  26.773  27.276  1.00  0.00    -0.354 N 
ATOM     58  N   UNL A   1      47.260  29.387  27.936  1.00  0.00    -0.248 NA
ATOM     59  C   UNL A   1      49.071  30.863  27.979  1.00  0.00     0.031 C 
ATOM     60  C   UNL A   1      47.400  25.299  26.214  1.00  0.00     0.029 A 
ATOM     61  C   UNL A   1      47.391  26.574  26.756  1.00  0.00     0.049 A 
ATOM     62  H   UNL A   1      45.822  27.593  27.732  1.00  0.00     0.167 HD
ATOM     63  C   UNL A   1      48.360  28.780  27.336  1.00  0.00     0.074 A 
ATOM     64  C   UNL A   1      49.441  29.743  27.370  1.00  0.00     0.031 C 
ATOM     65  C   UNL A   1      48.462  27.537  26.804  1.00  0.00     0.031 A 
BRANCH  52  66
ATOM     66  C   UNL A   1      43.273  24.202  27.228  1.00  0.00    -0.014 A 
ATOM     67  C   UNL A   1      42.675  23.940  25.983  1.00  0.00     0.010 A 
ATOM     68  C   UNL A   1      43.209  23.225  28.239  1.00  0.00     0.010 A 
ATOM     69  C   UNL A   1      41.987  22.743  25.768  1.00  0.00     0.020 A 
ATOM     70  C   UNL A   1      42.543  22.017  28.021  1.00  0.00     0.020 A 
ATOM     71  C   UNL A   1      41.917  21.793  26.793  1.00  0.00     0.054 A 
BRANCH  71  72
ATOM     72  S   UNL A   1      41.013  20.249  26.494  1.00  0.00     0.124 S 
ATOM     73  O   UNL A   1      39.734  20.743  25.987  1.00  0.00    -0.237 OA
ATOM     74  O   UNL A   1      41.854  19.568  25.512  1.00  0.00    -0.237 OA
ATOM     75  O   UNL A   1      40.959  19.618  27.809  1.00  0.00    -0.744 OA
ENDBRANCH  71  72
ENDBRANCH  52  66
BRANCH  53  76
ATOM     76  C   UNL A   1      47.531  32.990  29.278  1.00  0.00    -0.014 A 
ATOM     77  C   UNL A   1      47.498  34.048  28.354  1.00  0.00     0.010 A 
ATOM     78  C   UNL A   1      48.189  33.178  30.508  1.00  0.00     0.010 A 
ATOM     79  C   UNL A   1      48.121  35.266  28.649  1.00  0.00     0.020 A 
ATOM     80  C   UNL A   1      48.791  34.400  30.817  1.00  0.00     0.020 A 
ATOM     81  C   UNL A   1      48.764  35.435  29.881  1.00  0.00     0.054 A 
BRANCH  81  82
ATOM     82  S   UNL A   1      49.524  37.037  30.267  1.00  0.00     0.124 S 
ATOM     83  O   UNL A   1      50.840  36.640  30.757  1.00  0.00    -0.237 OA
ATOM     84  O   UNL A   1      49.511  37.718  28.975  1.00  0.00    -0.237 OA
ATOM     85  O   UNL A   1      48.627  37.608  31.271  1.00  0.00    -0.744 OA
ENDBRANCH  81  82
ENDBRANCH  53  76
BRANCH  65  86
ATOM     86  C   UNL A   1      49.781  27.148  26.191  1.00  0.00    -0.014 A 
ATOM     87  C   UNL A   1      50.602  26.175  26.789  1.00  0.00     0.010 A 
ATOM     88  C   UNL A   1      50.175  27.718  24.967  1.00  0.00     0.010 A 
ATOM     89  C   UNL A   1      51.806  25.800  26.185  1.00  0.00     0.020 A 
ATOM     90  C   UNL A   1      51.366  27.329  24.348  1.00  0.00     0.020 A 
ATOM     91  C   UNL A   1      52.181  26.379  24.969  1.00  0.00     0.054 A 
BRANCH  91  92
ATOM     92  S   UNL A   1      53.723  25.840  24.179  1.00  0.00     0.124 S 
ATOM     93  O   UNL A   1      53.352  25.824  22.766  1.00  0.00    -0.237 OA
ATOM     94  O   UNL A   1      54.668  26.884  24.569  1.00  0.00    -0.237 OA
ATOM     95  O   UNL A   1      53.976  24.528  24.771  1.00  0.00    -0.744 OA
ENDBRANCH  91  92
ENDBRANCH  65  86
ENDBRANCH  39  40
ENDBRANCH  32  34
ENDBRANCH  31  32
ENDBRANCH  30  31
ENDBRANCH  29  30
ENDBRANCH  28  29
ENDBRANCH  27  28
ENDBRANCH   1  27
TORSDOF 23
ENDMDL
MODEL 3
REMARK VINA RESULT:      -8.2      7.247     13.454
REMARK SMILES C[C@]1(C(=O)NCc2ccc(C(=O)OCCOCCOCCOC(=O)c3ccc(-c4c5nc(c(-c6ccc(S(=O)(=O)[O-])cc6)c6ccc([nH]6)c(-c6ccc(S(=O)(=O)[O-])cc6)c6nc(c(-c7ccc(S(=O)(=O)[O-])cc7)c7ccc4[nH]7)C=C6)C=C5)cc3)o2)CCC[NH2+]C1
REMARK SMILES IDX 17 1 16 2 15 3 14 4 13 5 11 6 12 7 10 8 7 9 8 10 85 11 9 12
REMARK SMILES IDX 6 13 5 14 3 15 4 16 2 18 1 19 86 20 90 21 87 22 89 23 88 24
REMARK SMILES IDX 18 27 19 28 20 29 21 30 22 31 23 32 24 33 25 34 26 35 84 36
REMARK SMILES IDX 27 37 83 38 28 39 29 40 30 41 77 42 31 43 82 44 76 45 78 46
REMARK SMILES IDX 32 47 81 48 75 49 74 50 33 52 63 53 44 54 62 55 45 56 48 57
REMARK SMILES IDX 61 58 79 59 46 60 47 61 60 63 80 64 49 65 34 66 35 67 43 68
REMARK SMILES IDX 36 69 42 70 37 71 38 72 39 73 40 74 41 75 64 76 65 77 73 78
REMARK SMILES IDX 66 79 72 80 67 81 68 82 69 83 70 84 71 85 50 86 51 87 59 88
REMARK SMILES IDX 52 89 58 90 53 91 54 92 55 93 56 94 57 95
REMARK H PARENT 5 17 89 25 89 26 78 51 48 62
REMARK Flexibility Score: inf
ROOT
ATOM      1  C   UNL A   1      36.153  34.422  34.292  1.00  0.00     0.188 C 
ENDROOT
BRANCH   1   2
ATOM      2  O   UNL A   1      36.196  33.333  35.210  1.00  0.00    -0.376 OA
BRANCH   2   3
ATOM      3  C   UNL A   1      36.940  33.468  36.417  1.00  0.00     0.202 C 
BRANCH   3   4
ATOM      4  C   UNL A   1      37.644  32.223  36.968  1.00  0.00     0.261 C 
BRANCH   4   5
ATOM      5  O   UNL A   1      37.942  31.252  35.948  1.00  0.00    -0.457 OA
BRANCH   5   6
ATOM      6  C   UNL A   1      39.271  31.025  35.714  1.00  0.00     0.374 C 
ATOM      7  O   UNL A   1      40.184  31.508  36.374  1.00  0.00    -0.242 OA
BRANCH   6   8
ATOM      8  C   UNL A   1      39.424  30.061  34.647  1.00  0.00     0.211 A 
ATOM      9  C   UNL A   1      40.441  28.388  33.617  1.00  0.00     0.124 A 
ATOM     10  C   UNL A   1      39.251  28.590  32.951  1.00  0.00     0.048 A 
ATOM     11  O   UNL A   1      40.566  29.302  34.623  1.00  0.00    -0.452 OA
ATOM     12  C   UNL A   1      38.599  29.663  33.609  1.00  0.00     0.058 A 
BRANCH   9  13
ATOM     13  C   UNL A   1      41.566  27.437  33.425  1.00  0.00     0.191 C 
BRANCH  13  14
ATOM     14  N   UNL A   1      42.525  27.576  34.496  1.00  0.00    -0.348 N 
ATOM     15  C   UNL A   1      43.269  26.693  35.206  1.00  0.00     0.232 C 
ATOM     16  O   UNL A   1      44.327  27.168  35.643  1.00  0.00    -0.274 OA
ATOM     17  H   UNL A   1      42.671  28.511  34.768  1.00  0.00     0.163 HD
BRANCH  15  18
ATOM     18  C   UNL A   1      42.784  25.309  35.709  1.00  0.00     0.095 C 
ATOM     19  C   UNL A   1      41.348  25.576  36.205  1.00  0.00     0.028 C 
ATOM     20  C   UNL A   1      42.725  24.116  34.746  1.00  0.00     0.028 C 
ATOM     21  C   UNL A   1      43.637  24.897  36.943  1.00  0.00     0.277 C 
ATOM     22  C   UNL A   1      44.112  23.557  34.432  1.00  0.00     0.063 C 
ATOM     23  N   UNL A   1      44.960  24.375  36.575  1.00  0.00    -0.345 N 
ATOM     24  C   UNL A   1      44.860  23.205  35.714  1.00  0.00     0.260 C 
ATOM     25  H   UNL A   1      45.478  25.103  36.082  1.00  0.00     0.346 HD
ATOM     26  H   UNL A   1      45.442  24.098  37.430  1.00  0.00     0.346 HD
ENDBRANCH  15  18
ENDBRANCH  13  14
ENDBRANCH   9  13
ENDBRANCH   6   8
ENDBRANCH   5   6
ENDBRANCH   4   5
ENDBRANCH   3   4
ENDBRANCH   2   3
ENDBRANCH   1   2
BRANCH   1  27
ATOM     27  C   UNL A   1      34.825  34.722  33.569  1.00  0.00     0.188 C 
BRANCH  27  28
ATOM     28  O   UNL A   1      34.766  36.017  33.001  1.00  0.00    -0.376 OA
BRANCH  28  29
ATOM     29  C   UNL A   1      33.908  36.183  31.882  1.00  0.00     0.202 C 
BRANCH  29  30
ATOM     30  C   UNL A   1      33.474  34.937  31.091  1.00  0.00     0.261 C 
BRANCH  30  31
ATOM     31  O   UNL A   1      33.947  34.838  29.739  1.00  0.00    -0.460 OA
BRANCH  31  32
ATOM     32  C   UNL A   1      34.457  33.649  29.348  1.00  0.00     0.338 C 
ATOM     33  O   UNL A   1      34.043  32.930  28.458  1.00  0.00    -0.246 OA
BRANCH  32  34
ATOM     34  C   UNL A   1      35.713  33.433  30.096  1.00  0.00     0.060 A 
ATOM     35  C   UNL A   1      36.823  34.224  29.794  1.00  0.00     0.016 A 
ATOM     36  C   UNL A   1      35.796  32.448  31.085  1.00  0.00     0.016 A 
ATOM     37  C   UNL A   1      38.024  34.016  30.473  1.00  0.00     0.010 A 
ATOM     38  C   UNL A   1      37.012  32.230  31.746  1.00  0.00     0.010 A 
ATOM     39  C   UNL A   1      38.143  32.996  31.423  1.00  0.00    -0.014 A 
BRANCH  39  40
ATOM     40  C   UNL A   1      39.489  32.647  31.949  1.00  0.00     0.031 A 
ATOM     41  C   UNL A   1      40.284  31.575  31.252  1.00  0.00     0.074 A 
ATOM     42  C   UNL A   1      40.036  33.317  32.981  1.00  0.00     0.049 A 
ATOM     43  N   UNL A   1      41.461  31.086  31.550  1.00  0.00    -0.248 NA
ATOM     44  C   UNL A   1      39.673  30.983  30.051  1.00  0.00     0.031 C 
ATOM     45  C   UNL A   1      39.420  34.440  33.684  1.00  0.00     0.029 A 
ATOM     46  N   UNL A   1      41.248  33.151  33.608  1.00  0.00    -0.354 N 
ATOM     47  C   UNL A   1      41.724  30.120  30.586  1.00  0.00     0.074 A 
ATOM     48  C   UNL A   1      40.579  30.081  29.702  1.00  0.00     0.031 C 
ATOM     49  C   UNL A   1      40.258  34.865  34.646  1.00  0.00     0.029 A 
ATOM     50  C   UNL A   1      41.450  34.019  34.656  1.00  0.00     0.049 A 
ATOM     51  H   UNL A   1      41.908  32.475  33.334  1.00  0.00     0.167 HD
ATOM     52  C   UNL A   1      42.818  29.333  30.448  1.00  0.00     0.031 A 
ATOM     53  C   UNL A   1      42.467  34.107  35.537  1.00  0.00     0.031 A 
ATOM     54  C   UNL A   1      43.953  29.360  31.330  1.00  0.00     0.049 A 
ATOM     55  C   UNL A   1      43.628  33.153  35.425  1.00  0.00     0.074 A 
ATOM     56  C   UNL A   1      45.101  28.589  31.280  1.00  0.00     0.029 A 
ATOM     57  N   UNL A   1      44.083  30.200  32.426  1.00  0.00    -0.354 N 
ATOM     58  N   UNL A   1      43.850  32.222  34.526  1.00  0.00    -0.248 NA
ATOM     59  C   UNL A   1      44.675  33.257  36.453  1.00  0.00     0.031 C 
ATOM     60  C   UNL A   1      45.903  28.927  32.376  1.00  0.00     0.029 A 
ATOM     61  C   UNL A   1      45.279  29.947  33.076  1.00  0.00     0.049 A 
ATOM     62  H   UNL A   1      43.422  30.875  32.701  1.00  0.00     0.167 HD
ATOM     63  C   UNL A   1      45.070  31.646  34.869  1.00  0.00     0.074 A 
ATOM     64  C   UNL A   1      45.543  32.337  36.050  1.00  0.00     0.031 C 
ATOM     65  C   UNL A   1      45.736  30.636  34.257  1.00  0.00     0.031 A 
BRANCH  52  66
ATOM     66  C   UNL A   1      42.806  28.335  29.323  1.00  0.00    -0.014 A 
ATOM     67  C   UNL A   1      42.205  27.071  29.471  1.00  0.00     0.010 A 
ATOM     68  C   UNL A   1      43.405  28.670  28.095  1.00  0.00     0.010 A 
ATOM     69  C   UNL A   1      42.245  26.145  28.426  1.00  0.00     0.020 A 
ATOM     70  C   UNL A   1      43.426  27.755  27.039  1.00  0.00     0.020 A 
ATOM     71  C   UNL A   1      42.864  26.489  27.219  1.00  0.00     0.054 A 
BRANCH  71  72
ATOM     72  S   UNL A   1      42.909  25.268  25.879  1.00  0.00     0.124 S 
ATOM     73  O   UNL A   1      44.346  25.061  25.709  1.00  0.00    -0.237 OA
ATOM     74  O   UNL A   1      42.177  24.139  26.447  1.00  0.00    -0.237 OA
ATOM     75  O   UNL A   1      42.242  25.945  24.770  1.00  0.00    -0.744 OA
ENDBRANCH  71  72
ENDBRANCH  52  66
BRANCH  53  76
ATOM     76  C   UNL A   1      42.414  35.110  36.637  1.00  0.00    -0.014 A 
ATOM     77  C   UNL A   1      41.727  34.837  37.831  1.00  0.00     0.010 A 
ATOM     78  C   UNL A   1      43.057  36.353  36.488  1.00  0.00     0.010 A 
ATOM     79  C   UNL A   1      41.673  35.793  38.852  1.00  0.00     0.020 A 
ATOM     80  C   UNL A   1      43.027  37.301  37.515  1.00  0.00     0.020 A 
ATOM     81  C   UNL A   1      42.325  37.020  38.688  1.00  0.00     0.054 A 
BRANCH  81  82
ATOM     82  S   UNL A   1      42.286  38.229  40.041  1.00  0.00     0.124 S 
ATOM     83  O   UNL A   1      42.934  37.496  41.123  1.00  0.00    -0.237 OA
ATOM     84  O   UNL A   1      43.047  39.349  39.492  1.00  0.00    -0.237 OA
ATOM     85  O   UNL A   1      40.859  38.489  40.226  1.00  0.00    -0.744 OA
ENDBRANCH  81  82
ENDBRANCH  53  76
BRANCH  65  86
ATOM     86  C   UNL A   1      47.064  30.226  34.836  1.00  0.00    -0.014 A 
ATOM     87  C   UNL A   1      47.148  29.252  35.847  1.00  0.00     0.010 A 
ATOM     88  C   UNL A   1      48.250  30.779  34.317  1.00  0.00     0.010 A 
ATOM     89  C   UNL A   1      48.393  28.858  36.345  1.00  0.00     0.020 A 
ATOM     90  C   UNL A   1      49.497  30.370  34.797  1.00  0.00     0.020 A 
ATOM     91  C   UNL A   1      49.560  29.420  35.818  1.00  0.00     0.054 A 
BRANCH  91  92
ATOM     92  S   UNL A   1      51.166  28.856  36.445  1.00  0.00     0.124 S 
ATOM     93  O   UNL A   1      50.786  28.147  37.664  1.00  0.00    -0.237 OA
ATOM     94  O   UNL A   1      51.660  28.013  35.358  1.00  0.00    -0.237 OA
ATOM     95  O   UNL A   1      51.913  30.095  36.651  1.00  0.00    -0.744 OA
ENDBRANCH  91  92
ENDBRANCH  65  86
ENDBRANCH  39  40
ENDBRANCH  32  34
ENDBRANCH  31  32
ENDBRANCH  30  31
ENDBRANCH  29  30
ENDBRANCH  28  29
ENDBRANCH  27  28
ENDBRANCH   1  27
TORSDOF 23
ENDMDL
