MODEL 1
REMARK VINA RESULT:     -10.0      0.000      0.000
REMARK SMILES O=C(Cc1cccc(-c2ccn(C(F)F)c(=O)c2)c1)OCCOCCOCCOC(=O)c1ccc(-c2c3nc(c(-c4ccc(S(=O)(=O)[O-])cc4)c4ccc([nH]4)c(-c4ccc(S(=O)(=O)[O-])cc4)c4nc(c(-c5ccc(S(=O)(=O)[O-])cc5)c5ccc2[nH]5)C=C4)C=C3)cc1
REMARK SMILES IDX 24 1 23 2 22 3 21 4 20 5 2 6 1 7 3 8 4 9 5 10 19 11 6 12
REMARK SMILES IDX 8 13 7 14 9 15 10 16 18 17 11 18 16 19 12 20 17 21 13 22
REMARK SMILES IDX 14 23 15 24 25 25 26 26 27 27 28 28 29 29 30 30 31 31 32 32
REMARK SMILES IDX 33 33 91 34 34 35 90 36 35 37 36 38 37 39 84 40 38 41 89 42
REMARK SMILES IDX 83 43 85 44 39 45 88 46 82 47 81 48 40 50 70 51 51 52 69 53
REMARK SMILES IDX 52 54 55 55 68 56 86 57 53 58 54 59 67 61 87 62 56 63 41 64
REMARK SMILES IDX 42 65 50 66 43 67 49 68 44 69 45 70 46 71 47 72 48 73 71 74
REMARK SMILES IDX 72 75 80 76 73 77 79 78 74 79 75 80 76 81 77 82 78 83 57 84
REMARK SMILES IDX 58 85 66 86 59 87 65 88 60 89 61 90 62 91 63 92 64 93
REMARK H PARENT 85 49 55 60
REMARK Flexibility Score: inf
ROOT
ATOM      1  C   UNL A   1      33.096  29.908  26.975  1.00  0.00     0.188 C 
ENDROOT
BRANCH   1   2
ATOM      2  O   UNL A   1      32.707  30.110  25.625  1.00  0.00    -0.376 OA
BRANCH   2   3
ATOM      3  C   UNL A   1      32.333  28.979  24.856  1.00  0.00     0.202 C 
BRANCH   3   4
ATOM      4  C   UNL A   1      33.211  28.523  23.686  1.00  0.00     0.261 C 
BRANCH   4   5
ATOM      5  O   UNL A   1      32.563  27.877  22.586  1.00  0.00    -0.463 OA
BRANCH   5   6
ATOM      6  C   UNL A   1      32.690  26.559  22.291  1.00  0.00     0.310 C 
ATOM      7  O   UNL A   1      33.671  26.178  21.654  1.00  0.00    -0.252 OA
BRANCH   6   8
ATOM      8  C   UNL A   1      31.569  25.603  22.651  1.00  0.00     0.158 C 
BRANCH   8   9
ATOM      9  C   UNL A   1      31.736  24.951  23.994  1.00  0.00    -0.036 A 
ATOM     10  C   UNL A   1      31.035  25.408  25.113  1.00  0.00     0.004 A 
ATOM     11  C   UNL A   1      32.532  23.807  24.114  1.00  0.00     0.013 A 
ATOM     12  C   UNL A   1      31.099  24.704  26.315  1.00  0.00     0.001 A 
ATOM     13  C   UNL A   1      32.512  23.032  25.276  1.00  0.00    -0.018 A 
ATOM     14  C   UNL A   1      31.811  23.503  26.391  1.00  0.00     0.009 A 
BRANCH  13  15
ATOM     15  C   UNL A   1      33.096  21.679  25.208  1.00  0.00    -0.011 A 
ATOM     16  C   UNL A   1      34.523  21.425  25.145  1.00  0.00     0.027 A 
ATOM     17  C   UNL A   1      32.245  20.655  25.019  1.00  0.00     0.080 A 
ATOM     18  C   UNL A   1      34.983  20.193  24.896  1.00  0.00     0.095 A 
ATOM     19  C   UNL A   1      32.740  19.276  24.762  1.00  0.00     0.255 A 
ATOM     20  N   UNL A   1      34.117  19.132  24.710  1.00  0.00    -0.258 N 
ATOM     21  O   UNL A   1      31.920  18.380  24.592  1.00  0.00    -0.269 OA
BRANCH  20  22
ATOM     22  C   UNL A   1      34.621  17.811  24.441  1.00  0.00     0.451 C 
ATOM     23  F   UNL A   1      34.372  17.441  23.161  1.00  0.00    -0.185 F 
ATOM     24  F   UNL A   1      35.961  17.751  24.642  1.00  0.00    -0.185 F 
ENDBRANCH  20  22
ENDBRANCH  13  15
ENDBRANCH   8   9
ENDBRANCH   6   8
ENDBRANCH   5   6
ENDBRANCH   4   5
ENDBRANCH   3   4
ENDBRANCH   2   3
ENDBRANCH   1   2
BRANCH   1  25
ATOM     25  C   UNL A   1      34.270  30.694  27.578  1.00  0.00     0.188 C 
BRANCH  25  26
ATOM     26  O   UNL A   1      34.149  32.091  27.762  1.00  0.00    -0.376 OA
BRANCH  26  27
ATOM     27  C   UNL A   1      35.329  32.853  28.008  1.00  0.00     0.202 C 
BRANCH  27  28
ATOM     28  C   UNL A   1      35.675  33.257  29.442  1.00  0.00     0.261 C 
BRANCH  28  29
ATOM     29  O   UNL A   1      36.968  32.769  29.853  1.00  0.00    -0.460 OA
BRANCH  29  30
ATOM     30  C   UNL A   1      36.938  31.595  30.518  1.00  0.00     0.338 C 
ATOM     31  O   UNL A   1      36.087  31.230  31.327  1.00  0.00    -0.246 OA
BRANCH  30  32
ATOM     32  C   UNL A   1      38.008  30.692  30.075  1.00  0.00     0.060 A 
ATOM     33  C   UNL A   1      38.968  30.307  31.020  1.00  0.00     0.016 A 
ATOM     34  C   UNL A   1      38.182  30.396  28.721  1.00  0.00     0.016 A 
ATOM     35  C   UNL A   1      40.147  29.693  30.604  1.00  0.00     0.010 A 
ATOM     36  C   UNL A   1      39.373  29.790  28.305  1.00  0.00     0.010 A 
ATOM     37  C   UNL A   1      40.383  29.492  29.238  1.00  0.00    -0.014 A 
BRANCH  37  38
ATOM     38  C   UNL A   1      41.766  29.195  28.786  1.00  0.00     0.031 A 
ATOM     39  C   UNL A   1      42.087  27.796  28.321  1.00  0.00     0.074 A 
ATOM     40  C   UNL A   1      42.707  30.152  28.732  1.00  0.00     0.049 A 
ATOM     41  N   UNL A   1      43.208  27.317  27.846  1.00  0.00    -0.248 NA
ATOM     42  C   UNL A   1      40.996  26.809  28.401  1.00  0.00     0.031 C 
ATOM     43  C   UNL A   1      42.516  31.553  29.106  1.00  0.00     0.029 A 
ATOM     44  N   UNL A   1      44.018  30.087  28.328  1.00  0.00    -0.354 N 
ATOM     45  C   UNL A   1      42.961  25.975  27.576  1.00  0.00     0.074 A 
ATOM     46  C   UNL A   1      41.593  25.710  27.968  1.00  0.00     0.031 C 
ATOM     47  C   UNL A   1      43.670  32.216  28.909  1.00  0.00     0.029 A 
ATOM     48  C   UNL A   1      44.684  31.284  28.418  1.00  0.00     0.049 A 
ATOM     49  H   UNL A   1      44.440  29.258  28.005  1.00  0.00     0.167 HD
ATOM     50  C   UNL A   1      43.792  25.045  27.047  1.00  0.00     0.031 A 
ATOM     51  C   UNL A   1      45.967  31.592  28.142  1.00  0.00     0.031 A 
ATOM     52  C   UNL A   1      45.154  25.300  26.665  1.00  0.00     0.049 A 
ATOM     53  C   UNL A   1      46.892  30.526  27.613  1.00  0.00     0.074 A 
ATOM     54  C   UNL A   1      46.068  24.427  26.100  1.00  0.00     0.029 A 
ATOM     55  N   UNL A   1      45.804  26.515  26.817  1.00  0.00    -0.354 N 
ATOM     56  N   UNL A   1      46.633  29.270  27.336  1.00  0.00    -0.248 NA
ATOM     57  C   UNL A   1      48.282  30.926  27.349  1.00  0.00     0.031 C 
ATOM     58  C   UNL A   1      47.286  25.101  25.958  1.00  0.00     0.029 A 
ATOM     59  C   UNL A   1      47.114  26.408  26.382  1.00  0.00     0.049 A 
ATOM     60  H   UNL A   1      45.394  27.333  27.180  1.00  0.00     0.167 HD
ATOM     61  C   UNL A   1      47.818  28.741  26.831  1.00  0.00     0.074 A 
ATOM     62  C   UNL A   1      48.790  29.814  26.837  1.00  0.00     0.031 C 
ATOM     63  C   UNL A   1      48.074  27.483  26.393  1.00  0.00     0.031 A 
BRANCH  50  64
ATOM     64  C   UNL A   1      43.252  23.649  26.890  1.00  0.00    -0.014 A 
ATOM     65  C   UNL A   1      43.210  22.754  27.975  1.00  0.00     0.010 A 
ATOM     66  C   UNL A   1      42.762  23.232  25.638  1.00  0.00     0.010 A 
ATOM     67  C   UNL A   1      42.730  21.453  27.799  1.00  0.00     0.020 A 
ATOM     68  C   UNL A   1      42.259  21.941  25.465  1.00  0.00     0.020 A 
ATOM     69  C   UNL A   1      42.265  21.052  26.542  1.00  0.00     0.054 A 
BRANCH  69  70
ATOM     70  S   UNL A   1      41.645  19.359  26.339  1.00  0.00     0.124 S 
ATOM     71  O   UNL A   1      40.238  19.591  26.022  1.00  0.00    -0.237 OA
ATOM     72  O   UNL A   1      42.461  18.847  25.241  1.00  0.00    -0.237 OA
ATOM     73  O   UNL A   1      41.896  18.741  27.638  1.00  0.00    -0.744 OA
ENDBRANCH  69  70
ENDBRANCH  50  64
BRANCH  51  74
ATOM     74  C   UNL A   1      46.461  32.979  28.355  1.00  0.00    -0.014 A 
ATOM     75  C   UNL A   1      46.377  33.934  27.326  1.00  0.00     0.010 A 
ATOM     76  C   UNL A   1      47.025  33.348  29.589  1.00  0.00     0.010 A 
ATOM     77  C   UNL A   1      46.866  35.229  27.523  1.00  0.00     0.020 A 
ATOM     78  C   UNL A   1      47.491  34.649  29.797  1.00  0.00     0.020 A 
ATOM     79  C   UNL A   1      47.418  35.578  28.758  1.00  0.00     0.054 A 
BRANCH  79  80
ATOM     80  S   UNL A   1      47.999  37.280  29.010  1.00  0.00     0.124 S 
ATOM     81  O   UNL A   1      48.775  37.518  27.797  1.00  0.00    -0.237 OA
ATOM     82  O   UNL A   1      46.749  38.027  29.121  1.00  0.00    -0.237 OA
ATOM     83  O   UNL A   1      48.775  37.194  30.246  1.00  0.00    -0.744 OA
ENDBRANCH  79  80
ENDBRANCH  51  74
BRANCH  63  84
ATOM     84  C   UNL A   1      49.448  27.204  25.843  1.00  0.00    -0.014 A 
ATOM     85  C   UNL A   1      50.451  26.621  26.635  1.00  0.00     0.010 A 
ATOM     86  C   UNL A   1      49.724  27.495  24.494  1.00  0.00     0.010 A 
ATOM     87  C   UNL A   1      51.718  26.369  26.101  1.00  0.00     0.020 A 
ATOM     88  C   UNL A   1      50.981  27.221  23.948  1.00  0.00     0.020 A 
ATOM     89  C   UNL A   1      51.977  26.675  24.760  1.00  0.00     0.054 A 
BRANCH  89  90
ATOM     90  S   UNL A   1      53.619  26.316  24.078  1.00  0.00     0.124 S 
ATOM     91  O   UNL A   1      54.355  27.536  24.401  1.00  0.00    -0.237 OA
ATOM     92  O   UNL A   1      54.023  25.124  24.820  1.00  0.00    -0.237 OA
ATOM     93  O   UNL A   1      53.364  26.100  22.656  1.00  0.00    -0.744 OA
ENDBRANCH  89  90
ENDBRANCH  63  84
ENDBRANCH  37  38
ENDBRANCH  30  32
ENDBRANCH  29  30
ENDBRANCH  28  29
ENDBRANCH  27  28
ENDBRANCH  26  27
ENDBRANCH  25  26
ENDBRANCH   1  25
TORSDOF 23
ENDMDL
MODEL 2
REMARK VINA RESULT:     -10.0      3.635      9.374
REMARK SMILES O=C(Cc1cccc(-c2ccn(C(F)F)c(=O)c2)c1)OCCOCCOCCOC(=O)c1ccc(-c2c3nc(c(-c4ccc(S(=O)(=O)[O-])cc4)c4ccc([nH]4)c(-c4ccc(S(=O)(=O)[O-])cc4)c4nc(c(-c5ccc(S(=O)(=O)[O-])cc5)c5ccc2[nH]5)C=C4)C=C3)cc1
REMARK SMILES IDX 24 1 23 2 22 3 21 4 20 5 2 6 1 7 3 8 4 9 5 10 19 11 6 12
REMARK SMILES IDX 8 13 7 14 9 15 10 16 18 17 11 18 16 19 12 20 17 21 13 22
REMARK SMILES IDX 14 23 15 24 25 25 26 26 27 27 28 28 29 29 30 30 31 31 32 32
REMARK SMILES IDX 33 33 91 34 34 35 90 36 35 37 36 38 37 39 84 40 38 41 89 42
REMARK SMILES IDX 83 43 85 44 39 45 88 46 82 47 81 48 40 50 70 51 51 52 69 53
REMARK SMILES IDX 52 54 55 55 68 56 86 57 53 58 54 59 67 61 87 62 56 63 41 64
REMARK SMILES IDX 42 65 50 66 43 67 49 68 44 69 45 70 46 71 47 72 48 73 71 74
REMARK SMILES IDX 72 75 80 76 73 77 79 78 74 79 75 80 76 81 77 82 78 83 57 84
REMARK SMILES IDX 58 85 66 86 59 87 65 88 60 89 61 90 62 91 63 92 64 93
REMARK H PARENT 85 49 55 60
REMARK Flexibility Score: inf
ROOT
ATOM      1  C   UNL A   1      33.039  22.179  26.926  1.00  0.00     0.188 C 
ENDROOT
BRANCH   1   2
ATOM      2  O   UNL A   1      32.141  22.264  25.830  1.00  0.00    -0.376 OA
BRANCH   2   3
ATOM      3  C   UNL A   1      32.205  21.262  24.829  1.00  0.00     0.202 C 
BRANCH   3   4
ATOM      4  C   UNL A   1      32.703  21.613  23.424  1.00  0.00     0.261 C 
BRANCH   4   5
ATOM      5  O   UNL A   1      32.116  22.746  22.778  1.00  0.00    -0.463 OA
BRANCH   5   6
ATOM      6  C   UNL A   1      32.795  23.873  22.445  1.00  0.00     0.310 C 
ATOM      7  O   UNL A   1      34.022  23.834  22.368  1.00  0.00    -0.252 OA
BRANCH   6   8
ATOM      8  C   UNL A   1      32.040  25.179  22.289  1.00  0.00     0.158 C 
BRANCH   8   9
ATOM      9  C   UNL A   1      31.529  25.742  23.585  1.00  0.00    -0.036 A 
ATOM     10  C   UNL A   1      30.646  25.019  24.391  1.00  0.00     0.004 A 
ATOM     11  C   UNL A   1      32.015  26.971  24.044  1.00  0.00     0.013 A 
ATOM     12  C   UNL A   1      30.295  25.501  25.651  1.00  0.00     0.001 A 
ATOM     13  C   UNL A   1      31.763  27.405  25.347  1.00  0.00    -0.018 A 
ATOM     14  C   UNL A   1      30.873  26.676  26.143  1.00  0.00     0.009 A 
BRANCH  13  15
ATOM     15  C   UNL A   1      32.575  28.521  25.869  1.00  0.00    -0.011 A 
ATOM     16  C   UNL A   1      33.932  28.364  26.357  1.00  0.00     0.027 A 
ATOM     17  C   UNL A   1      31.949  29.696  26.058  1.00  0.00     0.080 A 
ATOM     18  C   UNL A   1      34.547  29.370  26.990  1.00  0.00     0.095 A 
ATOM     19  C   UNL A   1      32.626  30.831  26.741  1.00  0.00     0.255 A 
ATOM     20  N   UNL A   1      33.916  30.585  27.180  1.00  0.00    -0.258 N 
ATOM     21  O   UNL A   1      32.006  31.879  26.891  1.00  0.00    -0.269 OA
BRANCH  20  22
ATOM     22  C   UNL A   1      34.585  31.661  27.863  1.00  0.00     0.451 C 
ATOM     23  F   UNL A   1      34.212  31.723  29.165  1.00  0.00    -0.185 F 
ATOM     24  F   UNL A   1      35.931  31.503  27.820  1.00  0.00    -0.185 F 
ENDBRANCH  20  22
ENDBRANCH  13  15
ENDBRANCH   8   9
ENDBRANCH   6   8
ENDBRANCH   5   6
ENDBRANCH   4   5
ENDBRANCH   3   4
ENDBRANCH   2   3
ENDBRANCH   1   2
BRANCH   1  25
ATOM     25  C   UNL A   1      34.379  21.442  26.785  1.00  0.00     0.188 C 
BRANCH  25  26
ATOM     26  O   UNL A   1      35.444  22.062  26.089  1.00  0.00    -0.376 OA
BRANCH  26  27
ATOM     27  C   UNL A   1      36.186  21.290  25.149  1.00  0.00     0.202 C 
BRANCH  27  28
ATOM     28  C   UNL A   1      37.699  21.148  25.324  1.00  0.00     0.261 C 
BRANCH  28  29
ATOM     29  O   UNL A   1      38.334  22.401  25.649  1.00  0.00    -0.460 OA
BRANCH  29  30
ATOM     30  C   UNL A   1      39.422  22.290  26.439  1.00  0.00     0.338 C 
ATOM     31  O   UNL A   1      40.216  21.351  26.469  1.00  0.00    -0.246 OA
BRANCH  30  32
ATOM     32  C   UNL A   1      39.656  23.513  27.217  1.00  0.00     0.060 A 
ATOM     33  C   UNL A   1      38.883  24.640  26.906  1.00  0.00     0.016 A 
ATOM     34  C   UNL A   1      40.743  23.613  28.087  1.00  0.00     0.016 A 
ATOM     35  C   UNL A   1      39.244  25.890  27.403  1.00  0.00     0.010 A 
ATOM     36  C   UNL A   1      41.112  24.873  28.575  1.00  0.00     0.010 A 
ATOM     37  C   UNL A   1      40.399  26.021  28.186  1.00  0.00    -0.014 A 
BRANCH  37  38
ATOM     38  C   UNL A   1      40.975  27.375  28.389  1.00  0.00     0.031 A 
ATOM     39  C   UNL A   1      42.338  27.671  27.814  1.00  0.00     0.074 A 
ATOM     40  C   UNL A   1      40.287  28.343  29.018  1.00  0.00     0.049 A 
ATOM     41  N   UNL A   1      43.019  28.788  27.829  1.00  0.00    -0.248 NA
ATOM     42  C   UNL A   1      43.020  26.559  27.129  1.00  0.00     0.031 C 
ATOM     43  C   UNL A   1      38.943  28.203  29.576  1.00  0.00     0.029 A 
ATOM     44  N   UNL A   1      40.629  29.646  29.281  1.00  0.00    -0.354 N 
ATOM     45  C   UNL A   1      44.210  28.514  27.164  1.00  0.00     0.074 A 
ATOM     46  C   UNL A   1      44.169  27.118  26.784  1.00  0.00     0.031 C 
ATOM     47  C   UNL A   1      38.573  29.379  30.115  1.00  0.00     0.029 A 
ATOM     48  C   UNL A   1      39.660  30.345  29.959  1.00  0.00     0.049 A 
ATOM     49  H   UNL A   1      41.488  30.042  29.010  1.00  0.00     0.167 HD
ATOM     50  C   UNL A   1      45.243  29.345  26.888  1.00  0.00     0.031 A 
ATOM     51  C   UNL A   1      39.653  31.616  30.407  1.00  0.00     0.031 A 
ATOM     52  C   UNL A   1      45.293  30.730  27.271  1.00  0.00     0.049 A 
ATOM     53  C   UNL A   1      40.840  32.506  30.144  1.00  0.00     0.074 A 
ATOM     54  C   UNL A   1      46.288  31.658  27.018  1.00  0.00     0.029 A 
ATOM     55  N   UNL A   1      44.311  31.385  27.998  1.00  0.00    -0.354 N 
ATOM     56  N   UNL A   1      41.944  32.238  29.487  1.00  0.00    -0.248 NA
ATOM     57  C   UNL A   1      40.773  33.875  30.675  1.00  0.00     0.031 C 
ATOM     58  C   UNL A   1      45.931  32.861  27.637  1.00  0.00     0.029 A 
ATOM     59  C   UNL A   1      44.688  32.697  28.226  1.00  0.00     0.049 A 
ATOM     60  H   UNL A   1      43.470  30.977  28.306  1.00  0.00     0.167 HD
ATOM     61  C   UNL A   1      42.685  33.417  29.495  1.00  0.00     0.074 A 
ATOM     62  C   UNL A   1      41.903  34.398  30.218  1.00  0.00     0.031 C 
ATOM     63  C   UNL A   1      43.900  33.666  28.946  1.00  0.00     0.031 A 
BRANCH  50  64
ATOM     64  C   UNL A   1      46.426  28.757  26.167  1.00  0.00    -0.014 A 
ATOM     65  C   UNL A   1      46.404  28.545  24.776  1.00  0.00     0.010 A 
ATOM     66  C   UNL A   1      47.586  28.429  26.892  1.00  0.00     0.010 A 
ATOM     67  C   UNL A   1      47.504  27.972  24.131  1.00  0.00     0.020 A 
ATOM     68  C   UNL A   1      48.697  27.880  26.247  1.00  0.00     0.020 A 
ATOM     69  C   UNL A   1      48.641  27.635  24.873  1.00  0.00     0.054 A 
BRANCH  69  70
ATOM     70  S   UNL A   1      50.057  26.895  24.014  1.00  0.00     0.124 S 
ATOM     71  O   UNL A   1      49.411  26.245  22.876  1.00  0.00    -0.237 OA
ATOM     72  O   UNL A   1      50.880  28.057  23.690  1.00  0.00    -0.237 OA
ATOM     73  O   UNL A   1      50.628  25.989  25.007  1.00  0.00    -0.744 OA
ENDBRANCH  69  70
ENDBRANCH  50  64
BRANCH  51  74
ATOM     74  C   UNL A   1      38.474  32.135  31.151  1.00  0.00    -0.014 A 
ATOM     75  C   UNL A   1      38.379  31.973  32.544  1.00  0.00     0.010 A 
ATOM     76  C   UNL A   1      37.434  32.788  30.465  1.00  0.00     0.010 A 
ATOM     77  C   UNL A   1      37.257  32.440  33.236  1.00  0.00     0.020 A 
ATOM     78  C   UNL A   1      36.324  33.279  31.156  1.00  0.00     0.020 A 
ATOM     79  C   UNL A   1      36.237  33.091  32.537  1.00  0.00     0.054 A 
BRANCH  79  80
ATOM     80  S   UNL A   1      34.814  33.736  33.461  1.00  0.00     0.124 S 
ATOM     81  O   UNL A   1      34.822  35.146  33.085  1.00  0.00    -0.237 OA
ATOM     82  O   UNL A   1      33.707  32.944  32.929  1.00  0.00    -0.237 OA
ATOM     83  O   UNL A   1      35.157  33.455  34.854  1.00  0.00    -0.744 OA
ENDBRANCH  79  80
ENDBRANCH  51  74
BRANCH  63  84
ATOM     84  C   UNL A   1      44.444  35.066  29.066  1.00  0.00    -0.014 A 
ATOM     85  C   UNL A   1      44.065  36.079  28.168  1.00  0.00     0.010 A 
ATOM     86  C   UNL A   1      45.319  35.379  30.122  1.00  0.00     0.010 A 
ATOM     87  C   UNL A   1      44.581  37.371  28.301  1.00  0.00     0.020 A 
ATOM     88  C   UNL A   1      45.818  36.676  30.274  1.00  0.00     0.020 A 
ATOM     89  C   UNL A   1      45.459  37.661  29.352  1.00  0.00     0.054 A 
BRANCH  89  90
ATOM     90  S   UNL A   1      46.098  39.350  29.523  1.00  0.00     0.124 S 
ATOM     91  O   UNL A   1      44.903  40.086  29.930  1.00  0.00    -0.237 OA
ATOM     92  O   UNL A   1      47.126  39.205  30.551  1.00  0.00    -0.237 OA
ATOM     93  O   UNL A   1      46.601  39.666  28.188  1.00  0.00    -0.744 OA
ENDBRANCH  89  90
ENDBRANCH  63  84
ENDBRANCH  37  38
ENDBRANCH  30  32
ENDBRANCH  29  30
ENDBRANCH  28  29
ENDBRANCH  27  28
ENDBRANCH  26  27
ENDBRANCH  25  26
ENDBRANCH   1  25
TORSDOF 23
ENDMDL
MODEL 3
REMARK VINA RESULT:      -9.5      3.760      9.748
REMARK SMILES O=C(Cc1cccc(-c2ccn(C(F)F)c(=O)c2)c1)OCCOCCOCCOC(=O)c1ccc(-c2c3nc(c(-c4ccc(S(=O)(=O)[O-])cc4)c4ccc([nH]4)c(-c4ccc(S(=O)(=O)[O-])cc4)c4nc(c(-c5ccc(S(=O)(=O)[O-])cc5)c5ccc2[nH]5)C=C4)C=C3)cc1
REMARK SMILES IDX 24 1 23 2 22 3 21 4 20 5 2 6 1 7 3 8 4 9 5 10 19 11 6 12
REMARK SMILES IDX 8 13 7 14 9 15 10 16 18 17 11 18 16 19 12 20 17 21 13 22
REMARK SMILES IDX 14 23 15 24 25 25 26 26 27 27 28 28 29 29 30 30 31 31 32 32
REMARK SMILES IDX 33 33 91 34 34 35 90 36 35 37 36 38 37 39 84 40 38 41 89 42
REMARK SMILES IDX 83 43 85 44 39 45 88 46 82 47 81 48 40 50 70 51 51 52 69 53
REMARK SMILES IDX 52 54 55 55 68 56 86 57 53 58 54 59 67 61 87 62 56 63 41 64
REMARK SMILES IDX 42 65 50 66 43 67 49 68 44 69 45 70 46 71 47 72 48 73 71 74
REMARK SMILES IDX 72 75 80 76 73 77 79 78 74 79 75 80 76 81 77 82 78 83 57 84
REMARK SMILES IDX 58 85 66 86 59 87 65 88 60 89 61 90 62 91 63 92 64 93
REMARK H PARENT 85 49 55 60
REMARK Flexibility Score: inf
ROOT
ATOM      1  C   UNL A   1      32.279  22.608  26.668  1.00  0.00     0.188 C 
ENDROOT
BRANCH   1   2
ATOM      2  O   UNL A   1      31.711  21.732  25.706  1.00  0.00    -0.376 OA
BRANCH   2   3
ATOM      3  C   UNL A   1      32.585  21.003  24.861  1.00  0.00     0.202 C 
BRANCH   3   4
ATOM      4  C   UNL A   1      32.653  21.328  23.365  1.00  0.00     0.261 C 
BRANCH   4   5
ATOM      5  O   UNL A   1      32.284  22.649  22.958  1.00  0.00    -0.463 OA
BRANCH   5   6
ATOM      6  C   UNL A   1      33.159  23.581  22.503  1.00  0.00     0.310 C 
ATOM      7  O   UNL A   1      34.366  23.387  22.637  1.00  0.00    -0.252 OA
BRANCH   6   8
ATOM      8  C   UNL A   1      32.631  24.889  21.947  1.00  0.00     0.158 C 
BRANCH   8   9
ATOM      9  C   UNL A   1      31.819  25.683  22.931  1.00  0.00    -0.036 A 
ATOM     10  C   UNL A   1      30.553  25.253  23.338  1.00  0.00     0.004 A 
ATOM     11  C   UNL A   1      32.371  26.822  23.525  1.00  0.00     0.013 A 
ATOM     12  C   UNL A   1      29.877  25.929  24.353  1.00  0.00     0.001 A 
ATOM     13  C   UNL A   1      31.757  27.436  24.619  1.00  0.00    -0.018 A 
ATOM     14  C   UNL A   1      30.487  27.000  25.013  1.00  0.00     0.009 A 
BRANCH  13  15
ATOM     15  C   UNL A   1      32.551  28.403  25.400  1.00  0.00    -0.011 A 
ATOM     16  C   UNL A   1      33.824  28.080  26.018  1.00  0.00     0.027 A 
ATOM     17  C   UNL A   1      31.967  29.579  25.690  1.00  0.00     0.080 A 
ATOM     18  C   UNL A   1      34.403  28.937  26.867  1.00  0.00     0.095 A 
ATOM     19  C   UNL A   1      32.608  30.551  26.615  1.00  0.00     0.255 A 
ATOM     20  N   UNL A   1      33.816  30.154  27.164  1.00  0.00    -0.258 N 
ATOM     21  O   UNL A   1      32.030  31.608  26.849  1.00  0.00    -0.269 OA
BRANCH  20  22
ATOM     22  C   UNL A   1      34.445  31.068  28.080  1.00  0.00     0.451 C 
ATOM     23  F   UNL A   1      35.398  30.447  28.817  1.00  0.00    -0.185 F 
ATOM     24  F   UNL A   1      35.031  32.096  27.417  1.00  0.00    -0.185 F 
ENDBRANCH  20  22
ENDBRANCH  13  15
ENDBRANCH   8   9
ENDBRANCH   6   8
ENDBRANCH   5   6
ENDBRANCH   4   5
ENDBRANCH   3   4
ENDBRANCH   2   3
ENDBRANCH   1   2
BRANCH   1  25
ATOM     25  C   UNL A   1      33.680  22.341  27.239  1.00  0.00     0.188 C 
BRANCH  25  26
ATOM     26  O   UNL A   1      34.775  23.113  26.783  1.00  0.00    -0.376 OA
BRANCH  26  27
ATOM     27  C   UNL A   1      35.804  22.466  26.039  1.00  0.00     0.202 C 
BRANCH  27  28
ATOM     28  C   UNL A   1      37.056  23.254  25.648  1.00  0.00     0.261 C 
BRANCH  28  29
ATOM     29  O   UNL A   1      38.209  22.405  25.483  1.00  0.00    -0.460 OA
BRANCH  29  30
ATOM     30  C   UNL A   1      39.154  22.552  26.436  1.00  0.00     0.338 C 
ATOM     31  O   UNL A   1      39.882  21.672  26.890  1.00  0.00    -0.246 OA
BRANCH  30  32
ATOM     32  C   UNL A   1      39.329  23.960  26.815  1.00  0.00     0.060 A 
ATOM     33  C   UNL A   1      39.995  24.799  25.912  1.00  0.00     0.016 A 
ATOM     34  C   UNL A   1      39.030  24.397  28.107  1.00  0.00     0.016 A 
ATOM     35  C   UNL A   1      40.438  26.054  26.325  1.00  0.00     0.010 A 
ATOM     36  C   UNL A   1      39.487  25.653  28.523  1.00  0.00     0.010 A 
ATOM     37  C   UNL A   1      40.243  26.459  27.652  1.00  0.00    -0.014 A 
BRANCH  37  38
ATOM     38  C   UNL A   1      41.032  27.604  28.174  1.00  0.00     0.031 A 
ATOM     39  C   UNL A   1      40.290  28.809  28.697  1.00  0.00     0.074 A 
ATOM     40  C   UNL A   1      42.373  27.561  28.238  1.00  0.00     0.049 A 
ATOM     41  N   UNL A   1      40.763  29.903  29.237  1.00  0.00    -0.248 NA
ATOM     42  C   UNL A   1      38.821  28.772  28.602  1.00  0.00     0.031 C 
ATOM     43  C   UNL A   1      43.208  26.439  27.812  1.00  0.00     0.029 A 
ATOM     44  N   UNL A   1      43.270  28.492  28.702  1.00  0.00    -0.354 N 
ATOM     45  C   UNL A   1      39.654  30.686  29.539  1.00  0.00     0.074 A 
ATOM     46  C   UNL A   1      38.487  29.954  29.096  1.00  0.00     0.031 C 
ATOM     47  C   UNL A   1      44.498  26.747  28.037  1.00  0.00     0.029 A 
ATOM     48  C   UNL A   1      44.580  28.094  28.603  1.00  0.00     0.049 A 
ATOM     49  H   UNL A   1      42.998  29.363  29.070  1.00  0.00     0.167 HD
ATOM     50  C   UNL A   1      39.605  31.901  30.135  1.00  0.00     0.031 A 
ATOM     51  C   UNL A   1      45.716  28.743  28.925  1.00  0.00     0.031 A 
ATOM     52  C   UNL A   1      40.761  32.638  30.568  1.00  0.00     0.049 A 
ATOM     53  C   UNL A   1      45.641  30.121  29.529  1.00  0.00     0.074 A 
ATOM     54  C   UNL A   1      40.811  33.868  31.201  1.00  0.00     0.029 A 
ATOM     55  N   UNL A   1      42.073  32.219  30.406  1.00  0.00    -0.354 N 
ATOM     56  N   UNL A   1      44.582  30.833  29.835  1.00  0.00    -0.248 NA
ATOM     57  C   UNL A   1      46.919  30.778  29.840  1.00  0.00     0.031 C 
ATOM     58  C   UNL A   1      42.155  34.216  31.375  1.00  0.00     0.029 A 
ATOM     59  C   UNL A   1      42.940  33.177  30.901  1.00  0.00     0.049 A 
ATOM     60  H   UNL A   1      42.346  31.366  29.998  1.00  0.00     0.167 HD
ATOM     61  C   UNL A   1      45.067  32.006  30.409  1.00  0.00     0.074 A 
ATOM     62  C   UNL A   1      46.511  31.904  30.410  1.00  0.00     0.031 C 
ATOM     63  C   UNL A   1      44.377  33.066  30.898  1.00  0.00     0.031 A 
BRANCH  50  64
ATOM     64  C   UNL A   1      38.248  32.527  30.313  1.00  0.00    -0.014 A 
ATOM     65  C   UNL A   1      37.740  33.452  29.382  1.00  0.00     0.010 A 
ATOM     66  C   UNL A   1      37.460  32.168  31.422  1.00  0.00     0.010 A 
ATOM     67  C   UNL A   1      36.489  34.041  29.583  1.00  0.00     0.020 A 
ATOM     68  C   UNL A   1      36.198  32.736  31.612  1.00  0.00     0.020 A 
ATOM     69  C   UNL A   1      35.729  33.685  30.702  1.00  0.00     0.054 A 
BRANCH  69  70
ATOM     70  S   UNL A   1      34.107  34.462  30.939  1.00  0.00     0.124 S 
ATOM     71  O   UNL A   1      33.416  34.099  29.704  1.00  0.00    -0.237 OA
ATOM     72  O   UNL A   1      33.612  33.811  32.150  1.00  0.00    -0.237 OA
ATOM     73  O   UNL A   1      34.421  35.881  31.083  1.00  0.00    -0.744 OA
ENDBRANCH  69  70
ENDBRANCH  50  64
BRANCH  51  74
ATOM     74  C   UNL A   1      47.035  28.095  28.690  1.00  0.00    -0.014 A 
ATOM     75  C   UNL A   1      47.612  28.092  27.408  1.00  0.00     0.010 A 
ATOM     76  C   UNL A   1      47.715  27.469  29.749  1.00  0.00     0.010 A 
ATOM     77  C   UNL A   1      48.839  27.459  27.187  1.00  0.00     0.020 A 
ATOM     78  C   UNL A   1      48.954  26.858  29.537  1.00  0.00     0.020 A 
ATOM     79  C   UNL A   1      49.503  26.848  28.254  1.00  0.00     0.054 A 
BRANCH  79  80
ATOM     80  S   UNL A   1      51.119  26.078  27.956  1.00  0.00     0.124 S 
ATOM     81  O   UNL A   1      51.677  26.012  29.303  1.00  0.00    -0.237 OA
ATOM     82  O   UNL A   1      50.754  24.797  27.357  1.00  0.00    -0.237 OA
ATOM     83  O   UNL A   1      51.780  27.014  27.048  1.00  0.00    -0.744 OA
ENDBRANCH  79  80
ENDBRANCH  51  74
BRANCH  63  84
ATOM     84  C   UNL A   1      45.170  34.187  31.517  1.00  0.00    -0.014 A 
ATOM     85  C   UNL A   1      45.510  35.337  30.785  1.00  0.00     0.010 A 
ATOM     86  C   UNL A   1      45.546  34.101  32.871  1.00  0.00     0.010 A 
ATOM     87  C   UNL A   1      46.245  36.365  31.383  1.00  0.00     0.020 A 
ATOM     88  C   UNL A   1      46.258  35.138  33.480  1.00  0.00     0.020 A 
ATOM     89  C   UNL A   1      46.619  36.257  32.727  1.00  0.00     0.054 A 
BRANCH  89  90
ATOM     90  S   UNL A   1      47.549  37.614  33.492  1.00  0.00     0.124 S 
ATOM     91  O   UNL A   1      48.406  38.051  32.393  1.00  0.00    -0.237 OA
ATOM     92  O   UNL A   1      46.495  38.550  33.878  1.00  0.00    -0.237 OA
ATOM     93  O   UNL A   1      48.242  36.972  34.607  1.00  0.00    -0.744 OA
ENDBRANCH  89  90
ENDBRANCH  63  84
ENDBRANCH  37  38
ENDBRANCH  30  32
ENDBRANCH  29  30
ENDBRANCH  28  29
ENDBRANCH  27  28
ENDBRANCH  26  27
ENDBRANCH  25  26
ENDBRANCH   1  25
TORSDOF 23
ENDMDL
