MODEL 1
REMARK VINA RESULT:     -10.1      0.000      0.000
REMARK SMILES Nc1cc(C(=O)OCCOCCOCCOC(=O)c2ccc(-c3c4nc(c(-c5ccc(S(=O)(=O)[O-])cc5)c5ccc([nH]5)c(-c5ccc(S(=O)(=O)[O-])cc5)c5nc(c(-c6ccc(S(=O)(=O)[O-])cc6)c6ccc3[nH]6)C=C5)C=C4)cc2)ccc1N1CC2(CCOCC2)C1
REMARK SMILES IDX 12 1 11 2 10 3 9 4 8 5 7 6 5 7 6 8 4 9 2 10 3 11 81 12 80 13
REMARK SMILES IDX 79 14 1 15 82 18 83 19 90 20 84 21 85 22 89 23 86 24 88 25
REMARK SMILES IDX 87 26 13 27 14 28 15 29 16 30 17 31 18 32 19 33 20 34 78 35
REMARK SMILES IDX 21 36 77 37 22 38 23 39 24 40 71 41 25 42 76 43 70 44 72 45
REMARK SMILES IDX 26 46 75 47 69 48 68 49 27 51 57 52 38 53 56 54 39 55 42 56
REMARK SMILES IDX 55 57 73 58 40 59 41 60 54 62 74 63 43 64 28 65 29 66 37 67
REMARK SMILES IDX 30 68 36 69 31 70 32 71 33 72 34 73 35 74 58 75 59 76 67 77
REMARK SMILES IDX 60 78 66 79 61 80 62 81 63 82 64 83 65 84 44 85 45 86 53 87
REMARK SMILES IDX 46 88 52 89 47 90 48 91 49 92 50 93 51 94
REMARK H PARENT 1 16 1 17 72 50 42 61
REMARK Flexibility Score: inf
ROOT
ATOM      1  C   UNL A   1      30.669  29.046  23.887  1.00  0.00     0.188 C 
ENDROOT
BRANCH   1   2
ATOM      2  C   UNL A   1      31.417  28.965  22.539  1.00  0.00     0.188 C 
BRANCH   2   3
ATOM      3  O   UNL A   1      32.820  29.132  22.489  1.00  0.00    -0.376 OA
BRANCH   3   4
ATOM      4  C   UNL A   1      33.646  28.105  21.966  1.00  0.00     0.202 C 
BRANCH   4   5
ATOM      5  C   UNL A   1      33.139  26.675  21.739  1.00  0.00     0.261 C 
BRANCH   5   6
ATOM      6  O   UNL A   1      33.972  25.641  22.278  1.00  0.00    -0.460 OA
BRANCH   6   7
ATOM      7  C   UNL A   1      34.017  25.604  23.638  1.00  0.00     0.338 C 
ATOM      8  O   UNL A   1      34.016  26.548  24.395  1.00  0.00    -0.246 OA
BRANCH   7   9
ATOM      9  C   UNL A   1      33.893  24.207  24.106  1.00  0.00     0.062 A 
ATOM     10  C   UNL A   1      34.354  22.604  25.891  1.00  0.00     0.056 A 
ATOM     11  C   UNL A   1      34.360  23.913  25.391  1.00  0.00     0.043 A 
ATOM     12  C   UNL A   1      33.855  21.566  25.073  1.00  0.00     0.060 A 
ATOM     13  C   UNL A   1      33.351  21.894  23.792  1.00  0.00     0.029 A 
ATOM     14  C   UNL A   1      33.352  23.205  23.310  1.00  0.00     0.018 A 
BRANCH  10  15
ATOM     15  N   UNL A   1      34.782  22.421  27.202  1.00  0.00    -0.397 N 
ATOM     16  H   UNL A   1      34.579  23.101  27.884  1.00  0.00     0.156 HD
ATOM     17  H   UNL A   1      35.287  21.613  27.446  1.00  0.00     0.156 HD
ENDBRANCH  10  15
BRANCH  12  18
ATOM     18  N   UNL A   1      33.909  20.188  25.387  1.00  0.00    -0.369 N 
ATOM     19  C   UNL A   1      34.759  19.108  25.007  1.00  0.00     0.125 C 
ATOM     20  C   UNL A   1      32.740  19.366  25.529  1.00  0.00     0.125 C 
ATOM     21  C   UNL A   1      33.494  18.239  24.798  1.00  0.00     0.010 C 
ATOM     22  C   UNL A   1      33.448  16.896  25.531  1.00  0.00     0.039 C 
ATOM     23  C   UNL A   1      33.050  18.051  23.339  1.00  0.00     0.039 C 
ATOM     24  C   UNL A   1      34.275  15.875  24.758  1.00  0.00     0.161 C 
ATOM     25  C   UNL A   1      33.912  16.972  22.693  1.00  0.00     0.161 C 
ATOM     26  O   UNL A   1      33.785  15.748  23.423  1.00  0.00    -0.381 OA
ENDBRANCH  12  18
ENDBRANCH   7   9
ENDBRANCH   6   7
ENDBRANCH   5   6
ENDBRANCH   4   5
ENDBRANCH   3   4
ENDBRANCH   2   3
ENDBRANCH   1   2
BRANCH   1  27
ATOM     27  O   UNL A   1      31.122  28.291  24.988  1.00  0.00    -0.376 OA
BRANCH  27  28
ATOM     28  C   UNL A   1      31.899  28.886  26.011  1.00  0.00     0.202 C 
BRANCH  28  29
ATOM     29  C   UNL A   1      33.370  29.316  25.887  1.00  0.00     0.261 C 
BRANCH  29  30
ATOM     30  O   UNL A   1      34.239  29.036  26.983  1.00  0.00    -0.460 OA
BRANCH  30  31
ATOM     31  C   UNL A   1      34.607  30.120  27.712  1.00  0.00     0.338 C 
ATOM     32  O   UNL A   1      33.904  31.054  28.057  1.00  0.00    -0.246 OA
BRANCH  31  33
ATOM     33  C   UNL A   1      35.990  29.929  28.181  1.00  0.00     0.060 A 
ATOM     34  C   UNL A   1      37.039  30.083  27.265  1.00  0.00     0.016 A 
ATOM     35  C   UNL A   1      36.243  29.558  29.501  1.00  0.00     0.016 A 
ATOM     36  C   UNL A   1      38.352  29.843  27.667  1.00  0.00     0.010 A 
ATOM     37  C   UNL A   1      37.557  29.299  29.896  1.00  0.00     0.010 A 
ATOM     38  C   UNL A   1      38.614  29.414  28.975  1.00  0.00    -0.014 A 
BRANCH  38  39
ATOM     39  C   UNL A   1      39.966  28.927  29.338  1.00  0.00     0.031 A 
ATOM     40  C   UNL A   1      40.895  29.860  30.068  1.00  0.00     0.074 A 
ATOM     41  C   UNL A   1      40.363  27.679  29.028  1.00  0.00     0.049 A 
ATOM     42  N   UNL A   1      42.136  29.672  30.433  1.00  0.00    -0.248 NA
ATOM     43  C   UNL A   1      40.351  31.178  30.432  1.00  0.00     0.031 C 
ATOM     44  C   UNL A   1      39.541  26.669  28.362  1.00  0.00     0.029 A 
ATOM     45  N   UNL A   1      41.569  27.054  29.228  1.00  0.00    -0.354 N 
ATOM     46  C   UNL A   1      42.527  30.852  31.057  1.00  0.00     0.074 A 
ATOM     47  C   UNL A   1      41.399  31.755  31.002  1.00  0.00     0.031 C 
ATOM     48  C   UNL A   1      40.273  25.553  28.197  1.00  0.00     0.029 A 
ATOM     49  C   UNL A   1      41.622  25.781  28.712  1.00  0.00     0.049 A 
ATOM     50  H   UNL A   1      42.323  27.477  29.697  1.00  0.00     0.167 HD
ATOM     51  C   UNL A   1      43.718  31.154  31.625  1.00  0.00     0.031 A 
ATOM     52  C   UNL A   1      42.650  24.912  28.640  1.00  0.00     0.031 A 
ATOM     53  C   UNL A   1      44.842  30.258  31.666  1.00  0.00     0.049 A 
ATOM     54  C   UNL A   1      43.991  25.303  29.211  1.00  0.00     0.074 A 
ATOM     55  C   UNL A   1      46.085  30.466  32.240  1.00  0.00     0.029 A 
ATOM     56  N   UNL A   1      44.867  28.990  31.108  1.00  0.00    -0.354 N 
ATOM     57  N   UNL A   1      44.335  26.409  29.828  1.00  0.00    -0.248 NA
ATOM     58  C   UNL A   1      45.081  24.324  29.081  1.00  0.00     0.031 C 
ATOM     59  C   UNL A   1      46.882  29.349  31.973  1.00  0.00     0.029 A 
ATOM     60  C   UNL A   1      46.112  28.416  31.294  1.00  0.00     0.049 A 
ATOM     61  H   UNL A   1      44.111  28.562  30.645  1.00  0.00     0.167 HD
ATOM     62  C   UNL A   1      45.669  26.242  30.190  1.00  0.00     0.074 A 
ATOM     63  C   UNL A   1      46.065  24.927  29.734  1.00  0.00     0.031 C 
ATOM     64  C   UNL A   1      46.491  27.101  30.843  1.00  0.00     0.031 A 
BRANCH  51  65
ATOM     65  C   UNL A   1      43.881  32.528  32.220  1.00  0.00    -0.014 A 
ATOM     66  C   UNL A   1      44.225  33.633  31.422  1.00  0.00     0.010 A 
ATOM     67  C   UNL A   1      43.630  32.723  33.590  1.00  0.00     0.010 A 
ATOM     68  C   UNL A   1      44.341  34.904  31.990  1.00  0.00     0.020 A 
ATOM     69  C   UNL A   1      43.718  33.997  34.156  1.00  0.00     0.020 A 
ATOM     70  C   UNL A   1      44.085  35.079  33.353  1.00  0.00     0.054 A 
BRANCH  70  71
ATOM     71  S   UNL A   1      44.200  36.748  34.053  1.00  0.00     0.124 S 
ATOM     72  O   UNL A   1      44.935  36.504  35.293  1.00  0.00    -0.237 OA
ATOM     73  O   UNL A   1      44.934  37.477  33.022  1.00  0.00    -0.237 OA
ATOM     74  O   UNL A   1      42.807  37.150  34.225  1.00  0.00    -0.744 OA
ENDBRANCH  70  71
ENDBRANCH  51  65
BRANCH  52  75
ATOM     75  C   UNL A   1      42.471  23.588  27.982  1.00  0.00    -0.014 A 
ATOM     76  C   UNL A   1      41.697  22.582  28.590  1.00  0.00     0.010 A 
ATOM     77  C   UNL A   1      43.098  23.315  26.753  1.00  0.00     0.010 A 
ATOM     78  C   UNL A   1      41.579  21.322  27.997  1.00  0.00     0.020 A 
ATOM     79  C   UNL A   1      42.957  22.065  26.140  1.00  0.00     0.020 A 
ATOM     80  C   UNL A   1      42.211  21.072  26.775  1.00  0.00     0.054 A 
BRANCH  80  81
ATOM     81  S   UNL A   1      42.019  19.438  26.010  1.00  0.00     0.124 S 
ATOM     82  O   UNL A   1      42.838  19.566  24.808  1.00  0.00    -0.237 OA
ATOM     83  O   UNL A   1      42.542  18.544  27.040  1.00  0.00    -0.237 OA
ATOM     84  O   UNL A   1      40.580  19.336  25.778  1.00  0.00    -0.744 OA
ENDBRANCH  80  81
ENDBRANCH  52  75
BRANCH  64  85
ATOM     85  C   UNL A   1      47.889  26.632  31.154  1.00  0.00    -0.014 A 
ATOM     86  C   UNL A   1      48.953  26.845  30.259  1.00  0.00     0.010 A 
ATOM     87  C   UNL A   1      48.153  26.021  32.395  1.00  0.00     0.010 A 
ATOM     88  C   UNL A   1      50.247  26.428  30.586  1.00  0.00     0.020 A 
ATOM     89  C   UNL A   1      49.450  25.630  32.739  1.00  0.00     0.020 A 
ATOM     90  C   UNL A   1      50.487  25.824  31.825  1.00  0.00     0.054 A 
BRANCH  90  91
ATOM     91  S   UNL A   1      52.183  25.332  32.244  1.00  0.00     0.124 S 
ATOM     92  O   UNL A   1      52.947  25.907  31.139  1.00  0.00    -0.237 OA
ATOM     93  O   UNL A   1      52.387  25.963  33.546  1.00  0.00    -0.237 OA
ATOM     94  O   UNL A   1      52.125  23.873  32.266  1.00  0.00    -0.744 OA
ENDBRANCH  90  91
ENDBRANCH  64  85
ENDBRANCH  38  39
ENDBRANCH  31  33
ENDBRANCH  30  31
ENDBRANCH  29  30
ENDBRANCH  28  29
ENDBRANCH  27  28
ENDBRANCH   1  27
TORSDOF 22
ENDMDL
MODEL 2
REMARK VINA RESULT:     -10.1      1.947      2.518
REMARK SMILES Nc1cc(C(=O)OCCOCCOCCOC(=O)c2ccc(-c3c4nc(c(-c5ccc(S(=O)(=O)[O-])cc5)c5ccc([nH]5)c(-c5ccc(S(=O)(=O)[O-])cc5)c5nc(c(-c6ccc(S(=O)(=O)[O-])cc6)c6ccc3[nH]6)C=C5)C=C4)cc2)ccc1N1CC2(CCOCC2)C1
REMARK SMILES IDX 12 1 11 2 10 3 9 4 8 5 7 6 5 7 6 8 4 9 2 10 3 11 81 12 80 13
REMARK SMILES IDX 79 14 1 15 82 18 83 19 90 20 84 21 85 22 89 23 86 24 88 25
REMARK SMILES IDX 87 26 13 27 14 28 15 29 16 30 17 31 18 32 19 33 20 34 78 35
REMARK SMILES IDX 21 36 77 37 22 38 23 39 24 40 71 41 25 42 76 43 70 44 72 45
REMARK SMILES IDX 26 46 75 47 69 48 68 49 27 51 57 52 38 53 56 54 39 55 42 56
REMARK SMILES IDX 55 57 73 58 40 59 41 60 54 62 74 63 43 64 28 65 29 66 37 67
REMARK SMILES IDX 30 68 36 69 31 70 32 71 33 72 34 73 35 74 58 75 59 76 67 77
REMARK SMILES IDX 60 78 66 79 61 80 62 81 63 82 64 83 65 84 44 85 45 86 53 87
REMARK SMILES IDX 46 88 52 89 47 90 48 91 49 92 50 93 51 94
REMARK H PARENT 1 16 1 17 72 50 42 61
REMARK Flexibility Score: inf
ROOT
ATOM      1  C   UNL A   1      30.932  28.963  24.169  1.00  0.00     0.188 C 
ENDROOT
BRANCH   1   2
ATOM      2  C   UNL A   1      31.546  28.824  22.759  1.00  0.00     0.188 C 
BRANCH   2   3
ATOM      3  O   UNL A   1      32.950  28.842  22.585  1.00  0.00    -0.376 OA
BRANCH   3   4
ATOM      4  C   UNL A   1      33.665  27.632  22.407  1.00  0.00     0.202 C 
BRANCH   4   5
ATOM      5  C   UNL A   1      33.012  26.255  22.579  1.00  0.00     0.261 C 
BRANCH   5   6
ATOM      6  O   UNL A   1      33.915  25.186  22.887  1.00  0.00    -0.460 OA
BRANCH   6   7
ATOM      7  C   UNL A   1      34.044  24.922  24.217  1.00  0.00     0.338 C 
ATOM      8  O   UNL A   1      34.278  25.714  25.100  1.00  0.00    -0.246 OA
BRANCH   7   9
ATOM      9  C   UNL A   1      33.679  23.514  24.484  1.00  0.00     0.062 A 
ATOM     10  C   UNL A   1      34.479  21.246  24.918  1.00  0.00     0.056 A 
ATOM     11  C   UNL A   1      34.722  22.614  24.730  1.00  0.00     0.043 A 
ATOM     12  C   UNL A   1      33.148  20.778  24.864  1.00  0.00     0.060 A 
ATOM     13  C   UNL A   1      32.107  21.714  24.655  1.00  0.00     0.029 A 
ATOM     14  C   UNL A   1      32.361  23.076  24.480  1.00  0.00     0.018 A 
BRANCH  10  15
ATOM     15  N   UNL A   1      35.573  20.441  25.216  1.00  0.00    -0.397 N 
ATOM     16  H   UNL A   1      35.677  19.569  24.772  1.00  0.00     0.156 HD
ATOM     17  H   UNL A   1      36.243  20.744  25.870  1.00  0.00     0.156 HD
ENDBRANCH  10  15
BRANCH  12  18
ATOM     18  N   UNL A   1      32.763  19.417  24.902  1.00  0.00    -0.369 N 
ATOM     19  C   UNL A   1      32.946  18.352  25.832  1.00  0.00     0.125 C 
ATOM     20  C   UNL A   1      32.774  18.562  23.749  1.00  0.00     0.125 C 
ATOM     21  C   UNL A   1      33.316  17.431  24.642  1.00  0.00     0.010 C 
ATOM     22  C   UNL A   1      32.536  16.121  24.512  1.00  0.00     0.039 C 
ATOM     23  C   UNL A   1      34.817  17.165  24.451  1.00  0.00     0.039 C 
ATOM     24  C   UNL A   1      33.113  15.097  25.482  1.00  0.00     0.161 C 
ATOM     25  C   UNL A   1      35.260  16.089  25.435  1.00  0.00     0.161 C 
ATOM     26  O   UNL A   1      34.503  14.895  25.223  1.00  0.00    -0.381 OA
ENDBRANCH  12  18
ENDBRANCH   7   9
ENDBRANCH   6   7
ENDBRANCH   5   6
ENDBRANCH   4   5
ENDBRANCH   3   4
ENDBRANCH   2   3
ENDBRANCH   1   2
BRANCH   1  27
ATOM     27  O   UNL A   1      31.481  28.240  25.247  1.00  0.00    -0.376 OA
BRANCH  27  28
ATOM     28  C   UNL A   1      31.771  28.875  26.479  1.00  0.00     0.202 C 
BRANCH  28  29
ATOM     29  C   UNL A   1      32.548  30.191  26.651  1.00  0.00     0.261 C 
BRANCH  29  30
ATOM     30  O   UNL A   1      33.970  30.115  26.747  1.00  0.00    -0.460 OA
BRANCH  30  31
ATOM     31  C   UNL A   1      34.524  30.927  27.682  1.00  0.00     0.338 C 
ATOM     32  O   UNL A   1      34.039  31.934  28.169  1.00  0.00    -0.246 OA
BRANCH  31  33
ATOM     33  C   UNL A   1      35.775  30.315  28.161  1.00  0.00     0.060 A 
ATOM     34  C   UNL A   1      35.804  29.760  29.447  1.00  0.00     0.016 A 
ATOM     35  C   UNL A   1      36.919  30.330  27.363  1.00  0.00     0.016 A 
ATOM     36  C   UNL A   1      36.993  29.234  29.949  1.00  0.00     0.010 A 
ATOM     37  C   UNL A   1      38.114  29.821  27.876  1.00  0.00     0.010 A 
ATOM     38  C   UNL A   1      38.163  29.296  29.181  1.00  0.00    -0.014 A 
BRANCH  38  39
ATOM     39  C   UNL A   1      39.471  28.964  29.794  1.00  0.00     0.031 A 
ATOM     40  C   UNL A   1      39.947  29.784  30.963  1.00  0.00     0.074 A 
ATOM     41  C   UNL A   1      40.223  27.952  29.324  1.00  0.00     0.049 A 
ATOM     42  N   UNL A   1      41.076  29.714  31.616  1.00  0.00    -0.248 NA
ATOM     43  C   UNL A   1      39.026  30.821  31.457  1.00  0.00     0.031 C 
ATOM     44  C   UNL A   1      39.853  27.059  28.226  1.00  0.00     0.029 A 
ATOM     45  N   UNL A   1      41.466  27.515  29.710  1.00  0.00    -0.354 N 
ATOM     46  C   UNL A   1      41.009  30.706  32.590  1.00  0.00     0.074 A 
ATOM     47  C   UNL A   1      39.738  31.375  32.427  1.00  0.00     0.031 C 
ATOM     48  C   UNL A   1      40.855  26.186  28.019  1.00  0.00     0.029 A 
ATOM     49  C   UNL A   1      41.949  26.481  28.943  1.00  0.00     0.049 A 
ATOM     50  H   UNL A   1      41.963  27.903  30.465  1.00  0.00     0.167 HD
ATOM     51  C   UNL A   1      41.924  31.027  33.534  1.00  0.00     0.031 A 
ATOM     52  C   UNL A   1      43.148  25.864  28.966  1.00  0.00     0.031 A 
ATOM     53  C   UNL A   1      43.194  30.367  33.685  1.00  0.00     0.049 A 
ATOM     54  C   UNL A   1      44.181  26.294  29.979  1.00  0.00     0.074 A 
ATOM     55  C   UNL A   1      44.180  30.608  34.627  1.00  0.00     0.029 A 
ATOM     56  N   UNL A   1      43.659  29.347  32.872  1.00  0.00    -0.354 N 
ATOM     57  N   UNL A   1      44.089  27.210  30.915  1.00  0.00    -0.248 NA
ATOM     58  C   UNL A   1      45.478  25.602  29.941  1.00  0.00     0.031 C 
ATOM     59  C   UNL A   1      45.266  29.775  34.344  1.00  0.00     0.029 A 
ATOM     60  C   UNL A   1      44.929  28.967  33.269  1.00  0.00     0.049 A 
ATOM     61  H   UNL A   1      43.159  28.951  32.121  1.00  0.00     0.167 HD
ATOM     62  C   UNL A   1      45.303  27.176  31.598  1.00  0.00     0.074 A 
ATOM     63  C   UNL A   1      46.105  26.145  30.976  1.00  0.00     0.031 C 
ATOM     64  C   UNL A   1      45.714  27.931  32.647  1.00  0.00     0.031 A 
BRANCH  51  65
ATOM     65  C   UNL A   1      41.602  32.169  34.461  1.00  0.00    -0.014 A 
ATOM     66  C   UNL A   1      40.962  31.950  35.694  1.00  0.00     0.010 A 
ATOM     67  C   UNL A   1      41.997  33.474  34.116  1.00  0.00     0.010 A 
ATOM     68  C   UNL A   1      40.700  33.021  36.552  1.00  0.00     0.020 A 
ATOM     69  C   UNL A   1      41.762  34.544  34.984  1.00  0.00     0.020 A 
ATOM     70  C   UNL A   1      41.103  34.311  36.193  1.00  0.00     0.054 A 
BRANCH  70  71
ATOM     71  S   UNL A   1      40.789  35.674  37.347  1.00  0.00     0.124 S 
ATOM     72  O   UNL A   1      42.138  36.183  37.585  1.00  0.00    -0.237 OA
ATOM     73  O   UNL A   1      39.914  36.552  36.574  1.00  0.00    -0.237 OA
ATOM     74  O   UNL A   1      40.159  35.022  38.492  1.00  0.00    -0.744 OA
ENDBRANCH  70  71
ENDBRANCH  51  65
BRANCH  52  75
ATOM     75  C   UNL A   1      43.457  24.784  27.988  1.00  0.00    -0.014 A 
ATOM     76  C   UNL A   1      43.156  23.442  28.281  1.00  0.00     0.010 A 
ATOM     77  C   UNL A   1      44.084  25.091  26.767  1.00  0.00     0.010 A 
ATOM     78  C   UNL A   1      43.500  22.426  27.385  1.00  0.00     0.020 A 
ATOM     79  C   UNL A   1      44.402  24.081  25.853  1.00  0.00     0.020 A 
ATOM     80  C   UNL A   1      44.123  22.753  26.176  1.00  0.00     0.054 A 
BRANCH  80  81
ATOM     81  S   UNL A   1      44.534  21.420  25.016  1.00  0.00     0.124 S 
ATOM     82  O   UNL A   1      45.871  21.036  25.457  1.00  0.00    -0.237 OA
ATOM     83  O   UNL A   1      43.478  20.444  25.271  1.00  0.00    -0.237 OA
ATOM     84  O   UNL A   1      44.469  22.071  23.709  1.00  0.00    -0.744 OA
ENDBRANCH  80  81
ENDBRANCH  52  75
BRANCH  64  85
ATOM     85  C   UNL A   1      47.073  27.640  33.229  1.00  0.00    -0.014 A 
ATOM     86  C   UNL A   1      48.239  28.220  32.699  1.00  0.00     0.010 A 
ATOM     87  C   UNL A   1      47.176  26.819  34.368  1.00  0.00     0.010 A 
ATOM     88  C   UNL A   1      49.485  27.958  33.277  1.00  0.00     0.020 A 
ATOM     89  C   UNL A   1      48.414  26.580  34.968  1.00  0.00     0.020 A 
ATOM     90  C   UNL A   1      49.564  27.140  34.410  1.00  0.00     0.054 A 
BRANCH  90  91
ATOM     91  S   UNL A   1      51.187  26.852  35.169  1.00  0.00     0.124 S 
ATOM     92  O   UNL A   1      51.481  28.155  35.759  1.00  0.00    -0.237 OA
ATOM     93  O   UNL A   1      50.911  25.778  36.119  1.00  0.00    -0.237 OA
ATOM     94  O   UNL A   1      52.035  26.475  34.041  1.00  0.00    -0.744 OA
ENDBRANCH  90  91
ENDBRANCH  64  85
ENDBRANCH  38  39
ENDBRANCH  31  33
ENDBRANCH  30  31
ENDBRANCH  29  30
ENDBRANCH  28  29
ENDBRANCH  27  28
ENDBRANCH   1  27
TORSDOF 22
ENDMDL
MODEL 3
REMARK VINA RESULT:     -10.0      4.546     10.873
REMARK SMILES Nc1cc(C(=O)OCCOCCOCCOC(=O)c2ccc(-c3c4nc(c(-c5ccc(S(=O)(=O)[O-])cc5)c5ccc([nH]5)c(-c5ccc(S(=O)(=O)[O-])cc5)c5nc(c(-c6ccc(S(=O)(=O)[O-])cc6)c6ccc3[nH]6)C=C5)C=C4)cc2)ccc1N1CC2(CCOCC2)C1
REMARK SMILES IDX 12 1 11 2 10 3 9 4 8 5 7 6 5 7 6 8 4 9 2 10 3 11 81 12 80 13
REMARK SMILES IDX 79 14 1 15 82 18 83 19 90 20 84 21 85 22 89 23 86 24 88 25
REMARK SMILES IDX 87 26 13 27 14 28 15 29 16 30 17 31 18 32 19 33 20 34 78 35
REMARK SMILES IDX 21 36 77 37 22 38 23 39 24 40 71 41 25 42 76 43 70 44 72 45
REMARK SMILES IDX 26 46 75 47 69 48 68 49 27 51 57 52 38 53 56 54 39 55 42 56
REMARK SMILES IDX 55 57 73 58 40 59 41 60 54 62 74 63 43 64 28 65 29 66 37 67
REMARK SMILES IDX 30 68 36 69 31 70 32 71 33 72 34 73 35 74 58 75 59 76 67 77
REMARK SMILES IDX 60 78 66 79 61 80 62 81 63 82 64 83 65 84 44 85 45 86 53 87
REMARK SMILES IDX 46 88 52 89 47 90 48 91 49 92 50 93 51 94
REMARK H PARENT 1 16 1 17 72 50 42 61
REMARK Flexibility Score: inf
ROOT
ATOM      1  C   UNL A   1      38.420  21.623  25.496  1.00  0.00     0.188 C 
ENDROOT
BRANCH   1   2
ATOM      2  C   UNL A   1      36.899  21.818  25.674  1.00  0.00     0.188 C 
BRANCH   2   3
ATOM      3  O   UNL A   1      35.989  21.198  24.785  1.00  0.00    -0.376 OA
BRANCH   3   4
ATOM      4  C   UNL A   1      34.679  20.870  25.214  1.00  0.00     0.202 C 
BRANCH   4   5
ATOM      5  C   UNL A   1      33.426  21.305  24.443  1.00  0.00     0.261 C 
BRANCH   5   6
ATOM      6  O   UNL A   1      33.428  22.668  23.997  1.00  0.00    -0.460 OA
BRANCH   6   7
ATOM      7  C   UNL A   1      32.704  22.892  22.866  1.00  0.00     0.338 C 
ATOM      8  O   UNL A   1      32.571  22.145  21.924  1.00  0.00    -0.246 OA
BRANCH   7   9
ATOM      9  C   UNL A   1      31.930  24.143  23.006  1.00  0.00     0.062 A 
ATOM     10  C   UNL A   1      31.824  26.541  22.543  1.00  0.00     0.056 A 
ATOM     11  C   UNL A   1      32.448  25.293  22.400  1.00  0.00     0.043 A 
ATOM     12  C   UNL A   1      30.642  26.625  23.313  1.00  0.00     0.060 A 
ATOM     13  C   UNL A   1      30.117  25.442  23.882  1.00  0.00     0.029 A 
ATOM     14  C   UNL A   1      30.741  24.203  23.722  1.00  0.00     0.018 A 
BRANCH  10  15
ATOM     15  N   UNL A   1      32.380  27.612  21.854  1.00  0.00    -0.397 N 
ATOM     16  H   UNL A   1      32.981  27.448  21.092  1.00  0.00     0.156 HD
ATOM     17  H   UNL A   1      32.172  28.535  22.128  1.00  0.00     0.156 HD
ENDBRANCH  10  15
BRANCH  12  18
ATOM     18  N   UNL A   1      29.981  27.828  23.655  1.00  0.00    -0.369 N 
ATOM     19  C   UNL A   1      28.727  28.413  23.307  1.00  0.00     0.125 C 
ATOM     20  C   UNL A   1      30.656  29.087  23.798  1.00  0.00     0.125 C 
ATOM     21  C   UNL A   1      29.461  29.762  23.100  1.00  0.00     0.010 C 
ATOM     22  C   UNL A   1      28.913  30.972  23.859  1.00  0.00     0.039 C 
ATOM     23  C   UNL A   1      29.742  30.147  21.639  1.00  0.00     0.039 C 
ATOM     24  C   UNL A   1      27.699  31.520  23.117  1.00  0.00     0.161 C 
ATOM     25  C   UNL A   1      28.474  30.730  21.026  1.00  0.00     0.161 C 
ATOM     26  O   UNL A   1      28.051  31.871  21.779  1.00  0.00    -0.381 OA
ENDBRANCH  12  18
ENDBRANCH   7   9
ENDBRANCH   6   7
ENDBRANCH   5   6
ENDBRANCH   4   5
ENDBRANCH   3   4
ENDBRANCH   2   3
ENDBRANCH   1   2
BRANCH   1  27
ATOM     27  O   UNL A   1      39.205  21.199  26.587  1.00  0.00    -0.376 OA
BRANCH  27  28
ATOM     28  C   UNL A   1      40.555  21.606  26.718  1.00  0.00     0.202 C 
BRANCH  28  29
ATOM     29  C   UNL A   1      41.147  22.929  26.205  1.00  0.00     0.261 C 
BRANCH  29  30
ATOM     30  O   UNL A   1      40.458  24.135  26.527  1.00  0.00    -0.460 OA
BRANCH  30  31
ATOM     31  C   UNL A   1      41.153  25.275  26.284  1.00  0.00     0.338 C 
ATOM     32  O   UNL A   1      41.595  25.657  25.214  1.00  0.00    -0.246 OA
BRANCH  31  33
ATOM     33  C   UNL A   1      41.167  26.094  27.507  1.00  0.00     0.060 A 
ATOM     34  C   UNL A   1      40.150  25.909  28.453  1.00  0.00     0.016 A 
ATOM     35  C   UNL A   1      42.149  27.066  27.695  1.00  0.00     0.016 A 
ATOM     36  C   UNL A   1      40.102  26.716  29.589  1.00  0.00     0.010 A 
ATOM     37  C   UNL A   1      42.088  27.887  28.823  1.00  0.00     0.010 A 
ATOM     38  C   UNL A   1      41.049  27.735  29.760  1.00  0.00    -0.014 A 
BRANCH  38  39
ATOM     39  C   UNL A   1      40.865  28.745  30.828  1.00  0.00     0.031 A 
ATOM     40  C   UNL A   1      41.740  28.668  32.051  1.00  0.00     0.074 A 
ATOM     41  C   UNL A   1      39.940  29.716  30.716  1.00  0.00     0.049 A 
ATOM     42  N   UNL A   1      41.718  29.404  33.130  1.00  0.00    -0.248 NA
ATOM     43  C   UNL A   1      42.774  27.620  32.055  1.00  0.00     0.031 C 
ATOM     44  C   UNL A   1      39.063  29.922  29.564  1.00  0.00     0.029 A 
ATOM     45  N   UNL A   1      39.581  30.707  31.595  1.00  0.00    -0.354 N 
ATOM     46  C   UNL A   1      42.724  28.901  33.949  1.00  0.00     0.074 A 
ATOM     47  C   UNL A   1      43.322  27.786  33.250  1.00  0.00     0.031 C 
ATOM     48  C   UNL A   1      38.256  30.968  29.814  1.00  0.00     0.029 A 
ATOM     49  C   UNL A   1      38.535  31.483  31.154  1.00  0.00     0.049 A 
ATOM     50  H   UNL A   1      40.029  30.850  32.459  1.00  0.00     0.167 HD
ATOM     51  C   UNL A   1      43.115  29.332  35.172  1.00  0.00     0.031 A 
ATOM     52  C   UNL A   1      37.863  32.475  31.772  1.00  0.00     0.031 A 
ATOM     53  C   UNL A   1      42.510  30.434  35.870  1.00  0.00     0.049 A 
ATOM     54  C   UNL A   1      38.267  32.884  33.168  1.00  0.00     0.074 A 
ATOM     55  C   UNL A   1      42.850  30.959  37.105  1.00  0.00     0.029 A 
ATOM     56  N   UNL A   1      41.435  31.174  35.404  1.00  0.00    -0.354 N 
ATOM     57  N   UNL A   1      39.243  32.422  33.914  1.00  0.00    -0.248 NA
ATOM     58  C   UNL A   1      37.482  33.954  33.800  1.00  0.00     0.031 C 
ATOM     59  C   UNL A   1      41.943  31.977  37.412  1.00  0.00     0.029 A 
ATOM     60  C   UNL A   1      41.080  32.131  36.338  1.00  0.00     0.049 A 
ATOM     61  H   UNL A   1      40.990  31.038  34.536  1.00  0.00     0.167 HD
ATOM     62  C   UNL A   1      39.209  33.170  35.088  1.00  0.00     0.074 A 
ATOM     63  C   UNL A   1      38.127  34.120  34.948  1.00  0.00     0.031 C 
ATOM     64  C   UNL A   1      40.005  33.079  36.182  1.00  0.00     0.031 A 
BRANCH  51  65
ATOM     65  C   UNL A   1      44.232  28.586  35.852  1.00  0.00    -0.014 A 
ATOM     66  C   UNL A   1      43.972  27.483  36.685  1.00  0.00     0.010 A 
ATOM     67  C   UNL A   1      45.565  28.962  35.609  1.00  0.00     0.010 A 
ATOM     68  C   UNL A   1      45.026  26.786  37.282  1.00  0.00     0.020 A 
ATOM     69  C   UNL A   1      46.623  28.251  36.182  1.00  0.00     0.020 A 
ATOM     70  C   UNL A   1      46.345  27.174  37.025  1.00  0.00     0.054 A 
BRANCH  70  71
ATOM     71  S   UNL A   1      47.693  26.223  37.779  1.00  0.00     0.124 S 
ATOM     72  O   UNL A   1      48.744  27.231  37.894  1.00  0.00    -0.237 OA
ATOM     73  O   UNL A   1      47.106  25.782  39.042  1.00  0.00    -0.237 OA
ATOM     74  O   UNL A   1      47.953  25.161  36.811  1.00  0.00    -0.744 OA
ENDBRANCH  70  71
ENDBRANCH  51  65
BRANCH  52  75
ATOM     75  C   UNL A   1      36.718  33.144  31.094  1.00  0.00    -0.014 A 
ATOM     76  C   UNL A   1      35.408  33.000  31.587  1.00  0.00     0.010 A 
ATOM     77  C   UNL A   1      36.929  33.907  29.932  1.00  0.00     0.010 A 
ATOM     78  C   UNL A   1      34.329  33.583  30.914  1.00  0.00     0.020 A 
ATOM     79  C   UNL A   1      35.856  34.518  29.273  1.00  0.00     0.020 A 
ATOM     80  C   UNL A   1      34.561  34.338  29.760  1.00  0.00     0.054 A 
BRANCH  80  81
ATOM     81  S   UNL A   1      33.149  35.108  28.922  1.00  0.00     0.124 S 
ATOM     82  O   UNL A   1      32.732  34.055  28.000  1.00  0.00    -0.237 OA
ATOM     83  O   UNL A   1      32.235  35.380  30.028  1.00  0.00    -0.237 OA
ATOM     84  O   UNL A   1      33.729  36.294  28.294  1.00  0.00    -0.744 OA
ENDBRANCH  80  81
ENDBRANCH  52  75
BRANCH  64  85
ATOM     85  C   UNL A   1      39.775  34.064  37.299  1.00  0.00    -0.014 A 
ATOM     86  C   UNL A   1      39.030  33.720  38.441  1.00  0.00     0.010 A 
ATOM     87  C   UNL A   1      40.370  35.338  37.231  1.00  0.00     0.010 A 
ATOM     88  C   UNL A   1      38.857  34.642  39.478  1.00  0.00     0.020 A 
ATOM     89  C   UNL A   1      40.227  36.251  38.278  1.00  0.00     0.020 A 
ATOM     90  C   UNL A   1      39.458  35.903  39.390  1.00  0.00     0.054 A 
BRANCH  90  91
ATOM     91  S   UNL A   1      39.258  37.065  40.768  1.00  0.00     0.124 S 
ATOM     92  O   UNL A   1      38.457  38.124  40.159  1.00  0.00    -0.237 OA
ATOM     93  O   UNL A   1      38.571  36.256  41.773  1.00  0.00    -0.237 OA
ATOM     94  O   UNL A   1      40.628  37.439  41.108  1.00  0.00    -0.744 OA
ENDBRANCH  90  91
ENDBRANCH  64  85
ENDBRANCH  38  39
ENDBRANCH  31  33
ENDBRANCH  30  31
ENDBRANCH  29  30
ENDBRANCH  28  29
ENDBRANCH  27  28
ENDBRANCH   1  27
TORSDOF 22
ENDMDL
