MODEL 1
REMARK VINA RESULT:      -7.3      0.000      0.000
REMARK SMILES COc1ccc(-c2nc(NCC(=O)OCCOCCOCCOC(=O)c3ccc(-c4c5nc(c(-c6ccc(S(=O)(=O)[O-])cc6)c6ccc([nH]6)c(-c6ccc(S(=O)(=O)[O-])cc6)c6nc(c(-c7ccc(S(=O)(=O)[O-])cc7)c7ccc4[nH]7)C=C6)C=C5)cc3)sc2-c2ccc(OC)cc2)cc1
REMARK SMILES IDX 18 1 17 2 16 3 15 4 14 5 12 6 13 7 11 8 10 9 9 11 7 12 8 13
REMARK SMILES IDX 87 14 86 15 6 16 3 17 4 18 97 19 5 20 96 21 2 22 1 23 88 24
REMARK SMILES IDX 89 25 95 26 90 27 94 28 91 29 92 30 93 31 19 32 20 33 21 34
REMARK SMILES IDX 22 35 23 36 24 37 25 38 26 39 27 40 85 41 28 42 84 43 29 44
REMARK SMILES IDX 30 45 31 46 78 47 32 48 83 49 77 50 79 51 33 52 82 53 76 54
REMARK SMILES IDX 75 55 34 57 64 58 45 59 63 60 46 61 49 62 62 63 80 64 47 65
REMARK SMILES IDX 48 66 61 68 81 69 50 70 35 71 36 72 44 73 37 74 43 75 38 76
REMARK SMILES IDX 39 77 40 78 41 79 42 80 65 81 66 82 74 83 67 84 73 85 68 86
REMARK SMILES IDX 69 87 70 88 71 89 72 90 51 91 52 92 60 93 53 94 59 95 54 96
REMARK SMILES IDX 55 97 56 98 57 99 58 100
REMARK H PARENT 10 10 79 56 49 67
REMARK Flexibility Score: inf
ROOT
ATOM      1  C   UNL A   1      50.971  40.763  34.366  1.00  0.00     0.188 C 
ENDROOT
BRANCH   1   2
ATOM      2  O   UNL A   1      49.819  40.497  35.160  1.00  0.00    -0.376 OA
BRANCH   2   3
ATOM      3  C   UNL A   1      48.786  41.480  35.218  1.00  0.00     0.202 C 
BRANCH   3   4
ATOM      4  C   UNL A   1      47.869  41.654  33.993  1.00  0.00     0.261 C 
BRANCH   4   5
ATOM      5  O   UNL A   1      46.751  42.542  34.210  1.00  0.00    -0.462 OA
BRANCH   5   6
ATOM      6  C   UNL A   1      45.516  42.064  33.895  1.00  0.00     0.325 C 
ATOM      7  O   UNL A   1      44.511  42.767  33.833  1.00  0.00    -0.250 OA
BRANCH   6   8
ATOM      8  C   UNL A   1      45.507  40.598  33.437  1.00  0.00     0.238 C 
BRANCH   8   9
ATOM      9  N   UNL A   1      44.259  40.063  32.897  1.00  0.00    -0.351 N 
ATOM     10  H   UNL A   1      43.560  39.811  33.544  1.00  0.00     0.163 HD
BRANCH   9  11
ATOM     11  C   UNL A   1      43.980  39.886  31.591  1.00  0.00     0.184 A 
ATOM     12  C   UNL A   1      43.816  38.784  29.672  1.00  0.00     0.091 A 
ATOM     13  N   UNL A   1      43.975  38.687  31.046  1.00  0.00    -0.220 NA
ATOM     14  C   UNL A   1      43.664  40.078  29.203  1.00  0.00     0.064 A 
ATOM     15  S   UNL A   1      43.654  41.176  30.510  1.00  0.00    -0.096 S 
BRANCH  12  16
ATOM     16  C   UNL A   1      43.795  37.623  28.785  1.00  0.00     0.002 A 
ATOM     17  C   UNL A   1      43.363  35.487  26.998  1.00  0.00     0.118 A 
ATOM     18  C   UNL A   1      43.846  36.710  26.533  1.00  0.00     0.047 A 
ATOM     19  C   UNL A   1      43.163  35.309  28.367  1.00  0.00     0.047 A 
ATOM     20  C   UNL A   1      44.059  37.772  27.417  1.00  0.00     0.014 A 
ATOM     21  C   UNL A   1      43.384  36.373  29.260  1.00  0.00     0.014 A 
BRANCH  17  22
ATOM     22  O   UNL A   1      43.165  34.535  26.036  1.00  0.00    -0.497 OA
ATOM     23  C   UNL A   1      44.343  34.026  25.419  1.00  0.00     0.278 C 
ENDBRANCH  17  22
ENDBRANCH  12  16
BRANCH  14  24
ATOM     24  C   UNL A   1      43.473  40.590  27.857  1.00  0.00    -0.006 A 
ATOM     25  C   UNL A   1      44.512  41.255  27.199  1.00  0.00     0.013 A 
ATOM     26  C   UNL A   1      42.249  40.406  27.212  1.00  0.00     0.013 A 
ATOM     27  C   UNL A   1      44.317  41.746  25.911  1.00  0.00     0.047 A 
ATOM     28  C   UNL A   1      42.056  40.897  25.922  1.00  0.00     0.047 A 
ATOM     29  C   UNL A   1      43.090  41.572  25.267  1.00  0.00     0.118 A 
BRANCH  29  30
ATOM     30  O   UNL A   1      43.021  42.106  24.011  1.00  0.00    -0.497 OA
ATOM     31  C   UNL A   1      41.732  42.144  23.416  1.00  0.00     0.278 C 
ENDBRANCH  29  30
ENDBRANCH  14  24
ENDBRANCH   9  11
ENDBRANCH   8   9
ENDBRANCH   6   8
ENDBRANCH   5   6
ENDBRANCH   4   5
ENDBRANCH   3   4
ENDBRANCH   2   3
ENDBRANCH   1   2
BRANCH   1  32
ATOM     32  C   UNL A   1      51.804  39.573  33.860  1.00  0.00     0.188 C 
BRANCH  32  33
ATOM     33  O   UNL A   1      51.041  38.446  33.499  1.00  0.00    -0.376 OA
BRANCH  33  34
ATOM     34  C   UNL A   1      50.356  38.474  32.265  1.00  0.00     0.202 C 
BRANCH  34  35
ATOM     35  C   UNL A   1      50.268  37.175  31.446  1.00  0.00     0.261 C 
BRANCH  35  36
ATOM     36  O   UNL A   1      48.952  36.717  31.086  1.00  0.00    -0.460 OA
BRANCH  36  37
ATOM     37  C   UNL A   1      48.652  36.671  29.768  1.00  0.00     0.338 C 
ATOM     38  O   UNL A   1      49.058  37.433  28.900  1.00  0.00    -0.246 OA
BRANCH  37  39
ATOM     39  C   UNL A   1      47.940  35.398  29.505  1.00  0.00     0.060 A 
ATOM     40  C   UNL A   1      47.910  34.410  30.501  1.00  0.00     0.016 A 
ATOM     41  C   UNL A   1      47.297  35.183  28.284  1.00  0.00     0.016 A 
ATOM     42  C   UNL A   1      47.258  33.195  30.270  1.00  0.00     0.010 A 
ATOM     43  C   UNL A   1      46.668  33.957  28.045  1.00  0.00     0.010 A 
ATOM     44  C   UNL A   1      46.670  32.944  29.024  1.00  0.00    -0.014 A 
BRANCH  44  45
ATOM     45  C   UNL A   1      46.231  31.571  28.666  1.00  0.00     0.031 A 
ATOM     46  C   UNL A   1      44.788  31.203  28.889  1.00  0.00     0.074 A 
ATOM     47  C   UNL A   1      47.084  30.664  28.155  1.00  0.00     0.049 A 
ATOM     48  N   UNL A   1      44.189  30.051  28.727  1.00  0.00    -0.248 NA
ATOM     49  C   UNL A   1      43.904  32.280  29.362  1.00  0.00     0.031 C 
ATOM     50  C   UNL A   1      48.492  30.904  27.843  1.00  0.00     0.029 A 
ATOM     51  N   UNL A   1      46.885  29.346  27.818  1.00  0.00    -0.354 N 
ATOM     52  C   UNL A   1      42.865  30.261  29.094  1.00  0.00     0.074 A 
ATOM     53  C   UNL A   1      42.753  31.642  29.511  1.00  0.00     0.031 C 
ATOM     54  C   UNL A   1      49.034  29.765  27.372  1.00  0.00     0.029 A 
ATOM     55  C   UNL A   1      48.024  28.707  27.388  1.00  0.00     0.049 A 
ATOM     56  H   UNL A   1      46.008  28.902  27.879  1.00  0.00     0.167 HD
ATOM     57  C   UNL A   1      41.831  29.384  29.084  1.00  0.00     0.031 A 
ATOM     58  C   UNL A   1      48.234  27.413  27.070  1.00  0.00     0.031 A 
ATOM     59  C   UNL A   1      41.946  28.007  28.684  1.00  0.00     0.049 A 
ATOM     60  C   UNL A   1      47.088  26.434  27.144  1.00  0.00     0.074 A 
ATOM     61  C   UNL A   1      40.954  27.044  28.624  1.00  0.00     0.029 A 
ATOM     62  N   UNL A   1      43.123  27.392  28.287  1.00  0.00    -0.354 N 
ATOM     63  N   UNL A   1      45.836  26.652  27.471  1.00  0.00    -0.248 NA
ATOM     64  C   UNL A   1      47.383  25.036  26.799  1.00  0.00     0.031 C 
ATOM     65  C   UNL A   1      41.544  25.831  28.257  1.00  0.00     0.029 A 
ATOM     66  C   UNL A   1      42.889  26.055  28.011  1.00  0.00     0.049 A 
ATOM     67  H   UNL A   1      43.998  27.839  28.211  1.00  0.00     0.167 HD
ATOM     68  C   UNL A   1      45.189  25.425  27.338  1.00  0.00     0.074 A 
ATOM     69  C   UNL A   1      46.185  24.475  26.888  1.00  0.00     0.031 C 
ATOM     70  C   UNL A   1      43.888  25.116  27.562  1.00  0.00     0.031 A 
BRANCH  57  71
ATOM     71  C   UNL A   1      40.492  29.882  29.561  1.00  0.00    -0.014 A 
ATOM     72  C   UNL A   1      39.387  29.966  28.694  1.00  0.00     0.010 A 
ATOM     73  C   UNL A   1      40.328  30.238  30.913  1.00  0.00     0.010 A 
ATOM     74  C   UNL A   1      38.156  30.433  29.159  1.00  0.00     0.020 A 
ATOM     75  C   UNL A   1      39.088  30.676  31.390  1.00  0.00     0.020 A 
ATOM     76  C   UNL A   1      38.015  30.786  30.505  1.00  0.00     0.054 A 
BRANCH  76  77
ATOM     77  S   UNL A   1      36.398  31.366  31.087  1.00  0.00     0.124 S 
ATOM     78  O   UNL A   1      35.969  30.258  31.937  1.00  0.00    -0.237 OA
ATOM     79  O   UNL A   1      36.736  32.600  31.789  1.00  0.00    -0.237 OA
ATOM     80  O   UNL A   1      35.628  31.541  29.858  1.00  0.00    -0.744 OA
ENDBRANCH  76  77
ENDBRANCH  57  71
BRANCH  58  81
ATOM     81  C   UNL A   1      49.596  26.953  26.673  1.00  0.00    -0.014 A 
ATOM     82  C   UNL A   1      50.453  26.347  27.608  1.00  0.00     0.010 A 
ATOM     83  C   UNL A   1      50.048  27.133  25.351  1.00  0.00     0.010 A 
ATOM     84  C   UNL A   1      51.740  25.943  27.234  1.00  0.00     0.020 A 
ATOM     85  C   UNL A   1      51.321  26.702  24.966  1.00  0.00     0.020 A 
ATOM     86  C   UNL A   1      52.164  26.119  25.914  1.00  0.00     0.054 A 
BRANCH  86  87
ATOM     87  S   UNL A   1      53.816  25.538  25.440  1.00  0.00     0.124 S 
ATOM     88  O   UNL A   1      54.365  26.705  24.757  1.00  0.00    -0.237 OA
ATOM     89  O   UNL A   1      54.417  25.220  26.733  1.00  0.00    -0.237 OA
ATOM     90  O   UNL A   1      53.542  24.384  24.588  1.00  0.00    -0.744 OA
ENDBRANCH  86  87
ENDBRANCH  58  81
BRANCH  70  91
ATOM     91  C   UNL A   1      43.443  23.701  27.282  1.00  0.00    -0.014 A 
ATOM     92  C   UNL A   1      42.919  22.879  28.296  1.00  0.00     0.010 A 
ATOM     93  C   UNL A   1      43.497  23.208  25.964  1.00  0.00     0.010 A 
ATOM     94  C   UNL A   1      42.492  21.579  28.003  1.00  0.00     0.020 A 
ATOM     95  C   UNL A   1      43.040  21.923  25.661  1.00  0.00     0.020 A 
ATOM     96  C   UNL A   1      42.554  21.110  26.687  1.00  0.00     0.054 A 
BRANCH  96  97
ATOM     97  S   UNL A   1      41.956  19.436  26.326  1.00  0.00     0.124 S 
ATOM     98  O   UNL A   1      42.579  19.162  25.035  1.00  0.00    -0.237 OA
ATOM     99  O   UNL A   1      42.475  18.662  27.451  1.00  0.00    -0.237 OA
ATOM    100  O   UNL A   1      40.503  19.584  26.297  1.00  0.00    -0.744 OA
ENDBRANCH  96  97
ENDBRANCH  70  91
ENDBRANCH  44  45
ENDBRANCH  37  39
ENDBRANCH  36  37
ENDBRANCH  35  36
ENDBRANCH  34  35
ENDBRANCH  33  34
ENDBRANCH  32  33
ENDBRANCH   1  32
TORSDOF 26
ENDMDL
MODEL 2
REMARK VINA RESULT:      -7.2      5.562     17.054
REMARK SMILES COc1ccc(-c2nc(NCC(=O)OCCOCCOCCOC(=O)c3ccc(-c4c5nc(c(-c6ccc(S(=O)(=O)[O-])cc6)c6ccc([nH]6)c(-c6ccc(S(=O)(=O)[O-])cc6)c6nc(c(-c7ccc(S(=O)(=O)[O-])cc7)c7ccc4[nH]7)C=C6)C=C5)cc3)sc2-c2ccc(OC)cc2)cc1
REMARK SMILES IDX 18 1 17 2 16 3 15 4 14 5 12 6 13 7 11 8 10 9 9 11 7 12 8 13
REMARK SMILES IDX 87 14 86 15 6 16 3 17 4 18 97 19 5 20 96 21 2 22 1 23 88 24
REMARK SMILES IDX 89 25 95 26 90 27 94 28 91 29 92 30 93 31 19 32 20 33 21 34
REMARK SMILES IDX 22 35 23 36 24 37 25 38 26 39 27 40 85 41 28 42 84 43 29 44
REMARK SMILES IDX 30 45 31 46 78 47 32 48 83 49 77 50 79 51 33 52 82 53 76 54
REMARK SMILES IDX 75 55 34 57 64 58 45 59 63 60 46 61 49 62 62 63 80 64 47 65
REMARK SMILES IDX 48 66 61 68 81 69 50 70 35 71 36 72 44 73 37 74 43 75 38 76
REMARK SMILES IDX 39 77 40 78 41 79 42 80 65 81 66 82 74 83 67 84 73 85 68 86
REMARK SMILES IDX 69 87 70 88 71 89 72 90 51 91 52 92 60 93 53 94 59 95 54 96
REMARK SMILES IDX 55 97 56 98 57 99 58 100
REMARK H PARENT 10 10 79 56 49 67
REMARK Flexibility Score: inf
ROOT
ATOM      1  C   UNL A   1      43.338  25.450  25.016  1.00  0.00     0.188 C 
ENDROOT
BRANCH   1   2
ATOM      2  O   UNL A   1      42.120  25.138  25.684  1.00  0.00    -0.376 OA
BRANCH   2   3
ATOM      3  C   UNL A   1      42.165  24.278  26.822  1.00  0.00     0.202 C 
BRANCH   3   4
ATOM      4  C   UNL A   1      41.287  23.011  26.819  1.00  0.00     0.261 C 
BRANCH   4   5
ATOM      5  O   UNL A   1      40.147  23.078  27.702  1.00  0.00    -0.462 OA
BRANCH   5   6
ATOM      6  C   UNL A   1      39.257  24.084  27.483  1.00  0.00     0.325 C 
ATOM      7  O   UNL A   1      39.077  25.014  28.264  1.00  0.00    -0.250 OA
BRANCH   6   8
ATOM      8  C   UNL A   1      38.621  24.066  26.085  1.00  0.00     0.238 C 
BRANCH   8   9
ATOM      9  N   UNL A   1      38.497  22.774  25.412  1.00  0.00    -0.351 N 
ATOM     10  H   UNL A   1      39.331  22.323  25.147  1.00  0.00     0.163 HD
BRANCH   9  11
ATOM     11  C   UNL A   1      37.341  22.147  25.126  1.00  0.00     0.184 A 
ATOM     12  C   UNL A   1      35.166  21.962  24.721  1.00  0.00     0.091 A 
ATOM     13  N   UNL A   1      36.251  22.820  24.818  1.00  0.00    -0.220 NA
ATOM     14  C   UNL A   1      35.472  20.626  24.922  1.00  0.00     0.064 A 
ATOM     15  S   UNL A   1      37.151  20.443  25.173  1.00  0.00    -0.096 S 
BRANCH  12  16
ATOM     16  C   UNL A   1      33.812  22.415  24.415  1.00  0.00     0.002 A 
ATOM     17  C   UNL A   1      31.371  23.656  23.747  1.00  0.00     0.118 A 
ATOM     18  C   UNL A   1      32.128  23.016  22.767  1.00  0.00     0.047 A 
ATOM     19  C   UNL A   1      31.797  23.614  25.075  1.00  0.00     0.047 A 
ATOM     20  C   UNL A   1      33.341  22.402  23.095  1.00  0.00     0.014 A 
ATOM     21  C   UNL A   1      33.012  22.990  25.409  1.00  0.00     0.014 A 
BRANCH  17  22
ATOM     22  O   UNL A   1      30.220  24.246  23.302  1.00  0.00    -0.497 OA
ATOM     23  C   UNL A   1      29.983  25.570  23.769  1.00  0.00     0.278 C 
ENDBRANCH  17  22
ENDBRANCH  12  16
BRANCH  14  24
ATOM     24  C   UNL A   1      34.634  19.440  24.902  1.00  0.00    -0.006 A 
ATOM     25  C   UNL A   1      33.365  19.460  25.489  1.00  0.00     0.013 A 
ATOM     26  C   UNL A   1      35.094  18.276  24.283  1.00  0.00     0.013 A 
ATOM     27  C   UNL A   1      32.572  18.315  25.467  1.00  0.00     0.047 A 
ATOM     28  C   UNL A   1      34.298  17.133  24.262  1.00  0.00     0.047 A 
ATOM     29  C   UNL A   1      33.034  17.147  24.857  1.00  0.00     0.118 A 
BRANCH  29  30
ATOM     30  O   UNL A   1      32.167  16.092  24.910  1.00  0.00    -0.497 OA
ATOM     31  C   UNL A   1      32.619  14.946  25.618  1.00  0.00     0.278 C 
ENDBRANCH  29  30
ENDBRANCH  14  24
ENDBRANCH   9  11
ENDBRANCH   8   9
ENDBRANCH   6   8
ENDBRANCH   5   6
ENDBRANCH   4   5
ENDBRANCH   3   4
ENDBRANCH   2   3
ENDBRANCH   1   2
BRANCH   1  32
ATOM     32  C   UNL A   1      44.659  25.299  25.790  1.00  0.00     0.188 C 
BRANCH  32  33
ATOM     33  O   UNL A   1      45.160  23.984  25.824  1.00  0.00    -0.376 OA
BRANCH  33  34
ATOM     34  C   UNL A   1      46.412  23.734  25.222  1.00  0.00     0.202 C 
BRANCH  34  35
ATOM     35  C   UNL A   1      47.528  24.780  25.386  1.00  0.00     0.261 C 
BRANCH  35  36
ATOM     36  O   UNL A   1      47.217  25.951  26.163  1.00  0.00    -0.460 OA
BRANCH  36  37
ATOM     37  C   UNL A   1      48.162  26.390  27.026  1.00  0.00     0.338 C 
ATOM     38  O   UNL A   1      49.106  25.745  27.464  1.00  0.00    -0.246 OA
BRANCH  37  39
ATOM     39  C   UNL A   1      48.007  27.857  27.167  1.00  0.00     0.060 A 
ATOM     40  C   UNL A   1      48.429  28.481  28.351  1.00  0.00     0.016 A 
ATOM     41  C   UNL A   1      47.456  28.615  26.132  1.00  0.00     0.016 A 
ATOM     42  C   UNL A   1      48.278  29.861  28.513  1.00  0.00     0.010 A 
ATOM     43  C   UNL A   1      47.282  29.992  26.306  1.00  0.00     0.010 A 
ATOM     44  C   UNL A   1      47.663  30.619  27.508  1.00  0.00    -0.014 A 
BRANCH  44  45
ATOM     45  C   UNL A   1      47.240  32.017  27.778  1.00  0.00     0.031 A 
ATOM     46  C   UNL A   1      48.174  33.132  27.392  1.00  0.00     0.074 A 
ATOM     47  C   UNL A   1      46.056  32.301  28.352  1.00  0.00     0.049 A 
ATOM     48  N   UNL A   1      48.061  34.420  27.594  1.00  0.00    -0.248 NA
ATOM     49  C   UNL A   1      49.405  32.740  26.685  1.00  0.00     0.031 C 
ATOM     50  C   UNL A   1      45.038  31.322  28.729  1.00  0.00     0.029 A 
ATOM     51  N   UNL A   1      45.517  33.508  28.728  1.00  0.00    -0.354 N 
ATOM     52  C   UNL A   1      49.210  34.988  27.056  1.00  0.00     0.074 A 
ATOM     53  C   UNL A   1      50.019  33.904  26.543  1.00  0.00     0.031 C 
ATOM     54  C   UNL A   1      44.002  31.967  29.295  1.00  0.00     0.029 A 
ATOM     55  C   UNL A   1      44.300  33.398  29.359  1.00  0.00     0.049 A 
ATOM     56  H   UNL A   1      45.961  34.371  28.561  1.00  0.00     0.167 HD
ATOM     57  C   UNL A   1      49.562  36.295  26.993  1.00  0.00     0.031 A 
ATOM     58  C   UNL A   1      43.529  34.338  29.944  1.00  0.00     0.031 A 
ATOM     59  C   UNL A   1      48.765  37.371  27.519  1.00  0.00     0.049 A 
ATOM     60  C   UNL A   1      43.979  35.779  29.934  1.00  0.00     0.074 A 
ATOM     61  C   UNL A   1      49.028  38.730  27.489  1.00  0.00     0.029 A 
ATOM     62  N   UNL A   1      47.555  37.214  28.178  1.00  0.00    -0.354 N 
ATOM     63  N   UNL A   1      45.057  36.304  29.402  1.00  0.00    -0.248 NA
ATOM     64  C   UNL A   1      43.102  36.754  30.600  1.00  0.00     0.031 C 
ATOM     65  C   UNL A   1      48.012  39.387  28.190  1.00  0.00     0.029 A 
ATOM     66  C   UNL A   1      47.076  38.447  28.588  1.00  0.00     0.049 A 
ATOM     67  H   UNL A   1      47.103  36.352  28.332  1.00  0.00     0.167 HD
ATOM     68  C   UNL A   1      44.970  37.674  29.639  1.00  0.00     0.074 A 
ATOM     69  C   UNL A   1      43.728  37.896  30.350  1.00  0.00     0.031 C 
ATOM     70  C   UNL A   1      45.836  38.658  29.295  1.00  0.00     0.031 A 
BRANCH  57  71
ATOM     71  C   UNL A   1      50.892  36.629  26.368  1.00  0.00    -0.014 A 
ATOM     72  C   UNL A   1      52.058  36.755  27.145  1.00  0.00     0.010 A 
ATOM     73  C   UNL A   1      50.981  36.783  24.972  1.00  0.00     0.010 A 
ATOM     74  C   UNL A   1      53.279  37.067  26.543  1.00  0.00     0.020 A 
ATOM     75  C   UNL A   1      52.208  37.065  24.363  1.00  0.00     0.020 A 
ATOM     76  C   UNL A   1      53.346  37.221  25.155  1.00  0.00     0.054 A 
BRANCH  76  77
ATOM     77  S   UNL A   1      54.949  37.603  24.398  1.00  0.00     0.124 S 
ATOM     78  O   UNL A   1      55.265  38.897  24.998  1.00  0.00    -0.237 OA
ATOM     79  O   UNL A   1      55.783  36.488  24.838  1.00  0.00    -0.237 OA
ATOM     80  O   UNL A   1      54.660  37.635  22.967  1.00  0.00    -0.744 OA
ENDBRANCH  76  77
ENDBRANCH  57  71
BRANCH  58  81
ATOM     81  C   UNL A   1      42.255  33.948  30.614  1.00  0.00    -0.014 A 
ATOM     82  C   UNL A   1      42.250  33.494  31.944  1.00  0.00     0.010 A 
ATOM     83  C   UNL A   1      41.035  34.018  29.914  1.00  0.00     0.010 A 
ATOM     84  C   UNL A   1      41.054  33.104  32.557  1.00  0.00     0.020 A 
ATOM     85  C   UNL A   1      39.834  33.659  30.533  1.00  0.00     0.020 A 
ATOM     86  C   UNL A   1      39.853  33.194  31.848  1.00  0.00     0.054 A 
BRANCH  86  87
ATOM     87  S   UNL A   1      38.308  32.734  32.683  1.00  0.00     0.124 S 
ATOM     88  O   UNL A   1      37.534  33.968  32.592  1.00  0.00    -0.237 OA
ATOM     89  O   UNL A   1      37.829  31.624  31.864  1.00  0.00    -0.237 OA
ATOM     90  O   UNL A   1      38.743  32.365  34.028  1.00  0.00    -0.744 OA
ENDBRANCH  86  87
ENDBRANCH  58  81
BRANCH  70  91
ATOM     91  C   UNL A   1      45.459  40.079  29.637  1.00  0.00    -0.014 A 
ATOM     92  C   UNL A   1      44.722  40.881  28.748  1.00  0.00     0.010 A 
ATOM     93  C   UNL A   1      45.799  40.598  30.902  1.00  0.00     0.010 A 
ATOM     94  C   UNL A   1      44.366  42.186  29.101  1.00  0.00     0.020 A 
ATOM     95  C   UNL A   1      45.416  41.890  31.272  1.00  0.00     0.020 A 
ATOM     96  C   UNL A   1      44.713  42.682  30.362  1.00  0.00     0.054 A 
BRANCH  96  97
ATOM     97  S   UNL A   1      44.203  44.364  30.812  1.00  0.00     0.124 S 
ATOM     98  O   UNL A   1      42.766  44.202  31.011  1.00  0.00    -0.237 OA
ATOM     99  O   UNL A   1      44.980  44.621  32.022  1.00  0.00    -0.237 OA
ATOM    100  O   UNL A   1      44.584  45.165  29.651  1.00  0.00    -0.744 OA
ENDBRANCH  96  97
ENDBRANCH  70  91
ENDBRANCH  44  45
ENDBRANCH  37  39
ENDBRANCH  36  37
ENDBRANCH  35  36
ENDBRANCH  34  35
ENDBRANCH  33  34
ENDBRANCH  32  33
ENDBRANCH   1  32
TORSDOF 26
ENDMDL
MODEL 3
REMARK VINA RESULT:      -7.2      3.805      7.318
REMARK SMILES COc1ccc(-c2nc(NCC(=O)OCCOCCOCCOC(=O)c3ccc(-c4c5nc(c(-c6ccc(S(=O)(=O)[O-])cc6)c6ccc([nH]6)c(-c6ccc(S(=O)(=O)[O-])cc6)c6nc(c(-c7ccc(S(=O)(=O)[O-])cc7)c7ccc4[nH]7)C=C6)C=C5)cc3)sc2-c2ccc(OC)cc2)cc1
REMARK SMILES IDX 18 1 17 2 16 3 15 4 14 5 12 6 13 7 11 8 10 9 9 11 7 12 8 13
REMARK SMILES IDX 87 14 86 15 6 16 3 17 4 18 97 19 5 20 96 21 2 22 1 23 88 24
REMARK SMILES IDX 89 25 95 26 90 27 94 28 91 29 92 30 93 31 19 32 20 33 21 34
REMARK SMILES IDX 22 35 23 36 24 37 25 38 26 39 27 40 85 41 28 42 84 43 29 44
REMARK SMILES IDX 30 45 31 46 78 47 32 48 83 49 77 50 79 51 33 52 82 53 76 54
REMARK SMILES IDX 75 55 34 57 64 58 45 59 63 60 46 61 49 62 62 63 80 64 47 65
REMARK SMILES IDX 48 66 61 68 81 69 50 70 35 71 36 72 44 73 37 74 43 75 38 76
REMARK SMILES IDX 39 77 40 78 41 79 42 80 65 81 66 82 74 83 67 84 73 85 68 86
REMARK SMILES IDX 69 87 70 88 71 89 72 90 51 91 52 92 60 93 53 94 59 95 54 96
REMARK SMILES IDX 55 97 56 98 57 99 58 100
REMARK H PARENT 10 10 79 56 49 67
REMARK Flexibility Score: inf
ROOT
ATOM      1  C   UNL A   1      42.807  35.651  36.504  1.00  0.00     0.188 C 
ENDROOT
BRANCH   1   2
ATOM      2  O   UNL A   1      43.627  34.988  37.461  1.00  0.00    -0.376 OA
BRANCH   2   3
ATOM      3  C   UNL A   1      43.171  33.754  38.014  1.00  0.00     0.202 C 
BRANCH   3   4
ATOM      4  C   UNL A   1      41.702  33.652  38.469  1.00  0.00     0.261 C 
BRANCH   4   5
ATOM      5  O   UNL A   1      40.738  33.877  37.419  1.00  0.00    -0.462 OA
BRANCH   5   6
ATOM      6  C   UNL A   1      40.395  32.802  36.658  1.00  0.00     0.325 C 
ATOM      7  O   UNL A   1      40.000  31.737  37.125  1.00  0.00    -0.250 OA
BRANCH   6   8
ATOM      8  C   UNL A   1      40.362  33.085  35.148  1.00  0.00     0.238 C 
BRANCH   8   9
ATOM      9  N   UNL A   1      40.538  31.952  34.241  1.00  0.00    -0.351 N 
ATOM     10  H   UNL A   1      39.739  31.631  33.763  1.00  0.00     0.163 HD
BRANCH   9  11
ATOM     11  C   UNL A   1      41.698  31.311  34.002  1.00  0.00     0.184 A 
ATOM     12  C   UNL A   1      43.026  29.576  33.613  1.00  0.00     0.091 A 
ATOM     13  N   UNL A   1      41.721  30.042  33.648  1.00  0.00    -0.220 NA
ATOM     14  C   UNL A   1      43.984  30.531  33.909  1.00  0.00     0.064 A 
ATOM     15  S   UNL A   1      43.238  32.044  34.170  1.00  0.00    -0.096 S 
BRANCH  12  16
ATOM     16  C   UNL A   1      43.374  28.197  33.277  1.00  0.00     0.002 A 
ATOM     17  C   UNL A   1      44.436  25.652  32.697  1.00  0.00     0.118 A 
ATOM     18  C   UNL A   1      44.051  25.975  33.997  1.00  0.00     0.047 A 
ATOM     19  C   UNL A   1      44.225  26.575  31.672  1.00  0.00     0.047 A 
ATOM     20  C   UNL A   1      43.526  27.238  34.289  1.00  0.00     0.014 A 
ATOM     21  C   UNL A   1      43.689  27.843  31.961  1.00  0.00     0.014 A 
BRANCH  17  22
ATOM     22  O   UNL A   1      44.964  24.399  32.540  1.00  0.00    -0.497 OA
ATOM     23  C   UNL A   1      44.085  23.422  31.992  1.00  0.00     0.278 C 
ENDBRANCH  17  22
ENDBRANCH  12  16
BRANCH  14  24
ATOM     24  C   UNL A   1      45.432  30.444  33.974  1.00  0.00    -0.006 A 
ATOM     25  C   UNL A   1      46.215  30.858  32.892  1.00  0.00     0.013 A 
ATOM     26  C   UNL A   1      46.046  29.955  35.129  1.00  0.00     0.013 A 
ATOM     27  C   UNL A   1      47.603  30.766  32.965  1.00  0.00     0.047 A 
ATOM     28  C   UNL A   1      47.435  29.865  35.199  1.00  0.00     0.047 A 
ATOM     29  C   UNL A   1      48.219  30.268  34.115  1.00  0.00     0.118 A 
BRANCH  29  30
ATOM     30  O   UNL A   1      49.584  30.220  34.058  1.00  0.00    -0.497 OA
ATOM     31  C   UNL A   1      50.197  31.002  33.043  1.00  0.00     0.278 C 
ENDBRANCH  29  30
ENDBRANCH  14  24
ENDBRANCH   9  11
ENDBRANCH   8   9
ENDBRANCH   6   8
ENDBRANCH   5   6
ENDBRANCH   4   5
ENDBRANCH   3   4
ENDBRANCH   2   3
ENDBRANCH   1   2
BRANCH   1  32
ATOM     32  C   UNL A   1      43.332  36.946  35.861  1.00  0.00     0.188 C 
BRANCH  32  33
ATOM     33  O   UNL A   1      43.677  37.951  36.785  1.00  0.00    -0.376 OA
BRANCH  33  34
ATOM     34  C   UNL A   1      44.858  38.688  36.556  1.00  0.00     0.202 C 
BRANCH  34  35
ATOM     35  C   UNL A   1      44.988  39.474  35.239  1.00  0.00     0.261 C 
BRANCH  35  36
ATOM     36  O   UNL A   1      45.719  38.845  34.171  1.00  0.00    -0.460 OA
BRANCH  36  37
ATOM     37  C   UNL A   1      45.224  38.978  32.920  1.00  0.00     0.338 C 
ATOM     38  O   UNL A   1      45.015  40.027  32.326  1.00  0.00    -0.246 OA
BRANCH  37  39
ATOM     39  C   UNL A   1      45.201  37.636  32.291  1.00  0.00     0.060 A 
ATOM     40  C   UNL A   1      44.958  37.527  30.913  1.00  0.00     0.016 A 
ATOM     41  C   UNL A   1      45.427  36.490  33.056  1.00  0.00     0.016 A 
ATOM     42  C   UNL A   1      44.917  36.271  30.302  1.00  0.00     0.010 A 
ATOM     43  C   UNL A   1      45.359  35.232  32.448  1.00  0.00     0.010 A 
ATOM     44  C   UNL A   1      45.074  35.113  31.074  1.00  0.00    -0.014 A 
BRANCH  44  45
ATOM     45  C   UNL A   1      44.750  33.781  30.500  1.00  0.00     0.031 A 
ATOM     46  C   UNL A   1      43.305  33.362  30.440  1.00  0.00     0.074 A 
ATOM     47  C   UNL A   1      45.708  32.955  30.039  1.00  0.00     0.049 A 
ATOM     48  N   UNL A   1      42.784  32.226  30.055  1.00  0.00    -0.248 NA
ATOM     49  C   UNL A   1      42.316  34.362  30.877  1.00  0.00     0.031 C 
ATOM     50  C   UNL A   1      47.138  33.256  29.992  1.00  0.00     0.029 A 
ATOM     51  N   UNL A   1      45.615  31.682  29.531  1.00  0.00    -0.354 N 
ATOM     52  C   UNL A   1      41.410  32.367  30.220  1.00  0.00     0.074 A 
ATOM     53  C   UNL A   1      41.181  33.688  30.763  1.00  0.00     0.031 C 
ATOM     54  C   UNL A   1      47.790  32.190  29.494  1.00  0.00     0.029 A 
ATOM     55  C   UNL A   1      46.832  31.118  29.227  1.00  0.00     0.049 A 
ATOM     56  H   UNL A   1      44.758  31.217  29.398  1.00  0.00     0.167 HD
ATOM     57  C   UNL A   1      40.426  31.478  29.944  1.00  0.00     0.031 A 
ATOM     58  C   UNL A   1      47.139  29.873  28.807  1.00  0.00     0.031 A 
ATOM     59  C   UNL A   1      40.655  30.158  29.419  1.00  0.00     0.049 A 
ATOM     60  C   UNL A   1      46.034  28.871  28.583  1.00  0.00     0.074 A 
ATOM     61  C   UNL A   1      39.723  29.189  29.091  1.00  0.00     0.029 A 
ATOM     62  N   UNL A   1      41.904  29.615  29.156  1.00  0.00    -0.354 N 
ATOM     63  N   UNL A   1      44.738  29.025  28.721  1.00  0.00    -0.248 NA
ATOM     64  C   UNL A   1      46.433  27.527  28.139  1.00  0.00     0.031 C 
ATOM     65  C   UNL A   1      40.409  28.038  28.694  1.00  0.00     0.029 A 
ATOM     66  C   UNL A   1      41.767  28.314  28.700  1.00  0.00     0.049 A 
ATOM     67  H   UNL A   1      42.761  30.084  29.275  1.00  0.00     0.167 HD
ATOM     68  C   UNL A   1      44.168  27.810  28.349  1.00  0.00     0.074 A 
ATOM     69  C   UNL A   1      45.258  26.937  27.967  1.00  0.00     0.031 C 
ATOM     70  C   UNL A   1      42.860  27.452  28.321  1.00  0.00     0.031 A 
BRANCH  57  71
ATOM     71  C   UNL A   1      39.009  31.891  30.246  1.00  0.00    -0.014 A 
ATOM     72  C   UNL A   1      38.400  31.582  31.476  1.00  0.00     0.010 A 
ATOM     73  C   UNL A   1      38.287  32.635  29.294  1.00  0.00     0.010 A 
ATOM     74  C   UNL A   1      37.084  31.975  31.732  1.00  0.00     0.020 A 
ATOM     75  C   UNL A   1      36.981  33.056  29.559  1.00  0.00     0.020 A 
ATOM     76  C   UNL A   1      36.382  32.709  30.771  1.00  0.00     0.054 A 
BRANCH  76  77
ATOM     77  S   UNL A   1      34.683  33.225  31.140  1.00  0.00     0.124 S 
ATOM     78  O   UNL A   1      33.995  32.913  29.890  1.00  0.00    -0.237 OA
ATOM     79  O   UNL A   1      34.333  32.379  32.278  1.00  0.00    -0.237 OA
ATOM     80  O   UNL A   1      34.810  34.649  31.441  1.00  0.00    -0.744 OA
ENDBRANCH  76  77
ENDBRANCH  57  71
BRANCH  58  81
ATOM     81  C   UNL A   1      48.564  29.488  28.591  1.00  0.00    -0.014 A 
ATOM     82  C   UNL A   1      49.119  29.476  27.300  1.00  0.00     0.010 A 
ATOM     83  C   UNL A   1      49.372  29.118  29.683  1.00  0.00     0.010 A 
ATOM     84  C   UNL A   1      50.449  29.088  27.102  1.00  0.00     0.020 A 
ATOM     85  C   UNL A   1      50.710  28.760  29.493  1.00  0.00     0.020 A 
ATOM     86  C   UNL A   1      51.237  28.737  28.201  1.00  0.00     0.054 A 
BRANCH  86  87
ATOM     87  S   UNL A   1      52.974  28.290  27.925  1.00  0.00     0.124 S 
ATOM     88  O   UNL A   1      53.085  27.033  28.659  1.00  0.00    -0.237 OA
ATOM     89  O   UNL A   1      53.041  28.181  26.470  1.00  0.00    -0.237 OA
ATOM     90  O   UNL A   1      53.712  29.415  28.493  1.00  0.00    -0.744 OA
ENDBRANCH  86  87
ENDBRANCH  58  81
BRANCH  70  91
ATOM     91  C   UNL A   1      42.520  26.070  27.817  1.00  0.00    -0.014 A 
ATOM     92  C   UNL A   1      42.597  25.743  26.452  1.00  0.00     0.010 A 
ATOM     93  C   UNL A   1      42.174  25.065  28.742  1.00  0.00     0.010 A 
ATOM     94  C   UNL A   1      42.299  24.448  26.017  1.00  0.00     0.020 A 
ATOM     95  C   UNL A   1      41.909  23.761  28.314  1.00  0.00     0.020 A 
ATOM     96  C   UNL A   1      41.959  23.464  26.952  1.00  0.00     0.054 A 
BRANCH  96  97
ATOM     97  S   UNL A   1      41.617  21.782  26.365  1.00  0.00     0.124 S 
ATOM     98  O   UNL A   1      42.464  21.696  25.179  1.00  0.00    -0.237 OA
ATOM     99  O   UNL A   1      42.036  20.958  27.496  1.00  0.00    -0.237 OA
ATOM    100  O   UNL A   1      40.180  21.789  26.105  1.00  0.00    -0.744 OA
ENDBRANCH  96  97
ENDBRANCH  70  91
ENDBRANCH  44  45
ENDBRANCH  37  39
ENDBRANCH  36  37
ENDBRANCH  35  36
ENDBRANCH  34  35
ENDBRANCH  33  34
ENDBRANCH  32  33
ENDBRANCH   1  32
TORSDOF 26
ENDMDL
