MODEL 1
REMARK VINA RESULT:     -10.3      0.000      0.000
REMARK SMILES CCc1cc(OC(F)(F)F)cc2c1O[C@@H](C(F)(F)F)C(C(=O)OCCOCCOCCOC(=O)c1ccc(-c3c4nc(c(-c5ccc(S(=O)(=O)[O-])cc5)c5ccc([nH]5)c(-c5ccc(S(=O)(=O)[O-])cc5)c5nc(c(-c6ccc(S(=O)(=O)[O-])cc6)c6ccc3[nH]6)C=C5)C=C4)cc1)=C2
REMARK SMILES IDX 28 1 27 2 26 3 25 4 24 5 23 6 21 7 22 8 20 9 3 10 4 11 13 12
REMARK SMILES IDX 5 13 12 14 14 15 11 16 95 17 15 18 2 19 1 20 6 21 7 22 8 23
REMARK SMILES IDX 9 24 10 25 16 26 17 27 18 28 19 29 29 30 30 31 31 32 32 33
REMARK SMILES IDX 33 34 34 35 35 36 36 37 94 38 37 39 93 40 38 41 39 42 40 43
REMARK SMILES IDX 87 44 41 45 92 46 86 47 88 48 42 49 91 50 85 51 84 52 43 54
REMARK SMILES IDX 73 55 54 56 72 57 55 58 58 59 71 60 89 61 56 62 57 63 70 65
REMARK SMILES IDX 90 66 59 67 44 68 45 69 53 70 46 71 52 72 47 73 48 74 49 75
REMARK SMILES IDX 50 76 51 77 74 78 75 79 83 80 76 81 82 82 77 83 78 84 79 85
REMARK SMILES IDX 80 86 81 87 60 88 61 89 69 90 62 91 68 92 63 93 64 94 65 95
REMARK SMILES IDX 66 96 67 97
REMARK H PARENT 88 53 58 64
REMARK Flexibility Score: inf
ROOT
ATOM      1  C   UNL A   1      32.984  29.369  24.989  1.00  0.00     0.188 C 
ENDROOT
BRANCH   1   2
ATOM      2  C   UNL A   1      31.454  29.418  24.802  1.00  0.00     0.188 C 
BRANCH   2   3
ATOM      3  O   UNL A   1      30.815  28.162  24.985  1.00  0.00    -0.376 OA
BRANCH   3   4
ATOM      4  C   UNL A   1      30.370  27.514  23.802  1.00  0.00     0.202 C 
BRANCH   4   5
ATOM      5  C   UNL A   1      29.575  26.234  24.074  1.00  0.00     0.261 C 
BRANCH   5   6
ATOM      6  O   UNL A   1      30.391  25.061  24.223  1.00  0.00    -0.460 OA
BRANCH   6   7
ATOM      7  C   UNL A   1      30.720  24.699  25.484  1.00  0.00     0.338 C 
ATOM      8  O   UNL A   1      30.172  25.084  26.502  1.00  0.00    -0.246 OA
BRANCH   7   9
ATOM      9  C   UNL A   1      31.798  23.692  25.443  1.00  0.00     0.087 C 
ATOM     10  C   UNL A   1      34.981  21.060  24.755  1.00  0.00    -0.002 A 
ATOM     11  C   UNL A   1      34.718  19.678  24.696  1.00  0.00     0.054 A 
ATOM     12  C   UNL A   1      33.908  21.938  24.966  1.00  0.00     0.131 A 
ATOM     13  C   UNL A   1      33.414  19.188  24.803  1.00  0.00     0.130 A 
ATOM     14  C   UNL A   1      32.595  21.457  25.076  1.00  0.00     0.021 A 
ATOM     15  O   UNL A   1      34.170  23.285  24.990  1.00  0.00    -0.475 OA
ATOM     16  C   UNL A   1      32.358  20.082  25.009  1.00  0.00     0.058 A 
ATOM     17  C   UNL A   1      31.492  22.413  25.162  1.00  0.00     0.027 C 
ATOM     18  C   UNL A   1      33.225  24.076  25.761  1.00  0.00     0.316 C 
BRANCH  10  19
ATOM     19  C   UNL A   1      36.402  21.557  24.602  1.00  0.00     0.036 C 
ATOM     20  C   UNL A   1      37.431  20.438  24.700  1.00  0.00     0.009 C 
ENDBRANCH  10  19
BRANCH  13  21
ATOM     21  O   UNL A   1      33.045  17.874  24.727  1.00  0.00    -0.406 OA
BRANCH  21  22
ATOM     22  C   UNL A   1      33.903  16.999  24.011  1.00  0.00     0.573 C 
ATOM     23  F   UNL A   1      33.973  17.335  22.705  1.00  0.00    -0.132 F 
ATOM     24  F   UNL A   1      35.143  16.988  24.544  1.00  0.00    -0.132 F 
ATOM     25  F   UNL A   1      33.403  15.745  24.090  1.00  0.00    -0.132 F 
ENDBRANCH  21  22
ENDBRANCH  13  21
BRANCH  18  26
ATOM     26  C   UNL A   1      33.618  25.558  25.649  1.00  0.00     0.430 C 
ATOM     27  F   UNL A   1      33.311  26.046  24.423  1.00  0.00    -0.167 F 
ATOM     28  F   UNL A   1      32.905  26.298  26.535  1.00  0.00    -0.167 F 
ATOM     29  F   UNL A   1      34.925  25.774  25.893  1.00  0.00    -0.167 F 
ENDBRANCH  18  26
ENDBRANCH   7   9
ENDBRANCH   6   7
ENDBRANCH   5   6
ENDBRANCH   4   5
ENDBRANCH   3   4
ENDBRANCH   2   3
ENDBRANCH   1   2
BRANCH   1  30
ATOM     30  O   UNL A   1      33.575  29.709  26.237  1.00  0.00    -0.376 OA
BRANCH  30  31
ATOM     31  C   UNL A   1      32.939  30.663  27.076  1.00  0.00     0.202 C 
BRANCH  31  32
ATOM     32  C   UNL A   1      33.735  31.904  27.493  1.00  0.00     0.261 C 
BRANCH  32  33
ATOM     33  O   UNL A   1      32.942  32.966  28.045  1.00  0.00    -0.460 OA
BRANCH  33  34
ATOM     34  C   UNL A   1      33.636  34.082  28.380  1.00  0.00     0.338 C 
ATOM     35  O   UNL A   1      33.368  35.232  28.077  1.00  0.00    -0.246 OA
BRANCH  34  36
ATOM     36  C   UNL A   1      34.715  33.747  29.332  1.00  0.00     0.060 A 
ATOM     37  C   UNL A   1      36.012  34.178  29.024  1.00  0.00     0.016 A 
ATOM     38  C   UNL A   1      34.484  32.951  30.457  1.00  0.00     0.016 A 
ATOM     39  C   UNL A   1      37.088  33.786  29.816  1.00  0.00     0.010 A 
ATOM     40  C   UNL A   1      35.570  32.538  31.239  1.00  0.00     0.010 A 
ATOM     41  C   UNL A   1      36.880  32.926  30.902  1.00  0.00    -0.014 A 
BRANCH  41  42
ATOM     42  C   UNL A   1      38.051  32.300  31.563  1.00  0.00     0.031 A 
ATOM     43  C   UNL A   1      38.490  32.820  32.906  1.00  0.00     0.074 A 
ATOM     44  C   UNL A   1      38.688  31.253  31.007  1.00  0.00     0.049 A 
ATOM     45  N   UNL A   1      39.462  32.407  33.678  1.00  0.00    -0.248 NA
ATOM     46  C   UNL A   1      37.724  33.953  33.454  1.00  0.00     0.031 C 
ATOM     47  C   UNL A   1      38.337  30.626  29.733  1.00  0.00     0.029 A 
ATOM     48  N   UNL A   1      39.768  30.532  31.451  1.00  0.00    -0.354 N 
ATOM     49  C   UNL A   1      39.425  33.225  34.802  1.00  0.00     0.074 A 
ATOM     50  C   UNL A   1      38.353  34.175  34.599  1.00  0.00     0.031 C 
ATOM     51  C   UNL A   1      39.192  29.616  29.496  1.00  0.00     0.029 A 
ATOM     52  C   UNL A   1      40.162  29.540  30.587  1.00  0.00     0.049 A 
ATOM     53  H   UNL A   1      40.217  30.710  32.310  1.00  0.00     0.167 HD
ATOM     54  C   UNL A   1      40.206  33.186  35.907  1.00  0.00     0.031 A 
ATOM     55  C   UNL A   1      41.195  28.677  30.662  1.00  0.00     0.031 A 
ATOM     56  C   UNL A   1      41.288  32.259  36.103  1.00  0.00     0.049 A 
ATOM     57  C   UNL A   1      42.101  28.703  31.866  1.00  0.00     0.074 A 
ATOM     58  C   UNL A   1      42.133  32.139  37.193  1.00  0.00     0.029 A 
ATOM     59  N   UNL A   1      41.684  31.300  35.183  1.00  0.00    -0.354 N 
ATOM     60  N   UNL A   1      42.032  29.463  32.934  1.00  0.00    -0.248 NA
ATOM     61  C   UNL A   1      43.215  27.745  31.880  1.00  0.00     0.031 C 
ATOM     62  C   UNL A   1      43.071  31.139  36.912  1.00  0.00     0.029 A 
ATOM     63  C   UNL A   1      42.775  30.601  35.669  1.00  0.00     0.049 A 
ATOM     64  H   UNL A   1      41.251  31.139  34.314  1.00  0.00     0.167 HD
ATOM     65  C   UNL A   1      43.080  29.056  33.755  1.00  0.00     0.074 A 
ATOM     66  C   UNL A   1      43.756  27.976  33.068  1.00  0.00     0.031 C 
ATOM     67  C   UNL A   1      43.443  29.530  34.974  1.00  0.00     0.031 A 
BRANCH  54  68
ATOM     68  C   UNL A   1      39.934  34.206  36.980  1.00  0.00    -0.014 A 
ATOM     69  C   UNL A   1      40.460  35.508  36.891  1.00  0.00     0.010 A 
ATOM     70  C   UNL A   1      39.125  33.866  38.078  1.00  0.00     0.010 A 
ATOM     71  C   UNL A   1      40.212  36.440  37.903  1.00  0.00     0.020 A 
ATOM     72  C   UNL A   1      38.856  34.802  39.080  1.00  0.00     0.020 A 
ATOM     73  C   UNL A   1      39.416  36.078  38.994  1.00  0.00     0.054 A 
BRANCH  73  74
ATOM     74  S   UNL A   1      39.099  37.309  40.289  1.00  0.00     0.124 S 
ATOM     75  O   UNL A   1      38.526  36.486  41.351  1.00  0.00    -0.237 OA
ATOM     76  O   UNL A   1      40.432  37.842  40.559  1.00  0.00    -0.237 OA
ATOM     77  O   UNL A   1      38.173  38.245  39.658  1.00  0.00    -0.744 OA
ENDBRANCH  73  74
ENDBRANCH  54  68
BRANCH  55  78
ATOM     78  C   UNL A   1      41.443  27.717  29.551  1.00  0.00    -0.014 A 
ATOM     79  C   UNL A   1      40.741  26.502  29.479  1.00  0.00     0.010 A 
ATOM     80  C   UNL A   1      42.399  28.015  28.562  1.00  0.00     0.010 A 
ATOM     81  C   UNL A   1      41.002  25.593  28.448  1.00  0.00     0.020 A 
ATOM     82  C   UNL A   1      42.645  27.120  27.517  1.00  0.00     0.020 A 
ATOM     83  C   UNL A   1      41.953  25.908  27.474  1.00  0.00     0.054 A 
BRANCH  83  84
ATOM     84  S   UNL A   1      42.247  24.734  26.122  1.00  0.00     0.124 S 
ATOM     85  O   UNL A   1      43.514  24.127  26.517  1.00  0.00    -0.237 OA
ATOM     86  O   UNL A   1      41.077  23.863  26.196  1.00  0.00    -0.237 OA
ATOM     87  O   UNL A   1      42.304  25.588  24.937  1.00  0.00    -0.744 OA
ENDBRANCH  83  84
ENDBRANCH  55  78
BRANCH  67  88
ATOM     88  C   UNL A   1      44.608  28.865  35.659  1.00  0.00    -0.014 A 
ATOM     89  C   UNL A   1      44.440  27.684  36.403  1.00  0.00     0.010 A 
ATOM     90  C   UNL A   1      45.899  29.405  35.513  1.00  0.00     0.010 A 
ATOM     91  C   UNL A   1      45.537  27.075  37.018  1.00  0.00     0.020 A 
ATOM     92  C   UNL A   1      47.002  28.785  36.106  1.00  0.00     0.020 A 
ATOM     93  C   UNL A   1      46.812  27.631  36.869  1.00  0.00     0.054 A 
BRANCH  93  94
ATOM     94  S   UNL A   1      48.227  26.805  37.647  1.00  0.00     0.124 S 
ATOM     95  O   UNL A   1      47.818  25.404  37.609  1.00  0.00    -0.237 OA
ATOM     96  O   UNL A   1      49.335  27.160  36.764  1.00  0.00    -0.237 OA
ATOM     97  O   UNL A   1      48.286  27.402  38.980  1.00  0.00    -0.744 OA
ENDBRANCH  93  94
ENDBRANCH  67  88
ENDBRANCH  41  42
ENDBRANCH  34  36
ENDBRANCH  33  34
ENDBRANCH  32  33
ENDBRANCH  31  32
ENDBRANCH  30  31
ENDBRANCH   1  30
TORSDOF 24
ENDMDL
MODEL 2
REMARK VINA RESULT:      -9.7      2.258      9.358
REMARK SMILES CCc1cc(OC(F)(F)F)cc2c1O[C@@H](C(F)(F)F)C(C(=O)OCCOCCOCCOC(=O)c1ccc(-c3c4nc(c(-c5ccc(S(=O)(=O)[O-])cc5)c5ccc([nH]5)c(-c5ccc(S(=O)(=O)[O-])cc5)c5nc(c(-c6ccc(S(=O)(=O)[O-])cc6)c6ccc3[nH]6)C=C5)C=C4)cc1)=C2
REMARK SMILES IDX 28 1 27 2 26 3 25 4 24 5 23 6 21 7 22 8 20 9 3 10 4 11 13 12
REMARK SMILES IDX 5 13 12 14 14 15 11 16 95 17 15 18 2 19 1 20 6 21 7 22 8 23
REMARK SMILES IDX 9 24 10 25 16 26 17 27 18 28 19 29 29 30 30 31 31 32 32 33
REMARK SMILES IDX 33 34 34 35 35 36 36 37 94 38 37 39 93 40 38 41 39 42 40 43
REMARK SMILES IDX 87 44 41 45 92 46 86 47 88 48 42 49 91 50 85 51 84 52 43 54
REMARK SMILES IDX 73 55 54 56 72 57 55 58 58 59 71 60 89 61 56 62 57 63 70 65
REMARK SMILES IDX 90 66 59 67 44 68 45 69 53 70 46 71 52 72 47 73 48 74 49 75
REMARK SMILES IDX 50 76 51 77 74 78 75 79 83 80 76 81 82 82 77 83 78 84 79 85
REMARK SMILES IDX 80 86 81 87 60 88 61 89 69 90 62 91 68 92 63 93 64 94 65 95
REMARK SMILES IDX 66 96 67 97
REMARK H PARENT 88 53 58 64
REMARK Flexibility Score: inf
ROOT
ATOM      1  C   UNL A   1      40.292  20.549  26.389  1.00  0.00     0.188 C 
ENDROOT
BRANCH   1   2
ATOM      2  C   UNL A   1      38.920  21.186  26.089  1.00  0.00     0.188 C 
BRANCH   2   3
ATOM      3  O   UNL A   1      38.202  20.534  25.050  1.00  0.00    -0.376 OA
BRANCH   3   4
ATOM      4  C   UNL A   1      37.219  21.318  24.388  1.00  0.00     0.202 C 
BRANCH   4   5
ATOM      5  C   UNL A   1      36.731  22.507  25.220  1.00  0.00     0.261 C 
BRANCH   5   6
ATOM      6  O   UNL A   1      35.473  23.048  24.783  1.00  0.00    -0.460 OA
BRANCH   6   7
ATOM      7  C   UNL A   1      34.385  22.749  25.529  1.00  0.00     0.338 C 
ATOM      8  O   UNL A   1      34.256  21.767  26.238  1.00  0.00    -0.246 OA
BRANCH   7   9
ATOM      9  C   UNL A   1      33.400  23.843  25.423  1.00  0.00     0.087 C 
ATOM     10  C   UNL A   1      30.870  27.069  24.570  1.00  0.00    -0.002 A 
ATOM     11  C   UNL A   1      30.909  28.201  25.406  1.00  0.00     0.054 A 
ATOM     12  C   UNL A   1      31.734  26.000  24.849  1.00  0.00     0.131 A 
ATOM     13  C   UNL A   1      31.815  28.282  26.467  1.00  0.00     0.130 A 
ATOM     14  C   UNL A   1      32.646  26.069  25.912  1.00  0.00     0.021 A 
ATOM     15  O   UNL A   1      31.711  24.913  24.010  1.00  0.00    -0.475 OA
ATOM     16  C   UNL A   1      32.670  27.205  26.725  1.00  0.00     0.058 A 
ATOM     17  C   UNL A   1      33.619  24.991  26.087  1.00  0.00     0.027 C 
ATOM     18  C   UNL A   1      32.132  23.663  24.619  1.00  0.00     0.316 C 
BRANCH  10  19
ATOM     19  C   UNL A   1      29.900  27.030  23.411  1.00  0.00     0.036 C 
ATOM     20  C   UNL A   1      29.292  28.394  23.105  1.00  0.00     0.009 C 
ENDBRANCH  10  19
BRANCH  13  21
ATOM     21  O   UNL A   1      31.959  29.343  27.317  1.00  0.00    -0.406 OA
BRANCH  21  22
ATOM     22  C   UNL A   1      32.316  30.591  26.741  1.00  0.00     0.573 C 
ATOM     23  F   UNL A   1      31.327  31.500  26.882  1.00  0.00    -0.132 F 
ATOM     24  F   UNL A   1      33.454  31.071  27.284  1.00  0.00    -0.132 F 
ATOM     25  F   UNL A   1      32.528  30.410  25.418  1.00  0.00    -0.132 F 
ENDBRANCH  21  22
ENDBRANCH  13  21
BRANCH  18  26
ATOM     26  C   UNL A   1      32.103  22.561  23.549  1.00  0.00     0.430 C 
ATOM     27  F   UNL A   1      33.278  22.514  22.875  1.00  0.00    -0.167 F 
ATOM     28  F   UNL A   1      31.960  21.345  24.135  1.00  0.00    -0.167 F 
ATOM     29  F   UNL A   1      31.097  22.712  22.667  1.00  0.00    -0.167 F 
ENDBRANCH  18  26
ENDBRANCH   7   9
ENDBRANCH   6   7
ENDBRANCH   5   6
ENDBRANCH   4   5
ENDBRANCH   3   4
ENDBRANCH   2   3
ENDBRANCH   1   2
BRANCH   1  30
ATOM     30  O   UNL A   1      41.026  20.917  27.551  1.00  0.00    -0.376 OA
BRANCH  30  31
ATOM     31  C   UNL A   1      41.425  22.268  27.727  1.00  0.00     0.202 C 
BRANCH  31  32
ATOM     32  C   UNL A   1      41.501  23.167  26.490  1.00  0.00     0.261 C 
BRANCH  32  33
ATOM     33  O   UNL A   1      40.539  24.234  26.464  1.00  0.00    -0.460 OA
BRANCH  33  34
ATOM     34  C   UNL A   1      41.056  25.463  26.220  1.00  0.00     0.338 C 
ATOM     35  O   UNL A   1      41.288  25.961  25.131  1.00  0.00    -0.246 OA
BRANCH  34  36
ATOM     36  C   UNL A   1      41.163  26.231  27.478  1.00  0.00     0.060 A 
ATOM     37  C   UNL A   1      40.164  26.041  28.442  1.00  0.00     0.016 A 
ATOM     38  C   UNL A   1      42.166  27.184  27.678  1.00  0.00     0.016 A 
ATOM     39  C   UNL A   1      40.141  26.828  29.592  1.00  0.00     0.010 A 
ATOM     40  C   UNL A   1      42.127  27.988  28.823  1.00  0.00     0.010 A 
ATOM     41  C   UNL A   1      41.095  27.837  29.767  1.00  0.00    -0.014 A 
BRANCH  41  42
ATOM     42  C   UNL A   1      40.899  28.837  30.845  1.00  0.00     0.031 A 
ATOM     43  C   UNL A   1      41.808  28.798  32.046  1.00  0.00     0.074 A 
ATOM     44  C   UNL A   1      39.963  29.798  30.742  1.00  0.00     0.049 A 
ATOM     45  N   UNL A   1      41.840  29.588  33.088  1.00  0.00    -0.248 NA
ATOM     46  C   UNL A   1      42.820  27.728  32.068  1.00  0.00     0.031 C 
ATOM     47  C   UNL A   1      39.049  29.974  29.615  1.00  0.00     0.029 A 
ATOM     48  N   UNL A   1      39.630  30.811  31.607  1.00  0.00    -0.354 N 
ATOM     49  C   UNL A   1      42.873  29.115  33.888  1.00  0.00     0.074 A 
ATOM     50  C   UNL A   1      43.425  27.953  33.226  1.00  0.00     0.031 C 
ATOM     51  C   UNL A   1      38.254  31.030  29.860  1.00  0.00     0.029 A 
ATOM     52  C   UNL A   1      38.586  31.589  31.169  1.00  0.00     0.049 A 
ATOM     53  H   UNL A   1      40.097  30.965  32.461  1.00  0.00     0.167 HD
ATOM     54  C   UNL A   1      43.329  29.605  35.065  1.00  0.00     0.031 A 
ATOM     55  C   UNL A   1      37.962  32.626  31.763  1.00  0.00     0.031 A 
ATOM     56  C   UNL A   1      42.768  30.746  35.740  1.00  0.00     0.049 A 
ATOM     57  C   UNL A   1      38.436  33.107  33.111  1.00  0.00     0.074 A 
ATOM     58  C   UNL A   1      43.166  31.320  36.935  1.00  0.00     0.029 A 
ATOM     59  N   UNL A   1      41.682  31.477  35.286  1.00  0.00    -0.354 N 
ATOM     60  N   UNL A   1      39.434  32.666  33.840  1.00  0.00    -0.248 NA
ATOM     61  C   UNL A   1      37.705  34.233  33.709  1.00  0.00     0.031 C 
ATOM     62  C   UNL A   1      42.289  32.371  37.228  1.00  0.00     0.029 A 
ATOM     63  C   UNL A   1      41.379  32.483  36.188  1.00  0.00     0.049 A 
ATOM     64  H   UNL A   1      41.198  31.308  34.446  1.00  0.00     0.167 HD
ATOM     65  C   UNL A   1      39.465  33.480  34.969  1.00  0.00     0.074 A 
ATOM     66  C   UNL A   1      38.395  34.444  34.821  1.00  0.00     0.031 C 
ATOM     67  C   UNL A   1      40.309  33.435  36.031  1.00  0.00     0.031 A 
BRANCH  54  68
ATOM     68  C   UNL A   1      44.477  28.882  35.716  1.00  0.00    -0.014 A 
ATOM     69  C   UNL A   1      44.250  27.845  36.640  1.00  0.00     0.010 A 
ATOM     70  C   UNL A   1      45.799  29.227  35.383  1.00  0.00     0.010 A 
ATOM     71  C   UNL A   1      45.326  27.193  37.247  1.00  0.00     0.020 A 
ATOM     72  C   UNL A   1      46.877  28.562  35.972  1.00  0.00     0.020 A 
ATOM     73  C   UNL A   1      46.634  27.560  36.913  1.00  0.00     0.054 A 
BRANCH  73  74
ATOM     74  S   UNL A   1      48.014  26.690  37.707  1.00  0.00     0.124 S 
ATOM     75  O   UNL A   1      48.038  25.429  36.970  1.00  0.00    -0.237 OA
ATOM     76  O   UNL A   1      49.143  27.584  37.457  1.00  0.00    -0.237 OA
ATOM     77  O   UNL A   1      47.601  26.588  39.104  1.00  0.00    -0.744 OA
ENDBRANCH  73  74
ENDBRANCH  54  68
BRANCH  55  78
ATOM     78  C   UNL A   1      36.803  33.278  31.093  1.00  0.00    -0.014 A 
ATOM     79  C   UNL A   1      36.832  33.558  29.717  1.00  0.00     0.010 A 
ATOM     80  C   UNL A   1      35.665  33.633  31.841  1.00  0.00     0.010 A 
ATOM     81  C   UNL A   1      35.750  34.197  29.102  1.00  0.00     0.020 A 
ATOM     82  C   UNL A   1      34.573  34.251  31.225  1.00  0.00     0.020 A 
ATOM     83  C   UNL A   1      34.628  34.540  29.860  1.00  0.00     0.054 A 
BRANCH  83  84
ATOM     84  S   UNL A   1      33.218  35.331  29.036  1.00  0.00     0.124 S 
ATOM     85  O   UNL A   1      32.740  34.264  28.163  1.00  0.00    -0.237 OA
ATOM     86  O   UNL A   1      32.345  35.671  30.156  1.00  0.00    -0.237 OA
ATOM     87  O   UNL A   1      33.820  36.475  28.354  1.00  0.00    -0.744 OA
ENDBRANCH  83  84
ENDBRANCH  55  78
BRANCH  67  88
ATOM     88  C   UNL A   1      40.132  34.477  37.104  1.00  0.00    -0.014 A 
ATOM     89  C   UNL A   1      39.253  34.272  38.182  1.00  0.00     0.010 A 
ATOM     90  C   UNL A   1      40.894  35.658  37.057  1.00  0.00     0.010 A 
ATOM     91  C   UNL A   1      39.113  35.246  39.175  1.00  0.00     0.020 A 
ATOM     92  C   UNL A   1      40.777  36.623  38.061  1.00  0.00     0.020 A 
ATOM     93  C   UNL A   1      39.875  36.418  39.107  1.00  0.00     0.054 A 
BRANCH  93  94
ATOM     94  S   UNL A   1      39.705  37.653  40.425  1.00  0.00     0.124 S 
ATOM     95  O   UNL A   1      38.256  37.718  40.593  1.00  0.00    -0.237 OA
ATOM     96  O   UNL A   1      40.440  37.048  41.532  1.00  0.00    -0.237 OA
ATOM     97  O   UNL A   1      40.321  38.851  39.857  1.00  0.00    -0.744 OA
ENDBRANCH  93  94
ENDBRANCH  67  88
ENDBRANCH  41  42
ENDBRANCH  34  36
ENDBRANCH  33  34
ENDBRANCH  32  33
ENDBRANCH  31  32
ENDBRANCH  30  31
ENDBRANCH   1  30
TORSDOF 24
ENDMDL
MODEL 3
REMARK VINA RESULT:      -9.5      1.984      3.094
REMARK SMILES CCc1cc(OC(F)(F)F)cc2c1O[C@@H](C(F)(F)F)C(C(=O)OCCOCCOCCOC(=O)c1ccc(-c3c4nc(c(-c5ccc(S(=O)(=O)[O-])cc5)c5ccc([nH]5)c(-c5ccc(S(=O)(=O)[O-])cc5)c5nc(c(-c6ccc(S(=O)(=O)[O-])cc6)c6ccc3[nH]6)C=C5)C=C4)cc1)=C2
REMARK SMILES IDX 28 1 27 2 26 3 25 4 24 5 23 6 21 7 22 8 20 9 3 10 4 11 13 12
REMARK SMILES IDX 5 13 12 14 14 15 11 16 95 17 15 18 2 19 1 20 6 21 7 22 8 23
REMARK SMILES IDX 9 24 10 25 16 26 17 27 18 28 19 29 29 30 30 31 31 32 32 33
REMARK SMILES IDX 33 34 34 35 35 36 36 37 94 38 37 39 93 40 38 41 39 42 40 43
REMARK SMILES IDX 87 44 41 45 92 46 86 47 88 48 42 49 91 50 85 51 84 52 43 54
REMARK SMILES IDX 73 55 54 56 72 57 55 58 58 59 71 60 89 61 56 62 57 63 70 65
REMARK SMILES IDX 90 66 59 67 44 68 45 69 53 70 46 71 52 72 47 73 48 74 49 75
REMARK SMILES IDX 50 76 51 77 74 78 75 79 83 80 76 81 82 82 77 83 78 84 79 85
REMARK SMILES IDX 80 86 81 87 60 88 61 89 69 90 62 91 68 92 63 93 64 94 65 95
REMARK SMILES IDX 66 96 67 97
REMARK H PARENT 88 53 58 64
REMARK Flexibility Score: inf
ROOT
ATOM      1  C   UNL A   1      31.281  28.305  25.764  1.00  0.00     0.188 C 
ENDROOT
BRANCH   1   2
ATOM      2  C   UNL A   1      31.787  27.442  26.937  1.00  0.00     0.188 C 
BRANCH   2   3
ATOM      3  O   UNL A   1      31.388  26.080  26.860  1.00  0.00    -0.376 OA
BRANCH   3   4
ATOM      4  C   UNL A   1      30.378  25.783  25.905  1.00  0.00     0.202 C 
BRANCH   4   5
ATOM      5  C   UNL A   1      30.418  24.334  25.413  1.00  0.00     0.261 C 
BRANCH   5   6
ATOM      6  O   UNL A   1      30.282  24.197  23.989  1.00  0.00    -0.460 OA
BRANCH   6   7
ATOM      7  C   UNL A   1      31.418  24.242  23.258  1.00  0.00     0.338 C 
ATOM      8  O   UNL A   1      31.649  25.017  22.346  1.00  0.00    -0.246 OA
BRANCH   7   9
ATOM      9  C   UNL A   1      32.385  23.260  23.788  1.00  0.00     0.087 C 
ATOM     10  C   UNL A   1      35.434  20.557  24.752  1.00  0.00    -0.002 A 
ATOM     11  C   UNL A   1      35.105  19.201  24.935  1.00  0.00     0.054 A 
ATOM     12  C   UNL A   1      34.412  21.454  24.410  1.00  0.00     0.131 A 
ATOM     13  C   UNL A   1      33.799  18.743  24.742  1.00  0.00     0.130 A 
ATOM     14  C   UNL A   1      33.097  21.007  24.213  1.00  0.00     0.021 A 
ATOM     15  O   UNL A   1      34.747  22.769  24.202  1.00  0.00    -0.475 OA
ATOM     16  C   UNL A   1      32.796  19.655  24.396  1.00  0.00     0.058 A 
ATOM     17  C   UNL A   1      32.089  21.950  23.729  1.00  0.00     0.027 C 
ATOM     18  C   UNL A   1      33.671  23.717  24.436  1.00  0.00     0.316 C 
BRANCH  10  19
ATOM     19  C   UNL A   1      36.865  21.010  24.938  1.00  0.00     0.036 C 
ATOM     20  C   UNL A   1      37.826  19.849  25.162  1.00  0.00     0.009 C 
ENDBRANCH  10  19
BRANCH  13  21
ATOM     21  O   UNL A   1      33.379  17.448  24.860  1.00  0.00    -0.406 OA
BRANCH  21  22
ATOM     22  C   UNL A   1      33.827  16.528  23.877  1.00  0.00     0.573 C 
ATOM     23  F   UNL A   1      32.902  15.574  23.635  1.00  0.00    -0.132 F 
ATOM     24  F   UNL A   1      34.141  17.158  22.726  1.00  0.00    -0.132 F 
ATOM     25  F   UNL A   1      34.943  15.917  24.336  1.00  0.00    -0.132 F 
ENDBRANCH  21  22
ENDBRANCH  13  21
BRANCH  18  26
ATOM     26  C   UNL A   1      34.183  25.130  24.113  1.00  0.00     0.430 C 
ATOM     27  F   UNL A   1      35.442  25.305  24.580  1.00  0.00    -0.167 F 
ATOM     28  F   UNL A   1      34.255  25.304  22.769  1.00  0.00    -0.167 F 
ATOM     29  F   UNL A   1      33.392  26.101  24.609  1.00  0.00    -0.167 F 
ENDBRANCH  18  26
ENDBRANCH   7   9
ENDBRANCH   6   7
ENDBRANCH   5   6
ENDBRANCH   4   5
ENDBRANCH   3   4
ENDBRANCH   2   3
ENDBRANCH   1   2
BRANCH   1  30
ATOM     30  O   UNL A   1      32.021  29.437  25.321  1.00  0.00    -0.376 OA
BRANCH  30  31
ATOM     31  C   UNL A   1      31.695  30.724  25.822  1.00  0.00     0.202 C 
BRANCH  31  32
ATOM     32  C   UNL A   1      32.314  31.161  27.153  1.00  0.00     0.261 C 
BRANCH  32  33
ATOM     33  O   UNL A   1      33.683  30.767  27.337  1.00  0.00    -0.460 OA
BRANCH  33  34
ATOM     34  C   UNL A   1      34.479  31.710  27.898  1.00  0.00     0.338 C 
ATOM     35  O   UNL A   1      34.161  32.843  28.219  1.00  0.00    -0.246 OA
BRANCH  34  36
ATOM     36  C   UNL A   1      35.794  31.131  28.240  1.00  0.00     0.060 A 
ATOM     37  C   UNL A   1      35.826  29.797  28.666  1.00  0.00     0.016 A 
ATOM     38  C   UNL A   1      36.962  31.898  28.232  1.00  0.00     0.016 A 
ATOM     39  C   UNL A   1      37.017  29.235  29.122  1.00  0.00     0.010 A 
ATOM     40  C   UNL A   1      38.153  31.338  28.712  1.00  0.00     0.010 A 
ATOM     41  C   UNL A   1      38.177  30.016  29.191  1.00  0.00    -0.014 A 
BRANCH  41  42
ATOM     42  C   UNL A   1      39.355  29.496  29.927  1.00  0.00     0.031 A 
ATOM     43  C   UNL A   1      39.665  30.057  31.290  1.00  0.00     0.074 A 
ATOM     44  C   UNL A   1      40.112  28.506  29.421  1.00  0.00     0.049 A 
ATOM     45  N   UNL A   1      40.619  29.732  32.123  1.00  0.00    -0.248 NA
ATOM     46  C   UNL A   1      38.773  31.122  31.780  1.00  0.00     0.031 C 
ATOM     47  C   UNL A   1      39.895  27.846  28.134  1.00  0.00     0.029 A 
ATOM     48  N   UNL A   1      41.221  27.882  29.936  1.00  0.00    -0.354 N 
ATOM     49  C   UNL A   1      40.444  30.548  33.235  1.00  0.00     0.074 A 
ATOM     50  C   UNL A   1      39.309  31.402  32.959  1.00  0.00     0.031 C 
ATOM     51  C   UNL A   1      40.846  26.912  27.958  1.00  0.00     0.029 A 
ATOM     52  C   UNL A   1      41.750  26.924  29.106  1.00  0.00     0.049 A 
ATOM     53  H   UNL A   1      41.600  28.101  30.819  1.00  0.00     0.167 HD
ATOM     54  C   UNL A   1      41.156  30.580  34.387  1.00  0.00     0.031 A 
ATOM     55  C   UNL A   1      42.847  26.153  29.251  1.00  0.00     0.031 A 
ATOM     56  C   UNL A   1      42.300  29.750  34.656  1.00  0.00     0.049 A 
ATOM     57  C   UNL A   1      43.672  26.262  30.508  1.00  0.00     0.074 A 
ATOM     58  C   UNL A   1      43.084  29.708  35.796  1.00  0.00     0.029 A 
ATOM     59  N   UNL A   1      42.832  28.826  33.770  1.00  0.00    -0.354 N 
ATOM     60  N   UNL A   1      43.473  27.017  31.563  1.00  0.00    -0.248 NA
ATOM     61  C   UNL A   1      44.861  25.403  30.598  1.00  0.00     0.031 C 
ATOM     62  C   UNL A   1      44.119  28.791  35.581  1.00  0.00     0.029 A 
ATOM     63  C   UNL A   1      43.947  28.225  34.328  1.00  0.00     0.049 A 
ATOM     64  H   UNL A   1      42.469  28.625  32.878  1.00  0.00     0.167 HD
ATOM     65  C   UNL A   1      44.499  26.705  32.450  1.00  0.00     0.074 A 
ATOM     66  C   UNL A   1      45.307  25.684  31.815  1.00  0.00     0.031 C 
ATOM     67  C   UNL A   1      44.746  27.213  33.684  1.00  0.00     0.031 A 
BRANCH  54  68
ATOM     68  C   UNL A   1      40.733  31.577  35.432  1.00  0.00    -0.014 A 
ATOM     69  C   UNL A   1      39.519  31.428  36.126  1.00  0.00     0.010 A 
ATOM     70  C   UNL A   1      41.571  32.664  35.739  1.00  0.00     0.010 A 
ATOM     71  C   UNL A   1      39.133  32.371  37.083  1.00  0.00     0.020 A 
ATOM     72  C   UNL A   1      41.199  33.596  36.711  1.00  0.00     0.020 A 
ATOM     73  C   UNL A   1      39.975  33.452  37.365  1.00  0.00     0.054 A 
BRANCH  73  74
ATOM     74  S   UNL A   1      39.457  34.657  38.620  1.00  0.00     0.124 S 
ATOM     75  O   UNL A   1      39.252  35.859  37.816  1.00  0.00    -0.237 OA
ATOM     76  O   UNL A   1      38.242  34.052  39.163  1.00  0.00    -0.237 OA
ATOM     77  O   UNL A   1      40.589  34.706  39.540  1.00  0.00    -0.744 OA
ENDBRANCH  73  74
ENDBRANCH  54  68
BRANCH  55  78
ATOM     78  C   UNL A   1      43.244  25.214  28.166  1.00  0.00    -0.014 A 
ATOM     79  C   UNL A   1      44.067  25.641  27.110  1.00  0.00     0.010 A 
ATOM     80  C   UNL A   1      42.786  23.884  28.182  1.00  0.00     0.010 A 
ATOM     81  C   UNL A   1      44.411  24.760  26.079  1.00  0.00     0.020 A 
ATOM     82  C   UNL A   1      43.147  22.994  27.167  1.00  0.00     0.020 A 
ATOM     83  C   UNL A   1      43.948  23.443  26.114  1.00  0.00     0.054 A 
BRANCH  83  84
ATOM     84  S   UNL A   1      44.439  22.303  24.790  1.00  0.00     0.124 S 
ATOM     85  O   UNL A   1      43.507  22.656  23.725  1.00  0.00    -0.237 OA
ATOM     86  O   UNL A   1      45.834  22.669  24.557  1.00  0.00    -0.237 OA
ATOM     87  O   UNL A   1      44.240  20.983  25.385  1.00  0.00    -0.744 OA
ENDBRANCH  83  84
ENDBRANCH  55  78
BRANCH  67  88
ATOM     88  C   UNL A   1      45.919  26.653  34.444  1.00  0.00    -0.014 A 
ATOM     89  C   UNL A   1      47.180  27.274  34.400  1.00  0.00     0.010 A 
ATOM     90  C   UNL A   1      45.743  25.517  35.253  1.00  0.00     0.010 A 
ATOM     91  C   UNL A   1      48.253  26.746  35.125  1.00  0.00     0.020 A 
ATOM     92  C   UNL A   1      46.806  25.001  36.000  1.00  0.00     0.020 A 
ATOM     93  C   UNL A   1      48.060  25.610  35.919  1.00  0.00     0.054 A 
BRANCH  93  94
ATOM     94  S   UNL A   1      49.456  24.962  36.879  1.00  0.00     0.124 S 
ATOM     95  O   UNL A   1      49.709  26.052  37.818  1.00  0.00    -0.237 OA
ATOM     96  O   UNL A   1      48.907  23.742  37.464  1.00  0.00    -0.237 OA
ATOM     97  O   UNL A   1      50.497  24.750  35.875  1.00  0.00    -0.744 OA
ENDBRANCH  93  94
ENDBRANCH  67  88
ENDBRANCH  41  42
ENDBRANCH  34  36
ENDBRANCH  33  34
ENDBRANCH  32  33
ENDBRANCH  31  32
ENDBRANCH  30  31
ENDBRANCH   1  30
TORSDOF 24
ENDMDL
