MODEL 1
REMARK VINA RESULT:      -9.9      0.000      0.000
REMARK SMILES C[C@@H](c1cccc(O)c1)[N@H+]1[C@@H]2CC[C@H]1C[C@H](CC(=O)OCCOCCOCCOC(=O)c1ccc(-c3c4nc(c(-c5ccc(S(=O)(=O)[O-])cc5)c5ccc([nH]5)c(-c5ccc(S(=O)(=O)[O-])cc5)c5nc(c(-c6ccc(S(=O)(=O)[O-])cc6)c6ccc3[nH]6)C=C5)C=C4)cc1)C2
REMARK SMILES IDX 24 1 23 2 22 3 21 4 20 5 18 6 19 7 17 8 16 9 10 10 11 11
REMARK SMILES IDX 14 12 12 14 92 15 13 16 15 17 2 18 1 19 3 20 4 21 9 22 5 23
REMARK SMILES IDX 7 24 6 25 8 26 25 28 26 29 27 30 28 31 29 32 30 33 31 34
REMARK SMILES IDX 32 35 33 36 91 37 34 38 90 39 35 40 36 41 37 42 84 43 38 44
REMARK SMILES IDX 89 45 83 46 85 47 39 48 88 49 82 50 81 51 40 53 70 54 51 55
REMARK SMILES IDX 69 56 52 57 55 58 68 59 86 60 53 61 54 62 67 64 87 65 56 66
REMARK SMILES IDX 41 67 42 68 50 69 43 70 49 71 44 72 45 73 46 74 47 75 48 76
REMARK SMILES IDX 71 77 72 78 80 79 73 80 79 81 74 82 75 83 76 84 77 85 78 86
REMARK SMILES IDX 57 87 58 88 66 89 59 90 65 91 60 92 61 93 62 94 63 95 64 96
REMARK H PARENT 10 13 8 27 85 52 55 63
REMARK Flexibility Score: inf
ROOT
ATOM      1  C   UNL A   1      33.312  26.994  26.063  1.00  0.00     0.188 C 
ENDROOT
BRANCH   1   2
ATOM      2  O   UNL A   1      34.031  27.201  24.854  1.00  0.00    -0.376 OA
BRANCH   2   3
ATOM      3  C   UNL A   1      33.469  28.125  23.918  1.00  0.00     0.202 C 
BRANCH   3   4
ATOM      4  C   UNL A   1      33.141  27.585  22.517  1.00  0.00     0.261 C 
BRANCH   4   5
ATOM      5  O   UNL A   1      32.484  26.301  22.563  1.00  0.00    -0.463 OA
BRANCH   5   6
ATOM      6  C   UNL A   1      32.942  25.379  21.679  1.00  0.00     0.306 C 
ATOM      7  O   UNL A   1      33.153  25.610  20.492  1.00  0.00    -0.252 OA
BRANCH   6   8
ATOM      8  C   UNL A   1      33.355  24.077  22.341  1.00  0.00     0.126 C 
BRANCH   8   9
ATOM      9  C   UNL A   1      32.834  23.696  23.743  1.00  0.00     0.012 C 
ATOM     10  N   UNL A   1      33.435  21.358  25.444  1.00  0.00    -0.324 N 
ATOM     11  C   UNL A   1      33.998  22.639  25.859  1.00  0.00     0.185 C 
ATOM     12  C   UNL A   1      32.051  21.662  25.113  1.00  0.00     0.185 C 
ATOM     13  H   UNL A   1      33.484  20.671  26.197  1.00  0.00     0.349 HD
ATOM     14  C   UNL A   1      32.954  23.036  26.905  1.00  0.00     0.071 C 
ATOM     15  C   UNL A   1      34.027  23.707  24.747  1.00  0.00     0.069 C 
ATOM     16  C   UNL A   1      31.637  22.540  26.309  1.00  0.00     0.071 C 
ATOM     17  C   UNL A   1      31.974  22.419  23.787  1.00  0.00     0.069 C 
BRANCH  10  18
ATOM     18  C   UNL A   1      34.225  20.368  24.697  1.00  0.00     0.212 C 
ATOM     19  C   UNL A   1      35.731  20.544  24.978  1.00  0.00     0.081 C 
BRANCH  18  20
ATOM     20  C   UNL A   1      33.784  18.906  24.760  1.00  0.00     0.013 A 
ATOM     21  C   UNL A   1      32.788  18.432  25.629  1.00  0.00     0.010 A 
ATOM     22  C   UNL A   1      34.399  17.971  23.906  1.00  0.00     0.056 A 
ATOM     23  C   UNL A   1      32.372  17.096  25.591  1.00  0.00     0.004 A 
ATOM     24  C   UNL A   1      33.931  16.662  23.827  1.00  0.00     0.116 A 
ATOM     25  C   UNL A   1      32.922  16.213  24.666  1.00  0.00     0.046 A 
BRANCH  24  26
ATOM     26  O   UNL A   1      34.451  15.862  22.854  1.00  0.00    -0.508 OA
ATOM     27  H   UNL A   1      34.303  16.065  21.952  1.00  0.00     0.293 HD
ENDBRANCH  24  26
ENDBRANCH  18  20
ENDBRANCH  10  18
ENDBRANCH   8   9
ENDBRANCH   6   8
ENDBRANCH   5   6
ENDBRANCH   4   5
ENDBRANCH   3   4
ENDBRANCH   2   3
ENDBRANCH   1   2
BRANCH   1  28
ATOM     28  C   UNL A   1      31.780  26.974  25.963  1.00  0.00     0.188 C 
BRANCH  28  29
ATOM     29  O   UNL A   1      31.135  28.152  26.434  1.00  0.00    -0.376 OA
BRANCH  29  30
ATOM     30  C   UNL A   1      31.862  28.960  27.363  1.00  0.00     0.202 C 
BRANCH  30  31
ATOM     31  C   UNL A   1      32.368  30.305  26.817  1.00  0.00     0.261 C 
BRANCH  31  32
ATOM     32  O   UNL A   1      33.791  30.482  26.956  1.00  0.00    -0.460 OA
BRANCH  32  33
ATOM     33  C   UNL A   1      34.213  31.553  27.668  1.00  0.00     0.338 C 
ATOM     34  O   UNL A   1      33.564  32.552  27.928  1.00  0.00    -0.246 OA
BRANCH  33  35
ATOM     35  C   UNL A   1      35.510  31.202  28.305  1.00  0.00     0.060 A 
ATOM     36  C   UNL A   1      35.613  29.971  28.968  1.00  0.00     0.016 A 
ATOM     37  C   UNL A   1      36.636  32.023  28.182  1.00  0.00     0.016 A 
ATOM     38  C   UNL A   1      36.825  29.581  29.543  1.00  0.00     0.010 A 
ATOM     39  C   UNL A   1      37.848  31.633  28.758  1.00  0.00     0.010 A 
ATOM     40  C   UNL A   1      37.941  30.426  29.470  1.00  0.00    -0.014 A 
BRANCH  40  41
ATOM     41  C   UNL A   1      39.145  30.152  30.293  1.00  0.00     0.031 A 
ATOM     42  C   UNL A   1      40.105  29.093  29.819  1.00  0.00     0.074 A 
ATOM     43  C   UNL A   1      39.396  30.820  31.435  1.00  0.00     0.049 A 
ATOM     44  N   UNL A   1      41.197  28.650  30.385  1.00  0.00    -0.248 NA
ATOM     45  C   UNL A   1      39.784  28.446  28.536  1.00  0.00     0.031 C 
ATOM     46  C   UNL A   1      38.576  31.893  31.991  1.00  0.00     0.029 A 
ATOM     47  N   UNL A   1      40.424  30.679  32.336  1.00  0.00    -0.354 N 
ATOM     48  C   UNL A   1      41.694  27.674  29.530  1.00  0.00     0.074 A 
ATOM     49  C   UNL A   1      40.766  27.566  28.424  1.00  0.00     0.031 C 
ATOM     50  C   UNL A   1      39.130  32.311  33.143  1.00  0.00     0.029 A 
ATOM     51  C   UNL A   1      40.324  31.514  33.425  1.00  0.00     0.049 A 
ATOM     52  H   UNL A   1      41.162  30.040  32.216  1.00  0.00     0.167 HD
ATOM     53  C   UNL A   1      42.822  26.935  29.645  1.00  0.00     0.031 A 
ATOM     54  C   UNL A   1      41.094  31.609  34.528  1.00  0.00     0.031 A 
ATOM     55  C   UNL A   1      43.736  27.018  30.751  1.00  0.00     0.049 A 
ATOM     56  C   UNL A   1      42.297  30.709  34.681  1.00  0.00     0.074 A 
ATOM     57  C   UNL A   1      44.912  26.315  30.947  1.00  0.00     0.029 A 
ATOM     58  N   UNL A   1      43.574  27.843  31.853  1.00  0.00    -0.354 N 
ATOM     59  N   UNL A   1      42.770  29.814  33.847  1.00  0.00    -0.248 NA
ATOM     60  C   UNL A   1      43.070  30.838  35.926  1.00  0.00     0.031 C 
ATOM     61  C   UNL A   1      45.430  26.671  32.197  1.00  0.00     0.029 A 
ATOM     62  C   UNL A   1      44.610  27.641  32.750  1.00  0.00     0.049 A 
ATOM     63  H   UNL A   1      42.832  28.477  31.979  1.00  0.00     0.167 HD
ATOM     64  C   UNL A   1      43.909  29.292  34.456  1.00  0.00     0.074 A 
ATOM     65  C   UNL A   1      44.062  29.983  35.720  1.00  0.00     0.031 C 
ATOM     66  C   UNL A   1      44.753  28.329  34.008  1.00  0.00     0.031 A 
BRANCH  53  67
ATOM     67  C   UNL A   1      43.106  25.939  28.555  1.00  0.00    -0.014 A 
ATOM     68  C   UNL A   1      43.778  26.321  27.379  1.00  0.00     0.010 A 
ATOM     69  C   UNL A   1      42.715  24.599  28.718  1.00  0.00     0.010 A 
ATOM     70  C   UNL A   1      44.018  25.386  26.370  1.00  0.00     0.020 A 
ATOM     71  C   UNL A   1      42.977  23.655  27.723  1.00  0.00     0.020 A 
ATOM     72  C   UNL A   1      43.612  24.059  26.546  1.00  0.00     0.054 A 
BRANCH  72  73
ATOM     73  S   UNL A   1      43.946  22.864  25.225  1.00  0.00     0.124 S 
ATOM     74  O   UNL A   1      42.598  22.435  24.861  1.00  0.00    -0.237 OA
ATOM     75  O   UNL A   1      44.638  23.675  24.226  1.00  0.00    -0.237 OA
ATOM     76  O   UNL A   1      44.768  21.847  25.877  1.00  0.00    -0.744 OA
ENDBRANCH  72  73
ENDBRANCH  53  67
BRANCH  54  77
ATOM     77  C   UNL A   1      40.742  32.578  35.603  1.00  0.00    -0.014 A 
ATOM     78  C   UNL A   1      41.361  33.840  35.663  1.00  0.00     0.010 A 
ATOM     79  C   UNL A   1      39.798  32.234  36.588  1.00  0.00     0.010 A 
ATOM     80  C   UNL A   1      41.055  34.730  36.697  1.00  0.00     0.020 A 
ATOM     81  C   UNL A   1      39.470  33.132  37.607  1.00  0.00     0.020 A 
ATOM     82  C   UNL A   1      40.109  34.372  37.661  1.00  0.00     0.054 A 
BRANCH  82  83
ATOM     83  S   UNL A   1      39.691  35.564  38.965  1.00  0.00     0.124 S 
ATOM     84  O   UNL A   1      38.637  34.863  39.690  1.00  0.00    -0.237 OA
ATOM     85  O   UNL A   1      40.959  35.710  39.675  1.00  0.00    -0.237 OA
ATOM     86  O   UNL A   1      39.263  36.746  38.221  1.00  0.00    -0.744 OA
ENDBRANCH  82  83
ENDBRANCH  54  77
BRANCH  66  87
ATOM     87  C   UNL A   1      45.940  27.977  34.868  1.00  0.00    -0.014 A 
ATOM     88  C   UNL A   1      45.873  26.938  35.814  1.00  0.00     0.010 A 
ATOM     89  C   UNL A   1      47.160  28.652  34.680  1.00  0.00     0.010 A 
ATOM     90  C   UNL A   1      46.997  26.601  36.575  1.00  0.00     0.020 A 
ATOM     91  C   UNL A   1      48.293  28.300  35.420  1.00  0.00     0.020 A 
ATOM     92  C   UNL A   1      48.199  27.284  36.373  1.00  0.00     0.054 A 
BRANCH  92  93
ATOM     93  S   UNL A   1      49.656  26.796  37.340  1.00  0.00     0.124 S 
ATOM     94  O   UNL A   1      50.245  25.757  36.499  1.00  0.00    -0.237 OA
ATOM     95  O   UNL A   1      50.416  28.041  37.425  1.00  0.00    -0.237 OA
ATOM     96  O   UNL A   1      49.094  26.329  38.605  1.00  0.00    -0.744 OA
ENDBRANCH  92  93
ENDBRANCH  66  87
ENDBRANCH  40  41
ENDBRANCH  33  35
ENDBRANCH  32  33
ENDBRANCH  31  32
ENDBRANCH  30  31
ENDBRANCH  29  30
ENDBRANCH  28  29
ENDBRANCH   1  28
TORSDOF 24
ENDMDL
MODEL 2
REMARK VINA RESULT:      -9.9      2.089      3.112
REMARK SMILES C[C@@H](c1cccc(O)c1)[N@H+]1[C@@H]2CC[C@H]1C[C@H](CC(=O)OCCOCCOCCOC(=O)c1ccc(-c3c4nc(c(-c5ccc(S(=O)(=O)[O-])cc5)c5ccc([nH]5)c(-c5ccc(S(=O)(=O)[O-])cc5)c5nc(c(-c6ccc(S(=O)(=O)[O-])cc6)c6ccc3[nH]6)C=C5)C=C4)cc1)C2
REMARK SMILES IDX 24 1 23 2 22 3 21 4 20 5 18 6 19 7 17 8 16 9 10 10 11 11
REMARK SMILES IDX 14 12 12 14 92 15 13 16 15 17 2 18 1 19 3 20 4 21 9 22 5 23
REMARK SMILES IDX 7 24 6 25 8 26 25 28 26 29 27 30 28 31 29 32 30 33 31 34
REMARK SMILES IDX 32 35 33 36 91 37 34 38 90 39 35 40 36 41 37 42 84 43 38 44
REMARK SMILES IDX 89 45 83 46 85 47 39 48 88 49 82 50 81 51 40 53 70 54 51 55
REMARK SMILES IDX 69 56 52 57 55 58 68 59 86 60 53 61 54 62 67 64 87 65 56 66
REMARK SMILES IDX 41 67 42 68 50 69 43 70 49 71 44 72 45 73 46 74 47 75 48 76
REMARK SMILES IDX 71 77 72 78 80 79 73 80 79 81 74 82 75 83 76 84 77 85 78 86
REMARK SMILES IDX 57 87 58 88 66 89 59 90 65 91 60 92 61 93 62 94 63 95 64 96
REMARK H PARENT 10 13 8 27 85 52 55 63
REMARK Flexibility Score: inf
ROOT
ATOM      1  C   UNL A   1      33.196  28.033  26.159  1.00  0.00     0.188 C 
ENDROOT
BRANCH   1   2
ATOM      2  O   UNL A   1      33.781  28.006  24.862  1.00  0.00    -0.376 OA
BRANCH   2   3
ATOM      3  C   UNL A   1      33.195  28.855  23.872  1.00  0.00     0.202 C 
BRANCH   3   4
ATOM      4  C   UNL A   1      32.591  28.170  22.636  1.00  0.00     0.261 C 
BRANCH   4   5
ATOM      5  O   UNL A   1      32.220  26.799  22.894  1.00  0.00    -0.463 OA
BRANCH   5   6
ATOM      6  C   UNL A   1      33.055  25.861  22.382  1.00  0.00     0.306 C 
ATOM      7  O   UNL A   1      33.537  25.911  21.255  1.00  0.00    -0.252 OA
BRANCH   6   8
ATOM      8  C   UNL A   1      33.494  24.834  23.409  1.00  0.00     0.126 C 
BRANCH   8   9
ATOM      9  C   UNL A   1      32.486  24.224  24.407  1.00  0.00     0.012 C 
ATOM     10  N   UNL A   1      32.670  21.796  26.077  1.00  0.00    -0.324 N 
ATOM     11  C   UNL A   1      32.770  23.079  26.765  1.00  0.00     0.185 C 
ATOM     12  C   UNL A   1      31.539  21.956  25.175  1.00  0.00     0.185 C 
ATOM     13  H   UNL A   1      32.500  21.035  26.736  1.00  0.00     0.349 HD
ATOM     14  C   UNL A   1      31.324  23.209  27.247  1.00  0.00     0.071 C 
ATOM     15  C   UNL A   1      33.101  24.267  25.839  1.00  0.00     0.069 C 
ATOM     16  C   UNL A   1      30.504  22.624  26.099  1.00  0.00     0.071 C 
ATOM     17  C   UNL A   1      31.922  22.851  23.996  1.00  0.00     0.069 C 
BRANCH  10  18
ATOM     18  C   UNL A   1      33.860  21.011  25.716  1.00  0.00     0.212 C 
ATOM     19  C   UNL A   1      33.481  19.835  24.793  1.00  0.00     0.081 C 
BRANCH  18  20
ATOM     20  C   UNL A   1      35.094  21.767  25.226  1.00  0.00     0.013 A 
ATOM     21  C   UNL A   1      35.321  22.091  23.878  1.00  0.00     0.010 A 
ATOM     22  C   UNL A   1      36.064  22.170  26.162  1.00  0.00     0.056 A 
ATOM     23  C   UNL A   1      36.433  22.851  23.495  1.00  0.00     0.004 A 
ATOM     24  C   UNL A   1      37.129  22.983  25.781  1.00  0.00     0.116 A 
ATOM     25  C   UNL A   1      37.324  23.328  24.452  1.00  0.00     0.046 A 
BRANCH  24  26
ATOM     26  O   UNL A   1      37.927  23.483  26.766  1.00  0.00    -0.508 OA
ATOM     27  H   UNL A   1      37.565  23.682  27.607  1.00  0.00     0.293 HD
ENDBRANCH  24  26
ENDBRANCH  18  20
ENDBRANCH  10  18
ENDBRANCH   8   9
ENDBRANCH   6   8
ENDBRANCH   5   6
ENDBRANCH   4   5
ENDBRANCH   3   4
ENDBRANCH   2   3
ENDBRANCH   1   2
BRANCH   1  28
ATOM     28  C   UNL A   1      31.864  28.783  26.302  1.00  0.00     0.188 C 
BRANCH  28  29
ATOM     29  O   UNL A   1      31.874  29.845  27.250  1.00  0.00    -0.376 OA
BRANCH  29  30
ATOM     30  C   UNL A   1      32.960  30.771  27.172  1.00  0.00     0.202 C 
BRANCH  30  31
ATOM     31  C   UNL A   1      32.568  32.257  27.212  1.00  0.00     0.261 C 
BRANCH  31  32
ATOM     32  O   UNL A   1      33.694  33.144  27.360  1.00  0.00    -0.460 OA
BRANCH  32  33
ATOM     33  C   UNL A   1      33.667  34.007  28.403  1.00  0.00     0.338 C 
ATOM     34  O   UNL A   1      32.784  34.809  28.657  1.00  0.00    -0.246 OA
BRANCH  33  35
ATOM     35  C   UNL A   1      34.762  33.636  29.337  1.00  0.00     0.060 A 
ATOM     36  C   UNL A   1      36.034  34.184  29.121  1.00  0.00     0.016 A 
ATOM     37  C   UNL A   1      34.531  32.834  30.461  1.00  0.00     0.016 A 
ATOM     38  C   UNL A   1      37.082  33.897  29.999  1.00  0.00     0.010 A 
ATOM     39  C   UNL A   1      35.580  32.547  31.339  1.00  0.00     0.010 A 
ATOM     40  C   UNL A   1      36.868  33.050  31.095  1.00  0.00    -0.014 A 
BRANCH  40  41
ATOM     41  C   UNL A   1      38.018  32.528  31.875  1.00  0.00     0.031 A 
ATOM     42  C   UNL A   1      38.815  31.390  31.294  1.00  0.00     0.074 A 
ATOM     43  C   UNL A   1      38.361  33.043  33.071  1.00  0.00     0.049 A 
ATOM     44  N   UNL A   1      39.830  30.743  31.804  1.00  0.00    -0.248 NA
ATOM     45  C   UNL A   1      38.405  30.920  29.960  1.00  0.00     0.031 C 
ATOM     46  C   UNL A   1      37.704  34.167  33.734  1.00  0.00     0.029 A 
ATOM     47  N   UNL A   1      39.355  32.670  33.944  1.00  0.00    -0.354 N 
ATOM     48  C   UNL A   1      40.181  29.789  30.855  1.00  0.00     0.074 A 
ATOM     49  C   UNL A   1      39.250  29.921  29.755  1.00  0.00     0.031 C 
ATOM     50  C   UNL A   1      38.311  34.391  34.914  1.00  0.00     0.029 A 
ATOM     51  C   UNL A   1      39.376  33.406  35.106  1.00  0.00     0.049 A 
ATOM     52  H   UNL A   1      39.993  31.946  33.756  1.00  0.00     0.167 HD
ATOM     53  C   UNL A   1      41.189  28.888  30.888  1.00  0.00     0.031 A 
ATOM     54  C   UNL A   1      40.149  33.285  36.205  1.00  0.00     0.031 A 
ATOM     55  C   UNL A   1      42.103  28.733  31.987  1.00  0.00     0.049 A 
ATOM     56  C   UNL A   1      41.208  32.210  36.259  1.00  0.00     0.074 A 
ATOM     57  C   UNL A   1      43.164  27.851  32.103  1.00  0.00     0.029 A 
ATOM     58  N   UNL A   1      42.061  29.465  33.163  1.00  0.00    -0.354 N 
ATOM     59  N   UNL A   1      41.548  31.337  35.341  1.00  0.00    -0.248 NA
ATOM     60  C   UNL A   1      41.990  32.108  37.502  1.00  0.00     0.031 C 
ATOM     61  C   UNL A   1      43.726  28.010  33.375  1.00  0.00     0.029 A 
ATOM     62  C   UNL A   1      43.055  29.033  34.025  1.00  0.00     0.049 A 
ATOM     63  H   UNL A   1      41.419  30.186  33.356  1.00  0.00     0.167 HD
ATOM     64  C   UNL A   1      42.597  30.601  35.885  1.00  0.00     0.074 A 
ATOM     65  C   UNL A   1      42.847  31.141  37.206  1.00  0.00     0.031 C 
ATOM     66  C   UNL A   1      43.293  29.572  35.339  1.00  0.00     0.031 A 
BRANCH  53  67
ATOM     67  C   UNL A   1      41.328  27.967  29.707  1.00  0.00    -0.014 A 
ATOM     68  C   UNL A   1      42.345  28.158  28.754  1.00  0.00     0.010 A 
ATOM     69  C   UNL A   1      40.443  26.885  29.562  1.00  0.00     0.010 A 
ATOM     70  C   UNL A   1      42.447  27.303  27.653  1.00  0.00     0.020 A 
ATOM     71  C   UNL A   1      40.559  26.012  28.477  1.00  0.00     0.020 A 
ATOM     72  C   UNL A   1      41.551  26.238  27.520  1.00  0.00     0.054 A 
BRANCH  72  73
ATOM     73  S   UNL A   1      41.715  25.138  26.088  1.00  0.00     0.124 S 
ATOM     74  O   UNL A   1      40.712  24.116  26.380  1.00  0.00    -0.237 OA
ATOM     75  O   UNL A   1      41.404  26.021  24.967  1.00  0.00    -0.237 OA
ATOM     76  O   UNL A   1      43.102  24.684  26.156  1.00  0.00    -0.744 OA
ENDBRANCH  72  73
ENDBRANCH  53  67
BRANCH  54  77
ATOM     77  C   UNL A   1      39.940  34.190  37.369  1.00  0.00    -0.014 A 
ATOM     78  C   UNL A   1      38.992  33.877  38.360  1.00  0.00     0.010 A 
ATOM     79  C   UNL A   1      40.676  35.383  37.482  1.00  0.00     0.010 A 
ATOM     80  C   UNL A   1      38.772  34.750  39.431  1.00  0.00     0.020 A 
ATOM     81  C   UNL A   1      40.479  36.244  38.565  1.00  0.00     0.020 A 
ATOM     82  C   UNL A   1      39.520  35.927  39.528  1.00  0.00     0.054 A 
BRANCH  82  83
ATOM     83  S   UNL A   1      39.254  37.018  40.953  1.00  0.00     0.124 S 
ATOM     84  O   UNL A   1      38.475  38.102  40.364  1.00  0.00    -0.237 OA
ATOM     85  O   UNL A   1      38.532  36.152  41.882  1.00  0.00    -0.237 OA
ATOM     86  O   UNL A   1      40.609  37.373  41.369  1.00  0.00    -0.744 OA
ENDBRANCH  82  83
ENDBRANCH  54  77
BRANCH  66  87
ATOM     87  C   UNL A   1      44.415  28.972  36.150  1.00  0.00    -0.014 A 
ATOM     88  C   UNL A   1      44.195  27.871  36.996  1.00  0.00     0.010 A 
ATOM     89  C   UNL A   1      45.721  29.478  36.011  1.00  0.00     0.010 A 
ATOM     90  C   UNL A   1      45.257  27.305  37.709  1.00  0.00     0.020 A 
ATOM     91  C   UNL A   1      46.789  28.898  36.702  1.00  0.00     0.020 A 
ATOM     92  C   UNL A   1      46.547  27.822  37.558  1.00  0.00     0.054 A 
BRANCH  92  93
ATOM     93  S   UNL A   1      47.915  27.039  38.458  1.00  0.00     0.124 S 
ATOM     94  O   UNL A   1      47.822  25.653  38.008  1.00  0.00    -0.237 OA
ATOM     95  O   UNL A   1      49.079  27.780  37.978  1.00  0.00    -0.237 OA
ATOM     96  O   UNL A   1      47.579  27.261  39.863  1.00  0.00    -0.744 OA
ENDBRANCH  92  93
ENDBRANCH  66  87
ENDBRANCH  40  41
ENDBRANCH  33  35
ENDBRANCH  32  33
ENDBRANCH  31  32
ENDBRANCH  30  31
ENDBRANCH  29  30
ENDBRANCH  28  29
ENDBRANCH   1  28
TORSDOF 24
ENDMDL
MODEL 3
REMARK VINA RESULT:      -9.2      2.502      8.590
REMARK SMILES C[C@@H](c1cccc(O)c1)[N@H+]1[C@@H]2CC[C@H]1C[C@H](CC(=O)OCCOCCOCCOC(=O)c1ccc(-c3c4nc(c(-c5ccc(S(=O)(=O)[O-])cc5)c5ccc([nH]5)c(-c5ccc(S(=O)(=O)[O-])cc5)c5nc(c(-c6ccc(S(=O)(=O)[O-])cc6)c6ccc3[nH]6)C=C5)C=C4)cc1)C2
REMARK SMILES IDX 24 1 23 2 22 3 21 4 20 5 18 6 19 7 17 8 16 9 10 10 11 11
REMARK SMILES IDX 14 12 12 14 92 15 13 16 15 17 2 18 1 19 3 20 4 21 9 22 5 23
REMARK SMILES IDX 7 24 6 25 8 26 25 28 26 29 27 30 28 31 29 32 30 33 31 34
REMARK SMILES IDX 32 35 33 36 91 37 34 38 90 39 35 40 36 41 37 42 84 43 38 44
REMARK SMILES IDX 89 45 83 46 85 47 39 48 88 49 82 50 81 51 40 53 70 54 51 55
REMARK SMILES IDX 69 56 52 57 55 58 68 59 86 60 53 61 54 62 67 64 87 65 56 66
REMARK SMILES IDX 41 67 42 68 50 69 43 70 49 71 44 72 45 73 46 74 47 75 48 76
REMARK SMILES IDX 71 77 72 78 80 79 73 80 79 81 74 82 75 83 76 84 77 85 78 86
REMARK SMILES IDX 57 87 58 88 66 89 59 90 65 91 60 92 61 93 62 94 63 95 64 96
REMARK H PARENT 10 13 8 27 85 52 55 63
REMARK Flexibility Score: inf
ROOT
ATOM      1  C   UNL A   1      34.071  30.923  27.995  1.00  0.00     0.188 C 
ENDROOT
BRANCH   1   2
ATOM      2  O   UNL A   1      34.508  29.635  27.576  1.00  0.00    -0.376 OA
BRANCH   2   3
ATOM      3  C   UNL A   1      34.266  29.283  26.211  1.00  0.00     0.202 C 
BRANCH   3   4
ATOM      4  C   UNL A   1      32.952  28.549  25.904  1.00  0.00     0.261 C 
BRANCH   4   5
ATOM      5  O   UNL A   1      32.690  27.478  26.835  1.00  0.00    -0.463 OA
BRANCH   5   6
ATOM      6  C   UNL A   1      32.098  26.377  26.306  1.00  0.00     0.306 C 
ATOM      7  O   UNL A   1      31.069  25.873  26.745  1.00  0.00    -0.252 OA
BRANCH   6   8
ATOM      8  C   UNL A   1      32.726  25.937  24.997  1.00  0.00     0.126 C 
BRANCH   8   9
ATOM      9  C   UNL A   1      33.957  25.005  24.977  1.00  0.00     0.012 C 
ATOM     10  N   UNL A   1      34.180  22.131  24.339  1.00  0.00    -0.324 N 
ATOM     11  C   UNL A   1      34.712  23.069  23.355  1.00  0.00     0.185 C 
ATOM     12  C   UNL A   1      34.684  22.619  25.614  1.00  0.00     0.185 C 
ATOM     13  H   UNL A   1      34.509  21.182  24.160  1.00  0.00     0.349 HD
ATOM     14  C   UNL A   1      36.190  23.019  23.747  1.00  0.00     0.071 C 
ATOM     15  C   UNL A   1      34.197  24.514  23.517  1.00  0.00     0.069 C 
ATOM     16  C   UNL A   1      36.159  22.903  25.270  1.00  0.00     0.071 C 
ATOM     17  C   UNL A   1      33.936  23.885  26.033  1.00  0.00     0.069 C 
BRANCH  10  18
ATOM     18  C   UNL A   1      32.845  21.530  24.198  1.00  0.00     0.212 C 
ATOM     19  C   UNL A   1      32.023  22.271  23.123  1.00  0.00     0.081 C 
BRANCH  18  20
ATOM     20  C   UNL A   1      32.755  20.012  24.061  1.00  0.00     0.013 A 
ATOM     21  C   UNL A   1      32.402  19.359  22.869  1.00  0.00     0.010 A 
ATOM     22  C   UNL A   1      33.039  19.208  25.180  1.00  0.00     0.056 A 
ATOM     23  C   UNL A   1      32.408  17.961  22.780  1.00  0.00     0.004 A 
ATOM     24  C   UNL A   1      33.110  17.821  25.064  1.00  0.00     0.116 A 
ATOM     25  C   UNL A   1      32.794  17.188  23.872  1.00  0.00     0.046 A 
BRANCH  24  26
ATOM     26  O   UNL A   1      33.565  17.119  26.139  1.00  0.00    -0.508 OA
ATOM     27  H   UNL A   1      34.049  17.554  26.813  1.00  0.00     0.293 HD
ENDBRANCH  24  26
ENDBRANCH  18  20
ENDBRANCH  10  18
ENDBRANCH   8   9
ENDBRANCH   6   8
ENDBRANCH   5   6
ENDBRANCH   4   5
ENDBRANCH   3   4
ENDBRANCH   2   3
ENDBRANCH   1   2
BRANCH   1  28
ATOM     28  C   UNL A   1      35.149  32.006  28.143  1.00  0.00     0.188 C 
BRANCH  28  29
ATOM     29  O   UNL A   1      34.839  33.248  27.521  1.00  0.00    -0.376 OA
BRANCH  29  30
ATOM     30  C   UNL A   1      33.905  34.094  28.195  1.00  0.00     0.202 C 
BRANCH  30  31
ATOM     31  C   UNL A   1      34.234  34.408  29.663  1.00  0.00     0.261 C 
BRANCH  31  32
ATOM     32  O   UNL A   1      33.067  34.613  30.483  1.00  0.00    -0.460 OA
BRANCH  32  33
ATOM     33  C   UNL A   1      33.270  35.059  31.745  1.00  0.00     0.338 C 
ATOM     34  O   UNL A   1      32.480  35.691  32.426  1.00  0.00    -0.246 OA
BRANCH  33  35
ATOM     35  C   UNL A   1      34.512  34.428  32.263  1.00  0.00     0.060 A 
ATOM     36  C   UNL A   1      35.668  35.215  32.358  1.00  0.00     0.016 A 
ATOM     37  C   UNL A   1      34.527  33.110  32.733  1.00  0.00     0.016 A 
ATOM     38  C   UNL A   1      36.847  34.674  32.880  1.00  0.00     0.010 A 
ATOM     39  C   UNL A   1      35.706  32.570  33.255  1.00  0.00     0.010 A 
ATOM     40  C   UNL A   1      36.880  33.338  33.300  1.00  0.00    -0.014 A 
BRANCH  40  41
ATOM     41  C   UNL A   1      38.175  32.680  33.605  1.00  0.00     0.031 A 
ATOM     42  C   UNL A   1      38.778  32.892  34.968  1.00  0.00     0.074 A 
ATOM     43  C   UNL A   1      38.812  31.908  32.704  1.00  0.00     0.049 A 
ATOM     44  N   UNL A   1      39.912  32.457  35.450  1.00  0.00    -0.248 NA
ATOM     45  C   UNL A   1      37.993  33.707  35.911  1.00  0.00     0.031 C 
ATOM     46  C   UNL A   1      38.327  31.586  31.364  1.00  0.00     0.029 A 
ATOM     47  N   UNL A   1      40.019  31.257  32.791  1.00  0.00    -0.354 N 
ATOM     48  C   UNL A   1      39.980  32.945  36.750  1.00  0.00     0.074 A 
ATOM     49  C   UNL A   1      38.787  33.736  36.969  1.00  0.00     0.031 C 
ATOM     50  C   UNL A   1      39.232  30.802  30.751  1.00  0.00     0.029 A 
ATOM     51  C   UNL A   1      40.375  30.594  31.640  1.00  0.00     0.049 A 
ATOM     52  H   UNL A   1      40.578  31.265  33.601  1.00  0.00     0.167 HD
ATOM     53  C   UNL A   1      40.940  32.751  37.683  1.00  0.00     0.031 A 
ATOM     54  C   UNL A   1      41.500  29.916  31.333  1.00  0.00     0.031 A 
ATOM     55  C   UNL A   1      42.139  31.988  37.466  1.00  0.00     0.049 A 
ATOM     56  C   UNL A   1      42.601  29.790  32.358  1.00  0.00     0.074 A 
ATOM     57  C   UNL A   1      43.164  31.729  38.360  1.00  0.00     0.029 A 
ATOM     58  N   UNL A   1      42.482  31.371  36.273  1.00  0.00    -0.354 N 
ATOM     59  N   UNL A   1      42.635  30.231  33.593  1.00  0.00    -0.248 NA
ATOM     60  C   UNL A   1      43.817  29.071  31.945  1.00  0.00     0.031 C 
ATOM     61  C   UNL A   1      44.156  31.005  37.687  1.00  0.00     0.029 A 
ATOM     62  C   UNL A   1      43.719  30.761  36.395  1.00  0.00     0.049 A 
ATOM     63  H   UNL A   1      41.927  31.369  35.460  1.00  0.00     0.167 HD
ATOM     64  C   UNL A   1      43.862  29.821  34.110  1.00  0.00     0.074 A 
ATOM     65  C   UNL A   1      44.533  29.084  33.060  1.00  0.00     0.031 C 
ATOM     66  C   UNL A   1      44.383  30.034  35.344  1.00  0.00     0.031 A 
BRANCH  53  67
ATOM     67  C   UNL A   1      40.746  33.414  39.019  1.00  0.00    -0.014 A 
ATOM     68  C   UNL A   1      40.091  32.750  40.072  1.00  0.00     0.010 A 
ATOM     69  C   UNL A   1      41.244  34.712  39.229  1.00  0.00     0.010 A 
ATOM     70  C   UNL A   1      39.904  33.389  41.299  1.00  0.00     0.020 A 
ATOM     71  C   UNL A   1      41.084  35.344  40.464  1.00  0.00     0.020 A 
ATOM     72  C   UNL A   1      40.398  34.684  41.486  1.00  0.00     0.054 A 
BRANCH  72  73
ATOM     73  S   UNL A   1      40.152  35.485  43.094  1.00  0.00     0.124 S 
ATOM     74  O   UNL A   1      41.420  36.188  43.276  1.00  0.00    -0.237 OA
ATOM     75  O   UNL A   1      38.990  36.338  42.853  1.00  0.00    -0.237 OA
ATOM     76  O   UNL A   1      39.924  34.368  44.007  1.00  0.00    -0.744 OA
ENDBRANCH  72  73
ENDBRANCH  53  67
BRANCH  54  77
ATOM     77  C   UNL A   1      41.665  29.317  29.979  1.00  0.00    -0.014 A 
ATOM     78  C   UNL A   1      42.385  29.995  28.978  1.00  0.00     0.010 A 
ATOM     79  C   UNL A   1      41.084  28.073  29.677  1.00  0.00     0.010 A 
ATOM     80  C   UNL A   1      42.504  29.446  27.697  1.00  0.00     0.020 A 
ATOM     81  C   UNL A   1      41.224  27.508  28.406  1.00  0.00     0.020 A 
ATOM     82  C   UNL A   1      41.926  28.205  27.420  1.00  0.00     0.054 A 
BRANCH  82  83
ATOM     83  S   UNL A   1      42.137  27.489  25.766  1.00  0.00     0.124 S 
ATOM     84  O   UNL A   1      41.976  28.656  24.907  1.00  0.00    -0.237 OA
ATOM     85  O   UNL A   1      43.486  26.933  25.834  1.00  0.00    -0.237 OA
ATOM     86  O   UNL A   1      41.067  26.497  25.684  1.00  0.00    -0.744 OA
ENDBRANCH  82  83
ENDBRANCH  54  77
BRANCH  66  87
ATOM     87  C   UNL A   1      45.736  29.442  35.648  1.00  0.00    -0.014 A 
ATOM     88  C   UNL A   1      45.869  28.111  36.082  1.00  0.00     0.010 A 
ATOM     89  C   UNL A   1      46.895  30.210  35.434  1.00  0.00     0.010 A 
ATOM     90  C   UNL A   1      47.136  27.568  36.321  1.00  0.00     0.020 A 
ATOM     91  C   UNL A   1      48.165  29.663  35.646  1.00  0.00     0.020 A 
ATOM     92  C   UNL A   1      48.275  28.348  36.102  1.00  0.00     0.054 A 
BRANCH  92  93
ATOM     93  S   UNL A   1      49.910  27.606  36.375  1.00  0.00     0.124 S 
ATOM     94  O   UNL A   1      49.587  26.464  37.226  1.00  0.00    -0.237 OA
ATOM     95  O   UNL A   1      50.343  27.278  35.019  1.00  0.00    -0.237 OA
ATOM     96  O   UNL A   1      50.670  28.671  37.025  1.00  0.00    -0.744 OA
ENDBRANCH  92  93
ENDBRANCH  66  87
ENDBRANCH  40  41
ENDBRANCH  33  35
ENDBRANCH  32  33
ENDBRANCH  31  32
ENDBRANCH  30  31
ENDBRANCH  29  30
ENDBRANCH  28  29
ENDBRANCH   1  28
TORSDOF 24
ENDMDL
