MODEL 1
REMARK VINA RESULT:      -9.7      0.000      0.000
REMARK SMILES Cc1nn(Cc2ccc(C(=O)OCCOCCOCCOC(=O)c3ccc(-c4c5nc(c(-c6ccc(S(=O)(=O)[O-])cc6)c6ccc([nH]6)c(-c6ccc(S(=O)(=O)[O-])cc6)c6nc(c(-c7ccc(S(=O)(=O)[O-])cc7)c7ccc4[nH]7)C=C6)C=C5)cc3)o2)c(C)c1C
REMARK SMILES IDX 17 1 16 2 15 3 14 4 13 5 12 6 10 7 11 8 9 9 6 10 7 11 84 12
REMARK SMILES IDX 8 13 5 14 4 15 1 16 2 17 3 18 87 19 85 20 88 21 86 22 18 23
REMARK SMILES IDX 19 24 20 25 21 26 22 27 23 28 24 29 25 30 83 31 26 32 82 33
REMARK SMILES IDX 27 34 28 35 29 36 76 37 30 38 81 39 75 40 77 41 31 42 80 43
REMARK SMILES IDX 74 44 73 45 32 47 62 48 43 49 61 50 44 51 47 52 60 53 78 54
REMARK SMILES IDX 45 55 46 56 59 58 79 59 48 60 33 61 34 62 42 63 35 64 41 65
REMARK SMILES IDX 36 66 37 67 38 68 39 69 40 70 63 71 64 72 72 73 65 74 71 75
REMARK SMILES IDX 66 76 67 77 68 78 69 79 70 80 49 81 50 82 58 83 51 84 57 85
REMARK SMILES IDX 52 86 53 87 54 88 55 89 56 90
REMARK H PARENT 77 46 47 57
REMARK Flexibility Score: inf
ROOT
ATOM      1  C   UNL A   1      35.169  23.052  23.576  1.00  0.00     0.188 C 
ENDROOT
BRANCH   1   2
ATOM      2  C   UNL A   1      34.276  24.224  24.033  1.00  0.00     0.188 C 
BRANCH   2   3
ATOM      3  O   UNL A   1      33.799  25.180  23.094  1.00  0.00    -0.376 OA
BRANCH   3   4
ATOM      4  C   UNL A   1      33.632  26.541  23.464  1.00  0.00     0.202 C 
BRANCH   4   5
ATOM      5  C   UNL A   1      32.242  27.195  23.630  1.00  0.00     0.261 C 
BRANCH   5   6
ATOM      6  O   UNL A   1      31.395  26.668  24.665  1.00  0.00    -0.457 OA
BRANCH   6   7
ATOM      7  C   UNL A   1      31.988  26.401  25.856  1.00  0.00     0.374 C 
ATOM      8  O   UNL A   1      32.145  25.275  26.323  1.00  0.00    -0.242 OA
BRANCH   7   9
ATOM      9  C   UNL A   1      32.589  27.603  26.401  1.00  0.00     0.211 A 
ATOM     10  C   UNL A   1      34.183  28.950  27.134  1.00  0.00     0.126 A 
ATOM     11  C   UNL A   1      32.987  29.612  27.323  1.00  0.00     0.048 A 
ATOM     12  O   UNL A   1      33.944  27.705  26.601  1.00  0.00    -0.452 OA
ATOM     13  C   UNL A   1      31.974  28.769  26.820  1.00  0.00     0.058 A 
BRANCH  10  14
ATOM     14  C   UNL A   1      35.603  29.373  27.278  1.00  0.00     0.219 C 
BRANCH  14  15
ATOM     15  N   UNL A   1      35.786  30.712  27.843  1.00  0.00    -0.262 N 
ATOM     16  C   UNL A   1      34.582  34.040  28.156  1.00  0.00     0.069 C 
ATOM     17  C   UNL A   1      35.366  32.778  28.141  1.00  0.00     0.063 A 
ATOM     18  N   UNL A   1      34.832  31.652  27.654  1.00  0.00    -0.177 NA
ATOM     19  C   UNL A   1      36.703  32.584  28.578  1.00  0.00    -0.007 A 
ATOM     20  C   UNL A   1      36.950  31.238  28.362  1.00  0.00     0.039 A 
ATOM     21  C   UNL A   1      37.638  33.599  29.127  1.00  0.00     0.048 C 
ATOM     22  C   UNL A   1      38.180  30.441  28.594  1.00  0.00     0.066 C 
ENDBRANCH  14  15
ENDBRANCH  10  14
ENDBRANCH   7   9
ENDBRANCH   6   7
ENDBRANCH   5   6
ENDBRANCH   4   5
ENDBRANCH   3   4
ENDBRANCH   2   3
ENDBRANCH   1   2
BRANCH   1  23
ATOM     23  O   UNL A   1      35.039  21.891  24.372  1.00  0.00    -0.376 OA
BRANCH  23  24
ATOM     24  C   UNL A   1      36.188  21.190  24.808  1.00  0.00     0.202 C 
BRANCH  24  25
ATOM     25  C   UNL A   1      37.570  21.835  24.905  1.00  0.00     0.261 C 
BRANCH  25  26
ATOM     26  O   UNL A   1      37.956  22.353  26.165  1.00  0.00    -0.460 OA
BRANCH  26  27
ATOM     27  C   UNL A   1      39.281  22.277  26.404  1.00  0.00     0.338 C 
ATOM     28  O   UNL A   1      39.941  21.264  26.555  1.00  0.00    -0.246 OA
BRANCH  27  29
ATOM     29  C   UNL A   1      39.791  23.632  26.606  1.00  0.00     0.060 A 
ATOM     30  C   UNL A   1      41.114  23.766  27.026  1.00  0.00     0.016 A 
ATOM     31  C   UNL A   1      38.871  24.691  26.669  1.00  0.00     0.016 A 
ATOM     32  C   UNL A   1      41.471  24.924  27.682  1.00  0.00     0.010 A 
ATOM     33  C   UNL A   1      39.223  25.833  27.345  1.00  0.00     0.010 A 
ATOM     34  C   UNL A   1      40.496  25.903  27.905  1.00  0.00    -0.014 A 
BRANCH  34  35
ATOM     35  C   UNL A   1      40.870  27.065  28.681  1.00  0.00     0.031 A 
ATOM     36  C   UNL A   1      41.889  27.900  28.020  1.00  0.00     0.074 A 
ATOM     37  C   UNL A   1      40.267  27.395  29.837  1.00  0.00     0.049 A 
ATOM     38  N   UNL A   1      43.124  28.048  28.364  1.00  0.00    -0.248 NA
ATOM     39  C   UNL A   1      41.544  28.496  26.719  1.00  0.00     0.031 C 
ATOM     40  C   UNL A   1      39.063  26.799  30.422  1.00  0.00     0.029 A 
ATOM     41  N   UNL A   1      40.545  28.426  30.679  1.00  0.00    -0.354 N 
ATOM     42  C   UNL A   1      43.650  28.951  27.451  1.00  0.00     0.074 A 
ATOM     43  C   UNL A   1      42.715  29.016  26.357  1.00  0.00     0.031 C 
ATOM     44  C   UNL A   1      38.589  27.621  31.386  1.00  0.00     0.029 A 
ATOM     45  C   UNL A   1      39.519  28.726  31.565  1.00  0.00     0.049 A 
ATOM     46  H   UNL A   1      41.399  28.917  30.660  1.00  0.00     0.167 HD
ATOM     47  C   UNL A   1      44.659  29.795  27.796  1.00  0.00     0.031 A 
ATOM     48  C   UNL A   1      39.411  29.846  32.322  1.00  0.00     0.031 A 
ATOM     49  C   UNL A   1      45.313  29.378  29.010  1.00  0.00     0.049 A 
ATOM     50  C   UNL A   1      40.762  30.454  32.413  1.00  0.00     0.074 A 
ATOM     51  C   UNL A   1      45.979  28.240  29.416  1.00  0.00     0.029 A 
ATOM     52  N   UNL A   1      44.989  30.068  30.155  1.00  0.00    -0.354 N 
ATOM     53  N   UNL A   1      41.754  29.917  33.066  1.00  0.00    -0.248 NA
ATOM     54  C   UNL A   1      41.140  31.458  31.429  1.00  0.00     0.031 C 
ATOM     55  C   UNL A   1      45.654  28.086  30.794  1.00  0.00     0.029 A 
ATOM     56  C   UNL A   1      44.852  29.164  31.175  1.00  0.00     0.049 A 
ATOM     57  H   UNL A   1      44.875  31.043  30.228  1.00  0.00     0.167 HD
ATOM     58  C   UNL A   1      42.876  30.183  32.294  1.00  0.00     0.074 A 
ATOM     59  C   UNL A   1      42.456  31.229  31.367  1.00  0.00     0.031 C 
ATOM     60  C   UNL A   1      43.945  29.334  32.293  1.00  0.00     0.031 A 
BRANCH  47  61
ATOM     61  C   UNL A   1      44.742  31.216  27.294  1.00  0.00    -0.014 A 
ATOM     62  C   UNL A   1      45.954  31.663  26.731  1.00  0.00     0.010 A 
ATOM     63  C   UNL A   1      43.787  32.204  27.618  1.00  0.00     0.010 A 
ATOM     64  C   UNL A   1      46.227  33.028  26.587  1.00  0.00     0.020 A 
ATOM     65  C   UNL A   1      44.028  33.564  27.432  1.00  0.00     0.020 A 
ATOM     66  C   UNL A   1      45.266  33.969  26.955  1.00  0.00     0.054 A 
BRANCH  66  67
ATOM     67  S   UNL A   1      45.666  35.729  26.872  1.00  0.00     0.124 S 
ATOM     68  O   UNL A   1      46.354  35.938  28.142  1.00  0.00    -0.237 OA
ATOM     69  O   UNL A   1      46.500  35.800  25.676  1.00  0.00    -0.237 OA
ATOM     70  O   UNL A   1      44.358  36.370  26.752  1.00  0.00    -0.744 OA
ENDBRANCH  66  67
ENDBRANCH  47  61
BRANCH  48  71
ATOM     71  C   UNL A   1      38.181  30.575  32.723  1.00  0.00    -0.014 A 
ATOM     72  C   UNL A   1      38.240  31.616  33.670  1.00  0.00     0.010 A 
ATOM     73  C   UNL A   1      36.996  30.442  31.972  1.00  0.00     0.010 A 
ATOM     74  C   UNL A   1      37.183  32.533  33.805  1.00  0.00     0.020 A 
ATOM     75  C   UNL A   1      35.934  31.343  32.110  1.00  0.00     0.020 A 
ATOM     76  C   UNL A   1      36.045  32.403  33.006  1.00  0.00     0.054 A 
BRANCH  76  77
ATOM     77  S   UNL A   1      34.774  33.700  33.041  1.00  0.00     0.124 S 
ATOM     78  O   UNL A   1      35.274  34.653  32.054  1.00  0.00    -0.237 OA
ATOM     79  O   UNL A   1      33.566  32.972  32.662  1.00  0.00    -0.237 OA
ATOM     80  O   UNL A   1      34.800  34.170  34.425  1.00  0.00    -0.744 OA
ENDBRANCH  76  77
ENDBRANCH  48  71
BRANCH  60  81
ATOM     81  C   UNL A   1      44.078  28.335  33.417  1.00  0.00    -0.014 A 
ATOM     82  C   UNL A   1      44.831  28.554  34.586  1.00  0.00     0.010 A 
ATOM     83  C   UNL A   1      43.285  27.176  33.337  1.00  0.00     0.010 A 
ATOM     84  C   UNL A   1      44.812  27.620  35.634  1.00  0.00     0.020 A 
ATOM     85  C   UNL A   1      43.244  26.255  34.383  1.00  0.00     0.020 A 
ATOM     86  C   UNL A   1      44.017  26.474  35.522  1.00  0.00     0.054 A 
BRANCH  86  87
ATOM     87  S   UNL A   1      43.959  25.289  36.896  1.00  0.00     0.124 S 
ATOM     88  O   UNL A   1      44.191  24.014  36.225  1.00  0.00    -0.237 OA
ATOM     89  O   UNL A   1      45.039  25.749  37.767  1.00  0.00    -0.237 OA
ATOM     90  O   UNL A   1      42.615  25.462  37.448  1.00  0.00    -0.744 OA
ENDBRANCH  86  87
ENDBRANCH  60  81
ENDBRANCH  34  35
ENDBRANCH  27  29
ENDBRANCH  26  27
ENDBRANCH  25  26
ENDBRANCH  24  25
ENDBRANCH  23  24
ENDBRANCH   1  23
TORSDOF 22
ENDMDL
MODEL 2
REMARK VINA RESULT:      -9.5      2.874      9.408
REMARK SMILES Cc1nn(Cc2ccc(C(=O)OCCOCCOCCOC(=O)c3ccc(-c4c5nc(c(-c6ccc(S(=O)(=O)[O-])cc6)c6ccc([nH]6)c(-c6ccc(S(=O)(=O)[O-])cc6)c6nc(c(-c7ccc(S(=O)(=O)[O-])cc7)c7ccc4[nH]7)C=C6)C=C5)cc3)o2)c(C)c1C
REMARK SMILES IDX 17 1 16 2 15 3 14 4 13 5 12 6 10 7 11 8 9 9 6 10 7 11 84 12
REMARK SMILES IDX 8 13 5 14 4 15 1 16 2 17 3 18 87 19 85 20 88 21 86 22 18 23
REMARK SMILES IDX 19 24 20 25 21 26 22 27 23 28 24 29 25 30 83 31 26 32 82 33
REMARK SMILES IDX 27 34 28 35 29 36 76 37 30 38 81 39 75 40 77 41 31 42 80 43
REMARK SMILES IDX 74 44 73 45 32 47 62 48 43 49 61 50 44 51 47 52 60 53 78 54
REMARK SMILES IDX 45 55 46 56 59 58 79 59 48 60 33 61 34 62 42 63 35 64 41 65
REMARK SMILES IDX 36 66 37 67 38 68 39 69 40 70 63 71 64 72 72 73 65 74 71 75
REMARK SMILES IDX 66 76 67 77 68 78 69 79 70 80 49 81 50 82 58 83 51 84 57 85
REMARK SMILES IDX 52 86 53 87 54 88 55 89 56 90
REMARK H PARENT 77 46 47 57
REMARK Flexibility Score: inf
ROOT
ATOM      1  C   UNL A   1      34.169  27.276  25.962  1.00  0.00     0.188 C 
ENDROOT
BRANCH   1   2
ATOM      2  C   UNL A   1      33.487  26.694  24.707  1.00  0.00     0.188 C 
BRANCH   2   3
ATOM      3  O   UNL A   1      34.067  26.868  23.421  1.00  0.00    -0.376 OA
BRANCH   3   4
ATOM      4  C   UNL A   1      33.414  27.649  22.430  1.00  0.00     0.202 C 
BRANCH   4   5
ATOM      5  C   UNL A   1      32.779  29.025  22.736  1.00  0.00     0.261 C 
BRANCH   5   6
ATOM      6  O   UNL A   1      31.364  29.149  22.521  1.00  0.00    -0.457 OA
BRANCH   6   7
ATOM      7  C   UNL A   1      30.592  29.282  23.629  1.00  0.00     0.374 C 
ATOM      8  O   UNL A   1      30.351  30.349  24.190  1.00  0.00    -0.242 OA
BRANCH   7   9
ATOM      9  C   UNL A   1      29.928  28.030  23.936  1.00  0.00     0.211 A 
ATOM     10  C   UNL A   1      29.584  26.075  24.910  1.00  0.00     0.126 A 
ATOM     11  C   UNL A   1      28.582  26.233  23.974  1.00  0.00     0.048 A 
ATOM     12  O   UNL A   1      30.430  27.157  24.869  1.00  0.00    -0.452 OA
ATOM     13  C   UNL A   1      28.779  27.497  23.379  1.00  0.00     0.058 A 
BRANCH  10  14
ATOM     14  C   UNL A   1      29.815  25.063  25.977  1.00  0.00     0.219 C 
BRANCH  14  15
ATOM     15  N   UNL A   1      31.003  24.229  25.781  1.00  0.00    -0.262 N 
ATOM     16  C   UNL A   1      34.154  23.139  27.007  1.00  0.00     0.069 C 
ATOM     17  C   UNL A   1      32.945  23.468  26.210  1.00  0.00     0.063 A 
ATOM     18  N   UNL A   1      31.939  24.161  26.755  1.00  0.00    -0.177 NA
ATOM     19  C   UNL A   1      32.691  23.150  24.849  1.00  0.00    -0.007 A 
ATOM     20  C   UNL A   1      31.431  23.666  24.597  1.00  0.00     0.039 A 
ATOM     21  C   UNL A   1      33.585  22.439  23.898  1.00  0.00     0.048 C 
ATOM     22  C   UNL A   1      30.631  23.674  23.347  1.00  0.00     0.066 C 
ENDBRANCH  14  15
ENDBRANCH  10  14
ENDBRANCH   7   9
ENDBRANCH   6   7
ENDBRANCH   5   6
ENDBRANCH   4   5
ENDBRANCH   3   4
ENDBRANCH   2   3
ENDBRANCH   1   2
BRANCH   1  23
ATOM     23  O   UNL A   1      33.316  28.076  26.757  1.00  0.00    -0.376 OA
BRANCH  23  24
ATOM     24  C   UNL A   1      32.986  29.390  26.353  1.00  0.00     0.202 C 
BRANCH  24  25
ATOM     25  C   UNL A   1      32.797  30.542  27.340  1.00  0.00     0.261 C 
BRANCH  25  26
ATOM     26  O   UNL A   1      33.747  31.591  27.302  1.00  0.00    -0.460 OA
BRANCH  26  27
ATOM     27  C   UNL A   1      34.440  31.743  28.449  1.00  0.00     0.338 C 
ATOM     28  O   UNL A   1      34.023  32.191  29.503  1.00  0.00    -0.246 OA
BRANCH  27  29
ATOM     29  C   UNL A   1      35.841  31.418  28.188  1.00  0.00     0.060 A 
ATOM     30  C   UNL A   1      36.136  30.116  27.785  1.00  0.00     0.016 A 
ATOM     31  C   UNL A   1      36.830  32.307  28.638  1.00  0.00     0.016 A 
ATOM     32  C   UNL A   1      37.411  29.643  28.004  1.00  0.00     0.010 A 
ATOM     33  C   UNL A   1      38.093  31.825  28.879  1.00  0.00     0.010 A 
ATOM     34  C   UNL A   1      38.345  30.479  28.626  1.00  0.00    -0.014 A 
BRANCH  34  35
ATOM     35  C   UNL A   1      39.646  29.929  28.935  1.00  0.00     0.031 A 
ATOM     36  C   UNL A   1      39.912  29.848  30.382  1.00  0.00     0.074 A 
ATOM     37  C   UNL A   1      40.477  29.449  27.993  1.00  0.00     0.049 A 
ATOM     38  N   UNL A   1      40.743  30.560  31.067  1.00  0.00    -0.248 NA
ATOM     39  C   UNL A   1      39.021  29.004  31.193  1.00  0.00     0.031 C 
ATOM     40  C   UNL A   1      40.189  29.221  26.574  1.00  0.00     0.029 A 
ATOM     41  N   UNL A   1      41.732  28.947  28.140  1.00  0.00    -0.354 N 
ATOM     42  C   UNL A   1      40.646  30.082  32.367  1.00  0.00     0.074 A 
ATOM     43  C   UNL A   1      39.438  29.298  32.423  1.00  0.00     0.031 C 
ATOM     44  C   UNL A   1      41.146  28.420  26.053  1.00  0.00     0.029 A 
ATOM     45  C   UNL A   1      42.168  28.186  27.063  1.00  0.00     0.049 A 
ATOM     46  H   UNL A   1      42.283  29.109  28.940  1.00  0.00     0.167 HD
ATOM     47  C   UNL A   1      41.710  30.120  33.213  1.00  0.00     0.031 A 
ATOM     48  C   UNL A   1      43.245  27.362  27.043  1.00  0.00     0.031 A 
ATOM     49  C   UNL A   1      42.737  31.012  32.739  1.00  0.00     0.049 A 
ATOM     50  C   UNL A   1      44.133  27.763  28.162  1.00  0.00     0.074 A 
ATOM     51  C   UNL A   1      42.796  32.355  32.431  1.00  0.00     0.029 A 
ATOM     52  N   UNL A   1      43.837  30.431  32.151  1.00  0.00    -0.354 N 
ATOM     53  N   UNL A   1      44.794  28.885  28.194  1.00  0.00    -0.248 NA
ATOM     54  C   UNL A   1      43.969  27.105  29.451  1.00  0.00     0.031 C 
ATOM     55  C   UNL A   1      43.688  32.449  31.325  1.00  0.00     0.029 A 
ATOM     56  C   UNL A   1      44.173  31.169  31.047  1.00  0.00     0.049 A 
ATOM     57  H   UNL A   1      44.302  29.623  32.469  1.00  0.00     0.167 HD
ATOM     58  C   UNL A   1      44.750  29.289  29.521  1.00  0.00     0.074 A 
ATOM     59  C   UNL A   1      44.333  28.102  30.262  1.00  0.00     0.031 C 
ATOM     60  C   UNL A   1      44.778  30.613  29.853  1.00  0.00     0.031 A 
BRANCH  47  61
ATOM     61  C   UNL A   1      42.003  29.021  34.205  1.00  0.00    -0.014 A 
ATOM     62  C   UNL A   1      42.344  27.745  33.714  1.00  0.00     0.010 A 
ATOM     63  C   UNL A   1      41.672  29.111  35.574  1.00  0.00     0.010 A 
ATOM     64  C   UNL A   1      42.269  26.610  34.532  1.00  0.00     0.020 A 
ATOM     65  C   UNL A   1      41.643  27.996  36.409  1.00  0.00     0.020 A 
ATOM     66  C   UNL A   1      41.903  26.745  35.871  1.00  0.00     0.054 A 
BRANCH  66  67
ATOM     67  S   UNL A   1      41.699  25.267  36.890  1.00  0.00     0.124 S 
ATOM     68  O   UNL A   1      43.017  25.143  37.502  1.00  0.00    -0.237 OA
ATOM     69  O   UNL A   1      40.614  25.658  37.786  1.00  0.00    -0.237 OA
ATOM     70  O   UNL A   1      41.355  24.229  35.921  1.00  0.00    -0.744 OA
ENDBRANCH  66  67
ENDBRANCH  47  61
BRANCH  48  71
ATOM     71  C   UNL A   1      43.414  26.081  26.311  1.00  0.00    -0.014 A 
ATOM     72  C   UNL A   1      44.546  25.860  25.503  1.00  0.00     0.010 A 
ATOM     73  C   UNL A   1      42.609  24.968  26.626  1.00  0.00     0.010 A 
ATOM     74  C   UNL A   1      44.899  24.563  25.090  1.00  0.00     0.020 A 
ATOM     75  C   UNL A   1      42.947  23.675  26.208  1.00  0.00     0.020 A 
ATOM     76  C   UNL A   1      44.108  23.476  25.466  1.00  0.00     0.054 A 
BRANCH  76  77
ATOM     77  S   UNL A   1      44.675  21.788  25.102  1.00  0.00     0.124 S 
ATOM     78  O   UNL A   1      43.704  20.971  25.823  1.00  0.00    -0.237 OA
ATOM     79  O   UNL A   1      44.592  21.732  23.646  1.00  0.00    -0.237 OA
ATOM     80  O   UNL A   1      46.034  21.758  25.641  1.00  0.00    -0.744 OA
ENDBRANCH  76  77
ENDBRANCH  48  71
BRANCH  60  81
ATOM     81  C   UNL A   1      45.260  31.608  28.825  1.00  0.00    -0.014 A 
ATOM     82  C   UNL A   1      44.461  32.125  27.787  1.00  0.00     0.010 A 
ATOM     83  C   UNL A   1      46.547  32.143  29.011  1.00  0.00     0.010 A 
ATOM     84  C   UNL A   1      44.953  33.130  26.940  1.00  0.00     0.020 A 
ATOM     85  C   UNL A   1      47.034  33.158  28.188  1.00  0.00     0.020 A 
ATOM     86  C   UNL A   1      46.239  33.640  27.148  1.00  0.00     0.054 A 
BRANCH  86  87
ATOM     87  S   UNL A   1      46.856  34.972  26.080  1.00  0.00     0.124 S 
ATOM     88  O   UNL A   1      48.277  35.013  26.415  1.00  0.00    -0.237 OA
ATOM     89  O   UNL A   1      46.538  34.487  24.739  1.00  0.00    -0.237 OA
ATOM     90  O   UNL A   1      46.087  36.141  26.504  1.00  0.00    -0.744 OA
ENDBRANCH  86  87
ENDBRANCH  60  81
ENDBRANCH  34  35
ENDBRANCH  27  29
ENDBRANCH  26  27
ENDBRANCH  25  26
ENDBRANCH  24  25
ENDBRANCH  23  24
ENDBRANCH   1  23
TORSDOF 22
ENDMDL
MODEL 3
REMARK VINA RESULT:      -9.4      2.804      9.427
REMARK SMILES Cc1nn(Cc2ccc(C(=O)OCCOCCOCCOC(=O)c3ccc(-c4c5nc(c(-c6ccc(S(=O)(=O)[O-])cc6)c6ccc([nH]6)c(-c6ccc(S(=O)(=O)[O-])cc6)c6nc(c(-c7ccc(S(=O)(=O)[O-])cc7)c7ccc4[nH]7)C=C6)C=C5)cc3)o2)c(C)c1C
REMARK SMILES IDX 17 1 16 2 15 3 14 4 13 5 12 6 10 7 11 8 9 9 6 10 7 11 84 12
REMARK SMILES IDX 8 13 5 14 4 15 1 16 2 17 3 18 87 19 85 20 88 21 86 22 18 23
REMARK SMILES IDX 19 24 20 25 21 26 22 27 23 28 24 29 25 30 83 31 26 32 82 33
REMARK SMILES IDX 27 34 28 35 29 36 76 37 30 38 81 39 75 40 77 41 31 42 80 43
REMARK SMILES IDX 74 44 73 45 32 47 62 48 43 49 61 50 44 51 47 52 60 53 78 54
REMARK SMILES IDX 45 55 46 56 59 58 79 59 48 60 33 61 34 62 42 63 35 64 41 65
REMARK SMILES IDX 36 66 37 67 38 68 39 69 40 70 63 71 64 72 72 73 65 74 71 75
REMARK SMILES IDX 66 76 67 77 68 78 69 79 70 80 49 81 50 82 58 83 51 84 57 85
REMARK SMILES IDX 52 86 53 87 54 88 55 89 56 90
REMARK H PARENT 77 46 47 57
REMARK Flexibility Score: inf
ROOT
ATOM      1  C   UNL A   1      34.047  27.114  26.311  1.00  0.00     0.188 C 
ENDROOT
BRANCH   1   2
ATOM      2  C   UNL A   1      33.138  25.990  25.770  1.00  0.00     0.188 C 
BRANCH   2   3
ATOM      3  O   UNL A   1      31.973  25.596  26.483  1.00  0.00    -0.376 OA
BRANCH   3   4
ATOM      4  C   UNL A   1      31.804  24.252  26.911  1.00  0.00     0.202 C 
BRANCH   4   5
ATOM      5  C   UNL A   1      32.987  23.364  27.359  1.00  0.00     0.261 C 
BRANCH   5   6
ATOM      6  O   UNL A   1      33.099  22.072  26.739  1.00  0.00    -0.457 OA
BRANCH   6   7
ATOM      7  C   UNL A   1      34.042  21.943  25.772  1.00  0.00     0.374 C 
ATOM      8  O   UNL A   1      35.218  21.648  25.976  1.00  0.00    -0.242 OA
BRANCH   7   9
ATOM      9  C   UNL A   1      33.430  21.998  24.459  1.00  0.00     0.211 A 
ATOM     10  C   UNL A   1      32.838  22.847  22.504  1.00  0.00     0.126 A 
ATOM     11  C   UNL A   1      32.254  21.599  22.587  1.00  0.00     0.048 A 
ATOM     12  O   UNL A   1      33.532  23.111  23.662  1.00  0.00    -0.452 OA
ATOM     13  C   UNL A   1      32.663  21.042  23.818  1.00  0.00     0.058 A 
BRANCH  10  14
ATOM     14  C   UNL A   1      32.947  23.836  21.397  1.00  0.00     0.219 C 
BRANCH  14  15
ATOM     15  N   UNL A   1      32.737  25.229  21.801  1.00  0.00    -0.262 N 
ATOM     16  C   UNL A   1      34.136  28.449  22.347  1.00  0.00     0.069 C 
ATOM     17  C   UNL A   1      33.300  27.222  22.297  1.00  0.00     0.063 A 
ATOM     18  N   UNL A   1      33.760  26.110  21.711  1.00  0.00    -0.177 NA
ATOM     19  C   UNL A   1      31.999  27.037  22.836  1.00  0.00    -0.007 A 
ATOM     20  C   UNL A   1      31.667  25.732  22.509  1.00  0.00     0.039 A 
ATOM     21  C   UNL A   1      31.182  28.014  23.599  1.00  0.00     0.048 C 
ATOM     22  C   UNL A   1      30.447  24.948  22.821  1.00  0.00     0.066 C 
ENDBRANCH  14  15
ENDBRANCH  10  14
ENDBRANCH   7   9
ENDBRANCH   6   7
ENDBRANCH   5   6
ENDBRANCH   4   5
ENDBRANCH   3   4
ENDBRANCH   2   3
ENDBRANCH   1   2
BRANCH   1  23
ATOM     23  O   UNL A   1      33.373  28.055  27.121  1.00  0.00    -0.376 OA
BRANCH  23  24
ATOM     24  C   UNL A   1      32.874  29.254  26.561  1.00  0.00     0.202 C 
BRANCH  24  25
ATOM     25  C   UNL A   1      32.663  30.529  27.378  1.00  0.00     0.261 C 
BRANCH  25  26
ATOM     26  O   UNL A   1      33.662  31.529  27.288  1.00  0.00    -0.460 OA
BRANCH  26  27
ATOM     27  C   UNL A   1      34.341  31.727  28.436  1.00  0.00     0.338 C 
ATOM     28  O   UNL A   1      33.902  32.181  29.478  1.00  0.00    -0.246 OA
BRANCH  27  29
ATOM     29  C   UNL A   1      35.754  31.445  28.190  1.00  0.00     0.060 A 
ATOM     30  C   UNL A   1      36.084  30.180  27.704  1.00  0.00     0.016 A 
ATOM     31  C   UNL A   1      36.714  32.317  28.728  1.00  0.00     0.016 A 
ATOM     32  C   UNL A   1      37.362  29.715  27.922  1.00  0.00     0.010 A 
ATOM     33  C   UNL A   1      37.980  31.841  28.967  1.00  0.00     0.010 A 
ATOM     34  C   UNL A   1      38.263  30.521  28.627  1.00  0.00    -0.014 A 
BRANCH  34  35
ATOM     35  C   UNL A   1      39.567  29.972  28.930  1.00  0.00     0.031 A 
ATOM     36  C   UNL A   1      39.872  29.967  30.373  1.00  0.00     0.074 A 
ATOM     37  C   UNL A   1      40.366  29.431  27.994  1.00  0.00     0.049 A 
ATOM     38  N   UNL A   1      40.728  30.704  30.995  1.00  0.00    -0.248 NA
ATOM     39  C   UNL A   1      38.994  29.179  31.252  1.00  0.00     0.031 C 
ATOM     40  C   UNL A   1      40.037  29.130  26.598  1.00  0.00     0.029 A 
ATOM     41  N   UNL A   1      41.620  28.923  28.135  1.00  0.00    -0.354 N 
ATOM     42  C   UNL A   1      40.661  30.299  32.321  1.00  0.00     0.074 A 
ATOM     43  C   UNL A   1      39.447  29.534  32.453  1.00  0.00     0.031 C 
ATOM     44  C   UNL A   1      40.971  28.291  26.097  1.00  0.00     0.029 A 
ATOM     45  C   UNL A   1      42.018  28.100  27.090  1.00  0.00     0.049 A 
ATOM     46  H   UNL A   1      42.194  29.121  28.910  1.00  0.00     0.167 HD
ATOM     47  C   UNL A   1      41.748  30.370  33.135  1.00  0.00     0.031 A 
ATOM     48  C   UNL A   1      43.085  27.262  27.087  1.00  0.00     0.031 A 
ATOM     49  C   UNL A   1      42.772  31.222  32.586  1.00  0.00     0.049 A 
ATOM     50  C   UNL A   1      44.007  27.712  28.158  1.00  0.00     0.074 A 
ATOM     51  C   UNL A   1      42.836  32.546  32.204  1.00  0.00     0.029 A 
ATOM     52  N   UNL A   1      43.849  30.596  32.002  1.00  0.00    -0.354 N 
ATOM     53  N   UNL A   1      44.681  28.826  28.111  1.00  0.00    -0.248 NA
ATOM     54  C   UNL A   1      43.871  27.127  29.485  1.00  0.00     0.031 C 
ATOM     55  C   UNL A   1      43.699  32.568  31.071  1.00  0.00     0.029 A 
ATOM     56  C   UNL A   1      44.162  31.269  30.851  1.00  0.00     0.049 A 
ATOM     57  H   UNL A   1      44.314  29.801  32.350  1.00  0.00     0.167 HD
ATOM     58  C   UNL A   1      44.677  29.302  29.414  1.00  0.00     0.074 A 
ATOM     59  C   UNL A   1      44.268  28.163  30.230  1.00  0.00     0.031 C 
ATOM     60  C   UNL A   1      44.729  30.642  29.673  1.00  0.00     0.031 A 
BRANCH  47  61
ATOM     61  C   UNL A   1      42.057  29.322  34.177  1.00  0.00    -0.014 A 
ATOM     62  C   UNL A   1      42.612  28.097  33.758  1.00  0.00     0.010 A 
ATOM     63  C   UNL A   1      41.555  29.378  35.496  1.00  0.00     0.010 A 
ATOM     64  C   UNL A   1      42.582  26.967  34.584  1.00  0.00     0.020 A 
ATOM     65  C   UNL A   1      41.568  28.273  36.345  1.00  0.00     0.020 A 
ATOM     66  C   UNL A   1      42.045  27.062  35.867  1.00  0.00     0.054 A 
BRANCH  66  67
ATOM     67  S   UNL A   1      41.907  25.576  36.886  1.00  0.00     0.124 S 
ATOM     68  O   UNL A   1      40.463  25.368  36.916  1.00  0.00    -0.237 OA
ATOM     69  O   UNL A   1      42.676  24.602  36.115  1.00  0.00    -0.237 OA
ATOM     70  O   UNL A   1      42.511  25.975  38.155  1.00  0.00    -0.744 OA
ENDBRANCH  66  67
ENDBRANCH  47  61
BRANCH  48  71
ATOM     71  C   UNL A   1      43.220  25.941  26.422  1.00  0.00    -0.014 A 
ATOM     72  C   UNL A   1      44.154  25.752  25.386  1.00  0.00     0.010 A 
ATOM     73  C   UNL A   1      42.633  24.793  26.990  1.00  0.00     0.010 A 
ATOM     74  C   UNL A   1      44.542  24.460  24.988  1.00  0.00     0.020 A 
ATOM     75  C   UNL A   1      43.004  23.503  26.589  1.00  0.00     0.020 A 
ATOM     76  C   UNL A   1      43.980  23.344  25.610  1.00  0.00     0.054 A 
BRANCH  76  77
ATOM     77  S   UNL A   1      44.628  21.689  25.234  1.00  0.00     0.124 S 
ATOM     78  O   UNL A   1      43.548  20.820  25.693  1.00  0.00    -0.237 OA
ATOM     79  O   UNL A   1      44.824  21.744  23.789  1.00  0.00    -0.237 OA
ATOM     80  O   UNL A   1      45.860  21.615  26.019  1.00  0.00    -0.744 OA
ENDBRANCH  76  77
ENDBRANCH  48  71
BRANCH  60  81
ATOM     81  C   UNL A   1      45.193  31.574  28.579  1.00  0.00    -0.014 A 
ATOM     82  C   UNL A   1      44.337  32.190  27.647  1.00  0.00     0.010 A 
ATOM     83  C   UNL A   1      46.550  31.944  28.592  1.00  0.00     0.010 A 
ATOM     84  C   UNL A   1      44.836  33.130  26.732  1.00  0.00     0.020 A 
ATOM     85  C   UNL A   1      47.048  32.894  27.701  1.00  0.00     0.020 A 
ATOM     86  C   UNL A   1      46.191  33.475  26.766  1.00  0.00     0.054 A 
BRANCH  86  87
ATOM     87  S   UNL A   1      46.825  34.724  25.612  1.00  0.00     0.124 S 
ATOM     88  O   UNL A   1      48.234  34.360  25.494  1.00  0.00    -0.237 OA
ATOM     89  O   UNL A   1      46.014  34.503  24.417  1.00  0.00    -0.237 OA
ATOM     90  O   UNL A   1      46.570  35.991  26.297  1.00  0.00    -0.744 OA
ENDBRANCH  86  87
ENDBRANCH  60  81
ENDBRANCH  34  35
ENDBRANCH  27  29
ENDBRANCH  26  27
ENDBRANCH  25  26
ENDBRANCH  24  25
ENDBRANCH  23  24
ENDBRANCH   1  23
TORSDOF 22
ENDMDL
