MODEL 1
REMARK VINA RESULT:     -10.1      0.000      0.000
REMARK SMILES COC(=O)c1ccc([C@H]2CC(=O)Nc3c(C(=O)OCCOCCOCCOC(=O)c4ccc(-c5c6nc(c(-c7ccc(S(=O)(=O)[O-])cc7)c7ccc([nH]7)c(-c7ccc(S(=O)(=O)[O-])cc7)c7nc(c(-c8ccc(S(=O)(=O)[O-])cc8)c8ccc5[nH]8)C=C7)C=C6)cc4)cn(-c4ccccc4)c32)cc1
REMARK SMILES IDX 22 1 21 2 20 3 19 4 18 5 16 6 17 7 15 8 9 9 10 10 98 11
REMARK SMILES IDX 11 12 14 13 91 14 12 15 13 16 90 17 8 19 5 20 6 21 100 22
REMARK SMILES IDX 7 23 99 24 3 25 4 26 2 27 1 28 92 29 93 30 97 31 94 32 96 33
REMARK SMILES IDX 95 34 23 35 24 36 25 37 26 38 27 39 28 40 29 41 30 42 31 43
REMARK SMILES IDX 89 44 32 45 88 46 33 47 34 48 35 49 82 50 36 51 87 52 81 53
REMARK SMILES IDX 83 54 37 55 86 56 80 57 79 58 38 60 68 61 49 62 67 63 50 64
REMARK SMILES IDX 53 65 66 66 84 67 51 68 52 69 65 71 85 72 54 73 39 74 40 75
REMARK SMILES IDX 48 76 41 77 47 78 42 79 43 80 44 81 45 82 46 83 69 84 70 85
REMARK SMILES IDX 78 86 71 87 77 88 72 89 73 90 74 91 75 92 76 93 55 94 56 95
REMARK SMILES IDX 64 96 57 97 63 98 58 99 59 100 60 101 61 102 62 103
REMARK H PARENT 13 18 83 59 53 70
REMARK Flexibility Score: inf
ROOT
ATOM      1  C   UNL A   1      40.484  20.760  27.163  1.00  0.00     0.188 C 
ENDROOT
BRANCH   1   2
ATOM      2  O   UNL A   1      40.673  22.167  27.059  1.00  0.00    -0.376 OA
BRANCH   2   3
ATOM      3  C   UNL A   1      39.600  23.014  26.679  1.00  0.00     0.202 C 
BRANCH   3   4
ATOM      4  C   UNL A   1      38.305  22.423  26.081  1.00  0.00     0.261 C 
BRANCH   4   5
ATOM      5  O   UNL A   1      37.293  23.360  25.674  1.00  0.00    -0.460 OA
BRANCH   5   6
ATOM      6  C   UNL A   1      36.431  22.932  24.712  1.00  0.00     0.341 C 
ATOM      7  O   UNL A   1      36.616  21.944  24.002  1.00  0.00    -0.246 OA
BRANCH   6   8
ATOM      8  C   UNL A   1      35.182  23.686  24.691  1.00  0.00     0.102 A 
ATOM      9  C   UNL A   1      31.592  24.431  23.983  1.00  0.00     0.078 C 
ATOM     10  C   UNL A   1      31.344  23.349  22.917  1.00  0.00     0.115 C 
ATOM     11  C   UNL A   1      33.045  24.426  24.390  1.00  0.00     0.055 A 
ATOM     12  C   UNL A   1      32.194  22.096  23.045  1.00  0.00     0.225 C 
ATOM     13  C   UNL A   1      33.908  23.376  24.151  1.00  0.00     0.078 A 
ATOM     14  N   UNL A   1      33.745  25.385  25.101  1.00  0.00    -0.317 N 
ATOM     15  O   UNL A   1      31.791  21.005  22.641  1.00  0.00    -0.275 OA
ATOM     16  N   UNL A   1      33.470  22.235  23.524  1.00  0.00    -0.324 N 
ATOM     17  C   UNL A   1      35.057  24.974  25.195  1.00  0.00     0.109 A 
ATOM     18  H   UNL A   1      34.099  21.486  23.414  1.00  0.00     0.170 HD
BRANCH   9  19
ATOM     19  C   UNL A   1      30.989  25.744  23.476  1.00  0.00    -0.038 A 
ATOM     20  C   UNL A   1      29.813  28.186  22.653  1.00  0.00     0.060 A 
ATOM     21  C   UNL A   1      29.178  27.381  23.604  1.00  0.00     0.016 A 
ATOM     22  C   UNL A   1      31.013  27.749  22.084  1.00  0.00     0.016 A 
ATOM     23  C   UNL A   1      29.762  26.176  24.013  1.00  0.00     0.005 A 
ATOM     24  C   UNL A   1      31.577  26.525  22.469  1.00  0.00     0.005 A 
BRANCH  20  25
ATOM     25  C   UNL A   1      29.181  29.485  22.291  1.00  0.00     0.337 C 
ATOM     26  O   UNL A   1      29.329  30.027  21.207  1.00  0.00    -0.246 OA
BRANCH  25  27
ATOM     27  O   UNL A   1      28.454  29.963  23.330  1.00  0.00    -0.465 OA
ATOM     28  C   UNL A   1      28.853  31.253  23.798  1.00  0.00     0.282 C 
ENDBRANCH  25  27
ENDBRANCH  20  25
ENDBRANCH   9  19
BRANCH  14  29
ATOM     29  C   UNL A   1      33.248  26.577  25.666  1.00  0.00     0.045 A 
ATOM     30  C   UNL A   1      33.808  27.800  25.288  1.00  0.00     0.026 A 
ATOM     31  C   UNL A   1      32.244  26.515  26.638  1.00  0.00     0.026 A 
ATOM     32  C   UNL A   1      33.384  28.969  25.915  1.00  0.00     0.002 A 
ATOM     33  C   UNL A   1      31.858  27.686  27.291  1.00  0.00     0.002 A 
ATOM     34  C   UNL A   1      32.427  28.909  26.929  1.00  0.00     0.000 A 
ENDBRANCH  14  29
ENDBRANCH   6   8
ENDBRANCH   5   6
ENDBRANCH   4   5
ENDBRANCH   3   4
ENDBRANCH   2   3
ENDBRANCH   1   2
BRANCH   1  35
ATOM     35  C   UNL A   1      41.683  19.779  27.119  1.00  0.00     0.188 C 
BRANCH  35  36
ATOM     36  O   UNL A   1      42.885  20.344  26.631  1.00  0.00    -0.376 OA
BRANCH  36  37
ATOM     37  C   UNL A   1      43.423  19.913  25.391  1.00  0.00     0.202 C 
BRANCH  37  38
ATOM     38  C   UNL A   1      44.735  20.484  24.853  1.00  0.00     0.261 C 
BRANCH  38  39
ATOM     39  O   UNL A   1      44.593  21.549  23.935  1.00  0.00    -0.460 OA
BRANCH  39  40
ATOM     40  C   UNL A   1      44.047  22.665  24.454  1.00  0.00     0.338 C 
ATOM     41  O   UNL A   1      42.858  22.890  24.621  1.00  0.00    -0.246 OA
BRANCH  40  42
ATOM     42  C   UNL A   1      45.124  23.612  24.750  1.00  0.00     0.060 A 
ATOM     43  C   UNL A   1      46.283  23.067  25.303  1.00  0.00     0.016 A 
ATOM     44  C   UNL A   1      44.809  24.976  24.837  1.00  0.00     0.016 A 
ATOM     45  C   UNL A   1      46.949  23.823  26.235  1.00  0.00     0.010 A 
ATOM     46  C   UNL A   1      45.461  25.722  25.780  1.00  0.00     0.010 A 
ATOM     47  C   UNL A   1      46.427  25.080  26.547  1.00  0.00    -0.014 A 
BRANCH  47  48
ATOM     48  C   UNL A   1      46.852  25.678  27.788  1.00  0.00     0.031 A 
ATOM     49  C   UNL A   1      45.745  25.987  28.703  1.00  0.00     0.074 A 
ATOM     50  C   UNL A   1      48.156  25.842  28.068  1.00  0.00     0.049 A 
ATOM     51  N   UNL A   1      45.292  27.149  29.032  1.00  0.00    -0.248 NA
ATOM     52  C   UNL A   1      44.929  24.853  29.162  1.00  0.00     0.031 C 
ATOM     53  C   UNL A   1      49.319  25.288  27.364  1.00  0.00     0.029 A 
ATOM     54  N   UNL A   1      48.712  26.446  29.146  1.00  0.00    -0.354 N 
ATOM     55  C   UNL A   1      44.250  26.892  29.910  1.00  0.00     0.074 A 
ATOM     56  C   UNL A   1      43.940  25.489  29.784  1.00  0.00     0.031 C 
ATOM     57  C   UNL A   1      50.399  25.363  28.175  1.00  0.00     0.029 A 
ATOM     58  C   UNL A   1      50.029  26.086  29.382  1.00  0.00     0.049 A 
ATOM     59  H   UNL A   1      48.222  27.085  29.713  1.00  0.00     0.167 HD
ATOM     60  C   UNL A   1      43.886  27.777  30.875  1.00  0.00     0.031 A 
ATOM     61  C   UNL A   1      50.705  26.273  30.543  1.00  0.00     0.031 A 
ATOM     62  C   UNL A   1      44.437  29.085  30.652  1.00  0.00     0.049 A 
ATOM     63  C   UNL A   1      49.973  27.318  31.312  1.00  0.00     0.074 A 
ATOM     64  C   UNL A   1      44.316  30.023  29.646  1.00  0.00     0.029 A 
ATOM     65  N   UNL A   1      45.576  29.417  31.351  1.00  0.00    -0.354 N 
ATOM     66  N   UNL A   1      49.861  28.557  30.918  1.00  0.00    -0.248 NA
ATOM     67  C   UNL A   1      48.966  26.884  32.272  1.00  0.00     0.031 C 
ATOM     68  C   UNL A   1      45.616  30.587  29.506  1.00  0.00     0.029 A 
ATOM     69  C   UNL A   1      46.448  30.004  30.467  1.00  0.00     0.049 A 
ATOM     70  H   UNL A   1      45.736  29.263  32.310  1.00  0.00     0.167 HD
ATOM     71  C   UNL A   1      48.562  28.928  31.244  1.00  0.00     0.074 A 
ATOM     72  C   UNL A   1      48.092  27.890  32.159  1.00  0.00     0.031 C 
ATOM     73  C   UNL A   1      47.893  29.882  30.532  1.00  0.00     0.031 A 
BRANCH  60  74
ATOM     74  C   UNL A   1      43.353  27.329  32.206  1.00  0.00    -0.014 A 
ATOM     75  C   UNL A   1      42.170  27.900  32.706  1.00  0.00     0.010 A 
ATOM     76  C   UNL A   1      44.117  26.539  33.094  1.00  0.00     0.010 A 
ATOM     77  C   UNL A   1      41.790  27.708  34.041  1.00  0.00     0.020 A 
ATOM     78  C   UNL A   1      43.722  26.299  34.406  1.00  0.00     0.020 A 
ATOM     79  C   UNL A   1      42.575  26.914  34.882  1.00  0.00     0.054 A 
BRANCH  79  80
ATOM     80  S   UNL A   1      42.131  26.750  36.626  1.00  0.00     0.124 S 
ATOM     81  O   UNL A   1      43.094  25.755  37.086  1.00  0.00    -0.237 OA
ATOM     82  O   UNL A   1      42.330  28.107  37.125  1.00  0.00    -0.237 OA
ATOM     83  O   UNL A   1      40.740  26.304  36.584  1.00  0.00    -0.744 OA
ENDBRANCH  79  80
ENDBRANCH  60  74
BRANCH  61  84
ATOM     84  C   UNL A   1      51.656  25.317  31.168  1.00  0.00    -0.014 A 
ATOM     85  C   UNL A   1      53.035  25.585  31.224  1.00  0.00     0.010 A 
ATOM     86  C   UNL A   1      51.167  24.245  31.945  1.00  0.00     0.010 A 
ATOM     87  C   UNL A   1      53.883  24.837  32.062  1.00  0.00     0.020 A 
ATOM     88  C   UNL A   1      52.004  23.491  32.774  1.00  0.00     0.020 A 
ATOM     89  C   UNL A   1      53.357  23.803  32.844  1.00  0.00     0.054 A 
BRANCH  89  90
ATOM     90  S   UNL A   1      54.425  22.947  34.040  1.00  0.00     0.124 S 
ATOM     91  O   UNL A   1      54.057  21.549  33.840  1.00  0.00    -0.237 OA
ATOM     92  O   UNL A   1      55.765  23.320  33.593  1.00  0.00    -0.237 OA
ATOM     93  O   UNL A   1      54.025  23.515  35.327  1.00  0.00    -0.744 OA
ENDBRANCH  89  90
ENDBRANCH  61  84
BRANCH  73  94
ATOM     94  C   UNL A   1      48.669  30.719  29.538  1.00  0.00    -0.014 A 
ATOM     95  C   UNL A   1      49.437  31.844  29.903  1.00  0.00     0.010 A 
ATOM     96  C   UNL A   1      48.780  30.232  28.224  1.00  0.00     0.010 A 
ATOM     97  C   UNL A   1      50.286  32.465  28.972  1.00  0.00     0.020 A 
ATOM     98  C   UNL A   1      49.635  30.836  27.298  1.00  0.00     0.020 A 
ATOM     99  C   UNL A   1      50.383  31.952  27.675  1.00  0.00     0.054 A 
BRANCH  99 100
ATOM    100  S   UNL A   1      51.546  32.703  26.500  1.00  0.00     0.124 S 
ATOM    101  O   UNL A   1      52.737  31.874  26.659  1.00  0.00    -0.237 OA
ATOM    102  O   UNL A   1      50.850  32.566  25.222  1.00  0.00    -0.237 OA
ATOM    103  O   UNL A   1      51.681  34.080  26.975  1.00  0.00    -0.744 OA
ENDBRANCH  99 100
ENDBRANCH  73  94
ENDBRANCH  47  48
ENDBRANCH  40  42
ENDBRANCH  39  40
ENDBRANCH  38  39
ENDBRANCH  37  38
ENDBRANCH  36  37
ENDBRANCH  35  36
ENDBRANCH   1  35
TORSDOF 24
ENDMDL
MODEL 2
REMARK VINA RESULT:      -9.8      5.329     14.531
REMARK SMILES COC(=O)c1ccc([C@H]2CC(=O)Nc3c(C(=O)OCCOCCOCCOC(=O)c4ccc(-c5c6nc(c(-c7ccc(S(=O)(=O)[O-])cc7)c7ccc([nH]7)c(-c7ccc(S(=O)(=O)[O-])cc7)c7nc(c(-c8ccc(S(=O)(=O)[O-])cc8)c8ccc5[nH]8)C=C7)C=C6)cc4)cn(-c4ccccc4)c32)cc1
REMARK SMILES IDX 22 1 21 2 20 3 19 4 18 5 16 6 17 7 15 8 9 9 10 10 98 11
REMARK SMILES IDX 11 12 14 13 91 14 12 15 13 16 90 17 8 19 5 20 6 21 100 22
REMARK SMILES IDX 7 23 99 24 3 25 4 26 2 27 1 28 92 29 93 30 97 31 94 32 96 33
REMARK SMILES IDX 95 34 23 35 24 36 25 37 26 38 27 39 28 40 29 41 30 42 31 43
REMARK SMILES IDX 89 44 32 45 88 46 33 47 34 48 35 49 82 50 36 51 87 52 81 53
REMARK SMILES IDX 83 54 37 55 86 56 80 57 79 58 38 60 68 61 49 62 67 63 50 64
REMARK SMILES IDX 53 65 66 66 84 67 51 68 52 69 65 71 85 72 54 73 39 74 40 75
REMARK SMILES IDX 48 76 41 77 47 78 42 79 43 80 44 81 45 82 46 83 69 84 70 85
REMARK SMILES IDX 78 86 71 87 77 88 72 89 73 90 74 91 75 92 76 93 55 94 56 95
REMARK SMILES IDX 64 96 57 97 63 98 58 99 59 100 60 101 61 102 62 103
REMARK H PARENT 13 18 83 59 53 70
REMARK Flexibility Score: inf
ROOT
ATOM      1  C   UNL A   1      47.124  26.206  27.610  1.00  0.00     0.188 C 
ENDROOT
BRANCH   1   2
ATOM      2  O   UNL A   1      47.976  26.535  28.701  1.00  0.00    -0.376 OA
BRANCH   2   3
ATOM      3  C   UNL A   1      48.109  25.655  29.806  1.00  0.00     0.202 C 
BRANCH   3   4
ATOM      4  C   UNL A   1      48.507  26.193  31.197  1.00  0.00     0.261 C 
BRANCH   4   5
ATOM      5  O   UNL A   1      49.835  25.886  31.655  1.00  0.00    -0.460 OA
BRANCH   5   6
ATOM      6  C   UNL A   1      50.756  26.881  31.537  1.00  0.00     0.341 C 
ATOM      7  O   UNL A   1      51.276  27.463  32.488  1.00  0.00    -0.246 OA
BRANCH   6   8
ATOM      8  C   UNL A   1      51.178  27.106  30.158  1.00  0.00     0.102 A 
ATOM      9  C   UNL A   1      51.668  28.925  26.935  1.00  0.00     0.078 C 
ATOM     10  C   UNL A   1      50.652  30.058  27.159  1.00  0.00     0.115 C 
ATOM     11  C   UNL A   1      51.606  27.947  28.081  1.00  0.00     0.055 A 
ATOM     12  C   UNL A   1      50.416  30.450  28.608  1.00  0.00     0.225 C 
ATOM     13  C   UNL A   1      51.034  28.229  29.305  1.00  0.00     0.078 A 
ATOM     14  N   UNL A   1      52.137  26.671  28.156  1.00  0.00    -0.317 N 
ATOM     15  O   UNL A   1      50.074  31.592  28.916  1.00  0.00    -0.275 OA
ATOM     16  N   UNL A   1      50.488  29.463  29.557  1.00  0.00    -0.324 N 
ATOM     17  C   UNL A   1      51.792  26.135  29.378  1.00  0.00     0.109 A 
ATOM     18  H   UNL A   1      50.133  29.648  30.457  1.00  0.00     0.170 HD
BRANCH   9  19
ATOM     19  C   UNL A   1      51.473  28.387  25.515  1.00  0.00    -0.038 A 
ATOM     20  C   UNL A   1      50.982  27.401  22.905  1.00  0.00     0.060 A 
ATOM     21  C   UNL A   1      50.035  27.220  23.918  1.00  0.00     0.016 A 
ATOM     22  C   UNL A   1      52.190  28.037  23.208  1.00  0.00     0.016 A 
ATOM     23  C   UNL A   1      50.277  27.710  25.207  1.00  0.00     0.005 A 
ATOM     24  C   UNL A   1      52.444  28.495  24.508  1.00  0.00     0.005 A 
BRANCH  20  25
ATOM     25  C   UNL A   1      50.656  26.911  21.536  1.00  0.00     0.337 C 
ATOM     26  O   UNL A   1      51.491  26.761  20.658  1.00  0.00    -0.246 OA
BRANCH  25  27
ATOM     27  O   UNL A   1      49.326  26.682  21.421  1.00  0.00    -0.465 OA
ATOM     28  C   UNL A   1      48.572  27.779  20.902  1.00  0.00     0.282 C 
ENDBRANCH  25  27
ENDBRANCH  20  25
ENDBRANCH   9  19
BRANCH  14  29
ATOM     29  C   UNL A   1      52.917  26.000  27.192  1.00  0.00     0.045 A 
ATOM     30  C   UNL A   1      54.276  26.305  27.077  1.00  0.00     0.026 A 
ATOM     31  C   UNL A   1      52.309  25.085  26.327  1.00  0.00     0.026 A 
ATOM     32  C   UNL A   1      55.025  25.714  26.063  1.00  0.00     0.002 A 
ATOM     33  C   UNL A   1      53.058  24.532  25.288  1.00  0.00     0.002 A 
ATOM     34  C   UNL A   1      54.413  24.846  25.158  1.00  0.00     0.000 A 
ENDBRANCH  14  29
ENDBRANCH   6   8
ENDBRANCH   5   6
ENDBRANCH   4   5
ENDBRANCH   3   4
ENDBRANCH   2   3
ENDBRANCH   1   2
BRANCH   1  35
ATOM     35  C   UNL A   1      47.549  25.172  26.537  1.00  0.00     0.188 C 
BRANCH  35  36
ATOM     36  O   UNL A   1      47.148  23.844  26.811  1.00  0.00    -0.376 OA
BRANCH  36  37
ATOM     37  C   UNL A   1      45.906  23.360  26.324  1.00  0.00     0.202 C 
BRANCH  37  38
ATOM     38  C   UNL A   1      45.343  23.827  24.980  1.00  0.00     0.261 C 
BRANCH  38  39
ATOM     39  O   UNL A   1      44.022  24.324  25.024  1.00  0.00    -0.460 OA
BRANCH  39  40
ATOM     40  C   UNL A   1      43.089  23.406  25.340  1.00  0.00     0.338 C 
ATOM     41  O   UNL A   1      43.024  22.256  24.931  1.00  0.00    -0.246 OA
BRANCH  40  42
ATOM     42  C   UNL A   1      42.112  24.029  26.234  1.00  0.00     0.060 A 
ATOM     43  C   UNL A   1      41.331  25.043  25.678  1.00  0.00     0.016 A 
ATOM     44  C   UNL A   1      42.277  23.869  27.618  1.00  0.00     0.016 A 
ATOM     45  C   UNL A   1      40.999  26.096  26.491  1.00  0.00     0.010 A 
ATOM     46  C   UNL A   1      41.962  24.929  28.424  1.00  0.00     0.010 A 
ATOM     47  C   UNL A   1      41.453  26.069  27.812  1.00  0.00    -0.014 A 
BRANCH  47  48
ATOM     48  C   UNL A   1      41.479  27.321  28.523  1.00  0.00     0.031 A 
ATOM     49  C   UNL A   1      42.694  28.112  28.280  1.00  0.00     0.074 A 
ATOM     50  C   UNL A   1      40.431  27.721  29.264  1.00  0.00     0.049 A 
ATOM     51  N   UNL A   1      43.658  28.352  29.102  1.00  0.00    -0.248 NA
ATOM     52  C   UNL A   1      42.944  28.531  26.894  1.00  0.00     0.031 C 
ATOM     53  C   UNL A   1      39.077  27.155  29.312  1.00  0.00     0.029 A 
ATOM     54  N   UNL A   1      40.328  28.826  30.042  1.00  0.00    -0.354 N 
ATOM     55  C   UNL A   1      44.553  29.133  28.386  1.00  0.00     0.074 A 
ATOM     56  C   UNL A   1      44.173  29.029  26.999  1.00  0.00     0.031 C 
ATOM     57  C   UNL A   1      38.241  28.065  29.864  1.00  0.00     0.029 A 
ATOM     58  C   UNL A   1      39.024  29.202  30.323  1.00  0.00     0.049 A 
ATOM     59  H   UNL A   1      41.111  29.318  30.379  1.00  0.00     0.167 HD
ATOM     60  C   UNL A   1      45.379  30.024  28.994  1.00  0.00     0.031 A 
ATOM     61  C   UNL A   1      38.633  30.415  30.786  1.00  0.00     0.031 A 
ATOM     62  C   UNL A   1      45.466  29.807  30.412  1.00  0.00     0.049 A 
ATOM     63  C   UNL A   1      39.837  31.070  31.370  1.00  0.00     0.074 A 
ATOM     64  C   UNL A   1      45.897  28.760  31.203  1.00  0.00     0.029 A 
ATOM     65  N   UNL A   1      44.685  30.601  31.221  1.00  0.00    -0.354 N 
ATOM     66  N   UNL A   1      40.461  30.620  32.425  1.00  0.00    -0.248 NA
ATOM     67  C   UNL A   1      40.628  31.942  30.512  1.00  0.00     0.031 C 
ATOM     68  C   UNL A   1      44.991  28.727  32.301  1.00  0.00     0.029 A 
ATOM     69  C   UNL A   1      44.090  29.785  32.152  1.00  0.00     0.049 A 
ATOM     70  H   UNL A   1      44.573  31.576  31.147  1.00  0.00     0.167 HD
ATOM     71  C   UNL A   1      41.812  30.805  32.156  1.00  0.00     0.074 A 
ATOM     72  C   UNL A   1      41.847  31.707  31.007  1.00  0.00     0.031 C 
ATOM     73  C   UNL A   1      42.765  29.995  32.705  1.00  0.00     0.031 A 
BRANCH  60  74
ATOM     74  C   UNL A   1      45.784  31.312  28.337  1.00  0.00    -0.014 A 
ATOM     75  C   UNL A   1      44.908  32.410  28.367  1.00  0.00     0.010 A 
ATOM     76  C   UNL A   1      46.901  31.398  27.476  1.00  0.00     0.010 A 
ATOM     77  C   UNL A   1      45.129  33.527  27.550  1.00  0.00     0.020 A 
ATOM     78  C   UNL A   1      47.159  32.523  26.701  1.00  0.00     0.020 A 
ATOM     79  C   UNL A   1      46.252  33.570  26.718  1.00  0.00     0.054 A 
BRANCH  79  80
ATOM     80  S   UNL A   1      46.479  34.969  25.597  1.00  0.00     0.124 S 
ATOM     81  O   UNL A   1      45.805  36.042  26.320  1.00  0.00    -0.237 OA
ATOM     82  O   UNL A   1      47.933  35.070  25.519  1.00  0.00    -0.237 OA
ATOM     83  O   UNL A   1      45.822  34.533  24.367  1.00  0.00    -0.744 OA
ENDBRANCH  79  80
ENDBRANCH  60  74
BRANCH  61  84
ATOM     84  C   UNL A   1      37.420  31.165  30.364  1.00  0.00    -0.014 A 
ATOM     85  C   UNL A   1      36.370  31.425  31.261  1.00  0.00     0.010 A 
ATOM     86  C   UNL A   1      37.413  31.855  29.132  1.00  0.00     0.010 A 
ATOM     87  C   UNL A   1      35.375  32.372  30.954  1.00  0.00     0.020 A 
ATOM     88  C   UNL A   1      36.424  32.792  28.816  1.00  0.00     0.020 A 
ATOM     89  C   UNL A   1      35.418  33.061  29.738  1.00  0.00     0.054 A 
BRANCH  89  90
ATOM     90  S   UNL A   1      34.226  34.394  29.416  1.00  0.00     0.124 S 
ATOM     91  O   UNL A   1      33.052  33.657  28.956  1.00  0.00    -0.237 OA
ATOM     92  O   UNL A   1      34.100  35.031  30.724  1.00  0.00    -0.237 OA
ATOM     93  O   UNL A   1      34.885  35.208  28.396  1.00  0.00    -0.744 OA
ENDBRANCH  89  90
ENDBRANCH  61  84
BRANCH  73  94
ATOM     94  C   UNL A   1      42.358  29.051  33.816  1.00  0.00    -0.014 A 
ATOM     95  C   UNL A   1      41.679  27.836  33.592  1.00  0.00     0.010 A 
ATOM     96  C   UNL A   1      42.852  29.312  35.106  1.00  0.00     0.010 A 
ATOM     97  C   UNL A   1      41.497  26.913  34.634  1.00  0.00     0.020 A 
ATOM     98  C   UNL A   1      42.689  28.390  36.143  1.00  0.00     0.020 A 
ATOM     99  C   UNL A   1      42.009  27.195  35.904  1.00  0.00     0.054 A 
BRANCH  99 100
ATOM    100  S   UNL A   1      41.849  25.962  37.228  1.00  0.00     0.124 S 
ATOM    101  O   UNL A   1      42.225  24.723  36.555  1.00  0.00    -0.237 OA
ATOM    102  O   UNL A   1      42.793  26.443  38.236  1.00  0.00    -0.237 OA
ATOM    103  O   UNL A   1      40.443  26.052  37.620  1.00  0.00    -0.744 OA
ENDBRANCH  99 100
ENDBRANCH  73  94
ENDBRANCH  47  48
ENDBRANCH  40  42
ENDBRANCH  39  40
ENDBRANCH  38  39
ENDBRANCH  37  38
ENDBRANCH  36  37
ENDBRANCH  35  36
ENDBRANCH   1  35
TORSDOF 24
ENDMDL
MODEL 3
REMARK VINA RESULT:      -9.7      4.742      8.197
REMARK SMILES COC(=O)c1ccc([C@H]2CC(=O)Nc3c(C(=O)OCCOCCOCCOC(=O)c4ccc(-c5c6nc(c(-c7ccc(S(=O)(=O)[O-])cc7)c7ccc([nH]7)c(-c7ccc(S(=O)(=O)[O-])cc7)c7nc(c(-c8ccc(S(=O)(=O)[O-])cc8)c8ccc5[nH]8)C=C7)C=C6)cc4)cn(-c4ccccc4)c32)cc1
REMARK SMILES IDX 22 1 21 2 20 3 19 4 18 5 16 6 17 7 15 8 9 9 10 10 98 11
REMARK SMILES IDX 11 12 14 13 91 14 12 15 13 16 90 17 8 19 5 20 6 21 100 22
REMARK SMILES IDX 7 23 99 24 3 25 4 26 2 27 1 28 92 29 93 30 97 31 94 32 96 33
REMARK SMILES IDX 95 34 23 35 24 36 25 37 26 38 27 39 28 40 29 41 30 42 31 43
REMARK SMILES IDX 89 44 32 45 88 46 33 47 34 48 35 49 82 50 36 51 87 52 81 53
REMARK SMILES IDX 83 54 37 55 86 56 80 57 79 58 38 60 68 61 49 62 67 63 50 64
REMARK SMILES IDX 53 65 66 66 84 67 51 68 52 69 65 71 85 72 54 73 39 74 40 75
REMARK SMILES IDX 48 76 41 77 47 78 42 79 43 80 44 81 45 82 46 83 69 84 70 85
REMARK SMILES IDX 78 86 71 87 77 88 72 89 73 90 74 91 75 92 76 93 55 94 56 95
REMARK SMILES IDX 64 96 57 97 63 98 58 99 59 100 60 101 61 102 62 103
REMARK H PARENT 13 18 83 59 53 70
REMARK Flexibility Score: inf
ROOT
ATOM      1  C   UNL A   1      40.915  21.361  26.344  1.00  0.00     0.188 C 
ENDROOT
BRANCH   1   2
ATOM      2  O   UNL A   1      40.665  22.572  27.048  1.00  0.00    -0.376 OA
BRANCH   2   3
ATOM      3  C   UNL A   1      39.488  23.323  26.798  1.00  0.00     0.202 C 
BRANCH   3   4
ATOM      4  C   UNL A   1      38.290  22.687  26.061  1.00  0.00     0.261 C 
BRANCH   4   5
ATOM      5  O   UNL A   1      37.180  23.550  25.762  1.00  0.00    -0.460 OA
BRANCH   5   6
ATOM      6  C   UNL A   1      36.354  23.142  24.760  1.00  0.00     0.341 C 
ATOM      7  O   UNL A   1      36.579  22.185  24.020  1.00  0.00    -0.246 OA
BRANCH   6   8
ATOM      8  C   UNL A   1      35.091  23.872  24.730  1.00  0.00     0.102 A 
ATOM      9  C   UNL A   1      31.495  24.552  23.990  1.00  0.00     0.078 C 
ATOM     10  C   UNL A   1      31.278  23.470  22.917  1.00  0.00     0.115 C 
ATOM     11  C   UNL A   1      32.944  24.572  24.411  1.00  0.00     0.055 A 
ATOM     12  C   UNL A   1      32.150  22.233  23.048  1.00  0.00     0.225 C 
ATOM     13  C   UNL A   1      33.829  23.540  24.176  1.00  0.00     0.078 A 
ATOM     14  N   UNL A   1      33.618  25.541  25.132  1.00  0.00    -0.317 N 
ATOM     15  O   UNL A   1      31.773  21.136  22.635  1.00  0.00    -0.275 OA
ATOM     16  N   UNL A   1      33.419  22.394  23.540  1.00  0.00    -0.324 N 
ATOM     17  C   UNL A   1      34.937  25.155  25.238  1.00  0.00     0.109 A 
ATOM     18  H   UNL A   1      34.063  21.658  23.433  1.00  0.00     0.170 HD
BRANCH   9  19
ATOM     19  C   UNL A   1      30.872  25.855  23.482  1.00  0.00    -0.038 A 
ATOM     20  C   UNL A   1      29.659  28.279  22.658  1.00  0.00     0.060 A 
ATOM     21  C   UNL A   1      29.040  27.468  23.615  1.00  0.00     0.016 A 
ATOM     22  C   UNL A   1      30.863  27.856  22.084  1.00  0.00     0.016 A 
ATOM     23  C   UNL A   1      29.642  26.273  24.024  1.00  0.00     0.005 A 
ATOM     24  C   UNL A   1      31.444  26.641  22.470  1.00  0.00     0.005 A 
BRANCH  20  25
ATOM     25  C   UNL A   1      29.009  29.569  22.296  1.00  0.00     0.337 C 
ATOM     26  O   UNL A   1      29.195  30.142  21.234  1.00  0.00    -0.246 OA
BRANCH  25  27
ATOM     27  O   UNL A   1      28.217  29.999  23.308  1.00  0.00    -0.465 OA
ATOM     28  C   UNL A   1      28.436  31.354  23.705  1.00  0.00     0.282 C 
ENDBRANCH  25  27
ENDBRANCH  20  25
ENDBRANCH   9  19
BRANCH  14  29
ATOM     29  C   UNL A   1      33.093  26.722  25.698  1.00  0.00     0.045 A 
ATOM     30  C   UNL A   1      32.166  26.629  26.739  1.00  0.00     0.026 A 
ATOM     31  C   UNL A   1      33.463  27.964  25.171  1.00  0.00     0.026 A 
ATOM     32  C   UNL A   1      31.576  27.789  27.234  1.00  0.00     0.002 A 
ATOM     33  C   UNL A   1      32.834  29.115  25.644  1.00  0.00     0.002 A 
ATOM     34  C   UNL A   1      31.893  29.027  26.673  1.00  0.00     0.000 A 
ENDBRANCH  14  29
ENDBRANCH   6   8
ENDBRANCH   5   6
ENDBRANCH   4   5
ENDBRANCH   3   4
ENDBRANCH   2   3
ENDBRANCH   1   2
BRANCH   1  35
ATOM     35  C   UNL A   1      42.356  20.830  26.137  1.00  0.00     0.188 C 
BRANCH  35  36
ATOM     36  O   UNL A   1      43.346  21.519  26.875  1.00  0.00    -0.376 OA
BRANCH  36  37
ATOM     37  C   UNL A   1      44.143  22.510  26.246  1.00  0.00     0.202 C 
BRANCH  37  38
ATOM     38  C   UNL A   1      44.808  23.627  27.053  1.00  0.00     0.261 C 
BRANCH  38  39
ATOM     39  O   UNL A   1      44.633  24.928  26.533  1.00  0.00    -0.460 OA
BRANCH  39  40
ATOM     40  C   UNL A   1      43.500  25.540  26.927  1.00  0.00     0.338 C 
ATOM     41  O   UNL A   1      42.459  25.636  26.294  1.00  0.00    -0.246 OA
BRANCH  40  42
ATOM     42  C   UNL A   1      43.729  26.130  28.248  1.00  0.00     0.060 A 
ATOM     43  C   UNL A   1      42.598  26.303  29.046  1.00  0.00     0.016 A 
ATOM     44  C   UNL A   1      44.930  26.820  28.471  1.00  0.00     0.016 A 
ATOM     45  C   UNL A   1      42.561  27.413  29.850  1.00  0.00     0.010 A 
ATOM     46  C   UNL A   1      44.886  27.938  29.258  1.00  0.00     0.010 A 
ATOM     47  C   UNL A   1      43.659  28.277  29.819  1.00  0.00    -0.014 A 
BRANCH  47  48
ATOM     48  C   UNL A   1      43.455  29.616  30.310  1.00  0.00     0.031 A 
ATOM     49  C   UNL A   1      43.467  29.715  31.776  1.00  0.00     0.074 A 
ATOM     50  C   UNL A   1      43.349  30.656  29.465  1.00  0.00     0.049 A 
ATOM     51  N   UNL A   1      42.472  29.956  32.560  1.00  0.00    -0.248 NA
ATOM     52  C   UNL A   1      44.708  29.316  32.455  1.00  0.00     0.031 C 
ATOM     53  C   UNL A   1      43.632  30.696  28.025  1.00  0.00     0.029 A 
ATOM     54  N   UNL A   1      43.086  31.952  29.761  1.00  0.00    -0.354 N 
ATOM     55  C   UNL A   1      43.011  29.938  33.839  1.00  0.00     0.074 A 
ATOM     56  C   UNL A   1      44.317  29.336  33.727  1.00  0.00     0.031 C 
ATOM     57  C   UNL A   1      43.779  31.986  27.643  1.00  0.00     0.029 A 
ATOM     58  C   UNL A   1      43.466  32.847  28.773  1.00  0.00     0.049 A 
ATOM     59  H   UNL A   1      42.663  32.233  30.604  1.00  0.00     0.167 HD
ATOM     60  C   UNL A   1      42.471  30.654  34.858  1.00  0.00     0.031 A 
ATOM     61  C   UNL A   1      43.622  34.185  28.935  1.00  0.00     0.031 A 
ATOM     62  C   UNL A   1      41.142  31.114  34.558  1.00  0.00     0.049 A 
ATOM     63  C   UNL A   1      42.879  34.565  30.169  1.00  0.00     0.074 A 
ATOM     64  C   UNL A   1      39.947  30.485  34.273  1.00  0.00     0.029 A 
ATOM     65  N   UNL A   1      41.008  32.412  34.119  1.00  0.00    -0.354 N 
ATOM     66  N   UNL A   1      41.582  34.478  30.286  1.00  0.00    -0.248 NA
ATOM     67  C   UNL A   1      43.610  34.592  31.429  1.00  0.00     0.031 C 
ATOM     68  C   UNL A   1      39.333  31.292  33.273  1.00  0.00     0.029 A 
ATOM     69  C   UNL A   1      40.158  32.397  33.040  1.00  0.00     0.049 A 
ATOM     70  H   UNL A   1      41.441  33.206  34.507  1.00  0.00     0.167 HD
ATOM     71  C   UNL A   1      41.362  34.026  31.581  1.00  0.00     0.074 A 
ATOM     72  C   UNL A   1      42.641  34.204  32.265  1.00  0.00     0.031 C 
ATOM     73  C   UNL A   1      40.255  33.293  31.903  1.00  0.00     0.031 A 
BRANCH  60  74
ATOM     74  C   UNL A   1      43.315  31.247  35.950  1.00  0.00    -0.014 A 
ATOM     75  C   UNL A   1      43.755  30.431  37.005  1.00  0.00     0.010 A 
ATOM     76  C   UNL A   1      43.482  32.643  36.096  1.00  0.00     0.010 A 
ATOM     77  C   UNL A   1      44.310  30.993  38.163  1.00  0.00     0.020 A 
ATOM     78  C   UNL A   1      44.080  33.207  37.218  1.00  0.00     0.020 A 
ATOM     79  C   UNL A   1      44.461  32.379  38.261  1.00  0.00     0.054 A 
BRANCH  79  80
ATOM     80  S   UNL A   1      45.088  33.103  39.794  1.00  0.00     0.124 S 
ATOM     81  O   UNL A   1      45.410  31.912  40.575  1.00  0.00    -0.237 OA
ATOM     82  O   UNL A   1      46.229  33.883  39.325  1.00  0.00    -0.237 OA
ATOM     83  O   UNL A   1      43.961  33.890  40.287  1.00  0.00    -0.744 OA
ENDBRANCH  79  80
ENDBRANCH  60  74
BRANCH  61  84
ATOM     84  C   UNL A   1      44.698  35.021  28.339  1.00  0.00    -0.014 A 
ATOM     85  C   UNL A   1      44.430  35.926  27.298  1.00  0.00     0.010 A 
ATOM     86  C   UNL A   1      45.953  35.112  28.979  1.00  0.00     0.010 A 
ATOM     87  C   UNL A   1      45.367  36.913  26.941  1.00  0.00     0.020 A 
ATOM     88  C   UNL A   1      46.893  36.086  28.625  1.00  0.00     0.020 A 
ATOM     89  C   UNL A   1      46.588  36.996  27.619  1.00  0.00     0.054 A 
BRANCH  89  90
ATOM     90  S   UNL A   1      47.724  38.369  27.264  1.00  0.00     0.124 S 
ATOM     91  O   UNL A   1      47.059  39.043  26.153  1.00  0.00    -0.237 OA
ATOM     92  O   UNL A   1      47.744  39.101  28.528  1.00  0.00    -0.237 OA
ATOM     93  O   UNL A   1      48.978  37.699  26.921  1.00  0.00    -0.744 OA
ENDBRANCH  89  90
ENDBRANCH  61  84
BRANCH  73  94
ATOM     94  C   UNL A   1      39.136  33.193  30.888  1.00  0.00    -0.014 A 
ATOM     95  C   UNL A   1      39.109  32.234  29.856  1.00  0.00     0.010 A 
ATOM     96  C   UNL A   1      37.985  33.968  31.110  1.00  0.00     0.010 A 
ATOM     97  C   UNL A   1      37.961  32.064  29.064  1.00  0.00     0.020 A 
ATOM     98  C   UNL A   1      36.834  33.793  30.338  1.00  0.00     0.020 A 
ATOM     99  C   UNL A   1      36.827  32.843  29.316  1.00  0.00     0.054 A 
BRANCH  99 100
ATOM    100  S   UNL A   1      35.315  32.561  28.350  1.00  0.00     0.124 S 
ATOM    101  O   UNL A   1      35.231  33.768  27.533  1.00  0.00    -0.237 OA
ATOM    102  O   UNL A   1      35.618  31.329  27.624  1.00  0.00    -0.237 OA
ATOM    103  O   UNL A   1      34.272  32.427  29.366  1.00  0.00    -0.744 OA
ENDBRANCH  99 100
ENDBRANCH  73  94
ENDBRANCH  47  48
ENDBRANCH  40  42
ENDBRANCH  39  40
ENDBRANCH  38  39
ENDBRANCH  37  38
ENDBRANCH  36  37
ENDBRANCH  35  36
ENDBRANCH   1  35
TORSDOF 24
ENDMDL
