MODEL 1
REMARK VINA RESULT:      -9.7      0.000      0.000
REMARK SMILES COc1cc(OC)cc(-c2ccc([C@@H](C)C(=O)OCCOCCOCCOC(=O)c3ccc(-c4c5nc(c(-c6ccc(S(=O)(=O)[O-])cc6)c6ccc([nH]6)c(-c6ccc(S(=O)(=O)[O-])cc6)c6nc(c(-c7ccc(S(=O)(=O)[O-])cc7)c7ccc4[nH]7)C=C6)C=C5)cc3)cc2F)c1
REMARK SMILES IDX 22 1 21 2 20 3 19 4 18 5 16 6 17 7 14 8 15 9 13 10 10 11
REMARK SMILES IDX 11 12 91 13 12 14 90 15 92 16 9 17 3 18 4 19 93 20 5 21 8 22
REMARK SMILES IDX 2 23 1 24 6 25 7 26 23 27 24 28 25 29 26 30 27 31 28 32
REMARK SMILES IDX 29 33 30 34 31 35 89 36 32 37 88 38 33 39 34 40 35 41 82 42
REMARK SMILES IDX 36 43 87 44 81 45 83 46 37 47 86 48 80 49 79 50 38 52 68 53
REMARK SMILES IDX 49 54 67 55 50 56 53 57 66 58 84 59 51 60 52 61 65 63 85 64
REMARK SMILES IDX 54 65 39 66 40 67 48 68 41 69 47 70 42 71 43 72 44 73 45 74
REMARK SMILES IDX 46 75 69 76 70 77 78 78 71 79 77 80 72 81 73 82 74 83 75 84
REMARK SMILES IDX 76 85 55 86 56 87 64 88 57 89 63 90 58 91 59 92 60 93 61 94
REMARK SMILES IDX 62 95
REMARK H PARENT 83 51 53 62
REMARK Flexibility Score: inf
ROOT
ATOM      1  C   UNL A   1      36.464  23.064  25.187  1.00  0.00     0.188 C 
ENDROOT
BRANCH   1   2
ATOM      2  O   UNL A   1      35.426  23.761  25.867  1.00  0.00    -0.376 OA
BRANCH   2   3
ATOM      3  C   UNL A   1      34.699  23.096  26.893  1.00  0.00     0.202 C 
BRANCH   3   4
ATOM      4  C   UNL A   1      34.537  21.567  26.815  1.00  0.00     0.261 C 
BRANCH   4   5
ATOM      5  O   UNL A   1      33.251  21.096  26.347  1.00  0.00    -0.463 OA
BRANCH   5   6
ATOM      6  C   UNL A   1      33.208  20.617  25.078  1.00  0.00     0.313 C 
ATOM      7  O   UNL A   1      33.997  19.775  24.652  1.00  0.00    -0.252 OA
BRANCH   6   8
ATOM      8  C   UNL A   1      32.092  21.166  24.178  1.00  0.00     0.126 C 
ATOM      9  C   UNL A   1      32.225  20.527  22.797  1.00  0.00     0.025 C 
BRANCH   8  10
ATOM     10  C   UNL A   1      31.847  22.669  24.041  1.00  0.00    -0.031 A 
ATOM     11  C   UNL A   1      31.359  25.498  23.911  1.00  0.00     0.018 A 
ATOM     12  C   UNL A   1      31.873  24.781  22.811  1.00  0.00     0.012 A 
ATOM     13  C   UNL A   1      31.106  24.767  25.075  1.00  0.00     0.131 A 
ATOM     14  C   UNL A   1      32.102  23.392  22.869  1.00  0.00     0.005 A 
ATOM     15  C   UNL A   1      31.330  23.385  25.141  1.00  0.00     0.044 A 
ATOM     16  F   UNL A   1      30.604  25.376  26.160  1.00  0.00    -0.206 F 
BRANCH  11  17
ATOM     17  C   UNL A   1      30.990  26.924  23.786  1.00  0.00    -0.008 A 
ATOM     18  C   UNL A   1      29.988  28.816  22.611  1.00  0.00     0.123 A 
ATOM     19  C   UNL A   1      30.462  29.678  23.604  1.00  0.00     0.092 A 
ATOM     20  C   UNL A   1      30.256  27.442  22.699  1.00  0.00     0.055 A 
ATOM     21  C   UNL A   1      31.192  29.192  24.684  1.00  0.00     0.123 A 
ATOM     22  C   UNL A   1      31.438  27.822  24.775  1.00  0.00     0.055 A 
BRANCH  18  23
ATOM     23  O   UNL A   1      29.332  29.457  21.597  1.00  0.00    -0.497 OA
ATOM     24  C   UNL A   1      27.984  29.842  21.826  1.00  0.00     0.278 C 
ENDBRANCH  18  23
BRANCH  21  25
ATOM     25  O   UNL A   1      31.612  30.137  25.580  1.00  0.00    -0.497 OA
ATOM     26  C   UNL A   1      32.862  29.889  26.213  1.00  0.00     0.278 C 
ENDBRANCH  21  25
ENDBRANCH  11  17
ENDBRANCH   8  10
ENDBRANCH   6   8
ENDBRANCH   5   6
ENDBRANCH   4   5
ENDBRANCH   3   4
ENDBRANCH   2   3
ENDBRANCH   1   2
BRANCH   1  27
ATOM     27  C   UNL A   1      37.900  23.176  25.715  1.00  0.00     0.188 C 
BRANCH  27  28
ATOM     28  O   UNL A   1      38.471  21.957  26.136  1.00  0.00    -0.376 OA
BRANCH  28  29
ATOM     29  C   UNL A   1      39.801  21.994  26.614  1.00  0.00     0.202 C 
BRANCH  29  30
ATOM     30  C   UNL A   1      40.658  23.194  26.186  1.00  0.00     0.261 C 
BRANCH  30  31
ATOM     31  O   UNL A   1      41.673  23.620  27.111  1.00  0.00    -0.460 OA
BRANCH  31  32
ATOM     32  C   UNL A   1      42.349  24.756  26.820  1.00  0.00     0.338 C 
ATOM     33  O   UNL A   1      43.014  24.972  25.817  1.00  0.00    -0.246 OA
BRANCH  32  34
ATOM     34  C   UNL A   1      41.957  25.780  27.817  1.00  0.00     0.060 A 
ATOM     35  C   UNL A   1      42.794  26.884  28.040  1.00  0.00     0.016 A 
ATOM     36  C   UNL A   1      40.756  25.658  28.521  1.00  0.00     0.016 A 
ATOM     37  C   UNL A   1      42.452  27.847  28.994  1.00  0.00     0.010 A 
ATOM     38  C   UNL A   1      40.426  26.611  29.490  1.00  0.00     0.010 A 
ATOM     39  C   UNL A   1      41.288  27.690  29.759  1.00  0.00    -0.014 A 
BRANCH  39  40
ATOM     40  C   UNL A   1      41.070  28.514  30.977  1.00  0.00     0.031 A 
ATOM     41  C   UNL A   1      39.966  29.540  30.950  1.00  0.00     0.074 A 
ATOM     42  C   UNL A   1      41.826  28.373  32.081  1.00  0.00     0.049 A 
ATOM     43  N   UNL A   1      39.642  30.438  31.843  1.00  0.00    -0.248 NA
ATOM     44  C   UNL A   1      39.119  29.555  29.744  1.00  0.00     0.031 C 
ATOM     45  C   UNL A   1      42.890  27.387  32.263  1.00  0.00     0.029 A 
ATOM     46  N   UNL A   1      41.817  29.079  33.261  1.00  0.00    -0.354 N 
ATOM     47  C   UNL A   1      38.566  31.135  31.302  1.00  0.00     0.074 A 
ATOM     48  C   UNL A   1      38.312  30.576  29.993  1.00  0.00     0.031 C 
ATOM     49  C   UNL A   1      43.439  27.559  33.480  1.00  0.00     0.029 A 
ATOM     50  C   UNL A   1      42.796  28.691  34.146  1.00  0.00     0.049 A 
ATOM     51  H   UNL A   1      41.169  29.794  33.454  1.00  0.00     0.167 HD
ATOM     52  C   UNL A   1      37.850  32.147  31.845  1.00  0.00     0.031 A 
ATOM     53  C   UNL A   1      43.150  29.208  35.341  1.00  0.00     0.031 A 
ATOM     54  C   UNL A   1      38.111  32.714  33.142  1.00  0.00     0.049 A 
ATOM     55  C   UNL A   1      42.393  30.394  35.890  1.00  0.00     0.074 A 
ATOM     56  C   UNL A   1      37.435  33.737  33.784  1.00  0.00     0.029 A 
ATOM     57  N   UNL A   1      39.131  32.314  33.991  1.00  0.00    -0.354 N 
ATOM     58  N   UNL A   1      41.370  31.034  35.375  1.00  0.00    -0.248 NA
ATOM     59  C   UNL A   1      42.835  30.921  37.190  1.00  0.00     0.031 C 
ATOM     60  C   UNL A   1      38.087  33.999  34.993  1.00  0.00     0.029 A 
ATOM     61  C   UNL A   1      39.120  33.087  35.140  1.00  0.00     0.049 A 
ATOM     62  H   UNL A   1      39.770  31.587  33.805  1.00  0.00     0.167 HD
ATOM     63  C   UNL A   1      41.023  32.011  36.305  1.00  0.00     0.074 A 
ATOM     64  C   UNL A   1      41.938  31.871  37.419  1.00  0.00     0.031 C 
ATOM     65  C   UNL A   1      40.031  32.935  36.247  1.00  0.00     0.031 A 
BRANCH  52  66
ATOM     66  C   UNL A   1      36.736  32.735  31.018  1.00  0.00    -0.014 A 
ATOM     67  C   UNL A   1      35.385  32.473  31.316  1.00  0.00     0.010 A 
ATOM     68  C   UNL A   1      37.045  33.591  29.945  1.00  0.00     0.010 A 
ATOM     69  C   UNL A   1      34.369  33.024  30.531  1.00  0.00     0.020 A 
ATOM     70  C   UNL A   1      36.030  34.169  29.178  1.00  0.00     0.020 A 
ATOM     71  C   UNL A   1      34.698  33.869  29.467  1.00  0.00     0.054 A 
BRANCH  71  72
ATOM     72  S   UNL A   1      33.356  34.589  28.482  1.00  0.00     0.124 S 
ATOM     73  O   UNL A   1      32.469  35.110  29.519  1.00  0.00    -0.237 OA
ATOM     74  O   UNL A   1      34.051  35.597  27.685  1.00  0.00    -0.237 OA
ATOM     75  O   UNL A   1      32.831  33.454  27.728  1.00  0.00    -0.744 OA
ENDBRANCH  71  72
ENDBRANCH  52  66
BRANCH  53  76
ATOM     76  C   UNL A   1      44.291  28.625  36.103  1.00  0.00    -0.014 A 
ATOM     77  C   UNL A   1      45.604  29.087  35.897  1.00  0.00     0.010 A 
ATOM     78  C   UNL A   1      44.073  27.588  37.029  1.00  0.00     0.010 A 
ATOM     79  C   UNL A   1      46.676  28.510  36.584  1.00  0.00     0.020 A 
ATOM     80  C   UNL A   1      45.140  27.031  37.743  1.00  0.00     0.020 A 
ATOM     81  C   UNL A   1      46.437  27.489  37.507  1.00  0.00     0.054 A 
BRANCH  81  82
ATOM     82  S   UNL A   1      47.839  26.790  38.422  1.00  0.00     0.124 S 
ATOM     83  O   UNL A   1      48.954  27.052  37.517  1.00  0.00    -0.237 OA
ATOM     84  O   UNL A   1      47.830  27.571  39.656  1.00  0.00    -0.237 OA
ATOM     85  O   UNL A   1      47.479  25.383  38.580  1.00  0.00    -0.744 OA
ENDBRANCH  81  82
ENDBRANCH  53  76
BRANCH  65  86
ATOM     86  C   UNL A   1      39.836  33.836  37.442  1.00  0.00    -0.014 A 
ATOM     87  C   UNL A   1      39.101  33.424  38.567  1.00  0.00     0.010 A 
ATOM     88  C   UNL A   1      40.458  35.099  37.458  1.00  0.00     0.010 A 
ATOM     89  C   UNL A   1      38.963  34.273  39.670  1.00  0.00     0.020 A 
ATOM     90  C   UNL A   1      40.350  35.936  38.571  1.00  0.00     0.020 A 
ATOM     91  C   UNL A   1      39.590  35.523  39.667  1.00  0.00     0.054 A 
BRANCH  91  92
ATOM     92  S   UNL A   1      39.430  36.587  41.127  1.00  0.00     0.124 S 
ATOM     93  O   UNL A   1      38.457  35.854  41.933  1.00  0.00    -0.237 OA
ATOM     94  O   UNL A   1      40.792  36.612  41.654  1.00  0.00    -0.237 OA
ATOM     95  O   UNL A   1      38.956  37.857  40.581  1.00  0.00    -0.744 OA
ENDBRANCH  91  92
ENDBRANCH  65  86
ENDBRANCH  39  40
ENDBRANCH  32  34
ENDBRANCH  31  32
ENDBRANCH  30  31
ENDBRANCH  29  30
ENDBRANCH  28  29
ENDBRANCH  27  28
ENDBRANCH   1  27
TORSDOF 24
ENDMDL
MODEL 2
REMARK VINA RESULT:      -9.6      3.410      9.534
REMARK SMILES COc1cc(OC)cc(-c2ccc([C@@H](C)C(=O)OCCOCCOCCOC(=O)c3ccc(-c4c5nc(c(-c6ccc(S(=O)(=O)[O-])cc6)c6ccc([nH]6)c(-c6ccc(S(=O)(=O)[O-])cc6)c6nc(c(-c7ccc(S(=O)(=O)[O-])cc7)c7ccc4[nH]7)C=C6)C=C5)cc3)cc2F)c1
REMARK SMILES IDX 22 1 21 2 20 3 19 4 18 5 16 6 17 7 14 8 15 9 13 10 10 11
REMARK SMILES IDX 11 12 91 13 12 14 90 15 92 16 9 17 3 18 4 19 93 20 5 21 8 22
REMARK SMILES IDX 2 23 1 24 6 25 7 26 23 27 24 28 25 29 26 30 27 31 28 32
REMARK SMILES IDX 29 33 30 34 31 35 89 36 32 37 88 38 33 39 34 40 35 41 82 42
REMARK SMILES IDX 36 43 87 44 81 45 83 46 37 47 86 48 80 49 79 50 38 52 68 53
REMARK SMILES IDX 49 54 67 55 50 56 53 57 66 58 84 59 51 60 52 61 65 63 85 64
REMARK SMILES IDX 54 65 39 66 40 67 48 68 41 69 47 70 42 71 43 72 44 73 45 74
REMARK SMILES IDX 46 75 69 76 70 77 78 78 71 79 77 80 72 81 73 82 74 83 75 84
REMARK SMILES IDX 76 85 55 86 56 87 64 88 57 89 63 90 58 91 59 92 60 93 61 94
REMARK SMILES IDX 62 95
REMARK H PARENT 83 51 53 62
REMARK Flexibility Score: inf
ROOT
ATOM      1  C   UNL A   1      33.081  24.409  21.982  1.00  0.00     0.188 C 
ENDROOT
BRANCH   1   2
ATOM      2  O   UNL A   1      33.522  25.713  21.621  1.00  0.00    -0.376 OA
BRANCH   2   3
ATOM      3  C   UNL A   1      32.912  26.845  22.231  1.00  0.00     0.202 C 
BRANCH   3   4
ATOM      4  C   UNL A   1      31.376  26.911  22.304  1.00  0.00     0.261 C 
BRANCH   4   5
ATOM      5  O   UNL A   1      30.780  26.331  23.489  1.00  0.00    -0.463 OA
BRANCH   5   6
ATOM      6  C   UNL A   1      30.996  26.987  24.658  1.00  0.00     0.313 C 
ATOM      7  O   UNL A   1      30.812  28.196  24.792  1.00  0.00    -0.252 OA
BRANCH   6   8
ATOM      8  C   UNL A   1      31.469  26.135  25.842  1.00  0.00     0.126 C 
ATOM      9  C   UNL A   1      32.619  26.863  26.535  1.00  0.00     0.025 C 
BRANCH   8  10
ATOM     10  C   UNL A   1      31.811  24.654  25.671  1.00  0.00    -0.031 A 
ATOM     11  C   UNL A   1      32.532  21.881  25.453  1.00  0.00     0.018 A 
ATOM     12  C   UNL A   1      31.519  22.450  24.656  1.00  0.00     0.012 A 
ATOM     13  C   UNL A   1      33.166  22.729  26.364  1.00  0.00     0.131 A 
ATOM     14  C   UNL A   1      31.171  23.812  24.753  1.00  0.00     0.005 A 
ATOM     15  C   UNL A   1      32.828  24.086  26.467  1.00  0.00     0.044 A 
ATOM     16  F   UNL A   1      34.150  22.265  27.149  1.00  0.00    -0.206 F 
BRANCH  11  17
ATOM     17  C   UNL A   1      32.981  20.489  25.237  1.00  0.00    -0.008 A 
ATOM     18  C   UNL A   1      32.641  18.071  25.239  1.00  0.00     0.123 A 
ATOM     19  C   UNL A   1      33.990  17.886  24.920  1.00  0.00     0.092 A 
ATOM     20  C   UNL A   1      32.138  19.370  25.402  1.00  0.00     0.055 A 
ATOM     21  C   UNL A   1      34.841  18.973  24.755  1.00  0.00     0.123 A 
ATOM     22  C   UNL A   1      34.330  20.263  24.899  1.00  0.00     0.055 A 
BRANCH  18  23
ATOM     23  O   UNL A   1      31.955  16.901  25.413  1.00  0.00    -0.497 OA
ATOM     24  C   UNL A   1      32.713  15.703  25.514  1.00  0.00     0.278 C 
ENDBRANCH  18  23
BRANCH  21  25
ATOM     25  O   UNL A   1      36.140  18.661  24.457  1.00  0.00    -0.497 OA
ATOM     26  C   UNL A   1      37.120  19.614  24.853  1.00  0.00     0.278 C 
ENDBRANCH  21  25
ENDBRANCH  11  17
ENDBRANCH   8  10
ENDBRANCH   6   8
ENDBRANCH   5   6
ENDBRANCH   4   5
ENDBRANCH   3   4
ENDBRANCH   2   3
ENDBRANCH   1   2
BRANCH   1  27
ATOM     27  C   UNL A   1      34.123  23.365  22.402  1.00  0.00     0.188 C 
BRANCH  27  28
ATOM     28  O   UNL A   1      35.369  23.898  22.791  1.00  0.00    -0.376 OA
BRANCH  28  29
ATOM     29  C   UNL A   1      36.290  23.018  23.403  1.00  0.00     0.202 C 
BRANCH  29  30
ATOM     30  C   UNL A   1      36.476  23.155  24.921  1.00  0.00     0.261 C 
BRANCH  30  31
ATOM     31  O   UNL A   1      37.549  24.005  25.361  1.00  0.00    -0.460 OA
BRANCH  31  32
ATOM     32  C   UNL A   1      38.533  23.440  26.099  1.00  0.00     0.338 C 
ATOM     33  O   UNL A   1      38.933  22.287  26.020  1.00  0.00    -0.246 OA
BRANCH  32  34
ATOM     34  C   UNL A   1      39.203  24.522  26.859  1.00  0.00     0.060 A 
ATOM     35  C   UNL A   1      38.938  24.670  28.229  1.00  0.00     0.016 A 
ATOM     36  C   UNL A   1      40.103  25.380  26.222  1.00  0.00     0.016 A 
ATOM     37  C   UNL A   1      39.542  25.701  28.956  1.00  0.00     0.010 A 
ATOM     38  C   UNL A   1      40.690  26.423  26.946  1.00  0.00     0.010 A 
ATOM     39  C   UNL A   1      40.385  26.613  28.307  1.00  0.00    -0.014 A 
BRANCH  39  40
ATOM     40  C   UNL A   1      40.779  27.882  28.974  1.00  0.00     0.031 A 
ATOM     41  C   UNL A   1      42.160  27.969  29.571  1.00  0.00     0.074 A 
ATOM     42  C   UNL A   1      39.944  28.933  29.062  1.00  0.00     0.049 A 
ATOM     43  N   UNL A   1      42.701  28.923  30.282  1.00  0.00    -0.248 NA
ATOM     44  C   UNL A   1      43.046  26.815  29.336  1.00  0.00     0.031 C 
ATOM     45  C   UNL A   1      38.603  29.005  28.484  1.00  0.00     0.029 A 
ATOM     46  N   UNL A   1      40.105  30.146  29.689  1.00  0.00    -0.354 N 
ATOM     47  C   UNL A   1      43.982  28.479  30.594  1.00  0.00     0.074 A 
ATOM     48  C   UNL A   1      44.127  27.160  30.020  1.00  0.00     0.031 C 
ATOM     49  C   UNL A   1      38.058  30.196  28.795  1.00  0.00     0.029 A 
ATOM     50  C   UNL A   1      38.993  30.953  29.627  1.00  0.00     0.049 A 
ATOM     51  H   UNL A   1      40.938  30.412  30.141  1.00  0.00     0.167 HD
ATOM     52  C   UNL A   1      44.955  29.113  31.291  1.00  0.00     0.031 A 
ATOM     53  C   UNL A   1      38.749  32.152  30.197  1.00  0.00     0.031 A 
ATOM     54  C   UNL A   1      44.807  30.420  31.875  1.00  0.00     0.049 A 
ATOM     55  C   UNL A   1      39.817  32.802  31.044  1.00  0.00     0.074 A 
ATOM     56  C   UNL A   1      45.738  31.150  32.593  1.00  0.00     0.029 A 
ATOM     57  N   UNL A   1      43.655  31.189  31.815  1.00  0.00    -0.354 N 
ATOM     58  N   UNL A   1      41.027  32.378  31.319  1.00  0.00    -0.248 NA
ATOM     59  C   UNL A   1      39.485  34.101  31.651  1.00  0.00     0.031 C 
ATOM     60  C   UNL A   1      45.127  32.332  33.022  1.00  0.00     0.029 A 
ATOM     61  C   UNL A   1      43.843  32.375  32.505  1.00  0.00     0.049 A 
ATOM     62  H   UNL A   1      42.826  30.930  31.350  1.00  0.00     0.167 HD
ATOM     63  C   UNL A   1      41.614  33.375  32.096  1.00  0.00     0.074 A 
ATOM     64  C   UNL A   1      40.628  34.427  32.238  1.00  0.00     0.031 C 
ATOM     65  C   UNL A   1      42.858  33.420  32.636  1.00  0.00     0.031 A 
BRANCH  52  66
ATOM     66  C   UNL A   1      46.256  28.380  31.495  1.00  0.00    -0.014 A 
ATOM     67  C   UNL A   1      46.492  27.614  32.652  1.00  0.00     0.010 A 
ATOM     68  C   UNL A   1      47.246  28.433  30.497  1.00  0.00     0.010 A 
ATOM     69  C   UNL A   1      47.709  26.948  32.823  1.00  0.00     0.020 A 
ATOM     70  C   UNL A   1      48.451  27.741  30.649  1.00  0.00     0.020 A 
ATOM     71  C   UNL A   1      48.681  27.016  31.820  1.00  0.00     0.054 A 
BRANCH  71  72
ATOM     72  S   UNL A   1      50.239  26.121  32.059  1.00  0.00     0.124 S 
ATOM     73  O   UNL A   1      50.223  25.869  33.498  1.00  0.00    -0.237 OA
ATOM     74  O   UNL A   1      50.063  24.943  31.213  1.00  0.00    -0.237 OA
ATOM     75  O   UNL A   1      51.256  27.066  31.605  1.00  0.00    -0.744 OA
ENDBRANCH  71  72
ENDBRANCH  52  66
BRANCH  53  76
ATOM     76  C   UNL A   1      37.428  32.818  30.008  1.00  0.00    -0.014 A 
ATOM     77  C   UNL A   1      36.343  32.513  30.849  1.00  0.00     0.010 A 
ATOM     78  C   UNL A   1      37.243  33.751  28.971  1.00  0.00     0.010 A 
ATOM     79  C   UNL A   1      35.095  33.110  30.644  1.00  0.00     0.020 A 
ATOM     80  C   UNL A   1      36.006  34.375  28.783  1.00  0.00     0.020 A 
ATOM     81  C   UNL A   1      34.936  34.042  29.614  1.00  0.00     0.054 A 
BRANCH  81  82
ATOM     82  S   UNL A   1      33.320  34.839  29.399  1.00  0.00     0.124 S 
ATOM     83  O   UNL A   1      32.620  33.883  28.547  1.00  0.00    -0.237 OA
ATOM     84  O   UNL A   1      32.833  34.938  30.773  1.00  0.00    -0.237 OA
ATOM     85  O   UNL A   1      33.648  36.115  28.769  1.00  0.00    -0.744 OA
ENDBRANCH  81  82
ENDBRANCH  53  76
BRANCH  65  86
ATOM     86  C   UNL A   1      43.257  34.668  33.384  1.00  0.00    -0.014 A 
ATOM     87  C   UNL A   1      43.267  34.717  34.789  1.00  0.00     0.010 A 
ATOM     88  C   UNL A   1      43.693  35.793  32.658  1.00  0.00     0.010 A 
ATOM     89  C   UNL A   1      43.670  35.880  35.452  1.00  0.00     0.020 A 
ATOM     90  C   UNL A   1      44.127  36.946  33.318  1.00  0.00     0.020 A 
ATOM     91  C   UNL A   1      44.100  36.987  34.713  1.00  0.00     0.054 A 
BRANCH  91  92
ATOM     92  S   UNL A   1      44.657  38.469  35.598  1.00  0.00     0.124 S 
ATOM     93  O   UNL A   1      44.230  39.539  34.701  1.00  0.00    -0.237 OA
ATOM     94  O   UNL A   1      43.926  38.378  36.861  1.00  0.00    -0.237 OA
ATOM     95  O   UNL A   1      46.102  38.286  35.708  1.00  0.00    -0.744 OA
ENDBRANCH  91  92
ENDBRANCH  65  86
ENDBRANCH  39  40
ENDBRANCH  32  34
ENDBRANCH  31  32
ENDBRANCH  30  31
ENDBRANCH  29  30
ENDBRANCH  28  29
ENDBRANCH  27  28
ENDBRANCH   1  27
TORSDOF 24
ENDMDL
MODEL 3
REMARK VINA RESULT:      -8.9      5.035      7.328
REMARK SMILES COc1cc(OC)cc(-c2ccc([C@@H](C)C(=O)OCCOCCOCCOC(=O)c3ccc(-c4c5nc(c(-c6ccc(S(=O)(=O)[O-])cc6)c6ccc([nH]6)c(-c6ccc(S(=O)(=O)[O-])cc6)c6nc(c(-c7ccc(S(=O)(=O)[O-])cc7)c7ccc4[nH]7)C=C6)C=C5)cc3)cc2F)c1
REMARK SMILES IDX 22 1 21 2 20 3 19 4 18 5 16 6 17 7 14 8 15 9 13 10 10 11
REMARK SMILES IDX 11 12 91 13 12 14 90 15 92 16 9 17 3 18 4 19 93 20 5 21 8 22
REMARK SMILES IDX 2 23 1 24 6 25 7 26 23 27 24 28 25 29 26 30 27 31 28 32
REMARK SMILES IDX 29 33 30 34 31 35 89 36 32 37 88 38 33 39 34 40 35 41 82 42
REMARK SMILES IDX 36 43 87 44 81 45 83 46 37 47 86 48 80 49 79 50 38 52 68 53
REMARK SMILES IDX 49 54 67 55 50 56 53 57 66 58 84 59 51 60 52 61 65 63 85 64
REMARK SMILES IDX 54 65 39 66 40 67 48 68 41 69 47 70 42 71 43 72 44 73 45 74
REMARK SMILES IDX 46 75 69 76 70 77 78 78 71 79 77 80 72 81 73 82 74 83 75 84
REMARK SMILES IDX 76 85 55 86 56 87 64 88 57 89 63 90 58 91 59 92 60 93 61 94
REMARK SMILES IDX 62 95
REMARK H PARENT 83 51 53 62
REMARK Flexibility Score: inf
ROOT
ATOM      1  C   UNL A   1      33.353  24.701  21.994  1.00  0.00     0.188 C 
ENDROOT
BRANCH   1   2
ATOM      2  O   UNL A   1      33.707  26.078  21.947  1.00  0.00    -0.376 OA
BRANCH   2   3
ATOM      3  C   UNL A   1      32.983  27.008  22.744  1.00  0.00     0.202 C 
BRANCH   3   4
ATOM      4  C   UNL A   1      31.500  27.264  22.423  1.00  0.00     0.261 C 
BRANCH   4   5
ATOM      5  O   UNL A   1      30.562  26.903  23.464  1.00  0.00    -0.463 OA
BRANCH   5   6
ATOM      6  C   UNL A   1      30.804  27.410  24.699  1.00  0.00     0.313 C 
ATOM      7  O   UNL A   1      30.995  28.607  24.907  1.00  0.00    -0.252 OA
BRANCH   6   8
ATOM      8  C   UNL A   1      30.808  26.406  25.860  1.00  0.00     0.126 C 
ATOM      9  C   UNL A   1      31.520  27.045  27.051  1.00  0.00     0.025 C 
BRANCH   8  10
ATOM     10  C   UNL A   1      31.291  24.967  25.667  1.00  0.00    -0.031 A 
ATOM     11  C   UNL A   1      32.270  22.279  25.411  1.00  0.00     0.018 A 
ATOM     12  C   UNL A   1      31.237  22.774  24.591  1.00  0.00     0.012 A 
ATOM     13  C   UNL A   1      32.792  23.157  26.364  1.00  0.00     0.131 A 
ATOM     14  C   UNL A   1      30.763  24.096  24.707  1.00  0.00     0.005 A 
ATOM     15  C   UNL A   1      32.327  24.474  26.487  1.00  0.00     0.044 A 
ATOM     16  F   UNL A   1      33.787  22.764  27.174  1.00  0.00    -0.206 F 
BRANCH  11  17
ATOM     17  C   UNL A   1      32.853  20.940  25.179  1.00  0.00    -0.008 A 
ATOM     18  C   UNL A   1      32.733  18.502  25.098  1.00  0.00     0.123 A 
ATOM     19  C   UNL A   1      34.106  18.448  24.841  1.00  0.00     0.092 A 
ATOM     20  C   UNL A   1      32.108  19.745  25.272  1.00  0.00     0.055 A 
ATOM     21  C   UNL A   1      34.863  19.611  24.749  1.00  0.00     0.123 A 
ATOM     22  C   UNL A   1      34.231  20.845  24.904  1.00  0.00     0.055 A 
BRANCH  18  23
ATOM     23  O   UNL A   1      32.147  17.271  25.205  1.00  0.00    -0.497 OA
ATOM     24  C   UNL A   1      32.920  16.223  25.775  1.00  0.00     0.278 C 
ENDBRANCH  18  23
BRANCH  21  25
ATOM     25  O   UNL A   1      36.197  19.425  24.508  1.00  0.00    -0.497 OA
ATOM     26  C   UNL A   1      37.084  20.312  25.180  1.00  0.00     0.278 C 
ENDBRANCH  21  25
ENDBRANCH  11  17
ENDBRANCH   8  10
ENDBRANCH   6   8
ENDBRANCH   5   6
ENDBRANCH   4   5
ENDBRANCH   3   4
ENDBRANCH   2   3
ENDBRANCH   1   2
BRANCH   1  27
ATOM     27  C   UNL A   1      34.282  23.722  22.725  1.00  0.00     0.188 C 
BRANCH  27  28
ATOM     28  O   UNL A   1      34.871  24.234  23.900  1.00  0.00    -0.376 OA
BRANCH  28  29
ATOM     29  C   UNL A   1      36.146  23.738  24.255  1.00  0.00     0.202 C 
BRANCH  29  30
ATOM     30  C   UNL A   1      36.464  23.656  25.755  1.00  0.00     0.261 C 
BRANCH  30  31
ATOM     31  O   UNL A   1      37.570  24.449  26.221  1.00  0.00    -0.460 OA
BRANCH  31  32
ATOM     32  C   UNL A   1      38.737  23.810  26.470  1.00  0.00     0.338 C 
ATOM     33  O   UNL A   1      39.022  22.664  26.156  1.00  0.00    -0.246 OA
BRANCH  32  34
ATOM     34  C   UNL A   1      39.698  24.815  26.985  1.00  0.00     0.060 A 
ATOM     35  C   UNL A   1      39.965  24.872  28.362  1.00  0.00     0.016 A 
ATOM     36  C   UNL A   1      40.344  25.689  26.108  1.00  0.00     0.016 A 
ATOM     37  C   UNL A   1      40.850  25.830  28.868  1.00  0.00     0.010 A 
ATOM     38  C   UNL A   1      41.212  26.660  26.619  1.00  0.00     0.010 A 
ATOM     39  C   UNL A   1      41.442  26.761  28.003  1.00  0.00    -0.014 A 
BRANCH  39  40
ATOM     40  C   UNL A   1      42.122  27.966  28.545  1.00  0.00     0.031 A 
ATOM     41  C   UNL A   1      41.263  29.085  29.077  1.00  0.00     0.074 A 
ATOM     42  C   UNL A   1      43.463  28.084  28.566  1.00  0.00     0.049 A 
ATOM     43  N   UNL A   1      41.611  30.268  29.510  1.00  0.00    -0.248 NA
ATOM     44  C   UNL A   1      39.812  28.831  29.117  1.00  0.00     0.031 C 
ATOM     45  C   UNL A   1      44.413  27.060  28.133  1.00  0.00     0.029 A 
ATOM     46  N   UNL A   1      44.257  29.134  28.960  1.00  0.00    -0.354 N 
ATOM     47  C   UNL A   1      40.424  30.905  29.858  1.00  0.00     0.074 A 
ATOM     48  C   UNL A   1      39.347  29.989  29.558  1.00  0.00     0.031 C 
ATOM     49  C   UNL A   1      45.663  27.539  28.276  1.00  0.00     0.029 A 
ATOM     50  C   UNL A   1      45.601  28.914  28.768  1.00  0.00     0.049 A 
ATOM     51  H   UNL A   1      43.897  29.966  29.344  1.00  0.00     0.167 HD
ATOM     52  C   UNL A   1      40.245  32.140  30.383  1.00  0.00     0.031 A 
ATOM     53  C   UNL A   1      46.656  29.737  28.944  1.00  0.00     0.031 A 
ATOM     54  C   UNL A   1      41.317  33.058  30.669  1.00  0.00     0.049 A 
ATOM     55  C   UNL A   1      46.427  31.142  29.449  1.00  0.00     0.074 A 
ATOM     56  C   UNL A   1      41.237  34.329  31.211  1.00  0.00     0.029 A 
ATOM     57  N   UNL A   1      42.659  32.807  30.430  1.00  0.00    -0.354 N 
ATOM     58  N   UNL A   1      45.301  31.726  29.786  1.00  0.00    -0.248 NA
ATOM     59  C   UNL A   1      47.614  31.995  29.606  1.00  0.00     0.031 C 
ATOM     60  C   UNL A   1      42.525  34.872  31.238  1.00  0.00     0.029 A 
ATOM     61  C   UNL A   1      43.416  33.911  30.789  1.00  0.00     0.049 A 
ATOM     62  H   UNL A   1      43.021  31.970  30.060  1.00  0.00     0.167 HD
ATOM     63  C   UNL A   1      45.651  32.999  30.232  1.00  0.00     0.074 A 
ATOM     64  C   UNL A   1      47.092  33.095  30.130  1.00  0.00     0.031 C 
ATOM     65  C   UNL A   1      44.852  33.995  30.691  1.00  0.00     0.031 A 
BRANCH  52  66
ATOM     66  C   UNL A   1      38.831  32.586  30.648  1.00  0.00    -0.014 A 
ATOM     67  C   UNL A   1      38.053  33.191  29.643  1.00  0.00     0.010 A 
ATOM     68  C   UNL A   1      38.258  32.366  31.914  1.00  0.00     0.010 A 
ATOM     69  C   UNL A   1      36.744  33.602  29.912  1.00  0.00     0.020 A 
ATOM     70  C   UNL A   1      36.940  32.747  32.178  1.00  0.00     0.020 A 
ATOM     71  C   UNL A   1      36.197  33.377  31.179  1.00  0.00     0.054 A 
BRANCH  71  72
ATOM     72  S   UNL A   1      34.488  33.900  31.491  1.00  0.00     0.124 S 
ATOM     73  O   UNL A   1      33.962  32.767  32.250  1.00  0.00    -0.237 OA
ATOM     74  O   UNL A   1      34.666  35.135  32.250  1.00  0.00    -0.237 OA
ATOM     75  O   UNL A   1      33.926  34.067  30.154  1.00  0.00    -0.744 OA
ENDBRANCH  71  72
ENDBRANCH  52  66
BRANCH  53  76
ATOM     76  C   UNL A   1      48.035  29.269  28.622  1.00  0.00    -0.014 A 
ATOM     77  C   UNL A   1      48.606  29.525  27.362  1.00  0.00     0.010 A 
ATOM     78  C   UNL A   1      48.781  28.546  29.572  1.00  0.00     0.010 A 
ATOM     79  C   UNL A   1      49.884  29.050  27.051  1.00  0.00     0.020 A 
ATOM     80  C   UNL A   1      50.073  28.098  29.276  1.00  0.00     0.020 A 
ATOM     81  C   UNL A   1      50.611  28.343  28.012  1.00  0.00     0.054 A 
BRANCH  81  82
ATOM     82  S   UNL A   1      52.286  27.779  27.601  1.00  0.00     0.124 S 
ATOM     83  O   UNL A   1      53.068  29.001  27.763  1.00  0.00    -0.237 OA
ATOM     84  O   UNL A   1      52.522  26.740  28.600  1.00  0.00    -0.237 OA
ATOM     85  O   UNL A   1      52.157  27.296  26.228  1.00  0.00    -0.744 OA
ENDBRANCH  81  82
ENDBRANCH  53  76
BRANCH  65  86
ATOM     86  C   UNL A   1      45.513  35.261  31.178  1.00  0.00    -0.014 A 
ATOM     87  C   UNL A   1      45.937  35.409  32.510  1.00  0.00     0.010 A 
ATOM     88  C   UNL A   1      45.768  36.298  30.261  1.00  0.00     0.010 A 
ATOM     89  C   UNL A   1      46.573  36.584  32.922  1.00  0.00     0.020 A 
ATOM     90  C   UNL A   1      46.433  37.460  30.661  1.00  0.00     0.020 A 
ATOM     91  C   UNL A   1      46.819  37.602  31.995  1.00  0.00     0.054 A 
BRANCH  91  92
ATOM     92  S   UNL A   1      47.681  39.099  32.547  1.00  0.00     0.124 S 
ATOM     93  O   UNL A   1      46.909  40.154  31.897  1.00  0.00    -0.237 OA
ATOM     94  O   UNL A   1      47.547  39.027  34.001  1.00  0.00    -0.237 OA
ATOM     95  O   UNL A   1      49.042  38.923  32.044  1.00  0.00    -0.744 OA
ENDBRANCH  91  92
ENDBRANCH  65  86
ENDBRANCH  39  40
ENDBRANCH  32  34
ENDBRANCH  31  32
ENDBRANCH  30  31
ENDBRANCH  29  30
ENDBRANCH  28  29
ENDBRANCH  27  28
ENDBRANCH   1  27
TORSDOF 24
ENDMDL
