MODEL 1
REMARK VINA RESULT:      -8.7      0.000      0.000
REMARK SMILES COc1ccc(S(=O)(=O)N2C[C@H](C)C[C@H](C)C2)cc1C(=O)OCCOCCOCCOC(=O)c1ccc(-c2c3nc(c(-c4ccc(S(=O)(=O)[O-])cc4)c4ccc([nH]4)c(-c4ccc(S(=O)(=O)[O-])cc4)c4nc(c(-c5ccc(S(=O)(=O)[O-])cc5)c5ccc2[nH]5)C=C4)C=C3)cc1
REMARK SMILES IDX 27 1 26 2 25 3 24 4 23 5 22 6 20 7 21 8 19 9 3 10 4 11 5 12
REMARK SMILES IDX 18 13 6 14 2 15 1 16 7 17 8 18 9 19 10 20 11 21 17 22 12 23
REMARK SMILES IDX 15 24 13 25 14 26 16 27 28 28 29 29 30 30 31 31 32 32 33 33
REMARK SMILES IDX 34 34 35 35 93 36 36 37 92 38 37 39 38 40 39 41 86 42 40 43
REMARK SMILES IDX 91 44 85 45 87 46 41 47 90 48 84 49 83 50 42 52 72 53 53 54
REMARK SMILES IDX 71 55 54 56 57 57 70 58 88 59 55 60 56 61 69 63 89 64 58 65
REMARK SMILES IDX 43 66 44 67 52 68 45 69 51 70 46 71 47 72 48 73 49 74 50 75
REMARK SMILES IDX 73 76 74 77 82 78 75 79 81 80 76 81 77 82 78 83 79 84 80 85
REMARK SMILES IDX 59 86 60 87 68 88 61 89 67 90 62 91 63 92 64 93 65 94 66 95
REMARK H PARENT 87 51 57 62
REMARK Flexibility Score: inf
ROOT
ATOM      1  C   UNL A   1      46.315  42.707  25.966  1.00  0.00     0.188 C 
ENDROOT
BRANCH   1   2
ATOM      2  C   UNL A   1      45.404  43.907  26.305  1.00  0.00     0.188 C 
BRANCH   2   3
ATOM      3  O   UNL A   1      44.474  44.285  25.300  1.00  0.00    -0.376 OA
BRANCH   3   4
ATOM      4  C   UNL A   1      44.809  43.841  23.990  1.00  0.00     0.202 C 
BRANCH   4   5
ATOM      5  C   UNL A   1      43.578  43.429  23.185  1.00  0.00     0.261 C 
BRANCH   5   6
ATOM      6  O   UNL A   1      43.830  42.386  22.225  1.00  0.00    -0.460 OA
BRANCH   6   7
ATOM      7  C   UNL A   1      43.775  42.737  20.923  1.00  0.00     0.342 C 
ATOM      8  O   UNL A   1      42.785  42.663  20.209  1.00  0.00    -0.246 OA
BRANCH   7   9
ATOM      9  C   UNL A   1      45.055  43.341  20.468  1.00  0.00     0.103 A 
ATOM     10  C   UNL A   1      46.296  42.710  20.437  1.00  0.00     0.133 A 
ATOM     11  C   UNL A   1      47.424  43.461  20.067  1.00  0.00     0.049 A 
ATOM     12  C   UNL A   1      47.315  44.810  19.680  1.00  0.00     0.025 A 
ATOM     13  C   UNL A   1      44.969  44.676  20.040  1.00  0.00     0.041 A 
ATOM     14  C   UNL A   1      46.067  45.434  19.649  1.00  0.00     0.083 A 
BRANCH  10  15
ATOM     15  O   UNL A   1      46.543  41.403  20.753  1.00  0.00    -0.496 OA
ATOM     16  C   UNL A   1      47.210  41.218  22.001  1.00  0.00     0.278 C 
ENDBRANCH  10  15
BRANCH  14  17
ATOM     17  S   UNL A   1      45.991  47.154  19.092  1.00  0.00     0.243 S 
ATOM     18  O   UNL A   1      44.987  47.760  19.945  1.00  0.00    -0.207 OA
ATOM     19  O   UNL A   1      47.362  47.618  19.122  1.00  0.00    -0.207 OA
BRANCH  17  20
ATOM     20  N   UNL A   1      45.418  47.302  17.510  1.00  0.00    -0.197 NA
ATOM     21  C   UNL A   1      44.329  46.479  16.936  1.00  0.00     0.105 C 
ATOM     22  C   UNL A   1      45.638  48.535  16.747  1.00  0.00     0.105 C 
ATOM     23  C   UNL A   1      43.002  47.242  16.986  1.00  0.00     0.001 C 
ATOM     24  C   UNL A   1      44.438  49.415  17.039  1.00  0.00     0.001 C 
ATOM     25  C   UNL A   1      41.855  46.549  16.262  1.00  0.00     0.009 C 
ATOM     26  C   UNL A   1      43.138  48.732  16.558  1.00  0.00     0.009 C 
ATOM     27  C   UNL A   1      44.643  50.818  16.542  1.00  0.00     0.009 C 
ENDBRANCH  17  20
ENDBRANCH  14  17
ENDBRANCH   7   9
ENDBRANCH   6   7
ENDBRANCH   5   6
ENDBRANCH   4   5
ENDBRANCH   3   4
ENDBRANCH   2   3
ENDBRANCH   1   2
BRANCH   1  28
ATOM     28  O   UNL A   1      46.051  41.398  26.448  1.00  0.00    -0.376 OA
BRANCH  28  29
ATOM     29  C   UNL A   1      44.715  40.979  26.641  1.00  0.00     0.202 C 
BRANCH  29  30
ATOM     30  C   UNL A   1      44.429  39.485  26.844  1.00  0.00     0.261 C 
BRANCH  30  31
ATOM     31  O   UNL A   1      43.489  39.171  27.883  1.00  0.00    -0.460 OA
BRANCH  31  32
ATOM     32  C   UNL A   1      42.428  38.417  27.497  1.00  0.00     0.338 C 
ATOM     33  O   UNL A   1      41.534  38.751  26.738  1.00  0.00    -0.246 OA
BRANCH  32  34
ATOM     34  C   UNL A   1      42.568  37.037  28.028  1.00  0.00     0.060 A 
ATOM     35  C   UNL A   1      43.675  36.760  28.835  1.00  0.00     0.016 A 
ATOM     36  C   UNL A   1      41.638  36.025  27.761  1.00  0.00     0.016 A 
ATOM     37  C   UNL A   1      43.827  35.488  29.398  1.00  0.00     0.010 A 
ATOM     38  C   UNL A   1      41.812  34.741  28.306  1.00  0.00     0.010 A 
ATOM     39  C   UNL A   1      42.897  34.459  29.147  1.00  0.00    -0.014 A 
BRANCH  39  40
ATOM     40  C   UNL A   1      43.140  33.091  29.708  1.00  0.00     0.031 A 
ATOM     41  C   UNL A   1      42.516  32.742  31.035  1.00  0.00     0.074 A 
ATOM     42  C   UNL A   1      43.843  32.140  29.051  1.00  0.00     0.049 A 
ATOM     43  N   UNL A   1      42.510  31.599  31.670  1.00  0.00    -0.248 NA
ATOM     44  C   UNL A   1      41.812  33.827  31.739  1.00  0.00     0.031 C 
ATOM     45  C   UNL A   1      44.517  32.307  27.768  1.00  0.00     0.029 A 
ATOM     46  N   UNL A   1      44.084  30.818  29.363  1.00  0.00    -0.354 N 
ATOM     47  C   UNL A   1      41.791  31.823  32.836  1.00  0.00     0.074 A 
ATOM     48  C   UNL A   1      41.356  33.202  32.812  1.00  0.00     0.031 C 
ATOM     49  C   UNL A   1      44.996  31.124  27.349  1.00  0.00     0.029 A 
ATOM     50  C   UNL A   1      44.789  30.131  28.397  1.00  0.00     0.049 A 
ATOM     51  H   UNL A   1      43.779  30.402  30.202  1.00  0.00     0.167 HD
ATOM     52  C   UNL A   1      41.551  30.982  33.869  1.00  0.00     0.031 A 
ATOM     53  C   UNL A   1      45.269  28.869  28.372  1.00  0.00     0.031 A 
ATOM     54  C   UNL A   1      42.095  29.659  33.984  1.00  0.00     0.049 A 
ATOM     55  C   UNL A   1      45.101  27.999  29.592  1.00  0.00     0.074 A 
ATOM     56  C   UNL A   1      41.990  28.779  35.045  1.00  0.00     0.029 A 
ATOM     57  N   UNL A   1      42.886  29.044  33.026  1.00  0.00    -0.354 N 
ATOM     58  N   UNL A   1      44.416  28.235  30.683  1.00  0.00    -0.248 NA
ATOM     59  C   UNL A   1      45.813  26.710  29.594  1.00  0.00     0.031 C 
ATOM     60  C   UNL A   1      42.772  27.656  34.757  1.00  0.00     0.029 A 
ATOM     61  C   UNL A   1      43.305  27.809  33.487  1.00  0.00     0.049 A 
ATOM     62  H   UNL A   1      43.114  29.429  32.150  1.00  0.00     0.167 HD
ATOM     63  C   UNL A   1      44.612  27.126  31.500  1.00  0.00     0.074 A 
ATOM     64  C   UNL A   1      45.454  26.205  30.768  1.00  0.00     0.031 C 
ATOM     65  C   UNL A   1      44.144  26.899  32.751  1.00  0.00     0.031 A 
BRANCH  52  66
ATOM     66  C   UNL A   1      40.749  31.538  35.009  1.00  0.00    -0.014 A 
ATOM     67  C   UNL A   1      41.380  32.125  36.121  1.00  0.00     0.010 A 
ATOM     68  C   UNL A   1      39.346  31.436  34.982  1.00  0.00     0.010 A 
ATOM     69  C   UNL A   1      40.620  32.561  37.209  1.00  0.00     0.020 A 
ATOM     70  C   UNL A   1      38.583  31.890  36.058  1.00  0.00     0.020 A 
ATOM     71  C   UNL A   1      39.227  32.431  37.173  1.00  0.00     0.054 A 
BRANCH  71  72
ATOM     72  S   UNL A   1      38.265  32.989  38.605  1.00  0.00     0.124 S 
ATOM     73  O   UNL A   1      38.992  32.372  39.711  1.00  0.00    -0.237 OA
ATOM     74  O   UNL A   1      38.372  34.443  38.516  1.00  0.00    -0.237 OA
ATOM     75  O   UNL A   1      36.931  32.448  38.357  1.00  0.00    -0.744 OA
ENDBRANCH  71  72
ENDBRANCH  52  66
BRANCH  53  76
ATOM     76  C   UNL A   1      46.051  28.365  27.201  1.00  0.00    -0.014 A 
ATOM     77  C   UNL A   1      47.450  28.509  27.151  1.00  0.00     0.010 A 
ATOM     78  C   UNL A   1      45.392  27.788  26.099  1.00  0.00     0.010 A 
ATOM     79  C   UNL A   1      48.169  28.103  26.019  1.00  0.00     0.020 A 
ATOM     80  C   UNL A   1      46.109  27.348  24.982  1.00  0.00     0.020 A 
ATOM     81  C   UNL A   1      47.492  27.523  24.942  1.00  0.00     0.054 A 
BRANCH  81  82
ATOM     82  S   UNL A   1      48.441  26.966  23.499  1.00  0.00     0.124 S 
ATOM     83  O   UNL A   1      47.826  27.730  22.418  1.00  0.00    -0.237 OA
ATOM     84  O   UNL A   1      49.806  27.350  23.852  1.00  0.00    -0.237 OA
ATOM     85  O   UNL A   1      48.196  25.526  23.468  1.00  0.00    -0.744 OA
ENDBRANCH  81  82
ENDBRANCH  53  76
BRANCH  65  86
ATOM     86  C   UNL A   1      44.502  25.596  33.414  1.00  0.00    -0.014 A 
ATOM     87  C   UNL A   1      43.704  24.449  33.251  1.00  0.00     0.010 A 
ATOM     88  C   UNL A   1      45.709  25.496  34.131  1.00  0.00     0.010 A 
ATOM     89  C   UNL A   1      44.103  23.228  33.802  1.00  0.00     0.020 A 
ATOM     90  C   UNL A   1      46.123  24.270  34.660  1.00  0.00     0.020 A 
ATOM     91  C   UNL A   1      45.314  23.145  34.498  1.00  0.00     0.054 A 
BRANCH  91  92
ATOM     92  S   UNL A   1      45.849  21.532  35.131  1.00  0.00     0.124 S 
ATOM     93  O   UNL A   1      44.749  20.664  34.721  1.00  0.00    -0.237 OA
ATOM     94  O   UNL A   1      47.114  21.316  34.431  1.00  0.00    -0.237 OA
ATOM     95  O   UNL A   1      45.971  21.747  36.571  1.00  0.00    -0.744 OA
ENDBRANCH  91  92
ENDBRANCH  65  86
ENDBRANCH  39  40
ENDBRANCH  32  34
ENDBRANCH  31  32
ENDBRANCH  30  31
ENDBRANCH  29  30
ENDBRANCH  28  29
ENDBRANCH   1  28
TORSDOF 23
ENDMDL
MODEL 2
REMARK VINA RESULT:      -8.6     11.640     17.561
REMARK SMILES COc1ccc(S(=O)(=O)N2C[C@H](C)C[C@H](C)C2)cc1C(=O)OCCOCCOCCOC(=O)c1ccc(-c2c3nc(c(-c4ccc(S(=O)(=O)[O-])cc4)c4ccc([nH]4)c(-c4ccc(S(=O)(=O)[O-])cc4)c4nc(c(-c5ccc(S(=O)(=O)[O-])cc5)c5ccc2[nH]5)C=C4)C=C3)cc1
REMARK SMILES IDX 27 1 26 2 25 3 24 4 23 5 22 6 20 7 21 8 19 9 3 10 4 11 5 12
REMARK SMILES IDX 18 13 6 14 2 15 1 16 7 17 8 18 9 19 10 20 11 21 17 22 12 23
REMARK SMILES IDX 15 24 13 25 14 26 16 27 28 28 29 29 30 30 31 31 32 32 33 33
REMARK SMILES IDX 34 34 35 35 93 36 36 37 92 38 37 39 38 40 39 41 86 42 40 43
REMARK SMILES IDX 91 44 85 45 87 46 41 47 90 48 84 49 83 50 42 52 72 53 53 54
REMARK SMILES IDX 71 55 54 56 57 57 70 58 88 59 55 60 56 61 69 63 89 64 58 65
REMARK SMILES IDX 43 66 44 67 52 68 45 69 51 70 46 71 47 72 48 73 49 74 50 75
REMARK SMILES IDX 73 76 74 77 82 78 75 79 81 80 76 81 77 82 78 83 79 84 80 85
REMARK SMILES IDX 59 86 60 87 68 88 61 89 67 90 62 91 63 92 64 93 65 94 66 95
REMARK H PARENT 87 51 57 62
REMARK Flexibility Score: inf
ROOT
ATOM      1  C   UNL A   1      36.553  30.067  28.953  1.00  0.00     0.188 C 
ENDROOT
BRANCH   1   2
ATOM      2  C   UNL A   1      35.696  30.359  27.702  1.00  0.00     0.188 C 
BRANCH   2   3
ATOM      3  O   UNL A   1      34.373  30.813  27.948  1.00  0.00    -0.376 OA
BRANCH   3   4
ATOM      4  C   UNL A   1      33.440  30.494  26.922  1.00  0.00     0.202 C 
BRANCH   4   5
ATOM      5  C   UNL A   1      33.656  29.090  26.359  1.00  0.00     0.261 C 
BRANCH   5   6
ATOM      6  O   UNL A   1      32.901  28.819  25.163  1.00  0.00    -0.460 OA
BRANCH   6   7
ATOM      7  C   UNL A   1      33.248  27.715  24.467  1.00  0.00     0.342 C 
ATOM      8  O   UNL A   1      33.959  27.696  23.473  1.00  0.00    -0.246 OA
BRANCH   7   9
ATOM      9  C   UNL A   1      32.745  26.479  25.124  1.00  0.00     0.103 A 
ATOM     10  C   UNL A   1      31.428  26.226  25.499  1.00  0.00     0.133 A 
ATOM     11  C   UNL A   1      31.143  25.041  26.198  1.00  0.00     0.049 A 
ATOM     12  C   UNL A   1      32.144  24.091  26.475  1.00  0.00     0.025 A 
ATOM     13  C   UNL A   1      33.717  25.497  25.378  1.00  0.00     0.041 A 
ATOM     14  C   UNL A   1      33.456  24.307  26.048  1.00  0.00     0.083 A 
BRANCH  10  15
ATOM     15  O   UNL A   1      30.354  27.040  25.268  1.00  0.00    -0.496 OA
ATOM     16  C   UNL A   1      29.617  26.716  24.089  1.00  0.00     0.278 C 
ENDBRANCH  10  15
BRANCH  14  17
ATOM     17  S   UNL A   1      34.683  23.022  26.390  1.00  0.00     0.243 S 
ATOM     18  O   UNL A   1      35.953  23.722  26.343  1.00  0.00    -0.207 OA
ATOM     19  O   UNL A   1      34.233  22.390  27.612  1.00  0.00    -0.207 OA
BRANCH  17  20
ATOM     20  N   UNL A   1      34.748  21.844  25.181  1.00  0.00    -0.197 NA
ATOM     21  C   UNL A   1      34.461  20.408  25.398  1.00  0.00     0.105 C 
ATOM     22  C   UNL A   1      34.650  22.218  23.766  1.00  0.00     0.105 C 
ATOM     23  C   UNL A   1      33.024  20.083  24.981  1.00  0.00     0.001 C 
ATOM     24  C   UNL A   1      33.171  22.175  23.435  1.00  0.00     0.001 C 
ATOM     25  C   UNL A   1      32.686  18.598  25.002  1.00  0.00     0.009 C 
ATOM     26  C   UNL A   1      32.615  20.746  23.633  1.00  0.00     0.009 C 
ATOM     27  C   UNL A   1      32.883  22.790  22.094  1.00  0.00     0.009 C 
ENDBRANCH  17  20
ENDBRANCH  14  17
ENDBRANCH   7   9
ENDBRANCH   6   7
ENDBRANCH   5   6
ENDBRANCH   4   5
ENDBRANCH   3   4
ENDBRANCH   2   3
ENDBRANCH   1   2
BRANCH   1  28
ATOM     28  O   UNL A   1      37.122  31.104  29.738  1.00  0.00    -0.376 OA
BRANCH  28  29
ATOM     29  C   UNL A   1      37.225  32.410  29.206  1.00  0.00     0.202 C 
BRANCH  29  30
ATOM     30  C   UNL A   1      36.175  33.457  29.602  1.00  0.00     0.261 C 
BRANCH  30  31
ATOM     31  O   UNL A   1      36.295  33.979  30.933  1.00  0.00    -0.460 OA
BRANCH  31  32
ATOM     32  C   UNL A   1      35.553  33.342  31.876  1.00  0.00     0.338 C 
ATOM     33  O   UNL A   1      34.452  32.842  31.720  1.00  0.00    -0.246 OA
BRANCH  32  34
ATOM     34  C   UNL A   1      36.335  33.208  33.130  1.00  0.00     0.060 A 
ATOM     35  C   UNL A   1      36.774  31.931  33.491  1.00  0.00     0.016 A 
ATOM     36  C   UNL A   1      36.653  34.302  33.945  1.00  0.00     0.016 A 
ATOM     37  C   UNL A   1      37.556  31.759  34.639  1.00  0.00     0.010 A 
ATOM     38  C   UNL A   1      37.414  34.119  35.113  1.00  0.00     0.010 A 
ATOM     39  C   UNL A   1      37.891  32.850  35.467  1.00  0.00    -0.014 A 
BRANCH  39  40
ATOM     40  C   UNL A   1      38.665  32.609  36.727  1.00  0.00     0.031 A 
ATOM     41  C   UNL A   1      40.164  32.484  36.633  1.00  0.00     0.074 A 
ATOM     42  C   UNL A   1      38.085  32.558  37.948  1.00  0.00     0.049 A 
ATOM     43  N   UNL A   1      41.046  32.367  37.592  1.00  0.00    -0.248 NA
ATOM     44  C   UNL A   1      40.743  32.485  35.278  1.00  0.00     0.031 C 
ATOM     45  C   UNL A   1      36.655  32.653  38.221  1.00  0.00     0.029 A 
ATOM     46  N   UNL A   1      38.638  32.443  39.206  1.00  0.00    -0.354 N 
ATOM     47  C   UNL A   1      42.279  32.297  36.959  1.00  0.00     0.074 A 
ATOM     48  C   UNL A   1      42.038  32.408  35.538  1.00  0.00     0.031 C 
ATOM     49  C   UNL A   1      36.448  32.704  39.548  1.00  0.00     0.029 A 
ATOM     50  C   UNL A   1      37.719  32.505  40.233  1.00  0.00     0.049 A 
ATOM     51  H   UNL A   1      39.603  32.326  39.358  1.00  0.00     0.167 HD
ATOM     52  C   UNL A   1      43.507  32.104  37.495  1.00  0.00     0.031 A 
ATOM     53  C   UNL A   1      37.863  32.360  41.569  1.00  0.00     0.031 A 
ATOM     54  C   UNL A   1      43.755  31.843  38.884  1.00  0.00     0.049 A 
ATOM     55  C   UNL A   1      39.221  32.014  42.124  1.00  0.00     0.074 A 
ATOM     56  C   UNL A   1      44.956  31.531  39.496  1.00  0.00     0.029 A 
ATOM     57  N   UNL A   1      42.782  31.816  39.870  1.00  0.00    -0.354 N 
ATOM     58  N   UNL A   1      40.373  31.953  41.503  1.00  0.00    -0.248 NA
ATOM     59  C   UNL A   1      39.288  31.668  43.554  1.00  0.00     0.031 C 
ATOM     60  C   UNL A   1      44.697  31.251  40.841  1.00  0.00     0.029 A 
ATOM     61  C   UNL A   1      43.349  31.459  41.080  1.00  0.00     0.049 A 
ATOM     62  H   UNL A   1      41.829  32.022  39.729  1.00  0.00     0.167 HD
ATOM     63  C   UNL A   1      41.301  31.567  42.465  1.00  0.00     0.074 A 
ATOM     64  C   UNL A   1      40.584  31.435  43.715  1.00  0.00     0.031 C 
ATOM     65  C   UNL A   1      42.627  31.330  42.320  1.00  0.00     0.031 A 
BRANCH  52  66
ATOM     66  C   UNL A   1      44.655  32.054  36.531  1.00  0.00    -0.014 A 
ATOM     67  C   UNL A   1      45.054  30.841  35.941  1.00  0.00     0.010 A 
ATOM     68  C   UNL A   1      45.367  33.232  36.242  1.00  0.00     0.010 A 
ATOM     69  C   UNL A   1      46.177  30.801  35.112  1.00  0.00     0.020 A 
ATOM     70  C   UNL A   1      46.476  33.199  35.396  1.00  0.00     0.020 A 
ATOM     71  C   UNL A   1      46.885  31.980  34.853  1.00  0.00     0.054 A 
BRANCH  71  72
ATOM     72  S   UNL A   1      48.349  31.897  33.786  1.00  0.00     0.124 S 
ATOM     73  O   UNL A   1      47.760  32.045  32.458  1.00  0.00    -0.237 OA
ATOM     74  O   UNL A   1      49.148  33.029  34.250  1.00  0.00    -0.237 OA
ATOM     75  O   UNL A   1      48.913  30.581  34.074  1.00  0.00    -0.744 OA
ENDBRANCH  71  72
ENDBRANCH  52  66
BRANCH  53  76
ATOM     76  C   UNL A   1      36.682  32.433  42.483  1.00  0.00    -0.014 A 
ATOM     77  C   UNL A   1      35.883  31.299  42.724  1.00  0.00     0.010 A 
ATOM     78  C   UNL A   1      36.313  33.656  43.075  1.00  0.00     0.010 A 
ATOM     79  C   UNL A   1      34.736  31.392  43.522  1.00  0.00     0.020 A 
ATOM     80  C   UNL A   1      35.189  33.745  43.902  1.00  0.00     0.020 A 
ATOM     81  C   UNL A   1      34.398  32.615  44.107  1.00  0.00     0.054 A 
BRANCH  81  82
ATOM     82  S   UNL A   1      32.930  32.711  45.170  1.00  0.00     0.124 S 
ATOM     83  O   UNL A   1      32.781  31.326  45.608  1.00  0.00    -0.237 OA
ATOM     84  O   UNL A   1      33.347  33.661  46.199  1.00  0.00    -0.237 OA
ATOM     85  O   UNL A   1      31.889  33.199  44.268  1.00  0.00    -0.744 OA
ENDBRANCH  81  82
ENDBRANCH  53  76
BRANCH  65  86
ATOM     86  C   UNL A   1      43.411  30.927  43.540  1.00  0.00    -0.014 A 
ATOM     87  C   UNL A   1      43.597  29.573  43.874  1.00  0.00     0.010 A 
ATOM     88  C   UNL A   1      44.053  31.916  44.306  1.00  0.00     0.010 A 
ATOM     89  C   UNL A   1      44.403  29.219  44.959  1.00  0.00     0.020 A 
ATOM     90  C   UNL A   1      44.881  31.564  45.375  1.00  0.00     0.020 A 
ATOM     91  C   UNL A   1      45.045  30.217  45.699  1.00  0.00     0.054 A 
BRANCH  91  92
ATOM     92  S   UNL A   1      46.152  29.727  47.051  1.00  0.00     0.124 S 
ATOM     93  O   UNL A   1      46.352  30.991  47.753  1.00  0.00    -0.237 OA
ATOM     94  O   UNL A   1      45.361  28.728  47.768  1.00  0.00    -0.237 OA
ATOM     95  O   UNL A   1      47.329  29.203  46.363  1.00  0.00    -0.744 OA
ENDBRANCH  91  92
ENDBRANCH  65  86
ENDBRANCH  39  40
ENDBRANCH  32  34
ENDBRANCH  31  32
ENDBRANCH  30  31
ENDBRANCH  29  30
ENDBRANCH  28  29
ENDBRANCH   1  28
TORSDOF 23
ENDMDL
MODEL 3
REMARK VINA RESULT:      -8.3      8.071     14.087
REMARK SMILES COc1ccc(S(=O)(=O)N2C[C@H](C)C[C@H](C)C2)cc1C(=O)OCCOCCOCCOC(=O)c1ccc(-c2c3nc(c(-c4ccc(S(=O)(=O)[O-])cc4)c4ccc([nH]4)c(-c4ccc(S(=O)(=O)[O-])cc4)c4nc(c(-c5ccc(S(=O)(=O)[O-])cc5)c5ccc2[nH]5)C=C4)C=C3)cc1
REMARK SMILES IDX 27 1 26 2 25 3 24 4 23 5 22 6 20 7 21 8 19 9 3 10 4 11 5 12
REMARK SMILES IDX 18 13 6 14 2 15 1 16 7 17 8 18 9 19 10 20 11 21 17 22 12 23
REMARK SMILES IDX 15 24 13 25 14 26 16 27 28 28 29 29 30 30 31 31 32 32 33 33
REMARK SMILES IDX 34 34 35 35 93 36 36 37 92 38 37 39 38 40 39 41 86 42 40 43
REMARK SMILES IDX 91 44 85 45 87 46 41 47 90 48 84 49 83 50 42 52 72 53 53 54
REMARK SMILES IDX 71 55 54 56 57 57 70 58 88 59 55 60 56 61 69 63 89 64 58 65
REMARK SMILES IDX 43 66 44 67 52 68 45 69 51 70 46 71 47 72 48 73 49 74 50 75
REMARK SMILES IDX 73 76 74 77 82 78 75 79 81 80 76 81 77 82 78 83 79 84 80 85
REMARK SMILES IDX 59 86 60 87 68 88 61 89 67 90 62 91 63 92 64 93 65 94 66 95
REMARK H PARENT 87 51 57 62
REMARK Flexibility Score: inf
ROOT
ATOM      1  C   UNL A   1      37.651  34.203  34.404  1.00  0.00     0.188 C 
ENDROOT
BRANCH   1   2
ATOM      2  C   UNL A   1      36.752  33.035  34.866  1.00  0.00     0.188 C 
BRANCH   2   3
ATOM      3  O   UNL A   1      37.414  31.960  35.517  1.00  0.00    -0.376 OA
BRANCH   3   4
ATOM      4  C   UNL A   1      38.166  31.119  34.649  1.00  0.00     0.202 C 
BRANCH   4   5
ATOM      5  C   UNL A   1      39.462  30.633  35.295  1.00  0.00     0.261 C 
BRANCH   5   6
ATOM      6  O   UNL A   1      40.327  29.912  34.396  1.00  0.00    -0.460 OA
BRANCH   6   7
ATOM      7  C   UNL A   1      41.570  30.409  34.225  1.00  0.00     0.342 C 
ATOM      8  O   UNL A   1      41.837  31.545  33.860  1.00  0.00    -0.246 OA
BRANCH   7   9
ATOM      9  C   UNL A   1      42.608  29.431  34.647  1.00  0.00     0.103 A 
ATOM     10  C   UNL A   1      43.097  29.258  35.938  1.00  0.00     0.133 A 
ATOM     11  C   UNL A   1      44.150  28.351  36.143  1.00  0.00     0.049 A 
ATOM     12  C   UNL A   1      44.677  27.584  35.087  1.00  0.00     0.025 A 
ATOM     13  C   UNL A   1      43.125  28.626  33.618  1.00  0.00     0.041 A 
ATOM     14  C   UNL A   1      44.152  27.706  33.800  1.00  0.00     0.083 A 
BRANCH  10  15
ATOM     15  O   UNL A   1      42.660  29.907  37.059  1.00  0.00    -0.496 OA
ATOM     16  C   UNL A   1      43.517  30.960  37.498  1.00  0.00     0.278 C 
ENDBRANCH  10  15
BRANCH  14  17
ATOM     17  S   UNL A   1      44.839  26.653  32.499  1.00  0.00     0.243 S 
ATOM     18  O   UNL A   1      45.632  25.672  33.218  1.00  0.00    -0.207 OA
ATOM     19  O   UNL A   1      43.699  26.242  31.707  1.00  0.00    -0.207 OA
BRANCH  17  20
ATOM     20  N   UNL A   1      45.912  27.479  31.490  1.00  0.00    -0.197 NA
ATOM     21  C   UNL A   1      46.259  28.912  31.634  1.00  0.00     0.105 C 
ATOM     22  C   UNL A   1      46.906  26.749  30.697  1.00  0.00     0.105 C 
ATOM     23  C   UNL A   1      47.584  29.066  32.385  1.00  0.00     0.001 C 
ATOM     24  C   UNL A   1      48.138  26.653  31.575  1.00  0.00     0.001 C 
ATOM     25  C   UNL A   1      48.114  30.494  32.432  1.00  0.00     0.009 C 
ATOM     26  C   UNL A   1      48.675  28.063  31.909  1.00  0.00     0.009 C 
ATOM     27  C   UNL A   1      49.154  25.702  31.007  1.00  0.00     0.009 C 
ENDBRANCH  17  20
ENDBRANCH  14  17
ENDBRANCH   7   9
ENDBRANCH   6   7
ENDBRANCH   5   6
ENDBRANCH   4   5
ENDBRANCH   3   4
ENDBRANCH   2   3
ENDBRANCH   1   2
BRANCH   1  28
ATOM     28  O   UNL A   1      37.402  34.920  33.205  1.00  0.00    -0.376 OA
BRANCH  28  29
ATOM     29  C   UNL A   1      36.459  34.424  32.275  1.00  0.00     0.202 C 
BRANCH  29  30
ATOM     30  C   UNL A   1      36.961  33.852  30.943  1.00  0.00     0.261 C 
BRANCH  30  31
ATOM     31  O   UNL A   1      36.217  32.737  30.430  1.00  0.00    -0.460 OA
BRANCH  31  32
ATOM     32  C   UNL A   1      36.503  31.537  30.999  1.00  0.00     0.338 C 
ATOM     33  O   UNL A   1      35.790  30.903  31.759  1.00  0.00    -0.246 OA
BRANCH  32  34
ATOM     34  C   UNL A   1      37.782  31.012  30.458  1.00  0.00     0.060 A 
ATOM     35  C   UNL A   1      38.767  30.629  31.371  1.00  0.00     0.016 A 
ATOM     36  C   UNL A   1      38.025  30.880  29.085  1.00  0.00     0.016 A 
ATOM     37  C   UNL A   1      39.971  30.084  30.912  1.00  0.00     0.010 A 
ATOM     38  C   UNL A   1      39.248  30.359  28.628  1.00  0.00     0.010 A 
ATOM     39  C   UNL A   1      40.231  29.936  29.534  1.00  0.00    -0.014 A 
BRANCH  39  40
ATOM     40  C   UNL A   1      41.563  29.419  29.084  1.00  0.00     0.031 A 
ATOM     41  C   UNL A   1      42.752  30.343  29.164  1.00  0.00     0.074 A 
ATOM     42  C   UNL A   1      41.757  28.147  28.666  1.00  0.00     0.049 A 
ATOM     43  N   UNL A   1      44.012  30.091  28.920  1.00  0.00    -0.248 NA
ATOM     44  C   UNL A   1      42.482  31.734  29.566  1.00  0.00     0.031 C 
ATOM     45  C   UNL A   1      40.723  27.128  28.521  1.00  0.00     0.029 A 
ATOM     46  N   UNL A   1      42.909  27.479  28.311  1.00  0.00    -0.354 N 
ATOM     47  C   UNL A   1      44.683  31.284  29.154  1.00  0.00     0.074 A 
ATOM     48  C   UNL A   1      43.699  32.252  29.582  1.00  0.00     0.031 C 
ATOM     49  C   UNL A   1      41.289  25.947  28.219  1.00  0.00     0.029 A 
ATOM     50  C   UNL A   1      42.718  26.147  28.010  1.00  0.00     0.049 A 
ATOM     51  H   UNL A   1      43.791  27.915  28.276  1.00  0.00     0.167 HD
ATOM     52  C   UNL A   1      45.993  31.576  28.982  1.00  0.00     0.031 A 
ATOM     53  C   UNL A   1      43.572  25.203  27.559  1.00  0.00     0.031 A 
ATOM     54  C   UNL A   1      46.960  30.678  28.419  1.00  0.00     0.049 A 
ATOM     55  C   UNL A   1      44.995  25.592  27.250  1.00  0.00     0.074 A 
ATOM     56  C   UNL A   1      48.285  30.928  28.111  1.00  0.00     0.029 A 
ATOM     57  N   UNL A   1      46.696  29.372  28.036  1.00  0.00    -0.354 N 
ATOM     58  N   UNL A   1      45.606  26.728  27.481  1.00  0.00    -0.248 NA
ATOM     59  C   UNL A   1      45.831  24.586  26.574  1.00  0.00     0.031 C 
ATOM     60  C   UNL A   1      48.805  29.794  27.479  1.00  0.00     0.029 A 
ATOM     61  C   UNL A   1      47.825  28.815  27.461  1.00  0.00     0.049 A 
ATOM     62  H   UNL A   1      45.835  28.911  28.155  1.00  0.00     0.167 HD
ATOM     63  C   UNL A   1      46.896  26.572  26.982  1.00  0.00     0.074 A 
ATOM     64  C   UNL A   1      46.988  25.225  26.463  1.00  0.00     0.031 C 
ATOM     65  C   UNL A   1      47.908  27.472  26.947  1.00  0.00     0.031 A 
BRANCH  52  66
ATOM     66  C   UNL A   1      46.411  32.980  29.307  1.00  0.00    -0.014 A 
ATOM     67  C   UNL A   1      46.373  33.992  28.330  1.00  0.00     0.010 A 
ATOM     68  C   UNL A   1      46.884  33.280  30.597  1.00  0.00     0.010 A 
ATOM     69  C   UNL A   1      46.845  35.273  28.629  1.00  0.00     0.020 A 
ATOM     70  C   UNL A   1      47.335  34.563  30.905  1.00  0.00     0.020 A 
ATOM     71  C   UNL A   1      47.331  35.546  29.913  1.00  0.00     0.054 A 
BRANCH  71  72
ATOM     72  S   UNL A   1      47.953  37.211  30.269  1.00  0.00     0.124 S 
ATOM     73  O   UNL A   1      48.748  37.495  29.077  1.00  0.00    -0.237 OA
ATOM     74  O   UNL A   1      46.725  37.989  30.407  1.00  0.00    -0.237 OA
ATOM     75  O   UNL A   1      48.719  37.038  31.501  1.00  0.00    -0.744 OA
ENDBRANCH  71  72
ENDBRANCH  52  66
BRANCH  53  76
ATOM     76  C   UNL A   1      43.101  23.814  27.265  1.00  0.00    -0.014 A 
ATOM     77  C   UNL A   1      43.001  22.854  28.289  1.00  0.00     0.010 A 
ATOM     78  C   UNL A   1      42.802  23.427  25.945  1.00  0.00     0.010 A 
ATOM     79  C   UNL A   1      42.630  21.535  27.996  1.00  0.00     0.020 A 
ATOM     80  C   UNL A   1      42.396  22.121  25.653  1.00  0.00     0.020 A 
ATOM     81  C   UNL A   1      42.328  21.179  26.679  1.00  0.00     0.054 A 
BRANCH  81  82
ATOM     82  S   UNL A   1      41.811  19.476  26.321  1.00  0.00     0.124 S 
ATOM     83  O   UNL A   1      42.242  18.769  27.523  1.00  0.00    -0.237 OA
ATOM     84  O   UNL A   1      40.367  19.615  26.148  1.00  0.00    -0.237 OA
ATOM     85  O   UNL A   1      42.547  19.147  25.101  1.00  0.00    -0.744 OA
ENDBRANCH  81  82
ENDBRANCH  53  76
BRANCH  65  86
ATOM     86  C   UNL A   1      49.220  27.038  26.352  1.00  0.00    -0.014 A 
ATOM     87  C   UNL A   1      49.486  27.192  24.979  1.00  0.00     0.010 A 
ATOM     88  C   UNL A   1      50.237  26.558  27.197  1.00  0.00     0.010 A 
ATOM     89  C   UNL A   1      50.744  26.865  24.463  1.00  0.00     0.020 A 
ATOM     90  C   UNL A   1      51.503  26.256  26.689  1.00  0.00     0.020 A 
ATOM     91  C   UNL A   1      51.746  26.405  25.323  1.00  0.00     0.054 A 
BRANCH  91  92
ATOM     92  S   UNL A   1      53.393  26.067  24.643  1.00  0.00     0.124 S 
ATOM     93  O   UNL A   1      54.268  26.609  25.679  1.00  0.00    -0.237 OA
ATOM     94  O   UNL A   1      53.396  24.610  24.518  1.00  0.00    -0.237 OA
ATOM     95  O   UNL A   1      53.402  26.794  23.376  1.00  0.00    -0.744 OA
ENDBRANCH  91  92
ENDBRANCH  65  86
ENDBRANCH  39  40
ENDBRANCH  32  34
ENDBRANCH  31  32
ENDBRANCH  30  31
ENDBRANCH  29  30
ENDBRANCH  28  29
ENDBRANCH   1  28
TORSDOF 23
ENDMDL
