MODEL 1
REMARK VINA RESULT:      -9.5      0.000      0.000
REMARK SMILES CS(=O)(=O)N1CCC[C@@H]1C(=O)N1CCC[C@@H]1C(=O)OCCOCCOCCOC(=O)c1ccc(-c2c3nc(c(-c4ccc(S(=O)(=O)[O-])cc4)c4ccc([nH]4)c(-c4ccc(S(=O)(=O)[O-])cc4)c4nc(c(-c5ccc(S(=O)(=O)[O-])cc5)c5ccc2[nH]5)C=C4)C=C3)cc1
REMARK SMILES IDX 23 1 22 2 21 3 20 4 19 5 17 6 18 7 16 8 12 9 13 10 14 11
REMARK SMILES IDX 15 12 10 13 11 14 9 15 5 16 6 17 7 18 8 19 2 20 1 21 3 22
REMARK SMILES IDX 4 23 24 24 25 25 26 26 27 27 28 28 29 29 30 30 31 31 32 32
REMARK SMILES IDX 90 33 33 34 89 35 34 36 35 37 36 38 83 39 37 40 88 41 82 42
REMARK SMILES IDX 84 43 38 44 87 45 81 46 80 47 39 49 69 50 50 51 68 52 51 53
REMARK SMILES IDX 54 54 67 55 85 56 52 57 53 58 66 60 86 61 55 62 40 63 41 64
REMARK SMILES IDX 49 65 42 66 48 67 43 68 44 69 45 70 46 71 47 72 70 73 71 74
REMARK SMILES IDX 79 75 72 76 78 77 73 78 74 79 75 80 76 81 77 82 56 83 57 84
REMARK SMILES IDX 65 85 58 86 64 87 59 88 60 89 61 90 62 91 63 92
REMARK H PARENT 84 48 54 59
REMARK Flexibility Score: inf
ROOT
ATOM      1  C   UNL A   1      38.901  22.873  26.346  1.00  0.00     0.188 C 
ENDROOT
BRANCH   1   2
ATOM      2  O   UNL A   1      37.556  22.666  25.947  1.00  0.00    -0.376 OA
BRANCH   2   3
ATOM      3  C   UNL A   1      37.354  22.237  24.604  1.00  0.00     0.202 C 
BRANCH   3   4
ATOM      4  C   UNL A   1      36.067  22.655  23.877  1.00  0.00     0.261 C 
BRANCH   4   5
ATOM      5  O   UNL A   1      34.822  22.210  24.489  1.00  0.00    -0.462 OA
BRANCH   5   6
ATOM      6  C   UNL A   1      33.662  22.559  23.860  1.00  0.00     0.328 C 
ATOM      7  O   UNL A   1      33.510  22.478  22.643  1.00  0.00    -0.250 OA
BRANCH   6   8
ATOM      8  C   UNL A   1      32.518  23.090  24.781  1.00  0.00     0.195 C 
ATOM      9  N   UNL A   1      32.686  24.395  25.431  1.00  0.00    -0.327 N 
ATOM     10  C   UNL A   1      31.616  24.519  26.398  1.00  0.00     0.120 C 
ATOM     11  C   UNL A   1      31.566  23.160  27.053  1.00  0.00     0.024 C 
ATOM     12  C   UNL A   1      32.059  22.204  25.961  1.00  0.00     0.039 C 
BRANCH   9  13
ATOM     13  C   UNL A   1      33.181  25.479  24.745  1.00  0.00     0.241 C 
ATOM     14  O   UNL A   1      34.338  25.863  24.920  1.00  0.00    -0.273 OA
BRANCH  13  15
ATOM     15  C   UNL A   1      32.245  26.206  23.747  1.00  0.00     0.162 C 
ATOM     16  N   UNL A   1      31.682  27.599  24.012  1.00  0.00    -0.190 NA
ATOM     17  C   UNL A   1      30.224  27.564  23.842  1.00  0.00     0.103 C 
ATOM     18  C   UNL A   1      29.848  26.108  23.987  1.00  0.00     0.019 C 
ATOM     19  C   UNL A   1      31.021  25.377  23.354  1.00  0.00     0.032 C 
BRANCH  16  20
ATOM     20  S   UNL A   1      32.322  28.405  25.316  1.00  0.00     0.211 S 
ATOM     21  C   UNL A   1      31.491  29.966  25.461  1.00  0.00     0.176 C 
ATOM     22  O   UNL A   1      33.682  28.695  24.917  1.00  0.00    -0.212 OA
ATOM     23  O   UNL A   1      31.968  27.661  26.500  1.00  0.00    -0.212 OA
ENDBRANCH  16  20
ENDBRANCH  13  15
ENDBRANCH   9  13
ENDBRANCH   6   8
ENDBRANCH   5   6
ENDBRANCH   4   5
ENDBRANCH   3   4
ENDBRANCH   2   3
ENDBRANCH   1   2
BRANCH   1  24
ATOM     24  C   UNL A   1      39.872  21.704  26.114  1.00  0.00     0.188 C 
BRANCH  24  25
ATOM     25  O   UNL A   1      41.238  22.046  26.141  1.00  0.00    -0.376 OA
BRANCH  25  26
ATOM     26  C   UNL A   1      41.618  23.328  26.612  1.00  0.00     0.202 C 
BRANCH  26  27
ATOM     27  C   UNL A   1      42.177  24.445  25.703  1.00  0.00     0.261 C 
BRANCH  27  28
ATOM     28  O   UNL A   1      41.356  25.590  25.449  1.00  0.00    -0.460 OA
BRANCH  28  29
ATOM     29  C   UNL A   1      41.942  26.814  25.437  1.00  0.00     0.338 C 
ATOM     30  O   UNL A   1      42.457  27.369  24.485  1.00  0.00    -0.246 OA
BRANCH  29  31
ATOM     31  C   UNL A   1      41.553  27.468  26.716  1.00  0.00     0.060 A 
ATOM     32  C   UNL A   1      42.121  28.710  27.059  1.00  0.00     0.016 A 
ATOM     33  C   UNL A   1      40.524  26.931  27.491  1.00  0.00     0.016 A 
ATOM     34  C   UNL A   1      41.661  29.414  28.175  1.00  0.00     0.010 A 
ATOM     35  C   UNL A   1      40.098  27.613  28.630  1.00  0.00     0.010 A 
ATOM     36  C   UNL A   1      40.680  28.842  28.993  1.00  0.00    -0.014 A 
BRANCH  36  37
ATOM     37  C   UNL A   1      40.468  29.324  30.378  1.00  0.00     0.031 A 
ATOM     38  C   UNL A   1      39.392  30.358  30.566  1.00  0.00     0.074 A 
ATOM     39  C   UNL A   1      41.239  28.944  31.413  1.00  0.00     0.049 A 
ATOM     40  N   UNL A   1      39.143  31.125  31.592  1.00  0.00    -0.248 NA
ATOM     41  C   UNL A   1      38.485  30.567  29.422  1.00  0.00     0.031 C 
ATOM     42  C   UNL A   1      42.264  27.904  31.378  1.00  0.00     0.029 A 
ATOM     43  N   UNL A   1      41.289  29.426  32.699  1.00  0.00    -0.354 N 
ATOM     44  C   UNL A   1      38.079  31.930  31.204  1.00  0.00     0.074 A 
ATOM     45  C   UNL A   1      37.733  31.568  29.850  1.00  0.00     0.031 C 
ATOM     46  C   UNL A   1      42.867  27.849  32.582  1.00  0.00     0.029 A 
ATOM     47  C   UNL A   1      42.307  28.885  33.451  1.00  0.00     0.049 A 
ATOM     48  H   UNL A   1      40.656  30.094  33.050  1.00  0.00     0.167 HD
ATOM     49  C   UNL A   1      37.453  32.897  31.912  1.00  0.00     0.031 A 
ATOM     50  C   UNL A   1      42.762  29.225  34.675  1.00  0.00     0.031 A 
ATOM     51  C   UNL A   1      37.817  33.265  33.249  1.00  0.00     0.049 A 
ATOM     52  C   UNL A   1      42.104  30.367  35.418  1.00  0.00     0.074 A 
ATOM     53  C   UNL A   1      37.242  34.226  34.060  1.00  0.00     0.029 A 
ATOM     54  N   UNL A   1      38.856  32.696  33.969  1.00  0.00    -0.354 N 
ATOM     55  N   UNL A   1      41.093  31.118  35.048  1.00  0.00    -0.248 NA
ATOM     56  C   UNL A   1      42.649  30.710  36.740  1.00  0.00     0.031 C 
ATOM     57  C   UNL A   1      37.974  34.283  35.247  1.00  0.00     0.029 A 
ATOM     58  C   UNL A   1      38.953  33.302  35.207  1.00  0.00     0.049 A 
ATOM     59  H   UNL A   1      39.437  31.969  33.647  1.00  0.00     0.167 HD
ATOM     60  C   UNL A   1      40.854  31.989  36.110  1.00  0.00     0.074 A 
ATOM     61  C   UNL A   1      41.827  31.675  37.134  1.00  0.00     0.031 C 
ATOM     62  C   UNL A   1      39.910  32.954  36.229  1.00  0.00     0.031 A 
BRANCH  49  63
ATOM     63  C   UNL A   1      36.347  33.653  31.229  1.00  0.00    -0.014 A 
ATOM     64  C   UNL A   1      36.311  33.794  29.830  1.00  0.00     0.010 A 
ATOM     65  C   UNL A   1      35.308  34.204  32.001  1.00  0.00     0.010 A 
ATOM     66  C   UNL A   1      35.271  34.498  29.218  1.00  0.00     0.020 A 
ATOM     67  C   UNL A   1      34.249  34.880  31.390  1.00  0.00     0.020 A 
ATOM     68  C   UNL A   1      34.245  35.034  30.003  1.00  0.00     0.054 A 
BRANCH  68  69
ATOM     69  S   UNL A   1      32.888  35.908  29.177  1.00  0.00     0.124 S 
ATOM     70  O   UNL A   1      32.379  34.883  28.269  1.00  0.00    -0.237 OA
ATOM     71  O   UNL A   1      32.008  36.253  30.291  1.00  0.00    -0.237 OA
ATOM     72  O   UNL A   1      33.546  37.041  28.531  1.00  0.00    -0.744 OA
ENDBRANCH  68  69
ENDBRANCH  49  63
BRANCH  50  73
ATOM     73  C   UNL A   1      43.926  28.508  35.274  1.00  0.00    -0.014 A 
ATOM     74  C   UNL A   1      45.243  28.871  34.939  1.00  0.00     0.010 A 
ATOM     75  C   UNL A   1      43.724  27.439  36.168  1.00  0.00     0.010 A 
ATOM     76  C   UNL A   1      46.332  28.167  35.466  1.00  0.00     0.020 A 
ATOM     77  C   UNL A   1      44.811  26.754  36.722  1.00  0.00     0.020 A 
ATOM     78  C   UNL A   1      46.109  27.113  36.356  1.00  0.00     0.054 A 
BRANCH  78  79
ATOM     79  S   UNL A   1      47.539  26.237  37.049  1.00  0.00     0.124 S 
ATOM     80  O   UNL A   1      48.611  26.637  36.143  1.00  0.00    -0.237 OA
ATOM     81  O   UNL A   1      47.618  26.784  38.402  1.00  0.00    -0.237 OA
ATOM     82  O   UNL A   1      47.150  24.831  36.974  1.00  0.00    -0.744 OA
ENDBRANCH  78  79
ENDBRANCH  50  73
BRANCH  62  83
ATOM     83  C   UNL A   1      39.807  33.702  37.533  1.00  0.00    -0.014 A 
ATOM     84  C   UNL A   1      39.019  33.231  38.595  1.00  0.00     0.010 A 
ATOM     85  C   UNL A   1      40.632  34.827  37.736  1.00  0.00     0.010 A 
ATOM     86  C   UNL A   1      39.058  33.870  39.838  1.00  0.00     0.020 A 
ATOM     87  C   UNL A   1      40.696  35.450  38.984  1.00  0.00     0.020 A 
ATOM     88  C   UNL A   1      39.907  34.968  40.028  1.00  0.00     0.054 A 
BRANCH  88  89
ATOM     89  S   UNL A   1      40.018  35.713  41.679  1.00  0.00     0.124 S 
ATOM     90  O   UNL A   1      38.613  35.962  41.997  1.00  0.00    -0.237 OA
ATOM     91  O   UNL A   1      40.662  34.660  42.461  1.00  0.00    -0.237 OA
ATOM     92  O   UNL A   1      40.829  36.909  41.468  1.00  0.00    -0.744 OA
ENDBRANCH  88  89
ENDBRANCH  62  83
ENDBRANCH  36  37
ENDBRANCH  29  31
ENDBRANCH  28  29
ENDBRANCH  27  28
ENDBRANCH  26  27
ENDBRANCH  25  26
ENDBRANCH  24  25
ENDBRANCH   1  24
TORSDOF 23
ENDMDL
MODEL 2
REMARK VINA RESULT:      -9.5      1.240      8.148
REMARK SMILES CS(=O)(=O)N1CCC[C@@H]1C(=O)N1CCC[C@@H]1C(=O)OCCOCCOCCOC(=O)c1ccc(-c2c3nc(c(-c4ccc(S(=O)(=O)[O-])cc4)c4ccc([nH]4)c(-c4ccc(S(=O)(=O)[O-])cc4)c4nc(c(-c5ccc(S(=O)(=O)[O-])cc5)c5ccc2[nH]5)C=C4)C=C3)cc1
REMARK SMILES IDX 23 1 22 2 21 3 20 4 19 5 17 6 18 7 16 8 12 9 13 10 14 11
REMARK SMILES IDX 15 12 10 13 11 14 9 15 5 16 6 17 7 18 8 19 2 20 1 21 3 22
REMARK SMILES IDX 4 23 24 24 25 25 26 26 27 27 28 28 29 29 30 30 31 31 32 32
REMARK SMILES IDX 90 33 33 34 89 35 34 36 35 37 36 38 83 39 37 40 88 41 82 42
REMARK SMILES IDX 84 43 38 44 87 45 81 46 80 47 39 49 69 50 50 51 68 52 51 53
REMARK SMILES IDX 54 54 67 55 85 56 52 57 53 58 66 60 86 61 55 62 40 63 41 64
REMARK SMILES IDX 49 65 42 66 48 67 43 68 44 69 45 70 46 71 47 72 70 73 71 74
REMARK SMILES IDX 79 75 72 76 78 77 73 78 74 79 75 80 76 81 77 82 56 83 57 84
REMARK SMILES IDX 65 85 58 86 64 87 59 88 60 89 61 90 62 91 63 92
REMARK H PARENT 84 48 54 59
REMARK Flexibility Score: inf
ROOT
ATOM      1  C   UNL A   1      38.376  21.359  25.737  1.00  0.00     0.188 C 
ENDROOT
BRANCH   1   2
ATOM      2  O   UNL A   1      37.800  21.855  24.541  1.00  0.00    -0.376 OA
BRANCH   2   3
ATOM      3  C   UNL A   1      37.004  23.029  24.662  1.00  0.00     0.202 C 
BRANCH   3   4
ATOM      4  C   UNL A   1      35.875  23.269  23.647  1.00  0.00     0.261 C 
BRANCH   4   5
ATOM      5  O   UNL A   1      34.540  22.878  24.082  1.00  0.00    -0.462 OA
BRANCH   5   6
ATOM      6  C   UNL A   1      33.978  23.608  25.089  1.00  0.00     0.328 C 
ATOM      7  O   UNL A   1      34.638  24.290  25.870  1.00  0.00    -0.250 OA
BRANCH   6   8
ATOM      8  C   UNL A   1      32.424  23.523  25.208  1.00  0.00     0.195 C 
ATOM      9  N   UNL A   1      31.631  24.735  24.967  1.00  0.00    -0.327 N 
ATOM     10  C   UNL A   1      30.277  24.436  25.382  1.00  0.00     0.120 C 
ATOM     11  C   UNL A   1      30.457  23.693  26.684  1.00  0.00     0.024 C 
ATOM     12  C   UNL A   1      31.819  23.007  26.533  1.00  0.00     0.039 C 
BRANCH   9  13
ATOM     13  C   UNL A   1      31.905  25.572  23.911  1.00  0.00     0.241 C 
ATOM     14  O   UNL A   1      31.200  25.567  22.901  1.00  0.00    -0.273 OA
BRANCH  13  15
ATOM     15  C   UNL A   1      33.124  26.521  24.024  1.00  0.00     0.162 C 
ATOM     16  N   UNL A   1      32.997  27.976  24.463  1.00  0.00    -0.190 NA
ATOM     17  C   UNL A   1      33.660  28.833  23.472  1.00  0.00     0.103 C 
ATOM     18  C   UNL A   1      33.729  27.996  22.216  1.00  0.00     0.019 C 
ATOM     19  C   UNL A   1      33.957  26.589  22.743  1.00  0.00     0.032 C 
BRANCH  16  20
ATOM     20  S   UNL A   1      31.512  28.428  25.055  1.00  0.00     0.211 S 
ATOM     21  C   UNL A   1      31.618  30.121  25.576  1.00  0.00     0.176 C 
ATOM     22  O   UNL A   1      31.354  27.634  26.254  1.00  0.00    -0.212 OA
ATOM     23  O   UNL A   1      30.584  28.416  23.949  1.00  0.00    -0.212 OA
ENDBRANCH  16  20
ENDBRANCH  13  15
ENDBRANCH   9  13
ENDBRANCH   6   8
ENDBRANCH   5   6
ENDBRANCH   4   5
ENDBRANCH   3   4
ENDBRANCH   2   3
ENDBRANCH   1   2
BRANCH   1  24
ATOM     24  C   UNL A   1      39.664  22.048  26.215  1.00  0.00     0.188 C 
BRANCH  24  25
ATOM     25  O   UNL A   1      40.843  21.296  26.048  1.00  0.00    -0.376 OA
BRANCH  25  26
ATOM     26  C   UNL A   1      42.095  21.919  26.275  1.00  0.00     0.202 C 
BRANCH  26  27
ATOM     27  C   UNL A   1      42.286  23.157  27.179  1.00  0.00     0.261 C 
BRANCH  27  28
ATOM     28  O   UNL A   1      42.729  24.378  26.577  1.00  0.00    -0.460 OA
BRANCH  28  29
ATOM     29  C   UNL A   1      41.798  25.303  26.233  1.00  0.00     0.338 C 
ATOM     30  O   UNL A   1      41.028  25.250  25.293  1.00  0.00    -0.246 OA
BRANCH  29  31
ATOM     31  C   UNL A   1      41.687  26.226  27.395  1.00  0.00     0.060 A 
ATOM     32  C   UNL A   1      40.589  26.109  28.269  1.00  0.00     0.016 A 
ATOM     33  C   UNL A   1      42.736  27.095  27.699  1.00  0.00     0.016 A 
ATOM     34  C   UNL A   1      40.541  26.860  29.447  1.00  0.00     0.010 A 
ATOM     35  C   UNL A   1      42.664  27.877  28.851  1.00  0.00     0.010 A 
ATOM     36  C   UNL A   1      41.557  27.784  29.716  1.00  0.00    -0.014 A 
BRANCH  36  37
ATOM     37  C   UNL A   1      41.351  28.878  30.694  1.00  0.00     0.031 A 
ATOM     38  C   UNL A   1      42.193  28.826  31.939  1.00  0.00     0.074 A 
ATOM     39  C   UNL A   1      40.409  29.827  30.545  1.00  0.00     0.049 A 
ATOM     40  N   UNL A   1      42.071  29.491  33.056  1.00  0.00    -0.248 NA
ATOM     41  C   UNL A   1      43.317  27.871  31.925  1.00  0.00     0.031 C 
ATOM     42  C   UNL A   1      39.579  30.028  29.360  1.00  0.00     0.029 A 
ATOM     43  N   UNL A   1      39.976  30.786  31.429  1.00  0.00    -0.354 N 
ATOM     44  C   UNL A   1      43.076  29.008  33.886  1.00  0.00     0.074 A 
ATOM     45  C   UNL A   1      43.793  27.992  33.153  1.00  0.00     0.031 C 
ATOM     46  C   UNL A   1      38.711  31.029  29.604  1.00  0.00     0.029 A 
ATOM     47  C   UNL A   1      38.888  31.499  30.978  1.00  0.00     0.049 A 
ATOM     48  H   UNL A   1      40.403  30.948  32.301  1.00  0.00     0.167 HD
ATOM     49  C   UNL A   1      43.367  29.372  35.155  1.00  0.00     0.031 A 
ATOM     50  C   UNL A   1      38.102  32.389  31.621  1.00  0.00     0.031 A 
ATOM     51  C   UNL A   1      42.636  30.368  35.884  1.00  0.00     0.049 A 
ATOM     52  C   UNL A   1      38.391  32.721  33.068  1.00  0.00     0.074 A 
ATOM     53  C   UNL A   1      42.854  30.819  37.173  1.00  0.00     0.029 A 
ATOM     54  N   UNL A   1      41.541  31.061  35.392  1.00  0.00    -0.354 N 
ATOM     55  N   UNL A   1      39.348  32.267  33.844  1.00  0.00    -0.248 NA
ATOM     56  C   UNL A   1      37.494  33.682  33.728  1.00  0.00     0.031 C 
ATOM     57  C   UNL A   1      41.850  31.738  37.483  1.00  0.00     0.029 A 
ATOM     58  C   UNL A   1      41.057  31.919  36.360  1.00  0.00     0.049 A 
ATOM     59  H   UNL A   1      41.164  30.956  34.488  1.00  0.00     0.167 HD
ATOM     60  C   UNL A   1      39.193  32.920  35.065  1.00  0.00     0.074 A 
ATOM     61  C   UNL A   1      38.051  33.798  34.928  1.00  0.00     0.031 C 
ATOM     62  C   UNL A   1      39.936  32.811  36.194  1.00  0.00     0.031 A 
BRANCH  49  63
ATOM     63  C   UNL A   1      44.492  28.651  35.845  1.00  0.00    -0.014 A 
ATOM     64  C   UNL A   1      45.811  29.133  35.795  1.00  0.00     0.010 A 
ATOM     65  C   UNL A   1      44.214  27.487  36.586  1.00  0.00     0.010 A 
ATOM     66  C   UNL A   1      46.839  28.447  36.448  1.00  0.00     0.020 A 
ATOM     67  C   UNL A   1      45.233  26.817  37.267  1.00  0.00     0.020 A 
ATOM     68  C   UNL A   1      46.541  27.296  37.182  1.00  0.00     0.054 A 
BRANCH  68  69
ATOM     69  S   UNL A   1      47.889  26.450  38.052  1.00  0.00     0.124 S 
ATOM     70  O   UNL A   1      47.312  25.128  38.288  1.00  0.00    -0.237 OA
ATOM     71  O   UNL A   1      48.975  26.496  37.077  1.00  0.00    -0.237 OA
ATOM     72  O   UNL A   1      48.094  27.261  39.249  1.00  0.00    -0.744 OA
ENDBRANCH  68  69
ENDBRANCH  49  63
BRANCH  50  73
ATOM     73  C   UNL A   1      36.937  33.009  30.924  1.00  0.00    -0.014 A 
ATOM     74  C   UNL A   1      35.622  32.642  31.257  1.00  0.00     0.010 A 
ATOM     75  C   UNL A   1      37.138  33.956  29.901  1.00  0.00     0.010 A 
ATOM     76  C   UNL A   1      34.533  33.189  30.570  1.00  0.00     0.020 A 
ATOM     77  C   UNL A   1      36.051  34.530  29.234  1.00  0.00     0.020 A 
ATOM     78  C   UNL A   1      34.754  34.133  29.563  1.00  0.00     0.054 A 
BRANCH  78  79
ATOM     79  S   UNL A   1      33.323  34.851  28.709  1.00  0.00     0.124 S 
ATOM     80  O   UNL A   1      32.993  33.812  27.739  1.00  0.00    -0.237 OA
ATOM     81  O   UNL A   1      32.363  35.029  29.796  1.00  0.00    -0.237 OA
ATOM     82  O   UNL A   1      33.849  36.091  28.141  1.00  0.00    -0.744 OA
ENDBRANCH  78  79
ENDBRANCH  50  73
BRANCH  62  83
ATOM     83  C   UNL A   1      39.607  33.707  37.360  1.00  0.00    -0.014 A 
ATOM     84  C   UNL A   1      38.682  33.328  38.346  1.00  0.00     0.010 A 
ATOM     85  C   UNL A   1      40.351  34.891  37.536  1.00  0.00     0.010 A 
ATOM     86  C   UNL A   1      38.506  34.117  39.487  1.00  0.00     0.020 A 
ATOM     87  C   UNL A   1      40.200  35.665  38.688  1.00  0.00     0.020 A 
ATOM     88  C   UNL A   1      39.276  35.274  39.657  1.00  0.00     0.054 A 
BRANCH  88  89
ATOM     89  S   UNL A   1      39.105  36.221  41.195  1.00  0.00     0.124 S 
ATOM     90  O   UNL A   1      40.425  36.061  41.801  1.00  0.00    -0.237 OA
ATOM     91  O   UNL A   1      38.796  37.564  40.710  1.00  0.00    -0.237 OA
ATOM     92  O   UNL A   1      38.013  35.552  41.897  1.00  0.00    -0.744 OA
ENDBRANCH  88  89
ENDBRANCH  62  83
ENDBRANCH  36  37
ENDBRANCH  29  31
ENDBRANCH  28  29
ENDBRANCH  27  28
ENDBRANCH  26  27
ENDBRANCH  25  26
ENDBRANCH  24  25
ENDBRANCH   1  24
TORSDOF 23
ENDMDL
MODEL 3
REMARK VINA RESULT:      -9.5      1.738      2.304
REMARK SMILES CS(=O)(=O)N1CCC[C@@H]1C(=O)N1CCC[C@@H]1C(=O)OCCOCCOCCOC(=O)c1ccc(-c2c3nc(c(-c4ccc(S(=O)(=O)[O-])cc4)c4ccc([nH]4)c(-c4ccc(S(=O)(=O)[O-])cc4)c4nc(c(-c5ccc(S(=O)(=O)[O-])cc5)c5ccc2[nH]5)C=C4)C=C3)cc1
REMARK SMILES IDX 23 1 22 2 21 3 20 4 19 5 17 6 18 7 16 8 12 9 13 10 14 11
REMARK SMILES IDX 15 12 10 13 11 14 9 15 5 16 6 17 7 18 8 19 2 20 1 21 3 22
REMARK SMILES IDX 4 23 24 24 25 25 26 26 27 27 28 28 29 29 30 30 31 31 32 32
REMARK SMILES IDX 90 33 33 34 89 35 34 36 35 37 36 38 83 39 37 40 88 41 82 42
REMARK SMILES IDX 84 43 38 44 87 45 81 46 80 47 39 49 69 50 50 51 68 52 51 53
REMARK SMILES IDX 54 54 67 55 85 56 52 57 53 58 66 60 86 61 55 62 40 63 41 64
REMARK SMILES IDX 49 65 42 66 48 67 43 68 44 69 45 70 46 71 47 72 70 73 71 74
REMARK SMILES IDX 79 75 72 76 78 77 73 78 74 79 75 80 76 81 77 82 56 83 57 84
REMARK SMILES IDX 65 85 58 86 64 87 59 88 60 89 61 90 62 91 63 92
REMARK H PARENT 84 48 54 59
REMARK Flexibility Score: inf
ROOT
ATOM      1  C   UNL A   1      40.127  21.972  26.802  1.00  0.00     0.188 C 
ENDROOT
BRANCH   1   2
ATOM      2  O   UNL A   1      39.008  21.331  26.211  1.00  0.00    -0.376 OA
BRANCH   2   3
ATOM      3  C   UNL A   1      38.248  22.108  25.291  1.00  0.00     0.202 C 
BRANCH   3   4
ATOM      4  C   UNL A   1      37.074  22.947  25.820  1.00  0.00     0.261 C 
BRANCH   4   5
ATOM      5  O   UNL A   1      36.373  23.751  24.826  1.00  0.00    -0.462 OA
BRANCH   5   6
ATOM      6  C   UNL A   1      36.033  23.133  23.658  1.00  0.00     0.328 C 
ATOM      7  O   UNL A   1      36.724  23.193  22.643  1.00  0.00    -0.250 OA
BRANCH   6   8
ATOM      8  C   UNL A   1      34.688  22.341  23.671  1.00  0.00     0.195 C 
ATOM      9  N   UNL A   1      33.428  23.092  23.723  1.00  0.00    -0.327 N 
ATOM     10  C   UNL A   1      32.378  22.128  23.973  1.00  0.00     0.120 C 
ATOM     11  C   UNL A   1      32.963  21.230  25.036  1.00  0.00     0.024 C 
ATOM     12  C   UNL A   1      34.473  21.284  24.778  1.00  0.00     0.039 C 
BRANCH   9  13
ATOM     13  C   UNL A   1      33.226  24.208  22.944  1.00  0.00     0.241 C 
ATOM     14  O   UNL A   1      33.054  24.108  21.729  1.00  0.00    -0.273 OA
BRANCH  13  15
ATOM     15  C   UNL A   1      33.222  25.594  23.635  1.00  0.00     0.162 C 
ATOM     16  N   UNL A   1      31.953  26.234  24.189  1.00  0.00    -0.190 NA
ATOM     17  C   UNL A   1      31.828  27.593  23.647  1.00  0.00     0.103 C 
ATOM     18  C   UNL A   1      32.692  27.600  22.408  1.00  0.00     0.019 C 
ATOM     19  C   UNL A   1      33.855  26.696  22.783  1.00  0.00     0.032 C 
BRANCH  16  20
ATOM     20  S   UNL A   1      30.609  25.258  24.236  1.00  0.00     0.211 S 
ATOM     21  C   UNL A   1      29.192  26.285  24.529  1.00  0.00     0.176 C 
ATOM     22  O   UNL A   1      30.796  24.459  25.427  1.00  0.00    -0.212 OA
ATOM     23  O   UNL A   1      30.427  24.709  22.914  1.00  0.00    -0.212 OA
ENDBRANCH  16  20
ENDBRANCH  13  15
ENDBRANCH   9  13
ENDBRANCH   6   8
ENDBRANCH   5   6
ENDBRANCH   4   5
ENDBRANCH   3   4
ENDBRANCH   2   3
ENDBRANCH   1   2
BRANCH   1  24
ATOM     24  C   UNL A   1      41.511  21.427  26.417  1.00  0.00     0.188 C 
BRANCH  24  25
ATOM     25  O   UNL A   1      42.602  22.215  26.832  1.00  0.00    -0.376 OA
BRANCH  25  26
ATOM     26  C   UNL A   1      42.354  23.493  27.392  1.00  0.00     0.202 C 
BRANCH  26  27
ATOM     27  C   UNL A   1      42.281  24.794  26.564  1.00  0.00     0.261 C 
BRANCH  27  28
ATOM     28  O   UNL A   1      41.104  25.603  26.668  1.00  0.00    -0.460 OA
BRANCH  28  29
ATOM     29  C   UNL A   1      41.221  26.940  26.475  1.00  0.00     0.338 C 
ATOM     30  O   UNL A   1      41.215  27.528  25.410  1.00  0.00    -0.246 OA
BRANCH  29  31
ATOM     31  C   UNL A   1      41.038  27.568  27.812  1.00  0.00     0.060 A 
ATOM     32  C   UNL A   1      41.658  28.801  28.089  1.00  0.00     0.016 A 
ATOM     33  C   UNL A   1      40.139  27.015  28.725  1.00  0.00     0.016 A 
ATOM     34  C   UNL A   1      41.380  29.481  29.278  1.00  0.00     0.010 A 
ATOM     35  C   UNL A   1      39.897  27.673  29.931  1.00  0.00     0.010 A 
ATOM     36  C   UNL A   1      40.535  28.893  30.225  1.00  0.00    -0.014 A 
BRANCH  36  37
ATOM     37  C   UNL A   1      40.542  29.345  31.636  1.00  0.00     0.031 A 
ATOM     38  C   UNL A   1      39.473  30.329  32.026  1.00  0.00     0.074 A 
ATOM     39  C   UNL A   1      41.491  28.983  32.518  1.00  0.00     0.049 A 
ATOM     40  N   UNL A   1      39.372  31.070  33.095  1.00  0.00    -0.248 NA
ATOM     41  C   UNL A   1      38.377  30.517  31.056  1.00  0.00     0.031 C 
ATOM     42  C   UNL A   1      42.536  27.988  32.288  1.00  0.00     0.029 A 
ATOM     43  N   UNL A   1      41.739  29.448  33.787  1.00  0.00    -0.354 N 
ATOM     44  C   UNL A   1      38.226  31.835  32.910  1.00  0.00     0.074 A 
ATOM     45  C   UNL A   1      37.670  31.478  31.626  1.00  0.00     0.031 C 
ATOM     46  C   UNL A   1      43.336  27.941  33.371  1.00  0.00     0.029 A 
ATOM     47  C   UNL A   1      42.891  28.940  34.344  1.00  0.00     0.049 A 
ATOM     48  H   UNL A   1      41.150  30.083  34.254  1.00  0.00     0.167 HD
ATOM     49  C   UNL A   1      37.692  32.763  33.734  1.00  0.00     0.031 A 
ATOM     50  C   UNL A   1      43.533  29.280  35.481  1.00  0.00     0.031 A 
ATOM     51  C   UNL A   1      38.262  33.127  34.999  1.00  0.00     0.049 A 
ATOM     52  C   UNL A   1      42.966  30.383  36.349  1.00  0.00     0.074 A 
ATOM     53  C   UNL A   1      37.795  34.051  35.916  1.00  0.00     0.029 A 
ATOM     54  N   UNL A   1      39.430  32.592  35.520  1.00  0.00    -0.354 N 
ATOM     55  N   UNL A   1      41.878  31.096  36.172  1.00  0.00    -0.248 NA
ATOM     56  C   UNL A   1      43.713  30.729  37.568  1.00  0.00     0.031 C 
ATOM     57  C   UNL A   1      38.715  34.121  36.963  1.00  0.00     0.029 A 
ATOM     58  C   UNL A   1      39.712  33.184  36.737  1.00  0.00     0.049 A 
ATOM     59  H   UNL A   1      39.976  31.896  35.089  1.00  0.00     0.167 HD
ATOM     60  C   UNL A   1      41.789  31.939  37.277  1.00  0.00     0.074 A 
ATOM     61  C   UNL A   1      42.933  31.652  38.115  1.00  0.00     0.031 C 
ATOM     62  C   UNL A   1      40.841  32.861  37.575  1.00  0.00     0.031 A 
BRANCH  49  63
ATOM     63  C   UNL A   1      36.457  33.482  33.265  1.00  0.00    -0.014 A 
ATOM     64  C   UNL A   1      36.533  34.745  32.652  1.00  0.00     0.010 A 
ATOM     65  C   UNL A   1      35.201  32.865  33.410  1.00  0.00     0.010 A 
ATOM     66  C   UNL A   1      35.372  35.392  32.220  1.00  0.00     0.020 A 
ATOM     67  C   UNL A   1      34.042  33.493  32.950  1.00  0.00     0.020 A 
ATOM     68  C   UNL A   1      34.135  34.759  32.370  1.00  0.00     0.054 A 
BRANCH  68  69
ATOM     69  S   UNL A   1      32.650  35.606  31.763  1.00  0.00     0.124 S 
ATOM     70  O   UNL A   1      32.986  37.008  31.999  1.00  0.00    -0.237 OA
ATOM     71  O   UNL A   1      32.602  35.199  30.362  1.00  0.00    -0.237 OA
ATOM     72  O   UNL A   1      31.579  35.073  32.602  1.00  0.00    -0.744 OA
ENDBRANCH  68  69
ENDBRANCH  49  63
BRANCH  50  73
ATOM     73  C   UNL A   1      44.809  28.606  35.859  1.00  0.00    -0.014 A 
ATOM     74  C   UNL A   1      44.803  27.456  36.668  1.00  0.00     0.010 A 
ATOM     75  C   UNL A   1      46.047  29.125  35.431  1.00  0.00     0.010 A 
ATOM     76  C   UNL A   1      46.003  26.852  37.060  1.00  0.00     0.020 A 
ATOM     77  C   UNL A   1      47.247  28.506  35.793  1.00  0.00     0.020 A 
ATOM     78  C   UNL A   1      47.219  27.381  36.618  1.00  0.00     0.054 A 
BRANCH  78  79
ATOM     79  S   UNL A   1      48.760  26.561  37.114  1.00  0.00     0.124 S 
ATOM     80  O   UNL A   1      49.200  25.953  35.863  1.00  0.00    -0.237 OA
ATOM     81  O   UNL A   1      49.571  27.678  37.592  1.00  0.00    -0.237 OA
ATOM     82  O   UNL A   1      48.333  25.622  38.149  1.00  0.00    -0.744 OA
ENDBRANCH  78  79
ENDBRANCH  50  73
BRANCH  62  83
ATOM     83  C   UNL A   1      40.932  33.586  38.893  1.00  0.00    -0.014 A 
ATOM     84  C   UNL A   1      40.396  33.043  40.072  1.00  0.00     0.010 A 
ATOM     85  C   UNL A   1      41.694  34.768  38.966  1.00  0.00     0.010 A 
ATOM     86  C   UNL A   1      40.621  33.670  41.302  1.00  0.00     0.020 A 
ATOM     87  C   UNL A   1      41.947  35.381  40.195  1.00  0.00     0.020 A 
ATOM     88  C   UNL A   1      41.407  34.828  41.357  1.00  0.00     0.054 A 
BRANCH  88  89
ATOM     89  S   UNL A   1      41.772  35.561  42.976  1.00  0.00     0.124 S 
ATOM     90  O   UNL A   1      43.015  36.283  42.711  1.00  0.00    -0.237 OA
ATOM     91  O   UNL A   1      40.600  36.398  43.219  1.00  0.00    -0.237 OA
ATOM     92  O   UNL A   1      41.900  34.406  43.861  1.00  0.00    -0.744 OA
ENDBRANCH  88  89
ENDBRANCH  62  83
ENDBRANCH  36  37
ENDBRANCH  29  31
ENDBRANCH  28  29
ENDBRANCH  27  28
ENDBRANCH  26  27
ENDBRANCH  25  26
ENDBRANCH  24  25
ENDBRANCH   1  24
TORSDOF 23
ENDMDL
