MODEL 1
REMARK VINA RESULT:      -9.7      0.000      0.000
REMARK SMILES O=C(OCCOCCOCCOC(=O)C1(Cc2nc(-c3ncc[nH]3)no2)CCCCC1)c1ccc(-c2c3nc(c(-c4ccc(S(=O)(=O)[O-])cc4)c4ccc([nH]4)c(-c4ccc(S(=O)(=O)[O-])cc4)c4nc(c(-c5ccc(S(=O)(=O)[O-])cc5)c5ccc2[nH]5)C=C4)C=C3)cc1
REMARK SMILES IDX 7 1 6 2 5 3 4 4 3 5 2 6 1 7 32 8 33 9 91 10 34 11 90 12
REMARK SMILES IDX 35 13 36 14 37 15 84 16 38 17 89 18 83 19 85 20 39 21 88 22
REMARK SMILES IDX 82 23 81 24 40 26 70 27 51 28 69 29 52 30 55 31 68 32 86 33
REMARK SMILES IDX 53 34 54 35 67 37 87 38 56 39 41 40 42 41 50 42 43 43 49 44
REMARK SMILES IDX 44 45 45 46 46 47 47 48 48 49 71 50 72 51 80 52 73 53 79 54
REMARK SMILES IDX 74 55 75 56 76 57 77 58 78 59 57 60 58 61 66 62 59 63 65 64
REMARK SMILES IDX 60 65 61 66 62 67 63 68 64 69 8 70 9 71 10 72 11 73 12 74
REMARK SMILES IDX 13 75 14 76 15 77 27 78 31 79 28 80 30 81 29 82 16 83 17 84
REMARK SMILES IDX 18 85 26 86 19 87 25 88 20 89 21 90 24 91 22 92 23 93
REMARK H PARENT 85 25 55 36 24 94
REMARK Flexibility Score: inf
ROOT
ATOM      1  C   UNL A   1      41.679  21.442  27.494  1.00  0.00     0.188 C 
ENDROOT
BRANCH   1   2
ATOM      2  O   UNL A   1      42.370  22.266  26.552  1.00  0.00    -0.376 OA
BRANCH   2   3
ATOM      3  C   UNL A   1      41.819  23.582  26.446  1.00  0.00     0.202 C 
BRANCH   3   4
ATOM      4  C   UNL A   1      42.840  24.693  26.140  1.00  0.00     0.261 C 
BRANCH   4   5
ATOM      5  O   UNL A   1      42.346  26.029  26.360  1.00  0.00    -0.460 OA
BRANCH   5   6
ATOM      6  C   UNL A   1      41.119  26.435  26.778  1.00  0.00     0.338 C 
ATOM      7  O   UNL A   1      40.133  26.053  26.146  1.00  0.00    -0.246 OA
BRANCH   6   8
ATOM      8  C   UNL A   1      40.890  27.330  27.954  1.00  0.00     0.060 A 
ATOM      9  C   UNL A   1      41.385  28.626  28.075  1.00  0.00     0.016 A 
ATOM     10  C   UNL A   1      40.083  26.846  28.999  1.00  0.00     0.016 A 
ATOM     11  C   UNL A   1      41.203  29.379  29.221  1.00  0.00     0.010 A 
ATOM     12  C   UNL A   1      39.842  27.622  30.140  1.00  0.00     0.010 A 
ATOM     13  C   UNL A   1      40.443  28.882  30.267  1.00  0.00    -0.014 A 
BRANCH  13  14
ATOM     14  C   UNL A   1      40.450  29.631  31.538  1.00  0.00     0.031 A 
ATOM     15  C   UNL A   1      41.558  29.361  32.499  1.00  0.00     0.074 A 
ATOM     16  C   UNL A   1      39.605  30.658  31.747  1.00  0.00     0.049 A 
ATOM     17  N   UNL A   1      41.763  29.882  33.674  1.00  0.00    -0.248 NA
ATOM     18  C   UNL A   1      42.609  28.429  32.052  1.00  0.00     0.031 C 
ATOM     19  C   UNL A   1      38.680  31.180  30.749  1.00  0.00     0.029 A 
ATOM     20  N   UNL A   1      39.385  31.457  32.836  1.00  0.00    -0.354 N 
ATOM     21  C   UNL A   1      42.974  29.362  34.100  1.00  0.00     0.074 A 
ATOM     22  C   UNL A   1      43.437  28.445  33.084  1.00  0.00     0.031 C 
ATOM     23  C   UNL A   1      37.938  32.158  31.287  1.00  0.00     0.029 A 
ATOM     24  C   UNL A   1      38.298  32.289  32.682  1.00  0.00     0.049 A 
ATOM     25  H   UNL A   1      39.946  31.438  33.645  1.00  0.00     0.167 HD
ATOM     26  C   UNL A   1      43.643  29.652  35.236  1.00  0.00     0.031 A 
ATOM     27  C   UNL A   1      37.632  33.032  33.582  1.00  0.00     0.031 A 
ATOM     28  C   UNL A   1      43.129  30.547  36.235  1.00  0.00     0.049 A 
ATOM     29  C   UNL A   1      38.238  33.129  34.946  1.00  0.00     0.074 A 
ATOM     30  C   UNL A   1      43.671  30.872  37.462  1.00  0.00     0.029 A 
ATOM     31  N   UNL A   1      41.935  31.249  36.120  1.00  0.00    -0.354 N 
ATOM     32  N   UNL A   1      39.349  32.579  35.376  1.00  0.00    -0.248 NA
ATOM     33  C   UNL A   1      37.548  33.970  35.926  1.00  0.00     0.031 C 
ATOM     34  C   UNL A   1      42.768  31.716  38.119  1.00  0.00     0.029 A 
ATOM     35  C   UNL A   1      41.699  31.975  37.272  1.00  0.00     0.049 A 
ATOM     36  H   UNL A   1      41.343  31.231  35.333  1.00  0.00     0.167 HD
ATOM     37  C   UNL A   1      39.533  33.059  36.659  1.00  0.00     0.074 A 
ATOM     38  C   UNL A   1      38.405  33.931  36.939  1.00  0.00     0.031 C 
ATOM     39  C   UNL A   1      40.556  32.823  37.516  1.00  0.00     0.031 A 
BRANCH  26  40
ATOM     40  C   UNL A   1      44.936  28.923  35.463  1.00  0.00    -0.014 A 
ATOM     41  C   UNL A   1      46.162  29.435  34.998  1.00  0.00     0.010 A 
ATOM     42  C   UNL A   1      44.912  27.674  36.106  1.00  0.00     0.010 A 
ATOM     43  C   UNL A   1      47.335  28.688  35.137  1.00  0.00     0.020 A 
ATOM     44  C   UNL A   1      46.087  26.938  36.270  1.00  0.00     0.020 A 
ATOM     45  C   UNL A   1      47.289  27.442  35.769  1.00  0.00     0.054 A 
BRANCH  45  46
ATOM     46  S   UNL A   1      48.826  26.495  35.937  1.00  0.00     0.124 S 
ATOM     47  O   UNL A   1      48.350  25.121  35.804  1.00  0.00    -0.237 OA
ATOM     48  O   UNL A   1      49.630  26.993  34.826  1.00  0.00    -0.237 OA
ATOM     49  O   UNL A   1      49.312  26.859  37.268  1.00  0.00    -0.744 OA
ENDBRANCH  45  46
ENDBRANCH  26  40
BRANCH  27  50
ATOM     50  C   UNL A   1      36.335  33.675  33.231  1.00  0.00    -0.014 A 
ATOM     51  C   UNL A   1      35.124  32.969  33.288  1.00  0.00     0.010 A 
ATOM     52  C   UNL A   1      36.313  35.027  32.830  1.00  0.00     0.010 A 
ATOM     53  C   UNL A   1      33.922  33.590  32.926  1.00  0.00     0.020 A 
ATOM     54  C   UNL A   1      35.113  35.658  32.487  1.00  0.00     0.020 A 
ATOM     55  C   UNL A   1      33.925  34.930  32.524  1.00  0.00     0.054 A 
BRANCH  55  56
ATOM     56  S   UNL A   1      32.349  35.708  32.065  1.00  0.00     0.124 S 
ATOM     57  O   UNL A   1      32.547  37.083  32.514  1.00  0.00    -0.237 OA
ATOM     58  O   UNL A   1      32.318  35.514  30.618  1.00  0.00    -0.237 OA
ATOM     59  O   UNL A   1      31.357  34.942  32.815  1.00  0.00    -0.744 OA
ENDBRANCH  55  56
ENDBRANCH  27  50
BRANCH  39  60
ATOM     60  C   UNL A   1      40.516  33.561  38.818  1.00  0.00    -0.014 A 
ATOM     61  C   UNL A   1      41.212  34.768  38.995  1.00  0.00     0.010 A 
ATOM     62  C   UNL A   1      39.724  33.053  39.865  1.00  0.00     0.010 A 
ATOM     63  C   UNL A   1      41.140  35.443  40.212  1.00  0.00     0.020 A 
ATOM     64  C   UNL A   1      39.620  33.744  41.069  1.00  0.00     0.020 A 
ATOM     65  C   UNL A   1      40.339  34.929  41.238  1.00  0.00     0.054 A 
BRANCH  65  66
ATOM     66  S   UNL A   1      40.214  35.859  42.786  1.00  0.00     0.124 S 
ATOM     67  O   UNL A   1      39.340  36.966  42.403  1.00  0.00    -0.237 OA
ATOM     68  O   UNL A   1      39.628  34.881  43.698  1.00  0.00    -0.237 OA
ATOM     69  O   UNL A   1      41.596  36.230  43.080  1.00  0.00    -0.744 OA
ENDBRANCH  65  66
ENDBRANCH  39  60
ENDBRANCH  13  14
ENDBRANCH   6   8
ENDBRANCH   5   6
ENDBRANCH   4   5
ENDBRANCH   3   4
ENDBRANCH   2   3
ENDBRANCH   1   2
BRANCH   1  70
ATOM     70  C   UNL A   1      40.806  20.397  26.821  1.00  0.00     0.188 C 
BRANCH  70  71
ATOM     71  O   UNL A   1      40.009  20.834  25.729  1.00  0.00    -0.376 OA
BRANCH  71  72
ATOM     72  C   UNL A   1      38.870  21.637  26.007  1.00  0.00     0.202 C 
BRANCH  72  73
ATOM     73  C   UNL A   1      37.733  21.807  24.973  1.00  0.00     0.261 C 
BRANCH  73  74
ATOM     74  O   UNL A   1      36.788  22.884  25.107  1.00  0.00    -0.463 OA
BRANCH  74  75
ATOM     75  C   UNL A   1      36.171  23.195  23.939  1.00  0.00     0.312 C 
ATOM     76  O   UNL A   1      36.666  22.941  22.841  1.00  0.00    -0.252 OA
BRANCH  75  77
ATOM     77  C   UNL A   1      34.758  23.784  24.076  1.00  0.00     0.077 C 
ATOM     78  C   UNL A   1      34.521  24.009  25.592  1.00  0.00     0.019 C 
ATOM     79  C   UNL A   1      34.556  25.152  23.390  1.00  0.00     0.019 C 
ATOM     80  C   UNL A   1      33.156  24.605  25.929  1.00  0.00     0.001 C 
ATOM     81  C   UNL A   1      33.138  25.695  23.638  1.00  0.00     0.001 C 
ATOM     82  C   UNL A   1      32.841  25.860  25.125  1.00  0.00     0.000 C 
BRANCH  77  83
ATOM     83  C   UNL A   1      33.785  22.711  23.461  1.00  0.00     0.119 C 
BRANCH  83  84
ATOM     84  C   UNL A   1      33.491  21.620  24.451  1.00  0.00     0.228 A 
ATOM     85  N   UNL A   1      34.190  20.531  24.670  1.00  0.00    -0.188 NA
ATOM     86  O   UNL A   1      32.217  21.537  24.935  1.00  0.00    -0.339 OA
ATOM     87  C   UNL A   1      33.225  19.642  25.056  1.00  0.00     0.238 A 
ATOM     88  N   UNL A   1      32.029  20.198  25.304  1.00  0.00    -0.054 NA
BRANCH  87  89
ATOM     89  C   UNL A   1      33.423  18.161  25.004  1.00  0.00     0.179 A 
ATOM     90  N   UNL A   1      33.934  17.472  23.999  1.00  0.00    -0.234 NA
ATOM     91  N   UNL A   1      32.979  17.313  25.989  1.00  0.00    -0.342 N 
ATOM     92  C   UNL A   1      33.804  16.154  24.342  1.00  0.00     0.131 A 
ATOM     93  C   UNL A   1      33.197  16.028  25.569  1.00  0.00     0.104 A 
ATOM     94  H   UNL A   1      32.575  17.581  26.845  1.00  0.00     0.168 HD
ENDBRANCH  87  89
ENDBRANCH  83  84
ENDBRANCH  77  83
ENDBRANCH  75  77
ENDBRANCH  74  75
ENDBRANCH  73  74
ENDBRANCH  72  73
ENDBRANCH  71  72
ENDBRANCH  70  71
ENDBRANCH   1  70
TORSDOF 23
ENDMDL
MODEL 2
REMARK VINA RESULT:      -9.6      2.685      4.698
REMARK SMILES O=C(OCCOCCOCCOC(=O)C1(Cc2nc(-c3ncc[nH]3)no2)CCCCC1)c1ccc(-c2c3nc(c(-c4ccc(S(=O)(=O)[O-])cc4)c4ccc([nH]4)c(-c4ccc(S(=O)(=O)[O-])cc4)c4nc(c(-c5ccc(S(=O)(=O)[O-])cc5)c5ccc2[nH]5)C=C4)C=C3)cc1
REMARK SMILES IDX 7 1 6 2 5 3 4 4 3 5 2 6 1 7 32 8 33 9 91 10 34 11 90 12
REMARK SMILES IDX 35 13 36 14 37 15 84 16 38 17 89 18 83 19 85 20 39 21 88 22
REMARK SMILES IDX 82 23 81 24 40 26 70 27 51 28 69 29 52 30 55 31 68 32 86 33
REMARK SMILES IDX 53 34 54 35 67 37 87 38 56 39 41 40 42 41 50 42 43 43 49 44
REMARK SMILES IDX 44 45 45 46 46 47 47 48 48 49 71 50 72 51 80 52 73 53 79 54
REMARK SMILES IDX 74 55 75 56 76 57 77 58 78 59 57 60 58 61 66 62 59 63 65 64
REMARK SMILES IDX 60 65 61 66 62 67 63 68 64 69 8 70 9 71 10 72 11 73 12 74
REMARK SMILES IDX 13 75 14 76 15 77 27 78 31 79 28 80 30 81 29 82 16 83 17 84
REMARK SMILES IDX 18 85 26 86 19 87 25 88 20 89 21 90 24 91 22 92 23 93
REMARK H PARENT 85 25 55 36 24 94
REMARK Flexibility Score: inf
ROOT
ATOM      1  C   UNL A   1      36.193  23.412  24.756  1.00  0.00     0.188 C 
ENDROOT
BRANCH   1   2
ATOM      2  O   UNL A   1      37.541  22.993  24.980  1.00  0.00    -0.376 OA
BRANCH   2   3
ATOM      3  C   UNL A   1      38.076  23.463  26.221  1.00  0.00     0.202 C 
BRANCH   3   4
ATOM      4  C   UNL A   1      39.534  23.053  26.498  1.00  0.00     0.261 C 
BRANCH   4   5
ATOM      5  O   UNL A   1      40.489  24.122  26.350  1.00  0.00    -0.460 OA
BRANCH   5   6
ATOM      6  C   UNL A   1      41.401  24.592  27.241  1.00  0.00     0.338 C 
ATOM      7  O   UNL A   1      42.482  24.007  27.330  1.00  0.00    -0.246 OA
BRANCH   6   8
ATOM      8  C   UNL A   1      41.171  25.772  28.131  1.00  0.00     0.060 A 
ATOM      9  C   UNL A   1      42.100  26.783  28.363  1.00  0.00     0.016 A 
ATOM     10  C   UNL A   1      39.915  25.894  28.748  1.00  0.00     0.016 A 
ATOM     11  C   UNL A   1      41.859  27.811  29.256  1.00  0.00     0.010 A 
ATOM     12  C   UNL A   1      39.636  26.963  29.610  1.00  0.00     0.010 A 
ATOM     13  C   UNL A   1      40.634  27.905  29.897  1.00  0.00    -0.014 A 
BRANCH  13  14
ATOM     14  C   UNL A   1      40.501  28.891  30.986  1.00  0.00     0.031 A 
ATOM     15  C   UNL A   1      41.385  28.736  32.177  1.00  0.00     0.074 A 
ATOM     16  C   UNL A   1      39.754  30.001  30.834  1.00  0.00     0.049 A 
ATOM     17  N   UNL A   1      41.436  29.466  33.254  1.00  0.00    -0.248 NA
ATOM     18  C   UNL A   1      42.386  27.656  32.123  1.00  0.00     0.031 C 
ATOM     19  C   UNL A   1      39.085  30.381  29.597  1.00  0.00     0.029 A 
ATOM     20  N   UNL A   1      39.436  31.016  31.694  1.00  0.00    -0.354 N 
ATOM     21  C   UNL A   1      42.487  28.951  33.996  1.00  0.00     0.074 A 
ATOM     22  C   UNL A   1      43.015  27.816  33.275  1.00  0.00     0.031 C 
ATOM     23  C   UNL A   1      38.374  31.500  29.791  1.00  0.00     0.029 A 
ATOM     24  C   UNL A   1      38.495  31.881  31.182  1.00  0.00     0.049 A 
ATOM     25  H   UNL A   1      39.840  31.118  32.586  1.00  0.00     0.167 HD
ATOM     26  C   UNL A   1      42.973  29.412  35.168  1.00  0.00     0.031 A 
ATOM     27  C   UNL A   1      37.768  32.839  31.783  1.00  0.00     0.031 A 
ATOM     28  C   UNL A   1      42.395  30.526  35.866  1.00  0.00     0.049 A 
ATOM     29  C   UNL A   1      38.130  33.161  33.198  1.00  0.00     0.074 A 
ATOM     30  C   UNL A   1      42.745  31.049  37.095  1.00  0.00     0.029 A 
ATOM     31  N   UNL A   1      41.326  31.280  35.394  1.00  0.00    -0.354 N 
ATOM     32  N   UNL A   1      39.080  32.626  33.929  1.00  0.00    -0.248 NA
ATOM     33  C   UNL A   1      37.378  34.232  33.853  1.00  0.00     0.031 C 
ATOM     34  C   UNL A   1      41.841  32.074  37.397  1.00  0.00     0.029 A 
ATOM     35  C   UNL A   1      40.975  32.239  36.326  1.00  0.00     0.049 A 
ATOM     36  H   UNL A   1      40.885  31.149  34.524  1.00  0.00     0.167 HD
ATOM     37  C   UNL A   1      39.087  33.339  35.114  1.00  0.00     0.074 A 
ATOM     38  C   UNL A   1      38.032  34.333  35.004  1.00  0.00     0.031 C 
ATOM     39  C   UNL A   1      39.909  33.203  36.182  1.00  0.00     0.031 A 
BRANCH  26  40
ATOM     40  C   UNL A   1      44.114  28.647  35.772  1.00  0.00    -0.014 A 
ATOM     41  C   UNL A   1      45.453  28.956  35.465  1.00  0.00     0.010 A 
ATOM     42  C   UNL A   1      43.837  27.562  36.620  1.00  0.00     0.010 A 
ATOM     43  C   UNL A   1      46.492  28.165  35.965  1.00  0.00     0.020 A 
ATOM     44  C   UNL A   1      44.874  26.786  37.143  1.00  0.00     0.020 A 
ATOM     45  C   UNL A   1      46.194  27.082  36.798  1.00  0.00     0.054 A 
BRANCH  45  46
ATOM     46  S   UNL A   1      47.560  26.074  37.434  1.00  0.00     0.124 S 
ATOM     47  O   UNL A   1      48.681  26.536  36.620  1.00  0.00    -0.237 OA
ATOM     48  O   UNL A   1      47.606  26.452  38.842  1.00  0.00    -0.237 OA
ATOM     49  O   UNL A   1      47.126  24.701  37.173  1.00  0.00    -0.744 OA
ENDBRANCH  45  46
ENDBRANCH  26  40
BRANCH  27  50
ATOM     50  C   UNL A   1      36.635  33.495  31.073  1.00  0.00    -0.014 A 
ATOM     51  C   UNL A   1      36.825  34.191  29.870  1.00  0.00     0.010 A 
ATOM     52  C   UNL A   1      35.335  33.420  31.615  1.00  0.00     0.010 A 
ATOM     53  C   UNL A   1      35.746  34.824  29.238  1.00  0.00     0.020 A 
ATOM     54  C   UNL A   1      34.251  34.032  30.977  1.00  0.00     0.020 A 
ATOM     55  C   UNL A   1      34.466  34.742  29.797  1.00  0.00     0.054 A 
BRANCH  55  56
ATOM     56  S   UNL A   1      33.088  35.568  28.951  1.00  0.00     0.124 S 
ATOM     57  O   UNL A   1      32.494  34.470  28.194  1.00  0.00    -0.237 OA
ATOM     58  O   UNL A   1      32.292  36.069  30.069  1.00  0.00    -0.237 OA
ATOM     59  O   UNL A   1      33.745  36.597  28.148  1.00  0.00    -0.744 OA
ENDBRANCH  55  56
ENDBRANCH  27  50
BRANCH  39  60
ATOM     60  C   UNL A   1      39.723  34.188  37.294  1.00  0.00    -0.014 A 
ATOM     61  C   UNL A   1      39.017  33.847  38.459  1.00  0.00     0.010 A 
ATOM     62  C   UNL A   1      40.309  35.462  37.181  1.00  0.00     0.010 A 
ATOM     63  C   UNL A   1      38.876  34.778  39.486  1.00  0.00     0.020 A 
ATOM     64  C   UNL A   1      40.202  36.382  38.221  1.00  0.00     0.020 A 
ATOM     65  C   UNL A   1      39.475  36.037  39.362  1.00  0.00     0.054 A 
BRANCH  65  66
ATOM     66  S   UNL A   1      39.330  37.204  40.738  1.00  0.00     0.124 S 
ATOM     67  O   UNL A   1      38.752  36.366  41.785  1.00  0.00    -0.237 OA
ATOM     68  O   UNL A   1      40.714  37.617  40.953  1.00  0.00    -0.237 OA
ATOM     69  O   UNL A   1      38.448  38.247  40.216  1.00  0.00    -0.744 OA
ENDBRANCH  65  66
ENDBRANCH  39  60
ENDBRANCH  13  14
ENDBRANCH   6   8
ENDBRANCH   5   6
ENDBRANCH   4   5
ENDBRANCH   3   4
ENDBRANCH   2   3
ENDBRANCH   1   2
BRANCH   1  70
ATOM     70  C   UNL A   1      35.271  22.251  24.424  1.00  0.00     0.188 C 
BRANCH  70  71
ATOM     71  O   UNL A   1      35.141  21.234  25.408  1.00  0.00    -0.376 OA
BRANCH  71  72
ATOM     72  C   UNL A   1      34.606  21.590  26.676  1.00  0.00     0.202 C 
BRANCH  72  73
ATOM     73  C   UNL A   1      33.226  22.275  26.803  1.00  0.00     0.261 C 
BRANCH  73  74
ATOM     74  O   UNL A   1      33.121  23.709  26.730  1.00  0.00    -0.463 OA
BRANCH  74  75
ATOM     75  C   UNL A   1      31.844  24.139  26.566  1.00  0.00     0.312 C 
ATOM     76  O   UNL A   1      30.982  23.997  27.433  1.00  0.00    -0.252 OA
BRANCH  75  77
ATOM     77  C   UNL A   1      31.572  24.918  25.269  1.00  0.00     0.077 C 
ATOM     78  C   UNL A   1      32.944  25.094  24.566  1.00  0.00     0.019 C 
ATOM     79  C   UNL A   1      30.649  24.199  24.263  1.00  0.00     0.019 C 
ATOM     80  C   UNL A   1      32.873  25.847  23.239  1.00  0.00     0.001 C 
ATOM     81  C   UNL A   1      30.490  25.018  22.970  1.00  0.00     0.001 C 
ATOM     82  C   UNL A   1      31.830  25.276  22.287  1.00  0.00     0.000 C 
BRANCH  77  83
ATOM     83  C   UNL A   1      30.938  26.287  25.717  1.00  0.00     0.119 C 
BRANCH  83  84
ATOM     84  C   UNL A   1      31.916  27.414  25.545  1.00  0.00     0.228 A 
ATOM     85  N   UNL A   1      32.981  27.664  26.270  1.00  0.00    -0.188 NA
ATOM     86  O   UNL A   1      31.509  28.493  24.815  1.00  0.00    -0.339 OA
ATOM     87  C   UNL A   1      33.069  29.027  26.193  1.00  0.00     0.238 A 
ATOM     88  N   UNL A   1      32.259  29.582  25.279  1.00  0.00    -0.054 NA
BRANCH  87  89
ATOM     89  C   UNL A   1      33.840  29.843  27.180  1.00  0.00     0.179 A 
ATOM     90  N   UNL A   1      33.797  31.157  27.317  1.00  0.00    -0.234 NA
ATOM     91  N   UNL A   1      34.793  29.306  28.010  1.00  0.00    -0.342 N 
ATOM     92  C   UNL A   1      34.752  31.469  28.246  1.00  0.00     0.131 A 
ATOM     93  C   UNL A   1      35.397  30.336  28.682  1.00  0.00     0.104 A 
ATOM     94  H   UNL A   1      35.005  28.350  28.107  1.00  0.00     0.168 HD
ENDBRANCH  87  89
ENDBRANCH  83  84
ENDBRANCH  77  83
ENDBRANCH  75  77
ENDBRANCH  74  75
ENDBRANCH  73  74
ENDBRANCH  72  73
ENDBRANCH  71  72
ENDBRANCH  70  71
ENDBRANCH   1  70
TORSDOF 23
ENDMDL
MODEL 3
REMARK VINA RESULT:      -9.3      2.693      4.611
REMARK SMILES O=C(OCCOCCOCCOC(=O)C1(Cc2nc(-c3ncc[nH]3)no2)CCCCC1)c1ccc(-c2c3nc(c(-c4ccc(S(=O)(=O)[O-])cc4)c4ccc([nH]4)c(-c4ccc(S(=O)(=O)[O-])cc4)c4nc(c(-c5ccc(S(=O)(=O)[O-])cc5)c5ccc2[nH]5)C=C4)C=C3)cc1
REMARK SMILES IDX 7 1 6 2 5 3 4 4 3 5 2 6 1 7 32 8 33 9 91 10 34 11 90 12
REMARK SMILES IDX 35 13 36 14 37 15 84 16 38 17 89 18 83 19 85 20 39 21 88 22
REMARK SMILES IDX 82 23 81 24 40 26 70 27 51 28 69 29 52 30 55 31 68 32 86 33
REMARK SMILES IDX 53 34 54 35 67 37 87 38 56 39 41 40 42 41 50 42 43 43 49 44
REMARK SMILES IDX 44 45 45 46 46 47 47 48 48 49 71 50 72 51 80 52 73 53 79 54
REMARK SMILES IDX 74 55 75 56 76 57 77 58 78 59 57 60 58 61 66 62 59 63 65 64
REMARK SMILES IDX 60 65 61 66 62 67 63 68 64 69 8 70 9 71 10 72 11 73 12 74
REMARK SMILES IDX 13 75 14 76 15 77 27 78 31 79 28 80 30 81 29 82 16 83 17 84
REMARK SMILES IDX 18 85 26 86 19 87 25 88 20 89 21 90 24 91 22 92 23 93
REMARK H PARENT 85 25 55 36 24 94
REMARK Flexibility Score: inf
ROOT
ATOM      1  C   UNL A   1      37.292  23.523  25.278  1.00  0.00     0.188 C 
ENDROOT
BRANCH   1   2
ATOM      2  O   UNL A   1      37.982  23.698  26.517  1.00  0.00    -0.376 OA
BRANCH   2   3
ATOM      3  C   UNL A   1      39.309  23.165  26.501  1.00  0.00     0.202 C 
BRANCH   3   4
ATOM      4  C   UNL A   1      40.432  24.207  26.649  1.00  0.00     0.261 C 
BRANCH   4   5
ATOM      5  O   UNL A   1      40.071  25.534  26.217  1.00  0.00    -0.460 OA
BRANCH   5   6
ATOM      6  C   UNL A   1      40.715  26.712  26.423  1.00  0.00     0.338 C 
ATOM      7  O   UNL A   1      41.516  27.094  25.568  1.00  0.00    -0.246 OA
BRANCH   6   8
ATOM      8  C   UNL A   1      40.522  27.572  27.630  1.00  0.00     0.060 A 
ATOM      9  C   UNL A   1      41.034  28.858  27.779  1.00  0.00     0.016 A 
ATOM     10  C   UNL A   1      39.733  27.065  28.678  1.00  0.00     0.016 A 
ATOM     11  C   UNL A   1      40.886  29.578  28.951  1.00  0.00     0.010 A 
ATOM     12  C   UNL A   1      39.526  27.809  29.847  1.00  0.00     0.010 A 
ATOM     13  C   UNL A   1      40.143  29.057  29.999  1.00  0.00    -0.014 A 
BRANCH  13  14
ATOM     14  C   UNL A   1      40.188  29.767  31.291  1.00  0.00     0.031 A 
ATOM     15  C   UNL A   1      41.303  29.442  32.227  1.00  0.00     0.074 A 
ATOM     16  C   UNL A   1      39.371  30.807  31.543  1.00  0.00     0.049 A 
ATOM     17  N   UNL A   1      41.537  29.923  33.413  1.00  0.00    -0.248 NA
ATOM     18  C   UNL A   1      42.325  28.500  31.736  1.00  0.00     0.031 C 
ATOM     19  C   UNL A   1      38.444  31.381  30.576  1.00  0.00     0.029 A 
ATOM     20  N   UNL A   1      39.185  31.577  32.659  1.00  0.00    -0.354 N 
ATOM     21  C   UNL A   1      42.742  29.361  33.805  1.00  0.00     0.074 A 
ATOM     22  C   UNL A   1      43.168  28.465  32.755  1.00  0.00     0.031 C 
ATOM     23  C   UNL A   1      37.733  32.359  31.154  1.00  0.00     0.029 A 
ATOM     24  C   UNL A   1      38.117  32.439  32.547  1.00  0.00     0.049 A 
ATOM     25  H   UNL A   1      39.758  31.521  33.458  1.00  0.00     0.167 HD
ATOM     26  C   UNL A   1      43.433  29.602  34.939  1.00  0.00     0.031 A 
ATOM     27  C   UNL A   1      37.482  33.170  33.479  1.00  0.00     0.031 A 
ATOM     28  C   UNL A   1      42.956  30.477  35.972  1.00  0.00     0.049 A 
ATOM     29  C   UNL A   1      38.109  33.211  34.836  1.00  0.00     0.074 A 
ATOM     30  C   UNL A   1      43.524  30.752  37.200  1.00  0.00     0.029 A 
ATOM     31  N   UNL A   1      41.777  31.210  35.897  1.00  0.00    -0.354 N 
ATOM     32  N   UNL A   1      39.214  32.623  35.232  1.00  0.00    -0.248 NA
ATOM     33  C   UNL A   1      37.455  34.038  35.851  1.00  0.00     0.031 C 
ATOM     34  C   UNL A   1      42.651  31.597  37.895  1.00  0.00     0.029 A 
ATOM     35  C   UNL A   1      41.576  31.907  37.073  1.00  0.00     0.049 A 
ATOM     36  H   UNL A   1      41.174  31.231  35.119  1.00  0.00     0.167 HD
ATOM     37  C   UNL A   1      39.428  33.059  36.526  1.00  0.00     0.074 A 
ATOM     38  C   UNL A   1      38.324  33.948  36.849  1.00  0.00     0.031 C 
ATOM     39  C   UNL A   1      40.457  32.774  37.360  1.00  0.00     0.031 A 
BRANCH  26  40
ATOM     40  C   UNL A   1      44.712  28.836  35.124  1.00  0.00    -0.014 A 
ATOM     41  C   UNL A   1      45.940  29.326  34.643  1.00  0.00     0.010 A 
ATOM     42  C   UNL A   1      44.670  27.575  35.742  1.00  0.00     0.010 A 
ATOM     43  C   UNL A   1      47.097  28.548  34.742  1.00  0.00     0.020 A 
ATOM     44  C   UNL A   1      45.828  26.807  35.867  1.00  0.00     0.020 A 
ATOM     45  C   UNL A   1      47.032  27.290  35.351  1.00  0.00     0.054 A 
BRANCH  45  46
ATOM     46  S   UNL A   1      48.547  26.302  35.468  1.00  0.00     0.124 S 
ATOM     47  O   UNL A   1      48.819  25.997  34.065  1.00  0.00    -0.237 OA
ATOM     48  O   UNL A   1      49.481  27.225  36.103  1.00  0.00    -0.237 OA
ATOM     49  O   UNL A   1      48.150  25.157  36.287  1.00  0.00    -0.744 OA
ENDBRANCH  45  46
ENDBRANCH  26  40
BRANCH  27  50
ATOM     50  C   UNL A   1      36.196  33.854  33.167  1.00  0.00    -0.014 A 
ATOM     51  C   UNL A   1      36.163  35.097  32.517  1.00  0.00     0.010 A 
ATOM     52  C   UNL A   1      34.976  33.245  33.529  1.00  0.00     0.010 A 
ATOM     53  C   UNL A   1      34.940  35.731  32.260  1.00  0.00     0.020 A 
ATOM     54  C   UNL A   1      33.752  33.865  33.256  1.00  0.00     0.020 A 
ATOM     55  C   UNL A   1      33.743  35.112  32.634  1.00  0.00     0.054 A 
BRANCH  55  56
ATOM     56  S   UNL A   1      32.174  35.958  32.283  1.00  0.00     0.124 S 
ATOM     57  O   UNL A   1      32.288  36.229  30.853  1.00  0.00    -0.237 OA
ATOM     58  O   UNL A   1      31.187  34.950  32.659  1.00  0.00    -0.237 OA
ATOM     59  O   UNL A   1      32.219  37.136  33.148  1.00  0.00    -0.744 OA
ENDBRANCH  55  56
ENDBRANCH  27  50
BRANCH  39  60
ATOM     60  C   UNL A   1      40.453  33.472  38.684  1.00  0.00    -0.014 A 
ATOM     61  C   UNL A   1      41.158  34.672  38.878  1.00  0.00     0.010 A 
ATOM     62  C   UNL A   1      39.688  32.935  39.736  1.00  0.00     0.010 A 
ATOM     63  C   UNL A   1      41.120  35.310  40.116  1.00  0.00     0.020 A 
ATOM     64  C   UNL A   1      39.618  33.591  40.962  1.00  0.00     0.020 A 
ATOM     65  C   UNL A   1      40.345  34.768  41.147  1.00  0.00     0.054 A 
BRANCH  65  66
ATOM     66  S   UNL A   1      40.263  35.652  42.724  1.00  0.00     0.124 S 
ATOM     67  O   UNL A   1      41.184  36.763  42.496  1.00  0.00    -0.237 OA
ATOM     68  O   UNL A   1      38.851  36.013  42.814  1.00  0.00    -0.237 OA
ATOM     69  O   UNL A   1      40.712  34.661  43.700  1.00  0.00    -0.744 OA
ENDBRANCH  65  66
ENDBRANCH  39  60
ENDBRANCH  13  14
ENDBRANCH   6   8
ENDBRANCH   5   6
ENDBRANCH   4   5
ENDBRANCH   3   4
ENDBRANCH   2   3
ENDBRANCH   1   2
BRANCH   1  70
ATOM     70  C   UNL A   1      36.139  22.539  25.389  1.00  0.00     0.188 C 
BRANCH  70  71
ATOM     71  O   UNL A   1      34.896  23.057  25.846  1.00  0.00    -0.376 OA
BRANCH  71  72
ATOM     72  C   UNL A   1      34.412  24.258  25.260  1.00  0.00     0.202 C 
BRANCH  72  73
ATOM     73  C   UNL A   1      32.905  24.470  24.990  1.00  0.00     0.261 C 
BRANCH  73  74
ATOM     74  O   UNL A   1      32.473  25.465  24.044  1.00  0.00    -0.463 OA
BRANCH  74  75
ATOM     75  C   UNL A   1      31.154  25.366  23.737  1.00  0.00     0.312 C 
ATOM     76  O   UNL A   1      30.608  24.287  23.506  1.00  0.00    -0.252 OA
BRANCH  75  77
ATOM     77  C   UNL A   1      30.360  26.680  23.808  1.00  0.00     0.077 C 
ATOM     78  C   UNL A   1      30.935  27.601  22.701  1.00  0.00     0.019 C 
ATOM     79  C   UNL A   1      28.849  26.539  23.526  1.00  0.00     0.019 C 
ATOM     80  C   UNL A   1      30.256  28.967  22.611  1.00  0.00     0.001 C 
ATOM     81  C   UNL A   1      28.149  27.910  23.550  1.00  0.00     0.001 C 
ATOM     82  C   UNL A   1      28.738  28.871  22.522  1.00  0.00     0.000 C 
BRANCH  77  83
ATOM     83  C   UNL A   1      30.599  27.247  25.256  1.00  0.00     0.119 C 
BRANCH  83  84
ATOM     84  C   UNL A   1      31.543  28.415  25.228  1.00  0.00     0.228 A 
ATOM     85  N   UNL A   1      32.808  28.428  25.576  1.00  0.00    -0.188 NA
ATOM     86  O   UNL A   1      30.995  29.665  25.181  1.00  0.00    -0.339 OA
ATOM     87  C   UNL A   1      32.970  29.709  26.029  1.00  0.00     0.238 A 
ATOM     88  N   UNL A   1      31.941  30.525  25.755  1.00  0.00    -0.054 NA
BRANCH  87  89
ATOM     89  C   UNL A   1      34.093  30.111  26.930  1.00  0.00     0.179 A 
ATOM     90  N   UNL A   1      34.084  31.105  27.800  1.00  0.00    -0.234 NA
ATOM     91  N   UNL A   1      35.340  29.538  26.870  1.00  0.00    -0.342 N 
ATOM     92  C   UNL A   1      35.356  31.178  28.300  1.00  0.00     0.131 A 
ATOM     93  C   UNL A   1      36.161  30.223  27.725  1.00  0.00     0.104 A 
ATOM     94  H   UNL A   1      35.598  28.770  26.311  1.00  0.00     0.168 HD
ENDBRANCH  87  89
ENDBRANCH  83  84
ENDBRANCH  77  83
ENDBRANCH  75  77
ENDBRANCH  74  75
ENDBRANCH  73  74
ENDBRANCH  72  73
ENDBRANCH  71  72
ENDBRANCH  70  71
ENDBRANCH   1  70
TORSDOF 23
ENDMDL
