MODEL 1
REMARK VINA RESULT:      -6.2      0.000      0.000
REMARK SMILES CC(=O)N[C@H](C(=O)NC1(CC(=O)OCCOCCOCCOC(=O)c2ccc(-c3c4nc(c(-c5ccc(S(=O)(=O)[O-])cc5)c5ccc([nH]5)c(-c5ccc(S(=O)(=O)[O-])cc5)c5nc(c(-c6ccc(S(=O)(=O)[O-])cc6)c6ccc3[nH]6)C=C5)C=C4)cc2)CCC1)C(C)C
REMARK SMILES IDX 17 1 16 2 15 3 14 4 13 5 11 6 12 7 10 8 9 9 85 10 87 11
REMARK SMILES IDX 86 12 8 13 6 14 7 15 5 17 4 18 1 19 2 20 3 21 88 23 89 24
REMARK SMILES IDX 90 25 18 26 19 27 20 28 21 29 22 30 23 31 24 32 25 33 26 34
REMARK SMILES IDX 84 35 27 36 83 37 28 38 29 39 30 40 77 41 31 42 82 43 76 44
REMARK SMILES IDX 78 45 32 46 81 47 75 48 74 49 33 51 63 52 44 53 62 54 45 55
REMARK SMILES IDX 48 56 61 57 79 58 46 59 47 60 60 62 80 63 49 64 34 65 35 66
REMARK SMILES IDX 43 67 36 68 42 69 37 70 38 71 39 72 40 73 41 74 64 75 65 76
REMARK SMILES IDX 73 77 66 78 72 79 67 80 68 81 69 82 70 83 71 84 50 85 51 86
REMARK SMILES IDX 59 87 52 88 58 89 53 90 54 91 55 92 56 93 57 94
REMARK H PARENT 8 16 4 22 78 50 48 61
REMARK Flexibility Score: inf
ROOT
ATOM      1  C   UNL A   1      45.413  27.453  26.316  1.00  0.00     0.188 C 
ENDROOT
BRANCH   1   2
ATOM      2  O   UNL A   1      46.038  28.588  26.913  1.00  0.00    -0.376 OA
BRANCH   2   3
ATOM      3  C   UNL A   1      46.538  28.405  28.239  1.00  0.00     0.202 C 
BRANCH   3   4
ATOM      4  C   UNL A   1      46.135  29.489  29.254  1.00  0.00     0.261 C 
BRANCH   4   5
ATOM      5  O   UNL A   1      44.698  29.640  29.415  1.00  0.00    -0.463 OA
BRANCH   5   6
ATOM      6  C   UNL A   1      44.232  30.906  29.421  1.00  0.00     0.308 C 
ATOM      7  O   UNL A   1      43.083  31.206  29.095  1.00  0.00    -0.252 OA
BRANCH   6   8
ATOM      8  C   UNL A   1      45.162  31.992  29.905  1.00  0.00     0.151 C 
BRANCH   8   9
ATOM      9  C   UNL A   1      44.746  33.300  30.590  1.00  0.00     0.051 C 
ATOM     10  C   UNL A   1      45.880  34.271  31.168  1.00  0.00     0.029 C 
ATOM     11  C   UNL A   1      44.344  33.184  32.110  1.00  0.00     0.029 C 
ATOM     12  C   UNL A   1      45.823  33.461  32.461  1.00  0.00     0.005 C 
BRANCH   9  13
ATOM     13  N   UNL A   1      43.840  34.157  29.751  1.00  0.00    -0.348 N 
ATOM     14  C   UNL A   1      44.198  35.058  28.765  1.00  0.00     0.243 C 
ATOM     15  O   UNL A   1      43.639  36.162  28.782  1.00  0.00    -0.273 OA
ATOM     16  H   UNL A   1      42.875  34.066  29.925  1.00  0.00     0.164 HD
BRANCH  14  17
ATOM     17  C   UNL A   1      45.202  34.716  27.618  1.00  0.00     0.173 C 
BRANCH  17  18
ATOM     18  N   UNL A   1      44.342  34.230  26.526  1.00  0.00    -0.344 N 
ATOM     19  C   UNL A   1      45.463  32.067  26.125  1.00  0.00     0.114 C 
ATOM     20  C   UNL A   1      44.440  33.106  25.763  1.00  0.00     0.217 C 
ATOM     21  O   UNL A   1      43.669  32.958  24.820  1.00  0.00    -0.275 OA
ATOM     22  H   UNL A   1      43.575  34.807  26.315  1.00  0.00     0.164 HD
ENDBRANCH  17  18
BRANCH  17  23
ATOM     23  C   UNL A   1      46.042  35.949  27.182  1.00  0.00     0.015 C 
ATOM     24  C   UNL A   1      46.745  36.591  28.382  1.00  0.00     0.010 C 
ATOM     25  C   UNL A   1      47.137  35.690  26.134  1.00  0.00     0.010 C 
ENDBRANCH  17  23
ENDBRANCH  14  17
ENDBRANCH   9  13
ENDBRANCH   8   9
ENDBRANCH   6   8
ENDBRANCH   5   6
ENDBRANCH   4   5
ENDBRANCH   3   4
ENDBRANCH   2   3
ENDBRANCH   1   2
BRANCH   1  26
ATOM     26  C   UNL A   1      46.325  26.657  25.379  1.00  0.00     0.188 C 
BRANCH  26  27
ATOM     27  O   UNL A   1      45.658  25.581  24.742  1.00  0.00    -0.376 OA
BRANCH  27  28
ATOM     28  C   UNL A   1      46.011  24.235  25.033  1.00  0.00     0.202 C 
BRANCH  28  29
ATOM     29  C   UNL A   1      44.939  23.165  25.319  1.00  0.00     0.261 C 
BRANCH  29  30
ATOM     30  O   UNL A   1      43.652  23.335  24.701  1.00  0.00    -0.460 OA
BRANCH  30  31
ATOM     31  C   UNL A   1      42.575  22.893  25.389  1.00  0.00     0.338 C 
ATOM     32  O   UNL A   1      42.095  21.777  25.327  1.00  0.00    -0.246 OA
BRANCH  31  33
ATOM     33  C   UNL A   1      42.269  23.883  26.456  1.00  0.00     0.060 A 
ATOM     34  C   UNL A   1      42.497  25.223  26.140  1.00  0.00     0.016 A 
ATOM     35  C   UNL A   1      41.726  23.559  27.698  1.00  0.00     0.016 A 
ATOM     36  C   UNL A   1      42.244  26.239  27.048  1.00  0.00     0.010 A 
ATOM     37  C   UNL A   1      41.477  24.582  28.628  1.00  0.00     0.010 A 
ATOM     38  C   UNL A   1      41.765  25.927  28.318  1.00  0.00    -0.014 A 
BRANCH  38  39
ATOM     39  C   UNL A   1      41.781  26.993  29.351  1.00  0.00     0.031 A 
ATOM     40  C   UNL A   1      42.921  27.011  30.333  1.00  0.00     0.074 A 
ATOM     41  C   UNL A   1      40.886  28.001  29.347  1.00  0.00     0.049 A 
ATOM     42  N   UNL A   1      43.108  27.773  31.378  1.00  0.00    -0.248 NA
ATOM     43  C   UNL A   1      43.997  26.031  30.103  1.00  0.00     0.031 C 
ATOM     44  C   UNL A   1      39.818  28.188  28.365  1.00  0.00     0.029 A 
ATOM     45  N   UNL A   1      40.751  29.073  30.195  1.00  0.00    -0.354 N 
ATOM     46  C   UNL A   1      44.298  27.340  31.950  1.00  0.00     0.074 A 
ATOM     47  C   UNL A   1      44.781  26.237  31.150  1.00  0.00     0.031 C 
ATOM     48  C   UNL A   1      39.144  29.313  28.662  1.00  0.00     0.029 A 
ATOM     49  C   UNL A   1      39.688  29.890  29.889  1.00  0.00     0.049 A 
ATOM     50  H   UNL A   1      41.357  29.241  30.952  1.00  0.00     0.167 HD
ATOM     51  C   UNL A   1      44.932  27.818  33.047  1.00  0.00     0.031 A 
ATOM     52  C   UNL A   1      39.187  30.957  30.546  1.00  0.00     0.031 A 
ATOM     53  C   UNL A   1      44.463  28.936  33.820  1.00  0.00     0.049 A 
ATOM     54  C   UNL A   1      39.847  31.408  31.824  1.00  0.00     0.074 A 
ATOM     55  C   UNL A   1      45.019  29.486  34.962  1.00  0.00     0.029 A 
ATOM     56  N   UNL A   1      43.332  29.684  33.526  1.00  0.00    -0.354 N 
ATOM     57  N   UNL A   1      40.926  30.940  32.406  1.00  0.00    -0.248 NA
ATOM     58  C   UNL A   1      39.215  32.525  32.541  1.00  0.00     0.031 C 
ATOM     59  C   UNL A   1      44.189  30.525  35.394  1.00  0.00     0.029 A 
ATOM     60  C   UNL A   1      43.156  30.671  34.482  1.00  0.00     0.049 A 
ATOM     61  H   UNL A   1      42.742  29.535  32.751  1.00  0.00     0.167 HD
ATOM     62  C   UNL A   1      41.117  31.723  33.542  1.00  0.00     0.074 A 
ATOM     63  C   UNL A   1      40.049  32.702  33.556  1.00  0.00     0.031 C 
ATOM     64  C   UNL A   1      42.087  31.639  34.485  1.00  0.00     0.031 A 
BRANCH  51  65
ATOM     65  C   UNL A   1      46.161  27.084  33.513  1.00  0.00    -0.014 A 
ATOM     66  C   UNL A   1      46.116  26.136  34.552  1.00  0.00     0.010 A 
ATOM     67  C   UNL A   1      47.391  27.345  32.879  1.00  0.00     0.010 A 
ATOM     68  C   UNL A   1      47.285  25.495  34.974  1.00  0.00     0.020 A 
ATOM     69  C   UNL A   1      48.555  26.682  33.275  1.00  0.00     0.020 A 
ATOM     70  C   UNL A   1      48.498  25.775  34.334  1.00  0.00     0.054 A 
BRANCH  70  71
ATOM     71  S   UNL A   1      49.996  24.919  34.891  1.00  0.00     0.124 S 
ATOM     72  O   UNL A   1      50.767  26.011  35.479  1.00  0.00    -0.237 OA
ATOM     73  O   UNL A   1      49.472  23.938  35.838  1.00  0.00    -0.237 OA
ATOM     74  O   UNL A   1      50.553  24.357  33.663  1.00  0.00    -0.744 OA
ENDBRANCH  70  71
ENDBRANCH  51  65
BRANCH  52  75
ATOM     75  C   UNL A   1      37.955  31.631  30.044  1.00  0.00    -0.014 A 
ATOM     76  C   UNL A   1      38.026  32.674  29.104  1.00  0.00     0.010 A 
ATOM     77  C   UNL A   1      36.691  31.231  30.519  1.00  0.00     0.010 A 
ATOM     78  C   UNL A   1      36.860  33.307  28.656  1.00  0.00     0.020 A 
ATOM     79  C   UNL A   1      35.523  31.837  30.050  1.00  0.00     0.020 A 
ATOM     80  C   UNL A   1      35.615  32.879  29.127  1.00  0.00     0.054 A 
BRANCH  80  81
ATOM     81  S   UNL A   1      34.113  33.670  28.486  1.00  0.00     0.124 S 
ATOM     82  O   UNL A   1      33.457  32.566  27.793  1.00  0.00    -0.237 OA
ATOM     83  O   UNL A   1      33.456  34.132  29.706  1.00  0.00    -0.237 OA
ATOM     84  O   UNL A   1      34.627  34.733  27.624  1.00  0.00    -0.744 OA
ENDBRANCH  80  81
ENDBRANCH  52  75
BRANCH  64  85
ATOM     85  C   UNL A   1      42.069  32.654  35.599  1.00  0.00    -0.014 A 
ATOM     86  C   UNL A   1      42.724  33.892  35.473  1.00  0.00     0.010 A 
ATOM     87  C   UNL A   1      41.330  32.387  36.766  1.00  0.00     0.010 A 
ATOM     88  C   UNL A   1      42.666  34.830  36.509  1.00  0.00     0.020 A 
ATOM     89  C   UNL A   1      41.243  33.334  37.789  1.00  0.00     0.020 A 
ATOM     90  C   UNL A   1      41.925  34.546  37.660  1.00  0.00     0.054 A 
BRANCH  90  91
ATOM     91  S   UNL A   1      41.830  35.798  38.969  1.00  0.00     0.124 S 
ATOM     92  O   UNL A   1      42.709  36.844  38.453  1.00  0.00    -0.237 OA
ATOM     93  O   UNL A   1      40.407  36.128  38.993  1.00  0.00    -0.237 OA
ATOM     94  O   UNL A   1      42.322  35.100  40.155  1.00  0.00    -0.744 OA
ENDBRANCH  90  91
ENDBRANCH  64  85
ENDBRANCH  38  39
ENDBRANCH  31  33
ENDBRANCH  30  31
ENDBRANCH  29  30
ENDBRANCH  28  29
ENDBRANCH  27  28
ENDBRANCH  26  27
ENDBRANCH   1  26
TORSDOF 25
ENDMDL
MODEL 2
REMARK VINA RESULT:      -6.1      5.886     13.449
REMARK SMILES CC(=O)N[C@H](C(=O)NC1(CC(=O)OCCOCCOCCOC(=O)c2ccc(-c3c4nc(c(-c5ccc(S(=O)(=O)[O-])cc5)c5ccc([nH]5)c(-c5ccc(S(=O)(=O)[O-])cc5)c5nc(c(-c6ccc(S(=O)(=O)[O-])cc6)c6ccc3[nH]6)C=C5)C=C4)cc2)CCC1)C(C)C
REMARK SMILES IDX 17 1 16 2 15 3 14 4 13 5 11 6 12 7 10 8 9 9 85 10 87 11
REMARK SMILES IDX 86 12 8 13 6 14 7 15 5 17 4 18 1 19 2 20 3 21 88 23 89 24
REMARK SMILES IDX 90 25 18 26 19 27 20 28 21 29 22 30 23 31 24 32 25 33 26 34
REMARK SMILES IDX 84 35 27 36 83 37 28 38 29 39 30 40 77 41 31 42 82 43 76 44
REMARK SMILES IDX 78 45 32 46 81 47 75 48 74 49 33 51 63 52 44 53 62 54 45 55
REMARK SMILES IDX 48 56 61 57 79 58 46 59 47 60 60 62 80 63 49 64 34 65 35 66
REMARK SMILES IDX 43 67 36 68 42 69 37 70 38 71 39 72 40 73 41 74 64 75 65 76
REMARK SMILES IDX 73 77 66 78 72 79 67 80 68 81 69 82 70 83 71 84 50 85 51 86
REMARK SMILES IDX 59 87 52 88 58 89 53 90 54 91 55 92 56 93 57 94
REMARK H PARENT 8 16 4 22 78 50 48 61
REMARK Flexibility Score: inf
ROOT
ATOM      1  C   UNL A   1      47.836  41.598  29.391  1.00  0.00     0.188 C 
ENDROOT
BRANCH   1   2
ATOM      2  O   UNL A   1      47.880  42.084  28.052  1.00  0.00    -0.376 OA
BRANCH   2   3
ATOM      3  C   UNL A   1      46.894  43.060  27.705  1.00  0.00     0.202 C 
BRANCH   3   4
ATOM      4  C   UNL A   1      46.253  42.887  26.318  1.00  0.00     0.261 C 
BRANCH   4   5
ATOM      5  O   UNL A   1      44.942  43.503  26.193  1.00  0.00    -0.463 OA
BRANCH   5   6
ATOM      6  C   UNL A   1      44.856  44.550  25.347  1.00  0.00     0.308 C 
ATOM      7  O   UNL A   1      45.479  45.601  25.504  1.00  0.00    -0.252 OA
BRANCH   6   8
ATOM      8  C   UNL A   1      43.989  44.390  24.122  1.00  0.00     0.151 C 
BRANCH   8   9
ATOM      9  C   UNL A   1      43.668  43.070  23.408  1.00  0.00     0.051 C 
ATOM     10  C   UNL A   1      42.531  43.051  22.282  1.00  0.00     0.029 C 
ATOM     11  C   UNL A   1      42.668  42.107  24.158  1.00  0.00     0.029 C 
ATOM     12  C   UNL A   1      41.519  42.808  23.399  1.00  0.00     0.005 C 
BRANCH   9  13
ATOM     13  N   UNL A   1      44.872  42.401  22.809  1.00  0.00    -0.348 N 
ATOM     14  C   UNL A   1      45.404  42.588  21.545  1.00  0.00     0.243 C 
ATOM     15  O   UNL A   1      45.720  41.571  20.912  1.00  0.00    -0.273 OA
ATOM     16  H   UNL A   1      45.339  41.752  23.383  1.00  0.00     0.164 HD
BRANCH  14  17
ATOM     17  C   UNL A   1      45.683  43.998  20.934  1.00  0.00     0.173 C 
BRANCH  17  18
ATOM     18  N   UNL A   1      47.152  44.068  20.858  1.00  0.00    -0.344 N 
ATOM     19  C   UNL A   1      47.486  46.083  22.244  1.00  0.00     0.114 C 
ATOM     20  C   UNL A   1      48.014  45.003  21.343  1.00  0.00     0.217 C 
ATOM     21  O   UNL A   1      49.206  44.920  21.058  1.00  0.00    -0.275 OA
ATOM     22  H   UNL A   1      47.578  43.321  20.381  1.00  0.00     0.164 HD
ENDBRANCH  17  18
BRANCH  17  23
ATOM     23  C   UNL A   1      45.025  44.176  19.537  1.00  0.00     0.015 C 
ATOM     24  C   UNL A   1      43.622  43.564  19.505  1.00  0.00     0.010 C 
ATOM     25  C   UNL A   1      44.873  45.622  19.037  1.00  0.00     0.010 C 
ENDBRANCH  17  23
ENDBRANCH  14  17
ENDBRANCH   9  13
ENDBRANCH   8   9
ENDBRANCH   6   8
ENDBRANCH   5   6
ENDBRANCH   4   5
ENDBRANCH   3   4
ENDBRANCH   2   3
ENDBRANCH   1   2
BRANCH   1  26
ATOM     26  C   UNL A   1      46.481  41.782  30.081  1.00  0.00     0.188 C 
BRANCH  26  27
ATOM     27  O   UNL A   1      45.796  40.559  30.284  1.00  0.00    -0.376 OA
BRANCH  27  28
ATOM     28  C   UNL A   1      45.155  39.898  29.201  1.00  0.00     0.202 C 
BRANCH  28  29
ATOM     29  C   UNL A   1      45.660  38.542  28.673  1.00  0.00     0.261 C 
BRANCH  29  30
ATOM     30  O   UNL A   1      45.812  37.475  29.626  1.00  0.00    -0.460 OA
BRANCH  30  31
ATOM     31  C   UNL A   1      47.044  36.931  29.749  1.00  0.00     0.338 C 
ATOM     32  O   UNL A   1      48.021  37.473  30.232  1.00  0.00    -0.246 OA
BRANCH  31  33
ATOM     33  C   UNL A   1      46.934  35.471  29.490  1.00  0.00     0.060 A 
ATOM     34  C   UNL A   1      46.579  35.098  28.193  1.00  0.00     0.016 A 
ATOM     35  C   UNL A   1      47.215  34.481  30.431  1.00  0.00     0.016 A 
ATOM     36  C   UNL A   1      46.450  33.767  27.827  1.00  0.00     0.010 A 
ATOM     37  C   UNL A   1      47.077  33.130  30.070  1.00  0.00     0.010 A 
ATOM     38  C   UNL A   1      46.663  32.767  28.772  1.00  0.00    -0.014 A 
BRANCH  38  39
ATOM     39  C   UNL A   1      46.238  31.385  28.433  1.00  0.00     0.031 A 
ATOM     40  C   UNL A   1      44.801  31.007  28.668  1.00  0.00     0.074 A 
ATOM     41  C   UNL A   1      47.064  30.521  27.811  1.00  0.00     0.049 A 
ATOM     42  N   UNL A   1      44.215  29.846  28.545  1.00  0.00    -0.248 NA
ATOM     43  C   UNL A   1      43.904  32.091  29.103  1.00  0.00     0.031 C 
ATOM     44  C   UNL A   1      48.437  30.805  27.391  1.00  0.00     0.029 A 
ATOM     45  N   UNL A   1      46.853  29.225  27.405  1.00  0.00    -0.354 N 
ATOM     46  C   UNL A   1      42.894  30.050  28.924  1.00  0.00     0.074 A 
ATOM     47  C   UNL A   1      42.767  31.440  29.300  1.00  0.00     0.031 C 
ATOM     48  C   UNL A   1      48.940  29.719  26.778  1.00  0.00     0.029 A 
ATOM     49  C   UNL A   1      47.953  28.643  26.820  1.00  0.00     0.049 A 
ATOM     50  H   UNL A   1      45.995  28.757  27.522  1.00  0.00     0.167 HD
ATOM     51  C   UNL A   1      41.876  29.158  28.958  1.00  0.00     0.031 A 
ATOM     52  C   UNL A   1      48.154  27.375  26.403  1.00  0.00     0.031 A 
ATOM     53  C   UNL A   1      42.001  27.783  28.553  1.00  0.00     0.049 A 
ATOM     54  C   UNL A   1      47.039  26.370  26.548  1.00  0.00     0.074 A 
ATOM     55  C   UNL A   1      41.037  26.791  28.569  1.00  0.00     0.029 A 
ATOM     56  N   UNL A   1      43.159  27.209  28.046  1.00  0.00    -0.354 N 
ATOM     57  N   UNL A   1      45.816  26.550  26.987  1.00  0.00    -0.248 NA
ATOM     58  C   UNL A   1      47.337  24.985  26.152  1.00  0.00     0.031 C 
ATOM     59  C   UNL A   1      41.629  25.601  28.134  1.00  0.00     0.029 A 
ATOM     60  C   UNL A   1      42.941  25.868  27.777  1.00  0.00     0.049 A 
ATOM     61  H   UNL A   1      44.008  27.685  27.900  1.00  0.00     0.167 HD
ATOM     62  C   UNL A   1      45.191  25.310  26.893  1.00  0.00     0.074 A 
ATOM     63  C   UNL A   1      46.167  24.392  26.344  1.00  0.00     0.031 C 
ATOM     64  C   UNL A   1      43.923  24.964  27.231  1.00  0.00     0.031 A 
BRANCH  51  65
ATOM     65  C   UNL A   1      40.560  29.627  29.520  1.00  0.00    -0.014 A 
ATOM     66  C   UNL A   1      40.279  29.585  30.898  1.00  0.00     0.010 A 
ATOM     67  C   UNL A   1      39.587  30.135  28.639  1.00  0.00     0.010 A 
ATOM     68  C   UNL A   1      39.035  30.006  31.378  1.00  0.00     0.020 A 
ATOM     69  C   UNL A   1      38.355  30.587  29.118  1.00  0.00     0.020 A 
ATOM     70  C   UNL A   1      38.080  30.501  30.483  1.00  0.00     0.054 A 
BRANCH  70  71
ATOM     71  S   UNL A   1      36.479  31.053  31.133  1.00  0.00     0.124 S 
ATOM     72  O   UNL A   1      36.221  30.067  32.179  1.00  0.00    -0.237 OA
ATOM     73  O   UNL A   1      36.772  32.406  31.602  1.00  0.00    -0.237 OA
ATOM     74  O   UNL A   1      35.589  30.979  29.976  1.00  0.00    -0.744 OA
ENDBRANCH  70  71
ENDBRANCH  51  65
BRANCH  52  75
ATOM     75  C   UNL A   1      49.486  26.966  25.872  1.00  0.00    -0.014 A 
ATOM     76  C   UNL A   1      50.409  26.272  26.675  1.00  0.00     0.010 A 
ATOM     77  C   UNL A   1      49.843  27.281  24.547  1.00  0.00     0.010 A 
ATOM     78  C   UNL A   1      51.661  25.910  26.165  1.00  0.00     0.020 A 
ATOM     79  C   UNL A   1      51.079  26.892  24.024  1.00  0.00     0.020 A 
ATOM     80  C   UNL A   1      51.985  26.216  24.841  1.00  0.00     0.054 A 
BRANCH  80  81
ATOM     81  S   UNL A   1      53.589  25.682  24.182  1.00  0.00     0.124 S 
ATOM     82  O   UNL A   1      53.658  24.294  24.630  1.00  0.00    -0.237 OA
ATOM     83  O   UNL A   1      53.418  25.874  22.744  1.00  0.00    -0.237 OA
ATOM     84  O   UNL A   1      54.541  26.592  24.815  1.00  0.00    -0.744 OA
ENDBRANCH  80  81
ENDBRANCH  52  75
BRANCH  64  85
ATOM     85  C   UNL A   1      43.499  23.539  26.983  1.00  0.00    -0.014 A 
ATOM     86  C   UNL A   1      43.123  22.692  28.041  1.00  0.00     0.010 A 
ATOM     87  C   UNL A   1      43.414  23.063  25.662  1.00  0.00     0.010 A 
ATOM     88  C   UNL A   1      42.703  21.383  27.781  1.00  0.00     0.020 A 
ATOM     89  C   UNL A   1      42.965  21.767  25.397  1.00  0.00     0.020 A 
ATOM     90  C   UNL A   1      42.625  20.929  26.461  1.00  0.00     0.054 A 
BRANCH  90  91
ATOM     91  S   UNL A   1      42.035  19.243  26.150  1.00  0.00     0.124 S 
ATOM     92  O   UNL A   1      42.775  18.879  24.945  1.00  0.00    -0.237 OA
ATOM     93  O   UNL A   1      42.429  18.537  27.366  1.00  0.00    -0.237 OA
ATOM     94  O   UNL A   1      40.594  19.405  25.971  1.00  0.00    -0.744 OA
ENDBRANCH  90  91
ENDBRANCH  64  85
ENDBRANCH  38  39
ENDBRANCH  31  33
ENDBRANCH  30  31
ENDBRANCH  29  30
ENDBRANCH  28  29
ENDBRANCH  27  28
ENDBRANCH  26  27
ENDBRANCH   1  26
TORSDOF 25
ENDMDL
MODEL 3
REMARK VINA RESULT:      -6.0      7.731     11.438
REMARK SMILES CC(=O)N[C@H](C(=O)NC1(CC(=O)OCCOCCOCCOC(=O)c2ccc(-c3c4nc(c(-c5ccc(S(=O)(=O)[O-])cc5)c5ccc([nH]5)c(-c5ccc(S(=O)(=O)[O-])cc5)c5nc(c(-c6ccc(S(=O)(=O)[O-])cc6)c6ccc3[nH]6)C=C5)C=C4)cc2)CCC1)C(C)C
REMARK SMILES IDX 17 1 16 2 15 3 14 4 13 5 11 6 12 7 10 8 9 9 85 10 87 11
REMARK SMILES IDX 86 12 8 13 6 14 7 15 5 17 4 18 1 19 2 20 3 21 88 23 89 24
REMARK SMILES IDX 90 25 18 26 19 27 20 28 21 29 22 30 23 31 24 32 25 33 26 34
REMARK SMILES IDX 84 35 27 36 83 37 28 38 29 39 30 40 77 41 31 42 82 43 76 44
REMARK SMILES IDX 78 45 32 46 81 47 75 48 74 49 33 51 63 52 44 53 62 54 45 55
REMARK SMILES IDX 48 56 61 57 79 58 46 59 47 60 60 62 80 63 49 64 34 65 35 66
REMARK SMILES IDX 43 67 36 68 42 69 37 70 38 71 39 72 40 73 41 74 64 75 65 76
REMARK SMILES IDX 73 77 66 78 72 79 67 80 68 81 69 82 70 83 71 84 50 85 51 86
REMARK SMILES IDX 59 87 52 88 58 89 53 90 54 91 55 92 56 93 57 94
REMARK H PARENT 8 16 4 22 78 50 48 61
REMARK Flexibility Score: inf
ROOT
ATOM      1  C   UNL A   1      43.722  44.403  23.757  1.00  0.00     0.188 C 
ENDROOT
BRANCH   1   2
ATOM      2  O   UNL A   1      43.374  43.487  22.721  1.00  0.00    -0.376 OA
BRANCH   2   3
ATOM      3  C   UNL A   1      42.093  43.680  22.116  1.00  0.00     0.202 C 
BRANCH   3   4
ATOM      4  C   UNL A   1      41.825  42.844  20.853  1.00  0.00     0.261 C 
BRANCH   4   5
ATOM      5  O   UNL A   1      43.003  42.625  20.031  1.00  0.00    -0.463 OA
BRANCH   5   6
ATOM      6  C   UNL A   1      43.617  43.732  19.564  1.00  0.00     0.308 C 
ATOM      7  O   UNL A   1      44.814  43.964  19.731  1.00  0.00    -0.252 OA
BRANCH   6   8
ATOM      8  C   UNL A   1      42.790  44.700  18.753  1.00  0.00     0.151 C 
BRANCH   8   9
ATOM      9  C   UNL A   1      43.195  45.337  17.417  1.00  0.00     0.051 C 
ATOM     10  C   UNL A   1      42.302  46.522  16.818  1.00  0.00     0.029 C 
ATOM     11  C   UNL A   1      42.714  44.580  16.120  1.00  0.00     0.029 C 
ATOM     12  C   UNL A   1      41.438  45.450  16.158  1.00  0.00     0.005 C 
BRANCH   9  13
ATOM     13  N   UNL A   1      44.618  45.819  17.387  1.00  0.00    -0.348 N 
ATOM     14  C   UNL A   1      45.089  47.089  17.668  1.00  0.00     0.243 C 
ATOM     15  O   UNL A   1      45.922  47.565  16.886  1.00  0.00    -0.273 OA
ATOM     16  H   UNL A   1      45.296  45.151  17.137  1.00  0.00     0.164 HD
BRANCH  14  17
ATOM     17  C   UNL A   1      44.675  47.892  18.942  1.00  0.00     0.173 C 
BRANCH  17  18
ATOM     18  N   UNL A   1      45.957  48.249  19.571  1.00  0.00    -0.344 N 
ATOM     19  C   UNL A   1      45.902  46.634  21.437  1.00  0.00     0.114 C 
ATOM     20  C   UNL A   1      46.531  47.793  20.719  1.00  0.00     0.217 C 
ATOM     21  O   UNL A   1      47.565  48.322  21.118  1.00  0.00    -0.275 OA
ATOM     22  H   UNL A   1      46.484  48.922  19.084  1.00  0.00     0.164 HD
ENDBRANCH  17  18
BRANCH  17  23
ATOM     23  C   UNL A   1      43.833  49.153  18.596  1.00  0.00     0.015 C 
ATOM     24  C   UNL A   1      43.771  50.119  19.783  1.00  0.00     0.010 C 
ATOM     25  C   UNL A   1      44.314  49.982  17.394  1.00  0.00     0.010 C 
ENDBRANCH  17  23
ENDBRANCH  14  17
ENDBRANCH   9  13
ENDBRANCH   8   9
ENDBRANCH   6   8
ENDBRANCH   5   6
ENDBRANCH   4   5
ENDBRANCH   3   4
ENDBRANCH   2   3
ENDBRANCH   1   2
BRANCH   1  26
ATOM     26  C   UNL A   1      44.859  43.921  24.663  1.00  0.00     0.188 C 
BRANCH  26  27
ATOM     27  O   UNL A   1      45.993  43.478  23.939  1.00  0.00    -0.376 OA
BRANCH  27  28
ATOM     28  C   UNL A   1      46.593  42.223  24.228  1.00  0.00     0.202 C 
BRANCH  28  29
ATOM     29  C   UNL A   1      46.854  41.768  25.677  1.00  0.00     0.261 C 
BRANCH  29  30
ATOM     30  O   UNL A   1      46.246  40.537  26.104  1.00  0.00    -0.460 OA
BRANCH  30  31
ATOM     31  C   UNL A   1      46.827  39.387  25.691  1.00  0.00     0.338 C 
ATOM     32  O   UNL A   1      47.857  39.296  25.051  1.00  0.00    -0.246 OA
BRANCH  31  33
ATOM     33  C   UNL A   1      46.178  38.257  26.407  1.00  0.00     0.060 A 
ATOM     34  C   UNL A   1      45.623  38.552  27.653  1.00  0.00     0.016 A 
ATOM     35  C   UNL A   1      46.046  36.970  25.890  1.00  0.00     0.016 A 
ATOM     36  C   UNL A   1      44.985  37.585  28.414  1.00  0.00     0.010 A 
ATOM     37  C   UNL A   1      45.409  35.981  26.660  1.00  0.00     0.010 A 
ATOM     38  C   UNL A   1      44.903  36.277  27.941  1.00  0.00    -0.014 A 
BRANCH  38  39
ATOM     39  C   UNL A   1      44.480  35.217  28.892  1.00  0.00     0.031 A 
ATOM     40  C   UNL A   1      45.543  34.527  29.702  1.00  0.00     0.074 A 
ATOM     41  C   UNL A   1      43.180  34.957  29.134  1.00  0.00     0.049 A 
ATOM     42  N   UNL A   1      45.440  33.512  30.519  1.00  0.00    -0.248 NA
ATOM     43  C   UNL A   1      46.912  35.055  29.569  1.00  0.00     0.031 C 
ATOM     44  C   UNL A   1      42.044  35.652  28.528  1.00  0.00     0.029 A 
ATOM     45  N   UNL A   1      42.599  34.042  29.977  1.00  0.00    -0.354 N 
ATOM     46  C   UNL A   1      46.731  33.256  30.965  1.00  0.00     0.074 A 
ATOM     47  C   UNL A   1      47.604  34.208  30.315  1.00  0.00     0.031 C 
ATOM     48  C   UNL A   1      40.904  35.145  29.028  1.00  0.00     0.029 A 
ATOM     49  C   UNL A   1      41.225  34.046  29.936  1.00  0.00     0.049 A 
ATOM     50  H   UNL A   1      43.117  33.437  30.556  1.00  0.00     0.167 HD
ATOM     51  C   UNL A   1      47.152  32.311  31.838  1.00  0.00     0.031 A 
ATOM     52  C   UNL A   1      40.328  33.232  30.532  1.00  0.00     0.031 A 
ATOM     53  C   UNL A   1      46.274  31.388  32.506  1.00  0.00     0.049 A 
ATOM     54  C   UNL A   1      40.826  32.118  31.418  1.00  0.00     0.074 A 
ATOM     55  C   UNL A   1      46.602  30.377  33.392  1.00  0.00     0.029 A 
ATOM     56  N   UNL A   1      44.893  31.370  32.370  1.00  0.00    -0.354 N 
ATOM     57  N   UNL A   1      42.056  31.829  31.771  1.00  0.00    -0.248 NA
ATOM     58  C   UNL A   1      39.812  31.212  31.980  1.00  0.00     0.031 C 
ATOM     59  C   UNL A   1      45.426  29.706  33.742  1.00  0.00     0.029 A 
ATOM     60  C   UNL A   1      44.357  30.345  33.132  1.00  0.00     0.049 A 
ATOM     61  H   UNL A   1      44.372  31.994  31.815  1.00  0.00     0.167 HD
ATOM     62  C   UNL A   1      41.962  30.726  32.615  1.00  0.00     0.074 A 
ATOM     63  C   UNL A   1      40.553  30.409  32.731  1.00  0.00     0.031 C 
ATOM     64  C   UNL A   1      42.952  30.039  33.238  1.00  0.00     0.031 A 
BRANCH  51  65
ATOM     65  C   UNL A   1      48.636  32.185  32.062  1.00  0.00    -0.014 A 
ATOM     66  C   UNL A   1      49.448  31.380  31.242  1.00  0.00     0.010 A 
ATOM     67  C   UNL A   1      49.229  32.906  33.115  1.00  0.00     0.010 A 
ATOM     68  C   UNL A   1      50.819  31.268  31.499  1.00  0.00     0.020 A 
ATOM     69  C   UNL A   1      50.603  32.823  33.354  1.00  0.00     0.020 A 
ATOM     70  C   UNL A   1      51.386  31.989  32.556  1.00  0.00     0.054 A 
BRANCH  70  71
ATOM     71  S   UNL A   1      53.167  31.837  32.859  1.00  0.00     0.124 S 
ATOM     72  O   UNL A   1      53.491  33.145  33.423  1.00  0.00    -0.237 OA
ATOM     73  O   UNL A   1      53.240  30.715  33.791  1.00  0.00    -0.237 OA
ATOM     74  O   UNL A   1      53.725  31.577  31.533  1.00  0.00    -0.744 OA
ENDBRANCH  70  71
ENDBRANCH  51  65
BRANCH  52  75
ATOM     75  C   UNL A   1      38.872  33.396  30.257  1.00  0.00    -0.014 A 
ATOM     76  C   UNL A   1      38.042  34.124  31.127  1.00  0.00     0.010 A 
ATOM     77  C   UNL A   1      38.303  32.808  29.111  1.00  0.00     0.010 A 
ATOM     78  C   UNL A   1      36.674  34.254  30.861  1.00  0.00     0.020 A 
ATOM     79  C   UNL A   1      36.944  32.963  28.824  1.00  0.00     0.020 A 
ATOM     80  C   UNL A   1      36.135  33.679  29.707  1.00  0.00     0.054 A 
BRANCH  80  81
ATOM     81  S   UNL A   1      34.371  33.912  29.349  1.00  0.00     0.124 S 
ATOM     82  O   UNL A   1      34.393  35.052  28.437  1.00  0.00    -0.237 OA
ATOM     83  O   UNL A   1      34.000  32.632  28.752  1.00  0.00    -0.237 OA
ATOM     84  O   UNL A   1      33.786  34.171  30.662  1.00  0.00    -0.744 OA
ENDBRANCH  80  81
ENDBRANCH  52  75
BRANCH  64  85
ATOM     85  C   UNL A   1      42.552  28.896  34.135  1.00  0.00    -0.014 A 
ATOM     86  C   UNL A   1      42.503  27.574  33.660  1.00  0.00     0.010 A 
ATOM     87  C   UNL A   1      42.282  29.146  35.493  1.00  0.00     0.010 A 
ATOM     88  C   UNL A   1      42.159  26.526  34.521  1.00  0.00     0.020 A 
ATOM     89  C   UNL A   1      41.969  28.099  36.363  1.00  0.00     0.020 A 
ATOM     90  C   UNL A   1      41.895  26.796  35.867  1.00  0.00     0.054 A 
BRANCH  90  91
ATOM     91  S   UNL A   1      41.495  25.413  36.972  1.00  0.00     0.124 S 
ATOM     92  O   UNL A   1      42.746  25.238  37.705  1.00  0.00    -0.237 OA
ATOM     93  O   UNL A   1      40.378  25.941  37.752  1.00  0.00    -0.237 OA
ATOM     94  O   UNL A   1      41.150  24.326  36.059  1.00  0.00    -0.744 OA
ENDBRANCH  90  91
ENDBRANCH  64  85
ENDBRANCH  38  39
ENDBRANCH  31  33
ENDBRANCH  30  31
ENDBRANCH  29  30
ENDBRANCH  28  29
ENDBRANCH  27  28
ENDBRANCH  26  27
ENDBRANCH   1  26
TORSDOF 25
ENDMDL
