MODEL 1
REMARK VINA RESULT:     -11.2      0.000      0.000
REMARK SMILES O=C(OCCOCCOCCOC(=O)c1cc2c(Cl)c(C(F)(F)F)cnc2n1S(=O)(=O)c1ccccc1)c1ccc(-c2c3nc(c(-c4ccc(S(=O)(=O)[O-])cc4)c4ccc([nH]4)c(-c4ccc(S(=O)(=O)[O-])cc4)c4nc(c(-c5ccc(S(=O)(=O)[O-])cc5)c5ccc2[nH]5)C=C4)C=C3)cc1
REMARK SMILES IDX 7 1 6 2 5 3 4 4 3 5 2 6 1 7 38 8 39 9 97 10 40 11 96 12
REMARK SMILES IDX 41 13 42 14 43 15 90 16 44 17 95 18 89 19 91 20 45 21 94 22
REMARK SMILES IDX 88 23 87 24 46 26 76 27 57 28 75 29 58 30 61 31 74 32 92 33
REMARK SMILES IDX 59 34 60 35 73 37 93 38 62 39 47 40 48 41 56 42 49 43 55 44
REMARK SMILES IDX 50 45 51 46 52 47 53 48 54 49 77 50 78 51 86 52 79 53 85 54
REMARK SMILES IDX 80 55 81 56 82 57 83 58 84 59 63 60 64 61 72 62 65 63 71 64
REMARK SMILES IDX 66 65 67 66 68 67 69 68 70 69 8 70 9 71 10 72 11 73 12 74
REMARK SMILES IDX 13 75 14 76 15 77 16 78 28 79 17 80 27 81 18 82 26 83 19 84
REMARK SMILES IDX 20 85 25 86 29 87 30 88 31 89 32 90 33 91 37 92 34 93 36 94
REMARK SMILES IDX 35 95 21 96 22 97 23 98 24 99
REMARK H PARENT 91 25 61 36
REMARK Flexibility Score: inf
ROOT
ATOM      1  C   UNL A   1      32.890  33.275  27.695  1.00  0.00     0.188 C 
ENDROOT
BRANCH   1   2
ATOM      2  O   UNL A   1      32.569  34.408  28.506  1.00  0.00    -0.376 OA
BRANCH   2   3
ATOM      3  C   UNL A   1      33.597  35.283  28.952  1.00  0.00     0.202 C 
BRANCH   3   4
ATOM      4  C   UNL A   1      33.892  35.176  30.449  1.00  0.00     0.261 C 
BRANCH   4   5
ATOM      5  O   UNL A   1      33.947  33.812  30.912  1.00  0.00    -0.460 OA
BRANCH   5   6
ATOM      6  C   UNL A   1      34.856  33.347  31.800  1.00  0.00     0.338 C 
ATOM      7  O   UNL A   1      34.644  33.410  33.008  1.00  0.00    -0.246 OA
BRANCH   6   8
ATOM      8  C   UNL A   1      35.982  32.515  31.311  1.00  0.00     0.060 A 
ATOM      9  C   UNL A   1      35.972  31.121  31.242  1.00  0.00     0.016 A 
ATOM     10  C   UNL A   1      37.122  33.217  30.888  1.00  0.00     0.016 A 
ATOM     11  C   UNL A   1      37.137  30.434  30.954  1.00  0.00     0.010 A 
ATOM     12  C   UNL A   1      38.280  32.533  30.550  1.00  0.00     0.010 A 
ATOM     13  C   UNL A   1      38.301  31.144  30.669  1.00  0.00    -0.014 A 
BRANCH  13  14
ATOM     14  C   UNL A   1      39.530  30.373  30.581  1.00  0.00     0.031 A 
ATOM     15  C   UNL A   1      40.368  30.271  31.801  1.00  0.00     0.074 A 
ATOM     16  C   UNL A   1      39.876  29.736  29.447  1.00  0.00     0.049 A 
ATOM     17  N   UNL A   1      41.598  30.642  31.966  1.00  0.00    -0.248 NA
ATOM     18  C   UNL A   1      39.733  29.708  33.002  1.00  0.00     0.031 C 
ATOM     19  C   UNL A   1      39.033  29.506  28.270  1.00  0.00     0.029 A 
ATOM     20  N   UNL A   1      41.017  29.049  29.161  1.00  0.00    -0.354 N 
ATOM     21  C   UNL A   1      41.954  30.195  33.233  1.00  0.00     0.074 A 
ATOM     22  C   UNL A   1      40.745  29.723  33.866  1.00  0.00     0.031 C 
ATOM     23  C   UNL A   1      39.595  28.541  27.515  1.00  0.00     0.029 A 
ATOM     24  C   UNL A   1      40.882  28.182  28.089  1.00  0.00     0.049 A 
ATOM     25  H   UNL A   1      41.855  29.158  29.667  1.00  0.00     0.167 HD
ATOM     26  C   UNL A   1      43.243  30.029  33.635  1.00  0.00     0.031 A 
ATOM     27  C   UNL A   1      41.713  27.165  27.767  1.00  0.00     0.031 A 
ATOM     28  C   UNL A   1      44.204  30.702  32.813  1.00  0.00     0.049 A 
ATOM     29  C   UNL A   1      43.029  27.437  28.395  1.00  0.00     0.074 A 
ATOM     30  C   UNL A   1      44.452  32.015  32.474  1.00  0.00     0.029 A 
ATOM     31  N   UNL A   1      44.936  29.937  31.939  1.00  0.00    -0.354 N 
ATOM     32  N   UNL A   1      43.815  28.423  28.057  1.00  0.00    -0.248 NA
ATOM     33  C   UNL A   1      43.360  26.785  29.653  1.00  0.00     0.031 C 
ATOM     34  C   UNL A   1      44.983  31.973  31.153  1.00  0.00     0.029 A 
ATOM     35  C   UNL A   1      45.024  30.634  30.758  1.00  0.00     0.049 A 
ATOM     36  H   UNL A   1      45.327  29.053  32.123  1.00  0.00     0.167 HD
ATOM     37  C   UNL A   1      44.491  28.759  29.220  1.00  0.00     0.074 A 
ATOM     38  C   UNL A   1      44.275  27.637  30.122  1.00  0.00     0.031 C 
ATOM     39  C   UNL A   1      44.936  30.031  29.442  1.00  0.00     0.031 A 
BRANCH  26  40
ATOM     40  C   UNL A   1      43.616  28.938  34.594  1.00  0.00    -0.014 A 
ATOM     41  C   UNL A   1      43.457  27.586  34.251  1.00  0.00     0.010 A 
ATOM     42  C   UNL A   1      43.920  29.244  35.939  1.00  0.00     0.010 A 
ATOM     43  C   UNL A   1      43.627  26.581  35.214  1.00  0.00     0.020 A 
ATOM     44  C   UNL A   1      44.126  28.252  36.894  1.00  0.00     0.020 A 
ATOM     45  C   UNL A   1      43.964  26.923  36.528  1.00  0.00     0.054 A 
BRANCH  45  46
ATOM     46  S   UNL A   1      44.143  25.616  37.770  1.00  0.00     0.124 S 
ATOM     47  O   UNL A   1      43.750  26.307  38.994  1.00  0.00    -0.237 OA
ATOM     48  O   UNL A   1      43.211  24.601  37.287  1.00  0.00    -0.237 OA
ATOM     49  O   UNL A   1      45.554  25.249  37.681  1.00  0.00    -0.744 OA
ENDBRANCH  45  46
ENDBRANCH  26  40
BRANCH  27  50
ATOM     50  C   UNL A   1      41.312  25.829  27.252  1.00  0.00    -0.014 A 
ATOM     51  C   UNL A   1      42.169  25.102  26.406  1.00  0.00     0.010 A 
ATOM     52  C   UNL A   1      40.201  25.147  27.797  1.00  0.00     0.010 A 
ATOM     53  C   UNL A   1      41.961  23.733  26.174  1.00  0.00     0.020 A 
ATOM     54  C   UNL A   1      39.975  23.790  27.552  1.00  0.00     0.020 A 
ATOM     55  C   UNL A   1      40.879  23.081  26.771  1.00  0.00     0.054 A 
BRANCH  55  56
ATOM     56  S   UNL A   1      40.716  21.282  26.603  1.00  0.00     0.124 S 
ATOM     57  O   UNL A   1      39.414  21.143  25.958  1.00  0.00    -0.237 OA
ATOM     58  O   UNL A   1      41.872  20.945  25.778  1.00  0.00    -0.237 OA
ATOM     59  O   UNL A   1      40.777  20.799  27.983  1.00  0.00    -0.744 OA
ENDBRANCH  55  56
ENDBRANCH  27  50
BRANCH  39  60
ATOM     60  C   UNL A   1      45.027  30.976  28.268  1.00  0.00    -0.014 A 
ATOM     61  C   UNL A   1      43.932  31.259  27.430  1.00  0.00     0.010 A 
ATOM     62  C   UNL A   1      46.204  31.734  28.117  1.00  0.00     0.010 A 
ATOM     63  C   UNL A   1      44.013  32.273  26.466  1.00  0.00     0.020 A 
ATOM     64  C   UNL A   1      46.285  32.756  27.166  1.00  0.00     0.020 A 
ATOM     65  C   UNL A   1      45.185  33.025  26.349  1.00  0.00     0.054 A 
BRANCH  65  66
ATOM     66  S   UNL A   1      45.240  34.395  25.159  1.00  0.00     0.124 S 
ATOM     67  O   UNL A   1      44.731  33.781  23.936  1.00  0.00    -0.237 OA
ATOM     68  O   UNL A   1      44.363  35.388  25.776  1.00  0.00    -0.237 OA
ATOM     69  O   UNL A   1      46.654  34.768  25.119  1.00  0.00    -0.744 OA
ENDBRANCH  65  66
ENDBRANCH  39  60
ENDBRANCH  13  14
ENDBRANCH   6   8
ENDBRANCH   5   6
ENDBRANCH   4   5
ENDBRANCH   3   4
ENDBRANCH   2   3
ENDBRANCH   1   2
BRANCH   1  70
ATOM     70  C   UNL A   1      31.771  32.384  27.130  1.00  0.00     0.188 C 
BRANCH  70  71
ATOM     71  O   UNL A   1      32.153  31.160  26.501  1.00  0.00    -0.376 OA
BRANCH  71  72
ATOM     72  C   UNL A   1      32.803  30.172  27.293  1.00  0.00     0.202 C 
BRANCH  72  73
ATOM     73  C   UNL A   1      32.155  28.796  27.202  1.00  0.00     0.261 C 
BRANCH  73  74
ATOM     74  O   UNL A   1      32.098  28.360  25.835  1.00  0.00    -0.459 OA
BRANCH  74  75
ATOM     75  C   UNL A   1      33.268  27.989  25.264  1.00  0.00     0.356 C 
ATOM     76  O   UNL A   1      34.221  28.713  25.034  1.00  0.00    -0.244 OA
BRANCH  75  77
ATOM     77  C   UNL A   1      33.271  26.564  25.072  1.00  0.00     0.145 A 
ATOM     78  C   UNL A   1      33.535  25.593  26.026  1.00  0.00     0.048 A 
ATOM     79  N   UNL A   1      33.072  25.901  23.878  1.00  0.00    -0.209 N 
ATOM     80  C   UNL A   1      33.529  24.323  25.387  1.00  0.00     0.040 A 
ATOM     81  C   UNL A   1      33.249  24.549  24.040  1.00  0.00     0.156 A 
ATOM     82  C   UNL A   1      33.749  22.986  25.768  1.00  0.00     0.065 A 
ATOM     83  N   UNL A   1      33.207  23.603  23.083  1.00  0.00    -0.237 NA
ATOM     84  Cl  UNL A   1      34.026  22.738  27.437  1.00  0.00    -0.083 Cl
ATOM     85  C   UNL A   1      33.757  21.975  24.816  1.00  0.00     0.093 A 
ATOM     86  C   UNL A   1      33.477  22.349  23.512  1.00  0.00     0.128 A 
BRANCH  79  87
ATOM     87  S   UNL A   1      32.469  26.647  22.480  1.00  0.00     0.270 S 
ATOM     88  O   UNL A   1      33.373  27.754  22.230  1.00  0.00    -0.201 OA
ATOM     89  O   UNL A   1      32.313  25.569  21.518  1.00  0.00    -0.201 OA
BRANCH  87  90
ATOM     90  C   UNL A   1      30.852  27.286  22.792  1.00  0.00     0.088 A 
ATOM     91  C   UNL A   1      29.915  26.486  23.456  1.00  0.00     0.022 A 
ATOM     92  C   UNL A   1      30.485  28.535  22.280  1.00  0.00     0.022 A 
ATOM     93  C   UNL A   1      28.618  26.960  23.643  1.00  0.00     0.001 A 
ATOM     94  C   UNL A   1      29.190  29.008  22.487  1.00  0.00     0.001 A 
ATOM     95  C   UNL A   1      28.260  28.222  23.168  1.00  0.00     0.000 A 
ENDBRANCH  87  90
ENDBRANCH  79  87
BRANCH  85  96
ATOM     96  C   UNL A   1      34.064  20.553  25.145  1.00  0.00     0.419 C 
ATOM     97  F   UNL A   1      33.733  19.693  24.142  1.00  0.00    -0.166 F 
ATOM     98  F   UNL A   1      35.375  20.341  25.423  1.00  0.00    -0.166 F 
ATOM     99  F   UNL A   1      33.376  20.104  26.235  1.00  0.00    -0.166 F 
ENDBRANCH  85  96
ENDBRANCH  75  77
ENDBRANCH  74  75
ENDBRANCH  73  74
ENDBRANCH  72  73
ENDBRANCH  71  72
ENDBRANCH  70  71
ENDBRANCH   1  70
TORSDOF 23
ENDMDL
MODEL 2
REMARK VINA RESULT:     -11.1      2.919      3.976
REMARK SMILES O=C(OCCOCCOCCOC(=O)c1cc2c(Cl)c(C(F)(F)F)cnc2n1S(=O)(=O)c1ccccc1)c1ccc(-c2c3nc(c(-c4ccc(S(=O)(=O)[O-])cc4)c4ccc([nH]4)c(-c4ccc(S(=O)(=O)[O-])cc4)c4nc(c(-c5ccc(S(=O)(=O)[O-])cc5)c5ccc2[nH]5)C=C4)C=C3)cc1
REMARK SMILES IDX 7 1 6 2 5 3 4 4 3 5 2 6 1 7 38 8 39 9 97 10 40 11 96 12
REMARK SMILES IDX 41 13 42 14 43 15 90 16 44 17 95 18 89 19 91 20 45 21 94 22
REMARK SMILES IDX 88 23 87 24 46 26 76 27 57 28 75 29 58 30 61 31 74 32 92 33
REMARK SMILES IDX 59 34 60 35 73 37 93 38 62 39 47 40 48 41 56 42 49 43 55 44
REMARK SMILES IDX 50 45 51 46 52 47 53 48 54 49 77 50 78 51 86 52 79 53 85 54
REMARK SMILES IDX 80 55 81 56 82 57 83 58 84 59 63 60 64 61 72 62 65 63 71 64
REMARK SMILES IDX 66 65 67 66 68 67 69 68 70 69 8 70 9 71 10 72 11 73 12 74
REMARK SMILES IDX 13 75 14 76 15 77 16 78 28 79 17 80 27 81 18 82 26 83 19 84
REMARK SMILES IDX 20 85 25 86 29 87 30 88 31 89 32 90 33 91 37 92 34 93 36 94
REMARK SMILES IDX 35 95 21 96 22 97 23 98 24 99
REMARK H PARENT 91 25 61 36
REMARK Flexibility Score: inf
ROOT
ATOM      1  C   UNL A   1      34.062  33.434  28.725  1.00  0.00     0.188 C 
ENDROOT
BRANCH   1   2
ATOM      2  O   UNL A   1      33.112  34.343  29.285  1.00  0.00    -0.376 OA
BRANCH   2   3
ATOM      3  C   UNL A   1      33.554  35.518  29.953  1.00  0.00     0.202 C 
BRANCH   3   4
ATOM      4  C   UNL A   1      33.590  35.384  31.477  1.00  0.00     0.261 C 
BRANCH   4   5
ATOM      5  O   UNL A   1      33.731  34.018  31.915  1.00  0.00    -0.460 OA
BRANCH   5   6
ATOM      6  C   UNL A   1      34.718  33.579  32.730  1.00  0.00     0.338 C 
ATOM      7  O   UNL A   1      34.600  33.645  33.951  1.00  0.00    -0.246 OA
BRANCH   6   8
ATOM      8  C   UNL A   1      35.820  32.770  32.158  1.00  0.00     0.060 A 
ATOM      9  C   UNL A   1      35.787  31.386  31.988  1.00  0.00     0.016 A 
ATOM     10  C   UNL A   1      36.962  33.486  31.763  1.00  0.00     0.016 A 
ATOM     11  C   UNL A   1      36.935  30.705  31.624  1.00  0.00     0.010 A 
ATOM     12  C   UNL A   1      38.102  32.812  31.351  1.00  0.00     0.010 A 
ATOM     13  C   UNL A   1      38.104  31.418  31.368  1.00  0.00    -0.014 A 
BRANCH  13  14
ATOM     14  C   UNL A   1      39.320  30.639  31.197  1.00  0.00     0.031 A 
ATOM     15  C   UNL A   1      40.195  30.460  32.381  1.00  0.00     0.074 A 
ATOM     16  C   UNL A   1      39.620  30.061  30.019  1.00  0.00     0.049 A 
ATOM     17  N   UNL A   1      41.434  30.807  32.525  1.00  0.00    -0.248 NA
ATOM     18  C   UNL A   1      39.591  29.840  33.570  1.00  0.00     0.031 C 
ATOM     19  C   UNL A   1      38.736  29.906  28.860  1.00  0.00     0.029 A 
ATOM     20  N   UNL A   1      40.741  29.378  29.659  1.00  0.00    -0.354 N 
ATOM     21  C   UNL A   1      41.825  30.287  33.753  1.00  0.00     0.074 A 
ATOM     22  C   UNL A   1      40.631  29.795  34.399  1.00  0.00     0.031 C 
ATOM     23  C   UNL A   1      39.260  28.978  28.034  1.00  0.00     0.029 A 
ATOM     24  C   UNL A   1      40.560  28.573  28.545  1.00  0.00     0.049 A 
ATOM     25  H   UNL A   1      41.597  29.449  30.141  1.00  0.00     0.167 HD
ATOM     26  C   UNL A   1      43.124  30.084  34.102  1.00  0.00     0.031 A 
ATOM     27  C   UNL A   1      41.366  27.565  28.141  1.00  0.00     0.031 A 
ATOM     28  C   UNL A   1      44.067  30.790  33.288  1.00  0.00     0.049 A 
ATOM     29  C   UNL A   1      42.706  27.787  28.739  1.00  0.00     0.074 A 
ATOM     30  C   UNL A   1      44.322  32.117  33.013  1.00  0.00     0.029 A 
ATOM     31  N   UNL A   1      44.760  30.066  32.349  1.00  0.00    -0.354 N 
ATOM     32  N   UNL A   1      43.493  28.781  28.430  1.00  0.00    -0.248 NA
ATOM     33  C   UNL A   1      43.068  27.063  29.948  1.00  0.00     0.031 C 
ATOM     34  C   UNL A   1      44.810  32.141  31.675  1.00  0.00     0.029 A 
ATOM     35  C   UNL A   1      44.819  30.825  31.206  1.00  0.00     0.049 A 
ATOM     36  H   UNL A   1      45.145  29.168  32.472  1.00  0.00     0.167 HD
ATOM     37  C   UNL A   1      44.212  29.045  29.586  1.00  0.00     0.074 A 
ATOM     38  C   UNL A   1      44.009  27.878  30.432  1.00  0.00     0.031 C 
ATOM     39  C   UNL A   1      44.680  30.297  29.862  1.00  0.00     0.031 A 
BRANCH  26  40
ATOM     40  C   UNL A   1      43.513  28.937  34.988  1.00  0.00    -0.014 A 
ATOM     41  C   UNL A   1      44.103  29.158  36.242  1.00  0.00     0.010 A 
ATOM     42  C   UNL A   1      43.501  27.616  34.489  1.00  0.00     0.010 A 
ATOM     43  C   UNL A   1      44.635  28.089  36.978  1.00  0.00     0.020 A 
ATOM     44  C   UNL A   1      43.993  26.543  35.228  1.00  0.00     0.020 A 
ATOM     45  C   UNL A   1      44.571  26.789  36.466  1.00  0.00     0.054 A 
BRANCH  45  46
ATOM     46  S   UNL A   1      45.295  25.423  37.411  1.00  0.00     0.124 S 
ATOM     47  O   UNL A   1      45.941  26.129  38.514  1.00  0.00    -0.237 OA
ATOM     48  O   UNL A   1      44.119  24.634  37.766  1.00  0.00    -0.237 OA
ATOM     49  O   UNL A   1      46.200  24.787  36.457  1.00  0.00    -0.744 OA
ENDBRANCH  45  46
ENDBRANCH  26  40
BRANCH  27  50
ATOM     50  C   UNL A   1      40.932  26.264  27.568  1.00  0.00    -0.014 A 
ATOM     51  C   UNL A   1      41.545  25.751  26.411  1.00  0.00     0.010 A 
ATOM     52  C   UNL A   1      40.091  25.397  28.299  1.00  0.00     0.010 A 
ATOM     53  C   UNL A   1      41.381  24.406  26.044  1.00  0.00     0.020 A 
ATOM     54  C   UNL A   1      39.905  24.063  27.928  1.00  0.00     0.020 A 
ATOM     55  C   UNL A   1      40.582  23.564  26.822  1.00  0.00     0.054 A 
BRANCH  55  56
ATOM     56  S   UNL A   1      40.512  21.793  26.439  1.00  0.00     0.124 S 
ATOM     57  O   UNL A   1      40.542  21.182  27.765  1.00  0.00    -0.237 OA
ATOM     58  O   UNL A   1      39.247  21.683  25.719  1.00  0.00    -0.237 OA
ATOM     59  O   UNL A   1      41.708  21.567  25.627  1.00  0.00    -0.744 OA
ENDBRANCH  55  56
ENDBRANCH  27  50
BRANCH  39  60
ATOM     60  C   UNL A   1      44.747  31.304  28.740  1.00  0.00    -0.014 A 
ATOM     61  C   UNL A   1      45.577  31.138  27.614  1.00  0.00     0.010 A 
ATOM     62  C   UNL A   1      43.813  32.358  28.738  1.00  0.00     0.010 A 
ATOM     63  C   UNL A   1      45.474  32.004  26.517  1.00  0.00     0.020 A 
ATOM     64  C   UNL A   1      43.698  33.217  27.640  1.00  0.00     0.020 A 
ATOM     65  C   UNL A   1      44.525  33.031  26.531  1.00  0.00     0.054 A 
BRANCH  65  66
ATOM     66  S   UNL A   1      44.344  34.085  25.065  1.00  0.00     0.124 S 
ATOM     67  O   UNL A   1      43.079  34.770  25.313  1.00  0.00    -0.237 OA
ATOM     68  O   UNL A   1      45.538  34.926  25.128  1.00  0.00    -0.237 OA
ATOM     69  O   UNL A   1      44.323  33.137  23.951  1.00  0.00    -0.744 OA
ENDBRANCH  65  66
ENDBRANCH  39  60
ENDBRANCH  13  14
ENDBRANCH   6   8
ENDBRANCH   5   6
ENDBRANCH   4   5
ENDBRANCH   3   4
ENDBRANCH   2   3
ENDBRANCH   1   2
BRANCH   1  70
ATOM     70  C   UNL A   1      33.605  32.346  27.739  1.00  0.00     0.188 C 
BRANCH  70  71
ATOM     71  O   UNL A   1      34.605  31.483  27.194  1.00  0.00    -0.376 OA
BRANCH  71  72
ATOM     72  C   UNL A   1      35.307  30.624  28.084  1.00  0.00     0.202 C 
BRANCH  72  73
ATOM     73  C   UNL A   1      35.087  29.143  27.802  1.00  0.00     0.261 C 
BRANCH  73  74
ATOM     74  O   UNL A   1      34.452  28.967  26.527  1.00  0.00    -0.459 OA
BRANCH  74  75
ATOM     75  C   UNL A   1      33.375  28.147  26.490  1.00  0.00     0.356 C 
ATOM     76  O   UNL A   1      33.158  27.207  27.235  1.00  0.00    -0.244 OA
BRANCH  75  77
ATOM     77  C   UNL A   1      32.448  28.625  25.502  1.00  0.00     0.145 A 
ATOM     78  C   UNL A   1      31.779  29.840  25.502  1.00  0.00     0.048 A 
ATOM     79  N   UNL A   1      32.005  27.931  24.395  1.00  0.00    -0.209 N 
ATOM     80  C   UNL A   1      30.889  29.863  24.394  1.00  0.00     0.040 A 
ATOM     81  C   UNL A   1      31.043  28.648  23.726  1.00  0.00     0.156 A 
ATOM     82  C   UNL A   1      29.937  30.754  23.865  1.00  0.00     0.065 A 
ATOM     83  N   UNL A   1      30.337  28.256  22.650  1.00  0.00    -0.237 NA
ATOM     84  Cl  UNL A   1      29.820  32.259  24.670  1.00  0.00    -0.083 Cl
ATOM     85  C   UNL A   1      29.153  30.385  22.780  1.00  0.00     0.093 A 
ATOM     86  C   UNL A   1      29.406  29.141  22.226  1.00  0.00     0.128 A 
BRANCH  79  87
ATOM     87  S   UNL A   1      32.724  26.502  23.833  1.00  0.00     0.270 S 
ATOM     88  O   UNL A   1      32.447  26.480  22.410  1.00  0.00    -0.201 OA
ATOM     89  O   UNL A   1      34.087  26.546  24.336  1.00  0.00    -0.201 OA
BRANCH  87  90
ATOM     90  C   UNL A   1      31.951  25.105  24.590  1.00  0.00     0.088 A 
ATOM     91  C   UNL A   1      30.908  25.308  25.501  1.00  0.00     0.022 A 
ATOM     92  C   UNL A   1      32.454  23.821  24.361  1.00  0.00     0.022 A 
ATOM     93  C   UNL A   1      30.342  24.214  26.152  1.00  0.00     0.001 A 
ATOM     94  C   UNL A   1      31.870  22.729  25.003  1.00  0.00     0.001 A 
ATOM     95  C   UNL A   1      30.816  22.926  25.895  1.00  0.00     0.000 A 
ENDBRANCH  87  90
ENDBRANCH  79  87
BRANCH  85  96
ATOM     96  C   UNL A   1      28.073  31.254  22.227  1.00  0.00     0.419 C 
ATOM     97  F   UNL A   1      27.328  30.630  21.273  1.00  0.00    -0.166 F 
ATOM     98  F   UNL A   1      27.205  31.693  23.172  1.00  0.00    -0.166 F 
ATOM     99  F   UNL A   1      28.559  32.374  21.618  1.00  0.00    -0.166 F 
ENDBRANCH  85  96
ENDBRANCH  75  77
ENDBRANCH  74  75
ENDBRANCH  73  74
ENDBRANCH  72  73
ENDBRANCH  71  72
ENDBRANCH  70  71
ENDBRANCH   1  70
TORSDOF 23
ENDMDL
MODEL 3
REMARK VINA RESULT:     -10.4      5.409     12.533
REMARK SMILES O=C(OCCOCCOCCOC(=O)c1cc2c(Cl)c(C(F)(F)F)cnc2n1S(=O)(=O)c1ccccc1)c1ccc(-c2c3nc(c(-c4ccc(S(=O)(=O)[O-])cc4)c4ccc([nH]4)c(-c4ccc(S(=O)(=O)[O-])cc4)c4nc(c(-c5ccc(S(=O)(=O)[O-])cc5)c5ccc2[nH]5)C=C4)C=C3)cc1
REMARK SMILES IDX 7 1 6 2 5 3 4 4 3 5 2 6 1 7 38 8 39 9 97 10 40 11 96 12
REMARK SMILES IDX 41 13 42 14 43 15 90 16 44 17 95 18 89 19 91 20 45 21 94 22
REMARK SMILES IDX 88 23 87 24 46 26 76 27 57 28 75 29 58 30 61 31 74 32 92 33
REMARK SMILES IDX 59 34 60 35 73 37 93 38 62 39 47 40 48 41 56 42 49 43 55 44
REMARK SMILES IDX 50 45 51 46 52 47 53 48 54 49 77 50 78 51 86 52 79 53 85 54
REMARK SMILES IDX 80 55 81 56 82 57 83 58 84 59 63 60 64 61 72 62 65 63 71 64
REMARK SMILES IDX 66 65 67 66 68 67 69 68 70 69 8 70 9 71 10 72 11 73 12 74
REMARK SMILES IDX 13 75 14 76 15 77 16 78 28 79 17 80 27 81 18 82 26 83 19 84
REMARK SMILES IDX 20 85 25 86 29 87 30 88 31 89 32 90 33 91 37 92 34 93 36 94
REMARK SMILES IDX 35 95 21 96 22 97 23 98 24 99
REMARK H PARENT 91 25 61 36
REMARK Flexibility Score: inf
ROOT
ATOM      1  C   UNL A   1      43.155  21.508  25.807  1.00  0.00     0.188 C 
ENDROOT
BRANCH   1   2
ATOM      2  O   UNL A   1      43.085  20.140  26.218  1.00  0.00    -0.376 OA
BRANCH   2   3
ATOM      3  C   UNL A   1      41.933  19.653  26.893  1.00  0.00     0.202 C 
BRANCH   3   4
ATOM      4  C   UNL A   1      40.613  20.110  26.267  1.00  0.00     0.261 C 
BRANCH   4   5
ATOM      5  O   UNL A   1      39.972  21.161  27.017  1.00  0.00    -0.460 OA
BRANCH   5   6
ATOM      6  C   UNL A   1      39.545  22.326  26.478  1.00  0.00     0.338 C 
ATOM      7  O   UNL A   1      38.535  22.363  25.781  1.00  0.00    -0.246 OA
BRANCH   6   8
ATOM      8  C   UNL A   1      40.136  23.600  26.953  1.00  0.00     0.060 A 
ATOM      9  C   UNL A   1      41.157  23.701  27.899  1.00  0.00     0.016 A 
ATOM     10  C   UNL A   1      39.611  24.769  26.380  1.00  0.00     0.016 A 
ATOM     11  C   UNL A   1      41.505  24.937  28.414  1.00  0.00     0.010 A 
ATOM     12  C   UNL A   1      39.990  26.015  26.857  1.00  0.00     0.010 A 
ATOM     13  C   UNL A   1      40.875  26.083  27.933  1.00  0.00    -0.014 A 
BRANCH  13  14
ATOM     14  C   UNL A   1      41.130  27.319  28.654  1.00  0.00     0.031 A 
ATOM     15  C   UNL A   1      42.316  28.116  28.254  1.00  0.00     0.074 A 
ATOM     16  C   UNL A   1      40.297  27.751  29.619  1.00  0.00     0.049 A 
ATOM     17  N   UNL A   1      43.332  28.465  28.978  1.00  0.00    -0.248 NA
ATOM     18  C   UNL A   1      42.385  28.553  26.852  1.00  0.00     0.031 C 
ATOM     19  C   UNL A   1      38.959  27.237  29.926  1.00  0.00     0.029 A 
ATOM     20  N   UNL A   1      40.424  28.826  30.445  1.00  0.00    -0.354 N 
ATOM     21  C   UNL A   1      44.082  29.319  28.178  1.00  0.00     0.074 A 
ATOM     22  C   UNL A   1      43.516  29.256  26.851  1.00  0.00     0.031 C 
ATOM     23  C   UNL A   1      38.312  28.140  30.689  1.00  0.00     0.029 A 
ATOM     24  C   UNL A   1      39.226  29.222  31.019  1.00  0.00     0.049 A 
ATOM     25  H   UNL A   1      41.282  29.277  30.619  1.00  0.00     0.167 HD
ATOM     26  C   UNL A   1      44.994  30.200  28.670  1.00  0.00     0.031 A 
ATOM     27  C   UNL A   1      38.974  30.407  31.619  1.00  0.00     0.031 A 
ATOM     28  C   UNL A   1      45.406  29.926  30.014  1.00  0.00     0.049 A 
ATOM     29  C   UNL A   1      40.273  30.992  32.033  1.00  0.00     0.074 A 
ATOM     30  C   UNL A   1      46.039  28.878  30.649  1.00  0.00     0.029 A 
ATOM     31  N   UNL A   1      44.891  30.720  31.009  1.00  0.00    -0.354 N 
ATOM     32  N   UNL A   1      41.047  30.486  32.954  1.00  0.00    -0.248 NA
ATOM     33  C   UNL A   1      40.895  32.001  31.188  1.00  0.00     0.031 C 
ATOM     34  C   UNL A   1      45.514  28.864  31.973  1.00  0.00     0.029 A 
ATOM     35  C   UNL A   1      44.586  29.902  32.070  1.00  0.00     0.049 A 
ATOM     36  H   UNL A   1      44.765  31.696  30.971  1.00  0.00     0.167 HD
ATOM     37  C   UNL A   1      42.335  30.825  32.569  1.00  0.00     0.074 A 
ATOM     38  C   UNL A   1      42.169  31.864  31.564  1.00  0.00     0.031 C 
ATOM     39  C   UNL A   1      43.405  30.044  32.901  1.00  0.00     0.031 A 
BRANCH  26  40
ATOM     40  C   UNL A   1      45.224  31.523  28.003  1.00  0.00    -0.014 A 
ATOM     41  C   UNL A   1      46.515  31.938  27.641  1.00  0.00     0.010 A 
ATOM     42  C   UNL A   1      44.181  32.474  27.928  1.00  0.00     0.010 A 
ATOM     43  C   UNL A   1      46.744  33.248  27.194  1.00  0.00     0.020 A 
ATOM     44  C   UNL A   1      44.392  33.765  27.450  1.00  0.00     0.020 A 
ATOM     45  C   UNL A   1      45.679  34.150  27.099  1.00  0.00     0.054 A 
BRANCH  45  46
ATOM     46  S   UNL A   1      45.997  35.848  26.555  1.00  0.00     0.124 S 
ATOM     47  O   UNL A   1      44.691  36.474  26.741  1.00  0.00    -0.237 OA
ATOM     48  O   UNL A   1      47.043  36.278  27.478  1.00  0.00    -0.237 OA
ATOM     49  O   UNL A   1      46.426  35.690  25.168  1.00  0.00    -0.744 OA
ENDBRANCH  45  46
ENDBRANCH  26  40
BRANCH  27  50
ATOM     50  C   UNL A   1      37.716  31.194  31.524  1.00  0.00    -0.014 A 
ATOM     51  C   UNL A   1      36.644  30.936  32.397  1.00  0.00     0.010 A 
ATOM     52  C   UNL A   1      37.657  32.373  30.749  1.00  0.00     0.010 A 
ATOM     53  C   UNL A   1      35.594  31.858  32.541  1.00  0.00     0.020 A 
ATOM     54  C   UNL A   1      36.604  33.284  30.869  1.00  0.00     0.020 A 
ATOM     55  C   UNL A   1      35.596  33.038  31.793  1.00  0.00     0.054 A 
BRANCH  55  56
ATOM     56  S   UNL A   1      34.328  34.297  32.108  1.00  0.00     0.124 S 
ATOM     57  O   UNL A   1      33.494  33.657  33.121  1.00  0.00    -0.237 OA
ATOM     58  O   UNL A   1      35.127  35.429  32.566  1.00  0.00    -0.237 OA
ATOM     59  O   UNL A   1      33.688  34.477  30.805  1.00  0.00    -0.744 OA
ENDBRANCH  55  56
ENDBRANCH  27  50
BRANCH  39  60
ATOM     60  C   UNL A   1      43.238  29.023  34.001  1.00  0.00    -0.014 A 
ATOM     61  C   UNL A   1      43.651  29.257  35.327  1.00  0.00     0.010 A 
ATOM     62  C   UNL A   1      42.482  27.869  33.724  1.00  0.00     0.010 A 
ATOM     63  C   UNL A   1      43.315  28.357  36.348  1.00  0.00     0.020 A 
ATOM     64  C   UNL A   1      42.133  26.975  34.741  1.00  0.00     0.020 A 
ATOM     65  C   UNL A   1      42.546  27.228  36.051  1.00  0.00     0.054 A 
BRANCH  65  66
ATOM     66  S   UNL A   1      42.044  26.123  37.401  1.00  0.00     0.124 S 
ATOM     67  O   UNL A   1      42.252  24.797  36.828  1.00  0.00    -0.237 OA
ATOM     68  O   UNL A   1      42.963  26.495  38.475  1.00  0.00    -0.237 OA
ATOM     69  O   UNL A   1      40.646  26.478  37.643  1.00  0.00    -0.744 OA
ENDBRANCH  65  66
ENDBRANCH  39  60
ENDBRANCH  13  14
ENDBRANCH   6   8
ENDBRANCH   5   6
ENDBRANCH   4   5
ENDBRANCH   3   4
ENDBRANCH   2   3
ENDBRANCH   1   2
BRANCH   1  70
ATOM     70  C   UNL A   1      44.236  21.965  24.813  1.00  0.00     0.188 C 
BRANCH  70  71
ATOM     71  O   UNL A   1      44.006  23.178  24.096  1.00  0.00    -0.376 OA
BRANCH  71  72
ATOM     72  C   UNL A   1      43.288  24.218  24.749  1.00  0.00     0.202 C 
BRANCH  72  73
ATOM     73  C   UNL A   1      44.124  24.994  25.759  1.00  0.00     0.261 C 
BRANCH  73  74
ATOM     74  O   UNL A   1      45.473  25.134  25.288  1.00  0.00    -0.459 OA
BRANCH  74  75
ATOM     75  C   UNL A   1      46.398  24.311  25.836  1.00  0.00     0.356 C 
ATOM     76  O   UNL A   1      47.199  23.620  25.229  1.00  0.00    -0.244 OA
BRANCH  75  77
ATOM     77  C   UNL A   1      46.379  24.460  27.265  1.00  0.00     0.145 A 
ATOM     78  C   UNL A   1      45.415  23.985  28.142  1.00  0.00     0.048 A 
ATOM     79  N   UNL A   1      47.293  25.161  28.025  1.00  0.00    -0.209 N 
ATOM     80  C   UNL A   1      45.736  24.439  29.451  1.00  0.00     0.040 A 
ATOM     81  C   UNL A   1      46.910  25.184  29.344  1.00  0.00     0.156 A 
ATOM     82  C   UNL A   1      45.169  24.339  30.735  1.00  0.00     0.065 A 
ATOM     83  N   UNL A   1      47.516  25.833  30.355  1.00  0.00    -0.237 NA
ATOM     84  Cl  UNL A   1      43.767  23.367  30.841  1.00  0.00    -0.083 Cl
ATOM     85  C   UNL A   1      45.730  25.022  31.807  1.00  0.00     0.093 A 
ATOM     86  C   UNL A   1      46.889  25.735  31.550  1.00  0.00     0.128 A 
BRANCH  79  87
ATOM     87  S   UNL A   1      48.784  25.708  27.431  1.00  0.00     0.270 S 
ATOM     88  O   UNL A   1      49.658  24.553  27.501  1.00  0.00    -0.201 OA
ATOM     89  O   UNL A   1      48.471  26.342  26.161  1.00  0.00    -0.201 OA
BRANCH  87  90
ATOM     90  C   UNL A   1      49.420  26.974  28.486  1.00  0.00     0.088 A 
ATOM     91  C   UNL A   1      48.896  28.269  28.397  1.00  0.00     0.022 A 
ATOM     92  C   UNL A   1      50.510  26.705  29.320  1.00  0.00     0.022 A 
ATOM     93  C   UNL A   1      49.442  29.286  29.178  1.00  0.00     0.001 A 
ATOM     94  C   UNL A   1      51.038  27.723  30.112  1.00  0.00     0.001 A 
ATOM     95  C   UNL A   1      50.504  29.011  30.041  1.00  0.00     0.000 A 
ENDBRANCH  87  90
ENDBRANCH  79  87
BRANCH  85  96
ATOM     96  C   UNL A   1      45.130  25.020  33.173  1.00  0.00     0.419 C 
ATOM     97  F   UNL A   1      45.364  26.175  33.856  1.00  0.00    -0.166 F 
ATOM     98  F   UNL A   1      43.785  24.839  33.164  1.00  0.00    -0.166 F 
ATOM     99  F   UNL A   1      45.633  24.032  33.968  1.00  0.00    -0.166 F 
ENDBRANCH  85  96
ENDBRANCH  75  77
ENDBRANCH  74  75
ENDBRANCH  73  74
ENDBRANCH  72  73
ENDBRANCH  71  72
ENDBRANCH  70  71
ENDBRANCH   1  70
TORSDOF 23
ENDMDL
