MODEL 1
REMARK VINA RESULT:      -8.9      0.000      0.000
REMARK SMILES CCCc1cc2c(cc1Cl)C=C(C(=O)OCCOCCOCCOC(=O)c1ccc(-c3c4nc(c(-c5ccc(S(=O)(=O)[O-])cc5)c5ccc([nH]5)c(-c5ccc(S(=O)(=O)[O-])cc5)c5nc(c(-c6ccc(S(=O)(=O)[O-])cc6)c6ccc3[nH]6)C=C5)C=C4)cc1)[C@@H](C(F)(F)F)O2
REMARK SMILES IDX 20 1 19 2 18 3 17 4 16 5 15 6 13 7 14 8 12 9 4 10 5 11 9 12
REMARK SMILES IDX 6 13 8 14 10 15 7 16 92 17 11 18 87 19 3 20 2 21 1 22 88 23
REMARK SMILES IDX 89 24 90 25 91 26 21 27 22 28 23 29 24 30 25 31 26 32 27 33
REMARK SMILES IDX 28 34 86 35 29 36 85 37 30 38 31 39 32 40 79 41 33 42 84 43
REMARK SMILES IDX 78 44 80 45 34 46 83 47 77 48 76 49 35 51 65 52 46 53 64 54
REMARK SMILES IDX 47 55 50 56 63 57 81 58 48 59 49 60 62 62 82 63 51 64 36 65
REMARK SMILES IDX 37 66 45 67 38 68 44 69 39 70 40 71 41 72 42 73 43 74 66 75
REMARK SMILES IDX 67 76 75 77 68 78 74 79 69 80 70 81 71 82 72 83 73 84 52 85
REMARK SMILES IDX 53 86 61 87 54 88 60 89 55 90 56 91 57 92 58 93 59 94
REMARK H PARENT 80 50 50 61
REMARK Flexibility Score: inf
ROOT
ATOM      1  C   UNL A   1      32.754  35.769  30.514  1.00  0.00     0.188 C 
ENDROOT
BRANCH   1   2
ATOM      2  C   UNL A   1      33.864  35.338  31.497  1.00  0.00     0.188 C 
BRANCH   2   3
ATOM      3  O   UNL A   1      33.522  34.174  32.232  1.00  0.00    -0.376 OA
BRANCH   3   4
ATOM      4  C   UNL A   1      34.341  33.854  33.343  1.00  0.00     0.202 C 
BRANCH   4   5
ATOM      5  C   UNL A   1      35.135  35.018  33.949  1.00  0.00     0.261 C 
BRANCH   5   6
ATOM      6  O   UNL A   1      36.491  34.713  34.311  1.00  0.00    -0.460 OA
BRANCH   6   7
ATOM      7  C   UNL A   1      36.680  33.814  35.301  1.00  0.00     0.338 C 
ATOM      8  O   UNL A   1      35.992  33.677  36.296  1.00  0.00    -0.246 OA
BRANCH   7   9
ATOM      9  C   UNL A   1      37.814  32.939  34.923  1.00  0.00     0.087 C 
ATOM     10  C   UNL A   1      40.785  29.111  33.549  1.00  0.00    -0.026 A 
ATOM     11  C   UNL A   1      40.982  30.356  34.168  1.00  0.00     0.052 A 
ATOM     12  C   UNL A   1      39.506  28.832  33.039  1.00  0.00     0.045 A 
ATOM     13  C   UNL A   1      39.934  31.265  34.329  1.00  0.00     0.128 A 
ATOM     14  C   UNL A   1      38.445  29.731  33.231  1.00  0.00     0.032 A 
ATOM     15  Cl  UNL A   1      39.154  27.367  32.193  1.00  0.00    -0.084 Cl
ATOM     16  C   UNL A   1      38.648  30.936  33.912  1.00  0.00     0.019 A 
ATOM     17  O   UNL A   1      40.264  32.438  34.936  1.00  0.00    -0.475 OA
ATOM     18  C   UNL A   1      37.536  31.808  34.260  1.00  0.00     0.027 C 
ATOM     19  C   UNL A   1      39.215  33.389  35.257  1.00  0.00     0.316 C 
BRANCH  10  20
ATOM     20  C   UNL A   1      41.920  28.108  33.556  1.00  0.00     0.037 C 
BRANCH  20  21
ATOM     21  C   UNL A   1      41.810  26.958  34.562  1.00  0.00     0.001 C 
ATOM     22  C   UNL A   1      43.020  26.033  34.595  1.00  0.00     0.004 C 
ENDBRANCH  20  21
ENDBRANCH  10  20
BRANCH  19  23
ATOM     23  C   UNL A   1      39.395  33.775  36.733  1.00  0.00     0.430 C 
ATOM     24  F   UNL A   1      40.700  33.698  37.099  1.00  0.00    -0.167 F 
ATOM     25  F   UNL A   1      39.003  35.044  36.988  1.00  0.00    -0.167 F 
ATOM     26  F   UNL A   1      38.699  32.961  37.558  1.00  0.00    -0.167 F 
ENDBRANCH  19  23
ENDBRANCH   7   9
ENDBRANCH   6   7
ENDBRANCH   5   6
ENDBRANCH   4   5
ENDBRANCH   3   4
ENDBRANCH   2   3
ENDBRANCH   1   2
BRANCH   1  27
ATOM     27  O   UNL A   1      32.616  35.092  29.270  1.00  0.00    -0.376 OA
BRANCH  27  28
ATOM     28  C   UNL A   1      33.786  34.619  28.611  1.00  0.00     0.202 C 
BRANCH  28  29
ATOM     29  C   UNL A   1      33.747  33.226  27.969  1.00  0.00     0.261 C 
BRANCH  29  30
ATOM     30  O   UNL A   1      34.403  32.204  28.737  1.00  0.00    -0.460 OA
BRANCH  30  31
ATOM     31  C   UNL A   1      34.430  30.969  28.172  1.00  0.00     0.338 C 
ATOM     32  O   UNL A   1      33.573  30.462  27.469  1.00  0.00    -0.246 OA
BRANCH  31  33
ATOM     33  C   UNL A   1      35.775  30.383  28.356  1.00  0.00     0.060 A 
ATOM     34  C   UNL A   1      36.668  30.263  27.289  1.00  0.00     0.016 A 
ATOM     35  C   UNL A   1      36.139  29.948  29.638  1.00  0.00     0.016 A 
ATOM     36  C   UNL A   1      37.941  29.726  27.516  1.00  0.00     0.010 A 
ATOM     37  C   UNL A   1      37.398  29.388  29.856  1.00  0.00     0.010 A 
ATOM     38  C   UNL A   1      38.316  29.293  28.800  1.00  0.00    -0.014 A 
BRANCH  38  39
ATOM     39  C   UNL A   1      39.718  28.907  29.087  1.00  0.00     0.031 A 
ATOM     40  C   UNL A   1      40.252  27.548  28.751  1.00  0.00     0.074 A 
ATOM     41  C   UNL A   1      40.508  29.813  29.695  1.00  0.00     0.049 A 
ATOM     42  N   UNL A   1      41.466  27.090  28.908  1.00  0.00    -0.248 NA
ATOM     43  C   UNL A   1      39.311  26.580  28.166  1.00  0.00     0.031 C 
ATOM     44  C   UNL A   1      40.087  31.164  30.073  1.00  0.00     0.029 A 
ATOM     45  N   UNL A   1      41.817  29.744  30.102  1.00  0.00    -0.354 N 
ATOM     46  C   UNL A   1      41.452  25.791  28.416  1.00  0.00     0.074 A 
ATOM     47  C   UNL A   1      40.092  25.517  27.997  1.00  0.00     0.031 C 
ATOM     48  C   UNL A   1      41.121  31.801  30.642  1.00  0.00     0.029 A 
ATOM     49  C   UNL A   1      42.268  30.898  30.697  1.00  0.00     0.049 A 
ATOM     50  H   UNL A   1      42.378  28.945  29.979  1.00  0.00     0.167 HD
ATOM     51  C   UNL A   1      42.485  24.922  28.310  1.00  0.00     0.031 A 
ATOM     52  C   UNL A   1      43.469  31.205  31.228  1.00  0.00     0.031 A 
ATOM     53  C   UNL A   1      43.828  25.203  28.756  1.00  0.00     0.049 A 
ATOM     54  C   UNL A   1      44.580  30.195  31.167  1.00  0.00     0.074 A 
ATOM     55  C   UNL A   1      44.948  24.395  28.649  1.00  0.00     0.029 A 
ATOM     56  N   UNL A   1      44.234  26.361  29.401  1.00  0.00    -0.354 N 
ATOM     57  N   UNL A   1      44.567  29.000  30.627  1.00  0.00    -0.248 NA
ATOM     58  C   UNL A   1      45.865  30.571  31.769  1.00  0.00     0.031 C 
ATOM     59  C   UNL A   1      46.010  25.031  29.295  1.00  0.00     0.029 A 
ATOM     60  C   UNL A   1      45.576  26.271  29.735  1.00  0.00     0.049 A 
ATOM     61  H   UNL A   1      43.654  27.134  29.593  1.00  0.00     0.167 HD
ATOM     62  C   UNL A   1      45.848  28.490  30.806  1.00  0.00     0.074 A 
ATOM     63  C   UNL A   1      46.613  29.507  31.495  1.00  0.00     0.031 C 
ATOM     64  C   UNL A   1      46.337  27.285  30.424  1.00  0.00     0.031 A 
BRANCH  51  65
ATOM     65  C   UNL A   1      42.241  23.580  27.668  1.00  0.00    -0.014 A 
ATOM     66  C   UNL A   1      41.783  22.500  28.446  1.00  0.00     0.010 A 
ATOM     67  C   UNL A   1      42.628  23.346  26.337  1.00  0.00     0.010 A 
ATOM     68  C   UNL A   1      41.753  21.206  27.919  1.00  0.00     0.020 A 
ATOM     69  C   UNL A   1      42.575  22.056  25.797  1.00  0.00     0.020 A 
ATOM     70  C   UNL A   1      42.162  20.991  26.600  1.00  0.00     0.054 A 
BRANCH  70  71
ATOM     71  S   UNL A   1      42.162  19.298  25.946  1.00  0.00     0.124 S 
ATOM     72  O   UNL A   1      40.748  19.076  25.661  1.00  0.00    -0.237 OA
ATOM     73  O   UNL A   1      43.033  19.408  24.777  1.00  0.00    -0.237 OA
ATOM     74  O   UNL A   1      42.711  18.507  27.046  1.00  0.00    -0.744 OA
ENDBRANCH  70  71
ENDBRANCH  51  65
BRANCH  52  75
ATOM     75  C   UNL A   1      43.669  32.557  31.815  1.00  0.00    -0.014 A 
ATOM     76  C   UNL A   1      44.503  33.494  31.176  1.00  0.00     0.010 A 
ATOM     77  C   UNL A   1      43.119  32.873  33.069  1.00  0.00     0.010 A 
ATOM     78  C   UNL A   1      44.835  34.694  31.808  1.00  0.00     0.020 A 
ATOM     79  C   UNL A   1      43.427  34.087  33.692  1.00  0.00     0.020 A 
ATOM     80  C   UNL A   1      44.309  34.974  33.071  1.00  0.00     0.054 A 
BRANCH  80  81
ATOM     81  S   UNL A   1      44.809  36.506  33.903  1.00  0.00     0.124 S 
ATOM     82  O   UNL A   1      46.247  36.529  33.646  1.00  0.00    -0.237 OA
ATOM     83  O   UNL A   1      44.028  37.522  33.202  1.00  0.00    -0.237 OA
ATOM     84  O   UNL A   1      44.427  36.280  35.295  1.00  0.00    -0.744 OA
ENDBRANCH  80  81
ENDBRANCH  52  75
BRANCH  64  85
ATOM     85  C   UNL A   1      47.775  26.960  30.735  1.00  0.00    -0.014 A 
ATOM     86  C   UNL A   1      48.116  26.443  31.999  1.00  0.00     0.010 A 
ATOM     87  C   UNL A   1      48.802  27.335  29.849  1.00  0.00     0.010 A 
ATOM     88  C   UNL A   1      49.453  26.364  32.397  1.00  0.00     0.020 A 
ATOM     89  C   UNL A   1      50.142  27.229  30.234  1.00  0.00     0.020 A 
ATOM     90  C   UNL A   1      50.456  26.776  31.519  1.00  0.00     0.054 A 
BRANCH  90  91
ATOM     91  S   UNL A   1      52.179  26.750  32.087  1.00  0.00     0.124 S 
ATOM     92  O   UNL A   1      52.684  25.521  31.482  1.00  0.00    -0.237 OA
ATOM     93  O   UNL A   1      52.718  27.991  31.535  1.00  0.00    -0.237 OA
ATOM     94  O   UNL A   1      52.061  26.725  33.544  1.00  0.00    -0.744 OA
ENDBRANCH  90  91
ENDBRANCH  64  85
ENDBRANCH  38  39
ENDBRANCH  31  33
ENDBRANCH  30  31
ENDBRANCH  29  30
ENDBRANCH  28  29
ENDBRANCH  27  28
ENDBRANCH   1  27
TORSDOF 23
ENDMDL
MODEL 2
REMARK VINA RESULT:      -8.2      1.278      8.049
REMARK SMILES CCCc1cc2c(cc1Cl)C=C(C(=O)OCCOCCOCCOC(=O)c1ccc(-c3c4nc(c(-c5ccc(S(=O)(=O)[O-])cc5)c5ccc([nH]5)c(-c5ccc(S(=O)(=O)[O-])cc5)c5nc(c(-c6ccc(S(=O)(=O)[O-])cc6)c6ccc3[nH]6)C=C5)C=C4)cc1)[C@@H](C(F)(F)F)O2
REMARK SMILES IDX 20 1 19 2 18 3 17 4 16 5 15 6 13 7 14 8 12 9 4 10 5 11 9 12
REMARK SMILES IDX 6 13 8 14 10 15 7 16 92 17 11 18 87 19 3 20 2 21 1 22 88 23
REMARK SMILES IDX 89 24 90 25 91 26 21 27 22 28 23 29 24 30 25 31 26 32 27 33
REMARK SMILES IDX 28 34 86 35 29 36 85 37 30 38 31 39 32 40 79 41 33 42 84 43
REMARK SMILES IDX 78 44 80 45 34 46 83 47 77 48 76 49 35 51 65 52 46 53 64 54
REMARK SMILES IDX 47 55 50 56 63 57 81 58 48 59 49 60 62 62 82 63 51 64 36 65
REMARK SMILES IDX 37 66 45 67 38 68 44 69 39 70 40 71 41 72 42 73 43 74 66 75
REMARK SMILES IDX 67 76 75 77 68 78 74 79 69 80 70 81 71 82 72 83 73 84 52 85
REMARK SMILES IDX 53 86 61 87 54 88 60 89 55 90 56 91 57 92 58 93 59 94
REMARK H PARENT 80 50 50 61
REMARK Flexibility Score: inf
ROOT
ATOM      1  C   UNL A   1      33.767  35.205  31.305  1.00  0.00     0.188 C 
ENDROOT
BRANCH   1   2
ATOM      2  C   UNL A   1      34.668  34.353  32.226  1.00  0.00     0.188 C 
BRANCH   2   3
ATOM      3  O   UNL A   1      35.619  33.587  31.504  1.00  0.00    -0.376 OA
BRANCH   3   4
ATOM      4  C   UNL A   1      36.731  33.095  32.232  1.00  0.00     0.202 C 
BRANCH   4   5
ATOM      5  C   UNL A   1      38.041  33.872  32.058  1.00  0.00     0.261 C 
BRANCH   5   6
ATOM      6  O   UNL A   1      39.201  33.256  32.641  1.00  0.00    -0.460 OA
BRANCH   6   7
ATOM      7  C   UNL A   1      39.370  33.390  33.974  1.00  0.00     0.338 C 
ATOM      8  O   UNL A   1      39.023  34.338  34.656  1.00  0.00    -0.246 OA
BRANCH   7   9
ATOM      9  C   UNL A   1      39.958  32.135  34.496  1.00  0.00     0.087 C 
ATOM     10  C   UNL A   1      42.167  27.646  35.074  1.00  0.00    -0.026 A 
ATOM     11  C   UNL A   1      41.334  28.458  35.860  1.00  0.00     0.052 A 
ATOM     12  C   UNL A   1      42.661  28.186  33.875  1.00  0.00     0.045 A 
ATOM     13  C   UNL A   1      40.955  29.736  35.442  1.00  0.00     0.128 A 
ATOM     14  C   UNL A   1      42.254  29.458  33.439  1.00  0.00     0.032 A 
ATOM     15  Cl  UNL A   1      43.751  27.317  32.855  1.00  0.00    -0.084 Cl
ATOM     16  C   UNL A   1      41.367  30.221  34.205  1.00  0.00     0.019 A 
ATOM     17  O   UNL A   1      40.153  30.420  36.305  1.00  0.00    -0.475 OA
ATOM     18  C   UNL A   1      40.810  31.469  33.703  1.00  0.00     0.027 C 
ATOM     19  C   UNL A   1      39.611  31.703  35.899  1.00  0.00     0.316 C 
BRANCH  10  20
ATOM     20  C   UNL A   1      42.402  26.213  35.505  1.00  0.00     0.037 C 
BRANCH  20  21
ATOM     21  C   UNL A   1      43.485  25.986  36.565  1.00  0.00     0.001 C 
ATOM     22  C   UNL A   1      44.864  25.676  35.999  1.00  0.00     0.004 C 
ENDBRANCH  20  21
ENDBRANCH  10  20
BRANCH  19  23
ATOM     23  C   UNL A   1      38.098  31.655  36.164  1.00  0.00     0.430 C 
ATOM     24  F   UNL A   1      37.783  30.626  36.992  1.00  0.00    -0.167 F 
ATOM     25  F   UNL A   1      37.641  32.778  36.763  1.00  0.00    -0.167 F 
ATOM     26  F   UNL A   1      37.390  31.485  35.025  1.00  0.00    -0.167 F 
ENDBRANCH  19  23
ENDBRANCH   7   9
ENDBRANCH   6   7
ENDBRANCH   5   6
ENDBRANCH   4   5
ENDBRANCH   3   4
ENDBRANCH   2   3
ENDBRANCH   1   2
BRANCH   1  27
ATOM     27  O   UNL A   1      33.089  34.586  30.218  1.00  0.00    -0.376 OA
BRANCH  27  28
ATOM     28  C   UNL A   1      33.707  34.580  28.935  1.00  0.00     0.202 C 
BRANCH  28  29
ATOM     29  C   UNL A   1      33.808  33.248  28.182  1.00  0.00     0.261 C 
BRANCH  29  30
ATOM     30  O   UNL A   1      34.445  32.196  28.927  1.00  0.00    -0.460 OA
BRANCH  30  31
ATOM     31  C   UNL A   1      34.502  30.988  28.308  1.00  0.00     0.338 C 
ATOM     32  O   UNL A   1      33.651  30.485  27.596  1.00  0.00    -0.246 OA
BRANCH  31  33
ATOM     33  C   UNL A   1      35.868  30.439  28.447  1.00  0.00     0.060 A 
ATOM     34  C   UNL A   1      36.668  30.187  27.331  1.00  0.00     0.016 A 
ATOM     35  C   UNL A   1      36.349  30.177  29.738  1.00  0.00     0.016 A 
ATOM     36  C   UNL A   1      37.965  29.692  27.513  1.00  0.00     0.010 A 
ATOM     37  C   UNL A   1      37.631  29.656  29.915  1.00  0.00     0.010 A 
ATOM     38  C   UNL A   1      38.456  29.431  28.804  1.00  0.00    -0.014 A 
BRANCH  38  39
ATOM     39  C   UNL A   1      39.884  29.093  29.014  1.00  0.00     0.031 A 
ATOM     40  C   UNL A   1      40.863  30.090  29.557  1.00  0.00     0.074 A 
ATOM     41  C   UNL A   1      40.296  27.857  28.671  1.00  0.00     0.049 A 
ATOM     42  N   UNL A   1      42.130  29.919  29.829  1.00  0.00    -0.248 NA
ATOM     43  C   UNL A   1      40.363  31.446  29.830  1.00  0.00     0.031 C 
ATOM     44  C   UNL A   1      39.427  26.812  28.127  1.00  0.00     0.029 A 
ATOM     45  N   UNL A   1      41.535  27.269  28.726  1.00  0.00    -0.354 N 
ATOM     46  C   UNL A   1      42.580  31.132  30.335  1.00  0.00     0.074 A 
ATOM     47  C   UNL A   1      41.458  32.047  30.287  1.00  0.00     0.031 C 
ATOM     48  C   UNL A   1      40.155  25.707  27.912  1.00  0.00     0.029 A 
ATOM     49  C   UNL A   1      41.545  25.971  28.274  1.00  0.00     0.049 A 
ATOM     50  H   UNL A   1      42.337  27.733  29.057  1.00  0.00     0.167 HD
ATOM     51  C   UNL A   1      43.810  31.439  30.809  1.00  0.00     0.031 A 
ATOM     52  C   UNL A   1      42.556  25.085  28.162  1.00  0.00     0.031 A 
ATOM     53  C   UNL A   1      44.924  30.522  30.825  1.00  0.00     0.049 A 
ATOM     54  C   UNL A   1      43.931  25.475  28.624  1.00  0.00     0.074 A 
ATOM     55  C   UNL A   1      46.197  30.736  31.328  1.00  0.00     0.029 A 
ATOM     56  N   UNL A   1      44.911  29.234  30.311  1.00  0.00    -0.354 N 
ATOM     57  N   UNL A   1      44.318  26.602  29.172  1.00  0.00    -0.248 NA
ATOM     58  C   UNL A   1      45.000  24.481  28.471  1.00  0.00     0.031 C 
ATOM     59  C   UNL A   1      46.972  29.609  31.049  1.00  0.00     0.029 A 
ATOM     60  C   UNL A   1      46.165  28.659  30.445  1.00  0.00     0.049 A 
ATOM     61  H   UNL A   1      44.127  28.793  29.910  1.00  0.00     0.167 HD
ATOM     62  C   UNL A   1      45.671  26.444  29.448  1.00  0.00     0.074 A 
ATOM     63  C   UNL A   1      46.035  25.111  29.016  1.00  0.00     0.031 C 
ATOM     64  C   UNL A   1      46.526  27.330  30.013  1.00  0.00     0.031 A 
BRANCH  51  65
ATOM     65  C   UNL A   1      44.045  32.814  31.380  1.00  0.00    -0.014 A 
ATOM     66  C   UNL A   1      43.867  33.044  32.758  1.00  0.00     0.010 A 
ATOM     67  C   UNL A   1      44.272  33.911  30.529  1.00  0.00     0.010 A 
ATOM     68  C   UNL A   1      43.873  34.345  33.268  1.00  0.00     0.020 A 
ATOM     69  C   UNL A   1      44.305  35.213  31.040  1.00  0.00     0.020 A 
ATOM     70  C   UNL A   1      44.079  35.423  32.402  1.00  0.00     0.054 A 
BRANCH  70  71
ATOM     71  S   UNL A   1      44.037  37.109  33.073  1.00  0.00     0.124 S 
ATOM     72  O   UNL A   1      45.318  37.199  33.767  1.00  0.00    -0.237 OA
ATOM     73  O   UNL A   1      43.911  37.928  31.869  1.00  0.00    -0.237 OA
ATOM     74  O   UNL A   1      42.857  37.103  33.936  1.00  0.00    -0.744 OA
ENDBRANCH  70  71
ENDBRANCH  51  65
BRANCH  52  75
ATOM     75  C   UNL A   1      42.263  23.728  27.626  1.00  0.00    -0.014 A 
ATOM     76  C   UNL A   1      41.910  22.680  28.498  1.00  0.00     0.010 A 
ATOM     77  C   UNL A   1      42.446  23.451  26.261  1.00  0.00     0.010 A 
ATOM     78  C   UNL A   1      41.809  21.370  28.026  1.00  0.00     0.020 A 
ATOM     79  C   UNL A   1      42.317  22.144  25.780  1.00  0.00     0.020 A 
ATOM     80  C   UNL A   1      42.031  21.108  26.672  1.00  0.00     0.054 A 
BRANCH  80  81
ATOM     81  S   UNL A   1      41.963  19.390  26.095  1.00  0.00     0.124 S 
ATOM     82  O   UNL A   1      40.557  19.255  25.723  1.00  0.00    -0.237 OA
ATOM     83  O   UNL A   1      42.911  19.389  24.983  1.00  0.00    -0.237 OA
ATOM     84  O   UNL A   1      42.378  18.619  27.264  1.00  0.00    -0.744 OA
ENDBRANCH  80  81
ENDBRANCH  52  75
BRANCH  64  85
ATOM     85  C   UNL A   1      47.963  26.920  30.210  1.00  0.00    -0.014 A 
ATOM     86  C   UNL A   1      48.359  26.332  31.426  1.00  0.00     0.010 A 
ATOM     87  C   UNL A   1      48.946  27.280  29.271  1.00  0.00     0.010 A 
ATOM     88  C   UNL A   1      49.714  26.167  31.728  1.00  0.00     0.020 A 
ATOM     89  C   UNL A   1      50.302  27.090  29.558  1.00  0.00     0.020 A 
ATOM     90  C   UNL A   1      50.677  26.566  30.799  1.00  0.00     0.054 A 
BRANCH  90  91
ATOM     91  S   UNL A   1      52.430  26.427  31.245  1.00  0.00     0.124 S 
ATOM     92  O   UNL A   1      52.462  25.165  31.976  1.00  0.00    -0.237 OA
ATOM     93  O   UNL A   1      53.092  26.418  29.942  1.00  0.00    -0.237 OA
ATOM     94  O   UNL A   1      52.676  27.622  32.051  1.00  0.00    -0.744 OA
ENDBRANCH  90  91
ENDBRANCH  64  85
ENDBRANCH  38  39
ENDBRANCH  31  33
ENDBRANCH  30  31
ENDBRANCH  29  30
ENDBRANCH  28  29
ENDBRANCH  27  28
ENDBRANCH   1  27
TORSDOF 23
ENDMDL
MODEL 3
REMARK VINA RESULT:      -8.2      5.441     11.750
REMARK SMILES CCCc1cc2c(cc1Cl)C=C(C(=O)OCCOCCOCCOC(=O)c1ccc(-c3c4nc(c(-c5ccc(S(=O)(=O)[O-])cc5)c5ccc([nH]5)c(-c5ccc(S(=O)(=O)[O-])cc5)c5nc(c(-c6ccc(S(=O)(=O)[O-])cc6)c6ccc3[nH]6)C=C5)C=C4)cc1)[C@@H](C(F)(F)F)O2
REMARK SMILES IDX 20 1 19 2 18 3 17 4 16 5 15 6 13 7 14 8 12 9 4 10 5 11 9 12
REMARK SMILES IDX 6 13 8 14 10 15 7 16 92 17 11 18 87 19 3 20 2 21 1 22 88 23
REMARK SMILES IDX 89 24 90 25 91 26 21 27 22 28 23 29 24 30 25 31 26 32 27 33
REMARK SMILES IDX 28 34 86 35 29 36 85 37 30 38 31 39 32 40 79 41 33 42 84 43
REMARK SMILES IDX 78 44 80 45 34 46 83 47 77 48 76 49 35 51 65 52 46 53 64 54
REMARK SMILES IDX 47 55 50 56 63 57 81 58 48 59 49 60 62 62 82 63 51 64 36 65
REMARK SMILES IDX 37 66 45 67 38 68 44 69 39 70 40 71 41 72 42 73 43 74 66 75
REMARK SMILES IDX 67 76 75 77 68 78 74 79 69 80 70 81 71 82 72 83 73 84 52 85
REMARK SMILES IDX 53 86 61 87 54 88 60 89 55 90 56 91 57 92 58 93 59 94
REMARK H PARENT 80 50 50 61
REMARK Flexibility Score: inf
ROOT
ATOM      1  C   UNL A   1      33.709  26.069  25.970  1.00  0.00     0.188 C 
ENDROOT
BRANCH   1   2
ATOM      2  C   UNL A   1      34.854  25.193  25.417  1.00  0.00     0.188 C 
BRANCH   2   3
ATOM      3  O   UNL A   1      34.870  23.893  25.983  1.00  0.00    -0.376 OA
BRANCH   3   4
ATOM      4  C   UNL A   1      35.139  22.814  25.104  1.00  0.00     0.202 C 
BRANCH   4   5
ATOM      5  C   UNL A   1      33.915  22.165  24.446  1.00  0.00     0.261 C 
BRANCH   5   6
ATOM      6  O   UNL A   1      32.680  22.882  24.606  1.00  0.00    -0.460 OA
BRANCH   6   7
ATOM      7  C   UNL A   1      31.889  23.002  23.518  1.00  0.00     0.338 C 
ATOM      8  O   UNL A   1      31.532  22.102  22.779  1.00  0.00    -0.246 OA
BRANCH   7   9
ATOM      9  C   UNL A   1      31.433  24.408  23.428  1.00  0.00     0.087 C 
ATOM     10  C   UNL A   1      28.772  28.664  23.014  1.00  0.00    -0.026 A 
ATOM     11  C   UNL A   1      30.121  28.309  22.849  1.00  0.00     0.052 A 
ATOM     12  C   UNL A   1      27.903  27.696  23.543  1.00  0.00     0.045 A 
ATOM     13  C   UNL A   1      30.577  27.022  23.142  1.00  0.00     0.128 A 
ATOM     14  C   UNL A   1      28.355  26.393  23.806  1.00  0.00     0.032 A 
ATOM     15  Cl  UNL A   1      26.238  28.030  23.861  1.00  0.00    -0.084 Cl
ATOM     16  C   UNL A   1      29.688  26.041  23.569  1.00  0.00     0.019 A 
ATOM     17  O   UNL A   1      31.910  26.816  22.948  1.00  0.00    -0.475 OA
ATOM     18  C   UNL A   1      30.142  24.663  23.683  1.00  0.00     0.027 C 
ATOM     19  C   UNL A   1      32.449  25.477  23.108  1.00  0.00     0.316 C 
BRANCH  10  20
ATOM     20  C   UNL A   1      28.312  30.021  22.521  1.00  0.00     0.037 C 
BRANCH  20  21
ATOM     21  C   UNL A   1      28.807  31.239  23.309  1.00  0.00     0.001 C 
ATOM     22  C   UNL A   1      28.656  32.565  22.576  1.00  0.00     0.004 C 
ENDBRANCH  20  21
ENDBRANCH  10  20
BRANCH  19  23
ATOM     23  C   UNL A   1      33.275  25.173  21.849  1.00  0.00     0.430 C 
ATOM     24  F   UNL A   1      33.370  26.270  21.053  1.00  0.00    -0.167 F 
ATOM     25  F   UNL A   1      34.543  24.804  22.138  1.00  0.00    -0.167 F 
ATOM     26  F   UNL A   1      32.724  24.187  21.107  1.00  0.00    -0.167 F 
ENDBRANCH  19  23
ENDBRANCH   7   9
ENDBRANCH   6   7
ENDBRANCH   5   6
ENDBRANCH   4   5
ENDBRANCH   3   4
ENDBRANCH   2   3
ENDBRANCH   1   2
BRANCH   1  27
ATOM     27  O   UNL A   1      33.966  27.427  26.312  1.00  0.00    -0.376 OA
BRANCH  27  28
ATOM     28  C   UNL A   1      33.028  28.424  25.922  1.00  0.00     0.202 C 
BRANCH  28  29
ATOM     29  C   UNL A   1      32.939  29.706  26.759  1.00  0.00     0.261 C 
BRANCH  29  30
ATOM     30  O   UNL A   1      34.112  30.535  26.694  1.00  0.00    -0.460 OA
BRANCH  30  31
ATOM     31  C   UNL A   1      34.548  31.030  27.882  1.00  0.00     0.338 C 
ATOM     32  O   UNL A   1      33.920  31.717  28.669  1.00  0.00    -0.246 OA
BRANCH  31  33
ATOM     33  C   UNL A   1      35.861  30.429  28.203  1.00  0.00     0.060 A 
ATOM     34  C   UNL A   1      36.871  30.334  27.243  1.00  0.00     0.016 A 
ATOM     35  C   UNL A   1      36.072  29.957  29.505  1.00  0.00     0.016 A 
ATOM     36  C   UNL A   1      38.107  29.782  27.601  1.00  0.00     0.010 A 
ATOM     37  C   UNL A   1      37.295  29.382  29.851  1.00  0.00     0.010 A 
ATOM     38  C   UNL A   1      38.329  29.310  28.907  1.00  0.00    -0.014 A 
BRANCH  38  39
ATOM     39  C   UNL A   1      39.687  28.906  29.343  1.00  0.00     0.031 A 
ATOM     40  C   UNL A   1      40.564  29.815  30.149  1.00  0.00     0.074 A 
ATOM     41  C   UNL A   1      40.134  27.693  28.966  1.00  0.00     0.049 A 
ATOM     42  N   UNL A   1      41.756  29.577  30.632  1.00  0.00    -0.248 NA
ATOM     43  C   UNL A   1      40.046  31.158  30.453  1.00  0.00     0.031 C 
ATOM     44  C   UNL A   1      39.364  26.731  28.175  1.00  0.00     0.029 A 
ATOM     45  N   UNL A   1      41.331  27.060  29.191  1.00  0.00    -0.354 N 
ATOM     46  C   UNL A   1      42.124  30.724  31.325  1.00  0.00     0.074 A 
ATOM     47  C   UNL A   1      41.045  31.677  31.159  1.00  0.00     0.031 C 
ATOM     48  C   UNL A   1      40.101  25.626  27.993  1.00  0.00     0.029 A 
ATOM     49  C   UNL A   1      41.404  25.808  28.628  1.00  0.00     0.049 A 
ATOM     50  H   UNL A   1      42.066  27.464  29.707  1.00  0.00     0.167 HD
ATOM     51  C   UNL A   1      43.249  30.945  32.044  1.00  0.00     0.031 A 
ATOM     52  C   UNL A   1      42.402  24.902  28.619  1.00  0.00     0.031 A 
ATOM     53  C   UNL A   1      44.325  29.992  32.178  1.00  0.00     0.049 A 
ATOM     54  C   UNL A   1      43.673  25.201  29.362  1.00  0.00     0.074 A 
ATOM     55  C   UNL A   1      45.485  30.116  32.924  1.00  0.00     0.029 A 
ATOM     56  N   UNL A   1      44.386  28.757  31.550  1.00  0.00    -0.354 N 
ATOM     57  N   UNL A   1      43.971  26.260  30.076  1.00  0.00    -0.248 NA
ATOM     58  C   UNL A   1      44.736  24.189  29.314  1.00  0.00     0.031 C 
ATOM     59  C   UNL A   1      46.280  28.992  32.686  1.00  0.00     0.029 A 
ATOM     60  C   UNL A   1      45.582  28.129  31.857  1.00  0.00     0.049 A 
ATOM     61  H   UNL A   1      43.683  28.381  30.971  1.00  0.00     0.167 HD
ATOM     62  C   UNL A   1      45.246  26.032  30.580  1.00  0.00     0.074 A 
ATOM     63  C   UNL A   1      45.662  24.731  30.097  1.00  0.00     0.031 C 
ATOM     64  C   UNL A   1      45.996  26.834  31.374  1.00  0.00     0.031 A 
BRANCH  51  65
ATOM     65  C   UNL A   1      43.396  32.254  32.777  1.00  0.00    -0.014 A 
ATOM     66  C   UNL A   1      42.764  32.440  34.020  1.00  0.00     0.010 A 
ATOM     67  C   UNL A   1      44.016  33.353  32.155  1.00  0.00     0.010 A 
ATOM     68  C   UNL A   1      42.713  33.706  34.611  1.00  0.00     0.020 A 
ATOM     69  C   UNL A   1      43.990  34.616  32.755  1.00  0.00     0.020 A 
ATOM     70  C   UNL A   1      43.316  34.789  33.966  1.00  0.00     0.054 A 
BRANCH  70  71
ATOM     71  S   UNL A   1      43.201  36.435  34.722  1.00  0.00     0.124 S 
ATOM     72  O   UNL A   1      42.926  37.287  33.569  1.00  0.00    -0.237 OA
ATOM     73  O   UNL A   1      42.097  36.276  35.667  1.00  0.00    -0.237 OA
ATOM     74  O   UNL A   1      44.513  36.621  35.339  1.00  0.00    -0.744 OA
ENDBRANCH  70  71
ENDBRANCH  51  65
BRANCH  52  75
ATOM     75  C   UNL A   1      42.191  23.610  27.913  1.00  0.00    -0.014 A 
ATOM     76  C   UNL A   1      41.551  22.539  28.565  1.00  0.00     0.010 A 
ATOM     77  C   UNL A   1      42.729  23.408  26.630  1.00  0.00     0.010 A 
ATOM     78  C   UNL A   1      41.508  21.273  27.975  1.00  0.00     0.020 A 
ATOM     79  C   UNL A   1      42.663  22.149  26.025  1.00  0.00     0.020 A 
ATOM     80  C   UNL A   1      42.081  21.083  26.716  1.00  0.00     0.054 A 
BRANCH  80  81
ATOM     81  S   UNL A   1      42.077  19.417  26.000  1.00  0.00     0.124 S 
ATOM     82  O   UNL A   1      40.661  19.226  25.696  1.00  0.00    -0.237 OA
ATOM     83  O   UNL A   1      42.955  19.564  24.841  1.00  0.00    -0.237 OA
ATOM     84  O   UNL A   1      42.605  18.581  27.075  1.00  0.00    -0.744 OA
ENDBRANCH  80  81
ENDBRANCH  52  75
BRANCH  64  85
ATOM     85  C   UNL A   1      47.363  26.358  31.792  1.00  0.00    -0.014 A 
ATOM     86  C   UNL A   1      48.458  26.536  30.926  1.00  0.00     0.010 A 
ATOM     87  C   UNL A   1      47.528  25.580  32.952  1.00  0.00     0.010 A 
ATOM     88  C   UNL A   1      49.674  25.896  31.177  1.00  0.00     0.020 A 
ATOM     89  C   UNL A   1      48.753  24.961  33.222  1.00  0.00     0.020 A 
ATOM     90  C   UNL A   1      49.807  25.096  32.313  1.00  0.00     0.054 A 
BRANCH  90  91
ATOM     91  S   UNL A   1      51.364  24.201  32.575  1.00  0.00     0.124 S 
ATOM     92  O   UNL A   1      51.590  24.389  34.004  1.00  0.00    -0.237 OA
ATOM     93  O   UNL A   1      51.024  22.841  32.164  1.00  0.00    -0.237 OA
ATOM     94  O   UNL A   1      52.308  24.890  31.697  1.00  0.00    -0.744 OA
ENDBRANCH  90  91
ENDBRANCH  64  85
ENDBRANCH  38  39
ENDBRANCH  31  33
ENDBRANCH  30  31
ENDBRANCH  29  30
ENDBRANCH  28  29
ENDBRANCH  27  28
ENDBRANCH   1  27
TORSDOF 23
ENDMDL
