MODEL 1
REMARK VINA RESULT:      -7.7      0.000      0.000
REMARK SMILES NS(=O)(=O)c1ccc(N2N=C(C(=O)OCCOCCOCCOC(=O)c3ccc(-c4c5nc(c(-c6ccc(S(=O)(=O)[O-])cc6)c6ccc([nH]6)c(-c6ccc(S(=O)(=O)[O-])cc6)c6nc(c(-c7ccc(S(=O)(=O)[O-])cc7)c7ccc4[nH]7)C=C6)C=C5)cc3)C[C@H]2c2ccco2)cc1
REMARK SMILES IDX 18 1 17 2 16 3 15 4 14 5 12 6 13 7 11 8 9 9 10 10 87 11
REMARK SMILES IDX 86 12 8 13 5 14 6 15 94 16 7 17 93 18 2 19 3 20 4 21 1 22
REMARK SMILES IDX 88 25 89 26 92 27 90 28 91 29 19 30 20 31 21 32 22 33 23 34
REMARK SMILES IDX 24 35 25 36 26 37 27 38 85 39 28 40 84 41 29 42 30 43 31 44
REMARK SMILES IDX 78 45 32 46 83 47 77 48 79 49 33 50 82 51 76 52 75 53 34 55
REMARK SMILES IDX 64 56 45 57 63 58 46 59 49 60 62 61 80 62 47 63 48 64 61 66
REMARK SMILES IDX 81 67 50 68 35 69 36 70 44 71 37 72 43 73 38 74 39 75 40 76
REMARK SMILES IDX 41 77 42 78 65 79 66 80 74 81 67 82 73 83 68 84 69 85 70 86
REMARK SMILES IDX 71 87 72 88 51 89 52 90 60 91 53 92 59 93 54 94 55 95 56 96
REMARK SMILES IDX 57 97 58 98
REMARK H PARENT 1 23 1 24 79 54 49 65
REMARK Flexibility Score: inf
ROOT
ATOM      1  C   UNL A   1      38.250  30.854  29.452  1.00  0.00     0.188 C 
ENDROOT
BRANCH   1   2
ATOM      2  O   UNL A   1      37.742  32.177  29.441  1.00  0.00    -0.376 OA
BRANCH   2   3
ATOM      3  C   UNL A   1      36.500  32.462  28.814  1.00  0.00     0.202 C 
BRANCH   3   4
ATOM      4  C   UNL A   1      35.208  31.698  29.152  1.00  0.00     0.261 C 
BRANCH   4   5
ATOM      5  O   UNL A   1      34.454  31.251  28.019  1.00  0.00    -0.459 OA
BRANCH   5   6
ATOM      6  C   UNL A   1      34.961  30.188  27.359  1.00  0.00     0.354 C 
ATOM      7  O   UNL A   1      36.127  29.945  27.119  1.00  0.00    -0.245 OA
BRANCH   6   8
ATOM      8  C   UNL A   1      33.843  29.231  27.027  1.00  0.00     0.148 C 
ATOM      9  N   UNL A   1      32.803  27.430  26.590  1.00  0.00    -0.254 N 
ATOM     10  N   UNL A   1      34.028  27.950  26.907  1.00  0.00    -0.169 NA
ATOM     11  C   UNL A   1      31.849  28.486  26.183  1.00  0.00     0.180 C 
ATOM     12  C   UNL A   1      32.430  29.708  26.912  1.00  0.00     0.101 C 
BRANCH   9  13
ATOM     13  C   UNL A   1      32.744  26.130  26.092  1.00  0.00     0.060 A 
ATOM     14  C   UNL A   1      32.699  23.468  25.177  1.00  0.00     0.082 A 
ATOM     15  C   UNL A   1      33.792  24.286  24.882  1.00  0.00     0.024 A 
ATOM     16  C   UNL A   1      31.603  23.982  25.869  1.00  0.00     0.024 A 
ATOM     17  C   UNL A   1      33.812  25.608  25.350  1.00  0.00     0.029 A 
ATOM     18  C   UNL A   1      31.624  25.312  26.301  1.00  0.00     0.029 A 
BRANCH  14  19
ATOM     19  S   UNL A   1      32.670  21.791  24.617  1.00  0.00     0.238 S 
ATOM     20  O   UNL A   1      32.739  21.758  23.174  1.00  0.00    -0.207 OA
ATOM     21  O   UNL A   1      31.697  21.041  25.374  1.00  0.00    -0.207 OA
BRANCH  19  22
ATOM     22  N   UNL A   1      34.166  21.220  25.144  1.00  0.00    -0.225 NA
ATOM     23  H   UNL A   1      34.873  21.411  24.435  1.00  0.00     0.137 HD
ATOM     24  H   UNL A   1      34.109  20.214  25.304  1.00  0.00     0.137 HD
ENDBRANCH  19  22
ENDBRANCH  14  19
ENDBRANCH   9  13
BRANCH  11  25
ATOM     25  C   UNL A   1      31.695  28.752  24.709  1.00  0.00     0.128 A 
ATOM     26  C   UNL A   1      30.594  28.958  23.899  1.00  0.00     0.048 A 
ATOM     27  O   UNL A   1      32.831  28.801  23.949  1.00  0.00    -0.467 OA
ATOM     28  C   UNL A   1      31.083  29.100  22.579  1.00  0.00     0.042 A 
ATOM     29  C   UNL A   1      32.451  29.012  22.666  1.00  0.00     0.195 A 
ENDBRANCH  11  25
ENDBRANCH   6   8
ENDBRANCH   5   6
ENDBRANCH   4   5
ENDBRANCH   3   4
ENDBRANCH   2   3
ENDBRANCH   1   2
BRANCH   1  30
ATOM     30  C   UNL A   1      38.709  30.241  30.790  1.00  0.00     0.188 C 
BRANCH  30  31
ATOM     31  O   UNL A   1      37.790  29.401  31.448  1.00  0.00    -0.376 OA
BRANCH  31  32
ATOM     32  C   UNL A   1      36.647  29.961  32.075  1.00  0.00     0.202 C 
BRANCH  32  33
ATOM     33  C   UNL A   1      36.610  31.218  32.973  1.00  0.00     0.261 C 
BRANCH  33  34
ATOM     34  O   UNL A   1      37.416  31.254  34.151  1.00  0.00    -0.460 OA
BRANCH  34  35
ATOM     35  C   UNL A   1      37.707  32.488  34.635  1.00  0.00     0.338 C 
ATOM     36  O   UNL A   1      37.169  33.055  35.570  1.00  0.00    -0.246 OA
BRANCH  35  37
ATOM     37  C   UNL A   1      38.933  32.967  33.968  1.00  0.00     0.060 A 
ATOM     38  C   UNL A   1      38.822  33.889  32.917  1.00  0.00     0.016 A 
ATOM     39  C   UNL A   1      40.181  32.490  34.367  1.00  0.00     0.016 A 
ATOM     40  C   UNL A   1      39.964  34.326  32.247  1.00  0.00     0.010 A 
ATOM     41  C   UNL A   1      41.321  32.909  33.677  1.00  0.00     0.010 A 
ATOM     42  C   UNL A   1      41.215  33.803  32.596  1.00  0.00    -0.014 A 
BRANCH  42  43
ATOM     43  C   UNL A   1      42.387  34.033  31.718  1.00  0.00     0.031 A 
ATOM     44  C   UNL A   1      42.734  32.978  30.704  1.00  0.00     0.074 A 
ATOM     45  C   UNL A   1      43.131  35.149  31.818  1.00  0.00     0.049 A 
ATOM     46  N   UNL A   1      43.759  32.906  29.896  1.00  0.00    -0.248 NA
ATOM     47  C   UNL A   1      41.798  31.845  30.591  1.00  0.00     0.031 C 
ATOM     48  C   UNL A   1      42.863  36.270  32.718  1.00  0.00     0.029 A 
ATOM     49  N   UNL A   1      44.278  35.514  31.157  1.00  0.00    -0.354 N 
ATOM     50  C   UNL A   1      43.602  31.718  29.193  1.00  0.00     0.074 A 
ATOM     51  C   UNL A   1      42.398  31.086  29.687  1.00  0.00     0.031 C 
ATOM     52  C   UNL A   1      43.829  37.192  32.562  1.00  0.00     0.029 A 
ATOM     53  C   UNL A   1      44.803  36.709  31.586  1.00  0.00     0.049 A 
ATOM     54  H   UNL A   1      44.684  34.971  30.444  1.00  0.00     0.167 HD
ATOM     55  C   UNL A   1      44.389  31.200  28.220  1.00  0.00     0.031 A 
ATOM     56  C   UNL A   1      45.955  37.326  31.250  1.00  0.00     0.031 A 
ATOM     57  C   UNL A   1      45.594  31.826  27.745  1.00  0.00     0.049 A 
ATOM     58  C   UNL A   1      46.861  36.687  30.227  1.00  0.00     0.074 A 
ATOM     59  C   UNL A   1      46.459  31.387  26.758  1.00  0.00     0.029 A 
ATOM     60  N   UNL A   1      46.110  33.019  28.227  1.00  0.00    -0.354 N 
ATOM     61  N   UNL A   1      46.699  35.568  29.560  1.00  0.00    -0.248 NA
ATOM     62  C   UNL A   1      48.107  37.400  29.904  1.00  0.00     0.031 C 
ATOM     63  C   UNL A   1      47.531  32.281  26.689  1.00  0.00     0.029 A 
ATOM     64  C   UNL A   1      47.296  33.317  27.579  1.00  0.00     0.049 A 
ATOM     65  H   UNL A   1      45.694  33.574  28.927  1.00  0.00     0.167 HD
ATOM     66  C   UNL A   1      47.798  35.465  28.713  1.00  0.00     0.074 A 
ATOM     67  C   UNL A   1      48.616  36.637  28.946  1.00  0.00     0.031 C 
ATOM     68  C   UNL A   1      48.099  34.492  27.816  1.00  0.00     0.031 A 
BRANCH  55  69
ATOM     69  C   UNL A   1      43.993  29.868  27.639  1.00  0.00    -0.014 A 
ATOM     70  C   UNL A   1      44.541  28.665  28.120  1.00  0.00     0.010 A 
ATOM     71  C   UNL A   1      43.027  29.817  26.617  1.00  0.00     0.010 A 
ATOM     72  C   UNL A   1      44.160  27.441  27.562  1.00  0.00     0.020 A 
ATOM     73  C   UNL A   1      42.620  28.593  26.079  1.00  0.00     0.020 A 
ATOM     74  C   UNL A   1      43.202  27.414  26.545  1.00  0.00     0.054 A 
BRANCH  74  75
ATOM     75  S   UNL A   1      42.711  25.809  25.857  1.00  0.00     0.124 S 
ATOM     76  O   UNL A   1      41.654  26.191  24.923  1.00  0.00    -0.237 OA
ATOM     77  O   UNL A   1      43.948  25.332  25.245  1.00  0.00    -0.237 OA
ATOM     78  O   UNL A   1      42.265  25.052  27.024  1.00  0.00    -0.744 OA
ENDBRANCH  74  75
ENDBRANCH  55  69
BRANCH  56  79
ATOM     79  C   UNL A   1      46.331  38.612  31.903  1.00  0.00    -0.014 A 
ATOM     80  C   UNL A   1      47.067  38.623  33.101  1.00  0.00     0.010 A 
ATOM     81  C   UNL A   1      45.944  39.838  31.331  1.00  0.00     0.010 A 
ATOM     82  C   UNL A   1      47.391  39.833  33.725  1.00  0.00     0.020 A 
ATOM     83  C   UNL A   1      46.294  41.051  31.933  1.00  0.00     0.020 A 
ATOM     84  C   UNL A   1      47.004  41.040  33.135  1.00  0.00     0.054 A 
BRANCH  84  85
ATOM     85  S   UNL A   1      47.469  42.598  33.942  1.00  0.00     0.124 S 
ATOM     86  O   UNL A   1      47.669  43.485  32.801  1.00  0.00    -0.237 OA
ATOM     87  O   UNL A   1      46.301  42.885  34.770  1.00  0.00    -0.237 OA
ATOM     88  O   UNL A   1      48.680  42.252  34.684  1.00  0.00    -0.744 OA
ENDBRANCH  84  85
ENDBRANCH  56  79
BRANCH  68  89
ATOM     89  C   UNL A   1      49.338  34.670  26.973  1.00  0.00    -0.014 A 
ATOM     90  C   UNL A   1      50.591  34.191  27.391  1.00  0.00     0.010 A 
ATOM     91  C   UNL A   1      49.224  35.269  25.704  1.00  0.00     0.010 A 
ATOM     92  C   UNL A   1      51.712  34.332  26.568  1.00  0.00     0.020 A 
ATOM     93  C   UNL A   1      50.334  35.382  24.864  1.00  0.00     0.020 A 
ATOM     94  C   UNL A   1      51.576  34.924  25.308  1.00  0.00     0.054 A 
BRANCH  94  95
ATOM     95  S   UNL A   1      53.037  35.045  24.237  1.00  0.00     0.124 S 
ATOM     96  O   UNL A   1      52.513  35.782  23.090  1.00  0.00    -0.237 OA
ATOM     97  O   UNL A   1      53.985  35.776  25.073  1.00  0.00    -0.237 OA
ATOM     98  O   UNL A   1      53.391  33.652  23.973  1.00  0.00    -0.744 OA
ENDBRANCH  94  95
ENDBRANCH  68  89
ENDBRANCH  42  43
ENDBRANCH  35  37
ENDBRANCH  34  35
ENDBRANCH  33  34
ENDBRANCH  32  33
ENDBRANCH  31  32
ENDBRANCH  30  31
ENDBRANCH   1  30
TORSDOF 24
ENDMDL
MODEL 2
REMARK VINA RESULT:      -7.7      3.670      4.994
REMARK SMILES NS(=O)(=O)c1ccc(N2N=C(C(=O)OCCOCCOCCOC(=O)c3ccc(-c4c5nc(c(-c6ccc(S(=O)(=O)[O-])cc6)c6ccc([nH]6)c(-c6ccc(S(=O)(=O)[O-])cc6)c6nc(c(-c7ccc(S(=O)(=O)[O-])cc7)c7ccc4[nH]7)C=C6)C=C5)cc3)C[C@H]2c2ccco2)cc1
REMARK SMILES IDX 18 1 17 2 16 3 15 4 14 5 12 6 13 7 11 8 9 9 10 10 87 11
REMARK SMILES IDX 86 12 8 13 5 14 6 15 94 16 7 17 93 18 2 19 3 20 4 21 1 22
REMARK SMILES IDX 88 25 89 26 92 27 90 28 91 29 19 30 20 31 21 32 22 33 23 34
REMARK SMILES IDX 24 35 25 36 26 37 27 38 85 39 28 40 84 41 29 42 30 43 31 44
REMARK SMILES IDX 78 45 32 46 83 47 77 48 79 49 33 50 82 51 76 52 75 53 34 55
REMARK SMILES IDX 64 56 45 57 63 58 46 59 49 60 62 61 80 62 47 63 48 64 61 66
REMARK SMILES IDX 81 67 50 68 35 69 36 70 44 71 37 72 43 73 38 74 39 75 40 76
REMARK SMILES IDX 41 77 42 78 65 79 66 80 74 81 67 82 73 83 68 84 69 85 70 86
REMARK SMILES IDX 71 87 72 88 51 89 52 90 60 91 53 92 59 93 54 94 55 95 56 96
REMARK SMILES IDX 57 97 58 98
REMARK H PARENT 1 23 1 24 79 54 49 65
REMARK Flexibility Score: inf
ROOT
ATOM      1  C   UNL A   1      37.590  31.634  28.776  1.00  0.00     0.188 C 
ENDROOT
BRANCH   1   2
ATOM      2  O   UNL A   1      36.942  32.891  28.877  1.00  0.00    -0.376 OA
BRANCH   2   3
ATOM      3  C   UNL A   1      35.651  33.078  28.317  1.00  0.00     0.202 C 
BRANCH   3   4
ATOM      4  C   UNL A   1      34.465  32.152  28.642  1.00  0.00     0.261 C 
BRANCH   4   5
ATOM      5  O   UNL A   1      33.960  31.402  27.530  1.00  0.00    -0.459 OA
BRANCH   5   6
ATOM      6  C   UNL A   1      34.528  30.194  27.329  1.00  0.00     0.354 C 
ATOM      7  O   UNL A   1      35.697  29.889  27.460  1.00  0.00    -0.245 OA
BRANCH   6   8
ATOM      8  C   UNL A   1      33.453  29.187  27.005  1.00  0.00     0.148 C 
ATOM      9  N   UNL A   1      32.491  27.339  26.587  1.00  0.00    -0.254 N 
ATOM     10  N   UNL A   1      33.692  27.914  26.904  1.00  0.00    -0.169 NA
ATOM     11  C   UNL A   1      31.497  28.350  26.160  1.00  0.00     0.180 C 
ATOM     12  C   UNL A   1      32.023  29.605  26.875  1.00  0.00     0.101 C 
BRANCH   9  13
ATOM     13  C   UNL A   1      32.488  26.032  26.107  1.00  0.00     0.060 A 
ATOM     14  C   UNL A   1      32.448  23.432  25.026  1.00  0.00     0.082 A 
ATOM     15  C   UNL A   1      31.252  24.048  25.399  1.00  0.00     0.024 A 
ATOM     16  C   UNL A   1      33.667  24.074  25.244  1.00  0.00     0.024 A 
ATOM     17  C   UNL A   1      31.278  25.347  25.927  1.00  0.00     0.029 A 
ATOM     18  C   UNL A   1      33.679  25.356  25.802  1.00  0.00     0.029 A 
BRANCH  14  19
ATOM     19  S   UNL A   1      32.431  21.805  24.334  1.00  0.00     0.238 S 
ATOM     20  O   UNL A   1      31.500  20.975  25.065  1.00  0.00    -0.207 OA
ATOM     21  O   UNL A   1      33.779  21.391  24.027  1.00  0.00    -0.207 OA
BRANCH  19  22
ATOM     22  N   UNL A   1      31.704  22.070  22.836  1.00  0.00    -0.225 NA
ATOM     23  H   UNL A   1      32.425  22.209  22.128  1.00  0.00     0.137 HD
ATOM     24  H   UNL A   1      31.113  22.900  22.887  1.00  0.00     0.137 HD
ENDBRANCH  19  22
ENDBRANCH  14  19
ENDBRANCH   9  13
BRANCH  11  25
ATOM     25  C   UNL A   1      31.341  28.589  24.682  1.00  0.00     0.128 A 
ATOM     26  C   UNL A   1      32.136  28.293  23.591  1.00  0.00     0.048 A 
ATOM     27  O   UNL A   1      30.215  29.239  24.258  1.00  0.00    -0.467 OA
ATOM     28  C   UNL A   1      31.478  28.822  22.455  1.00  0.00     0.042 A 
ATOM     29  C   UNL A   1      30.307  29.374  22.913  1.00  0.00     0.195 A 
ENDBRANCH  11  25
ENDBRANCH   6   8
ENDBRANCH   5   6
ENDBRANCH   4   5
ENDBRANCH   3   4
ENDBRANCH   2   3
ENDBRANCH   1   2
BRANCH   1  30
ATOM     30  C   UNL A   1      38.204  31.007  30.042  1.00  0.00     0.188 C 
BRANCH  30  31
ATOM     31  O   UNL A   1      37.305  30.451  30.972  1.00  0.00    -0.376 OA
BRANCH  31  32
ATOM     32  C   UNL A   1      36.970  31.174  32.148  1.00  0.00     0.202 C 
BRANCH  32  33
ATOM     33  C   UNL A   1      37.355  32.635  32.473  1.00  0.00     0.261 C 
BRANCH  33  34
ATOM     34  O   UNL A   1      38.416  32.884  33.395  1.00  0.00    -0.460 OA
BRANCH  34  35
ATOM     35  C   UNL A   1      39.375  33.748  32.978  1.00  0.00     0.338 C 
ATOM     36  O   UNL A   1      39.499  34.918  33.296  1.00  0.00    -0.246 OA
BRANCH  35  37
ATOM     37  C   UNL A   1      40.384  32.984  32.219  1.00  0.00     0.060 A 
ATOM     38  C   UNL A   1      41.044  31.915  32.843  1.00  0.00     0.016 A 
ATOM     39  C   UNL A   1      40.690  33.338  30.905  1.00  0.00     0.016 A 
ATOM     40  C   UNL A   1      42.028  31.205  32.158  1.00  0.00     0.010 A 
ATOM     41  C   UNL A   1      41.694  32.642  30.229  1.00  0.00     0.010 A 
ATOM     42  C   UNL A   1      42.388  31.594  30.862  1.00  0.00    -0.014 A 
BRANCH  42  43
ATOM     43  C   UNL A   1      43.613  31.043  30.235  1.00  0.00     0.031 A 
ATOM     44  C   UNL A   1      43.543  29.672  29.619  1.00  0.00     0.074 A 
ATOM     45  C   UNL A   1      44.764  31.739  30.212  1.00  0.00     0.049 A 
ATOM     46  N   UNL A   1      44.496  28.943  29.102  1.00  0.00    -0.248 NA
ATOM     47  C   UNL A   1      42.214  29.035  29.591  1.00  0.00     0.031 C 
ATOM     48  C   UNL A   1      44.944  33.098  30.720  1.00  0.00     0.029 A 
ATOM     49  N   UNL A   1      46.007  31.383  29.750  1.00  0.00    -0.354 N 
ATOM     50  C   UNL A   1      43.890  27.759  28.702  1.00  0.00     0.074 A 
ATOM     51  C   UNL A   1      42.492  27.853  29.062  1.00  0.00     0.031 C 
ATOM     52  C   UNL A   1      46.229  33.457  30.555  1.00  0.00     0.029 A 
ATOM     53  C   UNL A   1      46.970  32.340  29.971  1.00  0.00     0.049 A 
ATOM     54  H   UNL A   1      46.191  30.526  29.304  1.00  0.00     0.167 HD
ATOM     55  C   UNL A   1      44.447  26.687  28.089  1.00  0.00     0.031 A 
ATOM     56  C   UNL A   1      48.300  32.304  29.752  1.00  0.00     0.031 A 
ATOM     57  C   UNL A   1      45.842  26.594  27.749  1.00  0.00     0.049 A 
ATOM     58  C   UNL A   1      48.915  31.066  29.148  1.00  0.00     0.074 A 
ATOM     59  C   UNL A   1      46.505  25.555  27.119  1.00  0.00     0.029 A 
ATOM     60  N   UNL A   1      46.790  27.569  28.018  1.00  0.00    -0.354 N 
ATOM     61  N   UNL A   1      48.331  29.954  28.765  1.00  0.00    -0.248 NA
ATOM     62  C   UNL A   1      50.370  31.079  28.940  1.00  0.00     0.031 C 
ATOM     63  C   UNL A   1      47.865  25.875  27.067  1.00  0.00     0.029 A 
ATOM     64  C   UNL A   1      48.037  27.145  27.593  1.00  0.00     0.049 A 
ATOM     65  H   UNL A   1      46.604  28.436  28.447  1.00  0.00     0.167 HD
ATOM     66  C   UNL A   1      49.340  29.156  28.235  1.00  0.00     0.074 A 
ATOM     67  C   UNL A   1      50.570  29.913  28.340  1.00  0.00     0.031 C 
ATOM     68  C   UNL A   1      49.255  27.912  27.699  1.00  0.00     0.031 A 
BRANCH  55  69
ATOM     69  C   UNL A   1      43.553  25.513  27.788  1.00  0.00    -0.014 A 
ATOM     70  C   UNL A   1      43.421  24.441  28.689  1.00  0.00     0.010 A 
ATOM     71  C   UNL A   1      42.802  25.501  26.598  1.00  0.00     0.010 A 
ATOM     72  C   UNL A   1      42.588  23.360  28.386  1.00  0.00     0.020 A 
ATOM     73  C   UNL A   1      41.943  24.438  26.306  1.00  0.00     0.020 A 
ATOM     74  C   UNL A   1      41.854  23.366  27.196  1.00  0.00     0.054 A 
BRANCH  74  75
ATOM     75  S   UNL A   1      40.763  21.961  26.841  1.00  0.00     0.124 S 
ATOM     76  O   UNL A   1      41.588  21.157  25.944  1.00  0.00    -0.237 OA
ATOM     77  O   UNL A   1      40.537  21.391  28.166  1.00  0.00    -0.237 OA
ATOM     78  O   UNL A   1      39.591  22.578  26.223  1.00  0.00    -0.744 OA
ENDBRANCH  74  75
ENDBRANCH  55  69
BRANCH  56  79
ATOM     79  C   UNL A   1      49.150  33.470  30.128  1.00  0.00    -0.014 A 
ATOM     80  C   UNL A   1      49.731  33.556  31.406  1.00  0.00     0.010 A 
ATOM     81  C   UNL A   1      49.375  34.510  29.208  1.00  0.00     0.010 A 
ATOM     82  C   UNL A   1      50.503  34.667  31.762  1.00  0.00     0.020 A 
ATOM     83  C   UNL A   1      50.172  35.607  29.548  1.00  0.00     0.020 A 
ATOM     84  C   UNL A   1      50.721  35.685  30.830  1.00  0.00     0.054 A 
BRANCH  84  85
ATOM     85  S   UNL A   1      51.757  37.098  31.302  1.00  0.00     0.124 S 
ATOM     86  O   UNL A   1      50.855  37.867  32.153  1.00  0.00    -0.237 OA
ATOM     87  O   UNL A   1      52.876  36.454  31.985  1.00  0.00    -0.237 OA
ATOM     88  O   UNL A   1      52.092  37.720  30.023  1.00  0.00    -0.744 OA
ENDBRANCH  84  85
ENDBRANCH  56  79
BRANCH  68  89
ATOM     89  C   UNL A   1      50.513  27.302  27.133  1.00  0.00    -0.014 A 
ATOM     90  C   UNL A   1      50.819  27.378  25.763  1.00  0.00     0.010 A 
ATOM     91  C   UNL A   1      51.439  26.702  28.007  1.00  0.00     0.010 A 
ATOM     92  C   UNL A   1      52.015  26.841  25.275  1.00  0.00     0.020 A 
ATOM     93  C   UNL A   1      52.650  26.195  27.529  1.00  0.00     0.020 A 
ATOM     94  C   UNL A   1      52.924  26.256  26.162  1.00  0.00     0.054 A 
BRANCH  94  95
ATOM     95  S   UNL A   1      54.492  25.615  25.510  1.00  0.00     0.124 S 
ATOM     96  O   UNL A   1      54.057  24.908  24.309  1.00  0.00    -0.237 OA
ATOM     97  O   UNL A   1      55.262  26.834  25.278  1.00  0.00    -0.237 OA
ATOM     98  O   UNL A   1      54.994  24.764  26.586  1.00  0.00    -0.744 OA
ENDBRANCH  94  95
ENDBRANCH  68  89
ENDBRANCH  42  43
ENDBRANCH  35  37
ENDBRANCH  34  35
ENDBRANCH  33  34
ENDBRANCH  32  33
ENDBRANCH  31  32
ENDBRANCH  30  31
ENDBRANCH   1  30
TORSDOF 24
ENDMDL
MODEL 3
REMARK VINA RESULT:      -7.5      5.388     14.103
REMARK SMILES NS(=O)(=O)c1ccc(N2N=C(C(=O)OCCOCCOCCOC(=O)c3ccc(-c4c5nc(c(-c6ccc(S(=O)(=O)[O-])cc6)c6ccc([nH]6)c(-c6ccc(S(=O)(=O)[O-])cc6)c6nc(c(-c7ccc(S(=O)(=O)[O-])cc7)c7ccc4[nH]7)C=C6)C=C5)cc3)C[C@H]2c2ccco2)cc1
REMARK SMILES IDX 18 1 17 2 16 3 15 4 14 5 12 6 13 7 11 8 9 9 10 10 87 11
REMARK SMILES IDX 86 12 8 13 5 14 6 15 94 16 7 17 93 18 2 19 3 20 4 21 1 22
REMARK SMILES IDX 88 25 89 26 92 27 90 28 91 29 19 30 20 31 21 32 22 33 23 34
REMARK SMILES IDX 24 35 25 36 26 37 27 38 85 39 28 40 84 41 29 42 30 43 31 44
REMARK SMILES IDX 78 45 32 46 83 47 77 48 79 49 33 50 82 51 76 52 75 53 34 55
REMARK SMILES IDX 64 56 45 57 63 58 46 59 49 60 62 61 80 62 47 63 48 64 61 66
REMARK SMILES IDX 81 67 50 68 35 69 36 70 44 71 37 72 43 73 38 74 39 75 40 76
REMARK SMILES IDX 41 77 42 78 65 79 66 80 74 81 67 82 73 83 68 84 69 85 70 86
REMARK SMILES IDX 71 87 72 88 51 89 52 90 60 91 53 92 59 93 54 94 55 95 56 96
REMARK SMILES IDX 57 97 58 98
REMARK H PARENT 1 23 1 24 79 54 49 65
REMARK Flexibility Score: inf
ROOT
ATOM      1  C   UNL A   1      42.672  35.111  30.850  1.00  0.00     0.188 C 
ENDROOT
BRANCH   1   2
ATOM      2  O   UNL A   1      42.738  36.149  29.888  1.00  0.00    -0.376 OA
BRANCH   2   3
ATOM      3  C   UNL A   1      42.951  35.843  28.518  1.00  0.00     0.202 C 
BRANCH   3   4
ATOM      4  C   UNL A   1      42.212  36.572  27.382  1.00  0.00     0.261 C 
BRANCH   4   5
ATOM      5  O   UNL A   1      42.980  37.573  26.703  1.00  0.00    -0.459 OA
BRANCH   5   6
ATOM      6  C   UNL A   1      42.505  38.834  26.786  1.00  0.00     0.354 C 
ATOM      7  O   UNL A   1      41.363  39.188  26.999  1.00  0.00    -0.245 OA
BRANCH   6   8
ATOM      8  C   UNL A   1      43.655  39.805  26.676  1.00  0.00     0.148 C 
ATOM      9  N   UNL A   1      44.956  41.300  25.910  1.00  0.00    -0.254 N 
ATOM     10  N   UNL A   1      43.811  40.594  25.656  1.00  0.00    -0.169 NA
ATOM     11  C   UNL A   1      45.734  40.699  27.017  1.00  0.00     0.180 C 
ATOM     12  C   UNL A   1      44.628  39.974  27.799  1.00  0.00     0.101 C 
BRANCH   9  13
ATOM     13  C   UNL A   1      45.553  41.995  24.861  1.00  0.00     0.060 A 
ATOM     14  C   UNL A   1      46.713  43.505  22.787  1.00  0.00     0.082 A 
ATOM     15  C   UNL A   1      45.355  43.183  22.737  1.00  0.00     0.024 A 
ATOM     16  C   UNL A   1      47.510  43.029  23.828  1.00  0.00     0.024 A 
ATOM     17  C   UNL A   1      44.781  42.440  23.778  1.00  0.00     0.029 A 
ATOM     18  C   UNL A   1      46.929  42.261  24.842  1.00  0.00     0.029 A 
BRANCH  14  19
ATOM     19  S   UNL A   1      47.447  44.463  21.494  1.00  0.00     0.238 S 
ATOM     20  O   UNL A   1      47.786  45.776  21.993  1.00  0.00    -0.207 OA
ATOM     21  O   UNL A   1      46.725  44.253  20.262  1.00  0.00    -0.207 OA
BRANCH  19  22
ATOM     22  N   UNL A   1      48.923  43.679  21.272  1.00  0.00    -0.225 NA
ATOM     23  H   UNL A   1      48.872  43.085  20.445  1.00  0.00     0.137 HD
ATOM     24  H   UNL A   1      49.129  43.105  22.091  1.00  0.00     0.137 HD
ENDBRANCH  19  22
ENDBRANCH  14  19
ENDBRANCH   9  13
BRANCH  11  25
ATOM     25  C   UNL A   1      46.850  39.757  26.649  1.00  0.00     0.128 A 
ATOM     26  C   UNL A   1      48.068  39.465  27.234  1.00  0.00     0.048 A 
ATOM     27  O   UNL A   1      46.707  39.015  25.509  1.00  0.00    -0.467 OA
ATOM     28  C   UNL A   1      48.710  38.531  26.388  1.00  0.00     0.042 A 
ATOM     29  C   UNL A   1      47.834  38.278  25.361  1.00  0.00     0.195 A 
ENDBRANCH  11  25
ENDBRANCH   6   8
ENDBRANCH   5   6
ENDBRANCH   4   5
ENDBRANCH   3   4
ENDBRANCH   2   3
ENDBRANCH   1   2
BRANCH   1  30
ATOM     30  C   UNL A   1      43.389  35.299  32.202  1.00  0.00     0.188 C 
BRANCH  30  31
ATOM     31  O   UNL A   1      44.744  35.678  32.151  1.00  0.00    -0.376 OA
BRANCH  31  32
ATOM     32  C   UNL A   1      45.088  37.040  31.947  1.00  0.00     0.202 C 
BRANCH  32  33
ATOM     33  C   UNL A   1      46.485  37.593  31.583  1.00  0.00     0.261 C 
BRANCH  33  34
ATOM     34  O   UNL A   1      46.847  37.715  30.207  1.00  0.00    -0.460 OA
BRANCH  34  35
ATOM     35  C   UNL A   1      47.898  36.961  29.800  1.00  0.00     0.338 C 
ATOM     36  O   UNL A   1      49.081  37.233  29.906  1.00  0.00    -0.246 OA
BRANCH  35  37
ATOM     37  C   UNL A   1      47.385  35.644  29.378  1.00  0.00     0.060 A 
ATOM     38  C   UNL A   1      47.498  34.555  30.256  1.00  0.00     0.016 A 
ATOM     39  C   UNL A   1      46.815  35.483  28.116  1.00  0.00     0.016 A 
ATOM     40  C   UNL A   1      47.055  33.293  29.864  1.00  0.00     0.010 A 
ATOM     41  C   UNL A   1      46.396  34.213  27.715  1.00  0.00     0.010 A 
ATOM     42  C   UNL A   1      46.542  33.107  28.574  1.00  0.00    -0.014 A 
BRANCH  42  43
ATOM     43  C   UNL A   1      46.337  31.738  28.045  1.00  0.00     0.031 A 
ATOM     44  C   UNL A   1      44.957  31.145  28.120  1.00  0.00     0.074 A 
ATOM     45  C   UNL A   1      47.351  31.032  27.514  1.00  0.00     0.049 A 
ATOM     46  N   UNL A   1      44.551  29.941  27.815  1.00  0.00    -0.248 NA
ATOM     47  C   UNL A   1      43.889  32.034  28.612  1.00  0.00     0.031 C 
ATOM     48  C   UNL A   1      48.719  31.516  27.331  1.00  0.00     0.029 A 
ATOM     49  N   UNL A   1      47.383  29.743  27.042  1.00  0.00    -0.354 N 
ATOM     50  C   UNL A   1      43.190  29.920  28.093  1.00  0.00     0.074 A 
ATOM     51  C   UNL A   1      42.842  31.222  28.617  1.00  0.00     0.031 C 
ATOM     52  C   UNL A   1      49.461  30.530  26.798  1.00  0.00     0.029 A 
ATOM     53  C   UNL A   1      48.634  29.335  26.643  1.00  0.00     0.049 A 
ATOM     54  H   UNL A   1      46.587  29.167  26.993  1.00  0.00     0.167 HD
ATOM     55  C   UNL A   1      42.307  28.906  27.925  1.00  0.00     0.031 A 
ATOM     56  C   UNL A   1      49.065  28.126  26.229  1.00  0.00     0.031 A 
ATOM     57  C   UNL A   1      42.664  27.608  27.417  1.00  0.00     0.049 A 
ATOM     58  C   UNL A   1      48.082  26.985  26.133  1.00  0.00     0.074 A 
ATOM     59  C   UNL A   1      41.843  26.515  27.202  1.00  0.00     0.029 A 
ATOM     60  N   UNL A   1      43.946  27.223  27.056  1.00  0.00    -0.354 N 
ATOM     61  N   UNL A   1      46.795  26.979  26.389  1.00  0.00    -0.248 NA
ATOM     62  C   UNL A   1      48.609  25.688  25.684  1.00  0.00     0.031 C 
ATOM     63  C   UNL A   1      42.640  25.450  26.772  1.00  0.00     0.029 A 
ATOM     64  C   UNL A   1      43.944  25.902  26.646  1.00  0.00     0.049 A 
ATOM     65  H   UNL A   1      44.740  27.805  27.085  1.00  0.00     0.167 HD
ATOM     66  C   UNL A   1      46.353  25.693  26.093  1.00  0.00     0.074 A 
ATOM     67  C   UNL A   1      47.508  24.950  25.634  1.00  0.00     0.031 C 
ATOM     68  C   UNL A   1      45.102  25.175  26.184  1.00  0.00     0.031 A 
BRANCH  55  69
ATOM     69  C   UNL A   1      40.879  29.151  28.336  1.00  0.00    -0.014 A 
ATOM     70  C   UNL A   1      39.870  29.382  27.384  1.00  0.00     0.010 A 
ATOM     71  C   UNL A   1      40.535  29.114  29.700  1.00  0.00     0.010 A 
ATOM     72  C   UNL A   1      38.553  29.611  27.791  1.00  0.00     0.020 A 
ATOM     73  C   UNL A   1      39.213  29.311  30.109  1.00  0.00     0.020 A 
ATOM     74  C   UNL A   1      38.232  29.574  29.151  1.00  0.00     0.054 A 
BRANCH  74  75
ATOM     75  S   UNL A   1      36.510  29.851  29.647  1.00  0.00     0.124 S 
ATOM     76  O   UNL A   1      36.359  28.909  30.753  1.00  0.00    -0.237 OA
ATOM     77  O   UNL A   1      36.509  31.263  30.020  1.00  0.00    -0.237 OA
ATOM     78  O   UNL A   1      35.745  29.527  28.444  1.00  0.00    -0.744 OA
ENDBRANCH  74  75
ENDBRANCH  55  69
BRANCH  56  79
ATOM     79  C   UNL A   1      50.504  27.920  25.896  1.00  0.00    -0.014 A 
ATOM     80  C   UNL A   1      50.976  28.122  24.587  1.00  0.00     0.010 A 
ATOM     81  C   UNL A   1      51.411  27.509  26.890  1.00  0.00     0.010 A 
ATOM     82  C   UNL A   1      52.321  27.898  24.274  1.00  0.00     0.020 A 
ATOM     83  C   UNL A   1      52.763  27.315  26.589  1.00  0.00     0.020 A 
ATOM     84  C   UNL A   1      53.207  27.498  25.279  1.00  0.00     0.054 A 
BRANCH  84  85
ATOM     85  S   UNL A   1      54.955  27.251  24.858  1.00  0.00     0.124 S 
ATOM     86  O   UNL A   1      54.925  25.962  24.175  1.00  0.00    -0.237 OA
ATOM     87  O   UNL A   1      55.243  28.408  24.013  1.00  0.00    -0.237 OA
ATOM     88  O   UNL A   1      55.625  27.254  26.156  1.00  0.00    -0.744 OA
ENDBRANCH  84  85
ENDBRANCH  56  79
BRANCH  68  89
ATOM     89  C   UNL A   1      44.894  23.751  25.730  1.00  0.00    -0.014 A 
ATOM     90  C   UNL A   1      44.603  23.439  24.391  1.00  0.00     0.010 A 
ATOM     91  C   UNL A   1      45.067  22.703  26.654  1.00  0.00     0.010 A 
ATOM     92  C   UNL A   1      44.459  22.106  23.992  1.00  0.00     0.020 A 
ATOM     93  C   UNL A   1      44.957  21.370  26.252  1.00  0.00     0.020 A 
ATOM     94  C   UNL A   1      44.640  21.080  24.924  1.00  0.00     0.054 A 
BRANCH  94  95
ATOM     95  S   UNL A   1      44.502  19.358  24.367  1.00  0.00     0.124 S 
ATOM     96  O   UNL A   1      44.731  19.483  22.931  1.00  0.00    -0.237 OA
ATOM     97  O   UNL A   1      45.564  18.694  25.118  1.00  0.00    -0.237 OA
ATOM     98  O   UNL A   1      43.144  18.977  24.750  1.00  0.00    -0.744 OA
ENDBRANCH  94  95
ENDBRANCH  68  89
ENDBRANCH  42  43
ENDBRANCH  35  37
ENDBRANCH  34  35
ENDBRANCH  33  34
ENDBRANCH  32  33
ENDBRANCH  31  32
ENDBRANCH  30  31
ENDBRANCH   1  30
TORSDOF 24
ENDMDL
