MODEL 1
REMARK VINA RESULT:      -9.9      0.000      0.000
REMARK SMILES O=C(OCCOCCOCCOC(=O)[C@H]1CC(=O)N(Cc2cccc(Cl)c2)C1)c1ccc(-c2c3nc(c(-c4ccc(S(=O)(=O)[O-])cc4)c4ccc([nH]4)c(-c4ccc(S(=O)(=O)[O-])cc4)c4nc(c(-c5ccc(S(=O)(=O)[O-])cc5)c5ccc2[nH]5)C=C4)C=C3)cc1
REMARK SMILES IDX 7 1 6 2 5 3 4 4 3 5 2 6 1 7 29 8 30 9 88 10 31 11 87 12
REMARK SMILES IDX 32 13 33 14 34 15 81 16 35 17 86 18 80 19 82 20 36 21 85 22
REMARK SMILES IDX 79 23 78 24 37 26 67 27 48 28 66 29 49 30 52 31 65 32 83 33
REMARK SMILES IDX 50 34 51 35 64 37 84 38 53 39 38 40 39 41 47 42 40 43 46 44
REMARK SMILES IDX 41 45 42 46 43 47 44 48 45 49 68 50 69 51 77 52 70 53 76 54
REMARK SMILES IDX 71 55 72 56 73 57 74 58 75 59 54 60 55 61 63 62 56 63 62 64
REMARK SMILES IDX 57 65 58 66 59 67 60 68 61 69 8 70 9 71 10 72 11 73 12 74
REMARK SMILES IDX 13 75 14 76 15 77 16 78 28 79 17 80 19 81 18 82 20 83 21 84
REMARK SMILES IDX 22 85 27 86 23 87 25 88 24 89 26 90
REMARK H PARENT 82 25 52 36
REMARK Flexibility Score: inf
ROOT
ATOM      1  C   UNL A   1      39.269  21.765  26.008  1.00  0.00     0.188 C 
ENDROOT
BRANCH   1   2
ATOM      2  O   UNL A   1      39.732  22.424  27.190  1.00  0.00    -0.376 OA
BRANCH   2   3
ATOM      3  C   UNL A   1      41.054  22.035  27.582  1.00  0.00     0.202 C 
BRANCH   3   4
ATOM      4  C   UNL A   1      42.176  23.065  27.344  1.00  0.00     0.261 C 
BRANCH   4   5
ATOM      5  O   UNL A   1      41.934  23.968  26.252  1.00  0.00    -0.460 OA
BRANCH   5   6
ATOM      6  C   UNL A   1      41.483  25.248  26.272  1.00  0.00     0.338 C 
ATOM      7  O   UNL A   1      41.196  25.771  25.196  1.00  0.00    -0.246 OA
BRANCH   6   8
ATOM      8  C   UNL A   1      41.356  26.079  27.514  1.00  0.00     0.060 A 
ATOM      9  C   UNL A   1      40.255  26.092  28.370  1.00  0.00     0.016 A 
ATOM     10  C   UNL A   1      42.457  26.883  27.865  1.00  0.00     0.016 A 
ATOM     11  C   UNL A   1      40.196  26.910  29.486  1.00  0.00     0.010 A 
ATOM     12  C   UNL A   1      42.424  27.690  29.011  1.00  0.00     0.010 A 
ATOM     13  C   UNL A   1      41.272  27.725  29.806  1.00  0.00    -0.014 A 
BRANCH  13  14
ATOM     14  C   UNL A   1      41.071  28.737  30.859  1.00  0.00     0.031 A 
ATOM     15  C   UNL A   1      41.887  28.604  32.101  1.00  0.00     0.074 A 
ATOM     16  C   UNL A   1      40.301  29.820  30.647  1.00  0.00     0.049 A 
ATOM     17  N   UNL A   1      41.892  29.365  33.156  1.00  0.00    -0.248 NA
ATOM     18  C   UNL A   1      42.881  27.515  32.130  1.00  0.00     0.031 C 
ATOM     19  C   UNL A   1      39.675  30.152  29.376  1.00  0.00     0.029 A 
ATOM     20  N   UNL A   1      39.890  30.828  31.473  1.00  0.00    -0.354 N 
ATOM     21  C   UNL A   1      42.905  28.870  33.961  1.00  0.00     0.074 A 
ATOM     22  C   UNL A   1      43.465  27.714  33.301  1.00  0.00     0.031 C 
ATOM     23  C   UNL A   1      38.832  31.183  29.532  1.00  0.00     0.029 A 
ATOM     24  C   UNL A   1      38.890  31.601  30.919  1.00  0.00     0.049 A 
ATOM     25  H   UNL A   1      40.267  30.988  32.369  1.00  0.00     0.167 HD
ATOM     26  C   UNL A   1      43.335  29.368  35.139  1.00  0.00     0.031 A 
ATOM     27  C   UNL A   1      38.085  32.511  31.493  1.00  0.00     0.031 A 
ATOM     28  C   UNL A   1      42.707  30.490  35.778  1.00  0.00     0.049 A 
ATOM     29  C   UNL A   1      38.415  32.891  32.903  1.00  0.00     0.074 A 
ATOM     30  C   UNL A   1      42.998  31.065  36.999  1.00  0.00     0.029 A 
ATOM     31  N   UNL A   1      41.632  31.193  35.244  1.00  0.00    -0.354 N 
ATOM     32  N   UNL A   1      39.364  32.409  33.672  1.00  0.00    -0.248 NA
ATOM     33  C   UNL A   1      37.629  33.971  33.499  1.00  0.00     0.031 C 
ATOM     34  C   UNL A   1      42.049  32.065  37.237  1.00  0.00     0.029 A 
ATOM     35  C   UNL A   1      41.216  32.168  36.132  1.00  0.00     0.049 A 
ATOM     36  H   UNL A   1      41.226  31.022  34.364  1.00  0.00     0.167 HD
ATOM     37  C   UNL A   1      39.330  33.167  34.828  1.00  0.00     0.074 A 
ATOM     38  C   UNL A   1      38.259  34.134  34.655  1.00  0.00     0.031 C 
ATOM     39  C   UNL A   1      40.127  33.091  35.920  1.00  0.00     0.031 A 
BRANCH  26  40
ATOM     40  C   UNL A   1      44.462  28.639  35.815  1.00  0.00    -0.014 A 
ATOM     41  C   UNL A   1      44.222  27.582  36.713  1.00  0.00     0.010 A 
ATOM     42  C   UNL A   1      45.783  29.053  35.580  1.00  0.00     0.010 A 
ATOM     43  C   UNL A   1      45.284  26.982  37.395  1.00  0.00     0.020 A 
ATOM     44  C   UNL A   1      46.849  28.437  36.239  1.00  0.00     0.020 A 
ATOM     45  C   UNL A   1      46.592  27.417  37.156  1.00  0.00     0.054 A 
BRANCH  45  46
ATOM     46  S   UNL A   1      47.951  26.620  38.051  1.00  0.00     0.124 S 
ATOM     47  O   UNL A   1      48.166  25.409  37.261  1.00  0.00    -0.237 OA
ATOM     48  O   UNL A   1      49.015  27.618  37.968  1.00  0.00    -0.237 OA
ATOM     49  O   UNL A   1      47.408  26.401  39.388  1.00  0.00    -0.744 OA
ENDBRANCH  45  46
ENDBRANCH  26  40
BRANCH  27  50
ATOM     50  C   UNL A   1      36.901  33.073  30.788  1.00  0.00    -0.014 A 
ATOM     51  C   UNL A   1      37.034  33.954  29.702  1.00  0.00     0.010 A 
ATOM     52  C   UNL A   1      35.610  32.764  31.257  1.00  0.00     0.010 A 
ATOM     53  C   UNL A   1      35.903  34.552  29.130  1.00  0.00     0.020 A 
ATOM     54  C   UNL A   1      34.477  33.349  30.681  1.00  0.00     0.020 A 
ATOM     55  C   UNL A   1      34.630  34.256  29.630  1.00  0.00     0.054 A 
BRANCH  55  56
ATOM     56  S   UNL A   1      33.163  35.015  28.873  1.00  0.00     0.124 S 
ATOM     57  O   UNL A   1      33.736  36.181  28.208  1.00  0.00    -0.237 OA
ATOM     58  O   UNL A   1      32.664  33.968  27.986  1.00  0.00    -0.237 OA
ATOM     59  O   UNL A   1      32.307  35.306  30.022  1.00  0.00    -0.744 OA
ENDBRANCH  55  56
ENDBRANCH  27  50
BRANCH  39  60
ATOM     60  C   UNL A   1      39.878  34.110  36.990  1.00  0.00    -0.014 A 
ATOM     61  C   UNL A   1      39.153  33.783  38.148  1.00  0.00     0.010 A 
ATOM     62  C   UNL A   1      40.418  35.399  36.843  1.00  0.00     0.010 A 
ATOM     63  C   UNL A   1      38.947  34.745  39.134  1.00  0.00     0.020 A 
ATOM     64  C   UNL A   1      40.246  36.351  37.845  1.00  0.00     0.020 A 
ATOM     65  C   UNL A   1      39.501  36.020  38.979  1.00  0.00     0.054 A 
BRANCH  65  66
ATOM     66  S   UNL A   1      39.274  37.231  40.305  1.00  0.00     0.124 S 
ATOM     67  O   UNL A   1      38.514  38.279  39.631  1.00  0.00    -0.237 OA
ATOM     68  O   UNL A   1      38.540  36.466  41.310  1.00  0.00    -0.237 OA
ATOM     69  O   UNL A   1      40.639  37.593  40.680  1.00  0.00    -0.744 OA
ENDBRANCH  65  66
ENDBRANCH  39  60
ENDBRANCH  13  14
ENDBRANCH   6   8
ENDBRANCH   5   6
ENDBRANCH   4   5
ENDBRANCH   3   4
ENDBRANCH   2   3
ENDBRANCH   1   2
BRANCH   1  70
ATOM     70  C   UNL A   1      37.766  21.877  25.752  1.00  0.00     0.188 C 
BRANCH  70  71
ATOM     71  O   UNL A   1      37.304  21.891  24.406  1.00  0.00    -0.376 OA
BRANCH  71  72
ATOM     72  C   UNL A   1      35.907  22.024  24.175  1.00  0.00     0.202 C 
BRANCH  72  73
ATOM     73  C   UNL A   1      35.414  23.015  23.107  1.00  0.00     0.261 C 
BRANCH  73  74
ATOM     74  O   UNL A   1      34.277  23.799  23.491  1.00  0.00    -0.463 OA
BRANCH  74  75
ATOM     75  C   UNL A   1      34.396  24.399  24.703  1.00  0.00     0.311 C 
ATOM     76  O   UNL A   1      35.443  24.852  25.155  1.00  0.00    -0.252 OA
BRANCH  75  77
ATOM     77  C   UNL A   1      33.084  24.564  25.423  1.00  0.00     0.128 C 
ATOM     78  C   UNL A   1      32.829  25.846  26.194  1.00  0.00     0.117 C 
ATOM     79  C   UNL A   1      32.027  24.581  24.336  1.00  0.00     0.135 C 
ATOM     80  C   UNL A   1      31.339  26.053  26.008  1.00  0.00     0.223 C 
ATOM     81  N   UNL A   1      31.003  25.469  24.806  1.00  0.00    -0.337 N 
ATOM     82  O   UNL A   1      30.603  26.655  26.759  1.00  0.00    -0.275 OA
BRANCH  81  83
ATOM     83  C   UNL A   1      29.766  25.699  24.063  1.00  0.00     0.155 C 
BRANCH  83  84
ATOM     84  C   UNL A   1      29.817  27.038  23.358  1.00  0.00    -0.027 A 
ATOM     85  C   UNL A   1      31.032  27.509  22.825  1.00  0.00     0.005 A 
ATOM     86  C   UNL A   1      28.711  27.900  23.372  1.00  0.00     0.026 A 
ATOM     87  C   UNL A   1      31.145  28.814  22.350  1.00  0.00     0.002 A 
ATOM     88  C   UNL A   1      28.825  29.200  22.878  1.00  0.00     0.041 A 
ATOM     89  C   UNL A   1      30.037  29.660  22.371  1.00  0.00     0.020 A 
ATOM     90  Cl  UNL A   1      27.490  30.282  22.989  1.00  0.00    -0.084 Cl
ENDBRANCH  83  84
ENDBRANCH  81  83
ENDBRANCH  75  77
ENDBRANCH  74  75
ENDBRANCH  73  74
ENDBRANCH  72  73
ENDBRANCH  71  72
ENDBRANCH  70  71
ENDBRANCH   1  70
TORSDOF 22
ENDMDL
MODEL 2
REMARK VINA RESULT:      -9.6      5.031      6.734
REMARK SMILES O=C(OCCOCCOCCOC(=O)[C@H]1CC(=O)N(Cc2cccc(Cl)c2)C1)c1ccc(-c2c3nc(c(-c4ccc(S(=O)(=O)[O-])cc4)c4ccc([nH]4)c(-c4ccc(S(=O)(=O)[O-])cc4)c4nc(c(-c5ccc(S(=O)(=O)[O-])cc5)c5ccc2[nH]5)C=C4)C=C3)cc1
REMARK SMILES IDX 7 1 6 2 5 3 4 4 3 5 2 6 1 7 29 8 30 9 88 10 31 11 87 12
REMARK SMILES IDX 32 13 33 14 34 15 81 16 35 17 86 18 80 19 82 20 36 21 85 22
REMARK SMILES IDX 79 23 78 24 37 26 67 27 48 28 66 29 49 30 52 31 65 32 83 33
REMARK SMILES IDX 50 34 51 35 64 37 84 38 53 39 38 40 39 41 47 42 40 43 46 44
REMARK SMILES IDX 41 45 42 46 43 47 44 48 45 49 68 50 69 51 77 52 70 53 76 54
REMARK SMILES IDX 71 55 72 56 73 57 74 58 75 59 54 60 55 61 63 62 56 63 62 64
REMARK SMILES IDX 57 65 58 66 59 67 60 68 61 69 8 70 9 71 10 72 11 73 12 74
REMARK SMILES IDX 13 75 14 76 15 77 16 78 28 79 17 80 19 81 18 82 20 83 21 84
REMARK SMILES IDX 22 85 27 86 23 87 25 88 24 89 26 90
REMARK H PARENT 82 25 52 36
REMARK Flexibility Score: inf
ROOT
ATOM      1  C   UNL A   1      35.367  23.862  24.675  1.00  0.00     0.188 C 
ENDROOT
BRANCH   1   2
ATOM      2  O   UNL A   1      36.685  23.367  24.928  1.00  0.00    -0.376 OA
BRANCH   2   3
ATOM      3  C   UNL A   1      36.951  22.101  24.311  1.00  0.00     0.202 C 
BRANCH   3   4
ATOM      4  C   UNL A   1      37.940  21.172  25.042  1.00  0.00     0.261 C 
BRANCH   4   5
ATOM      5  O   UNL A   1      38.567  21.758  26.195  1.00  0.00    -0.460 OA
BRANCH   5   6
ATOM      6  C   UNL A   1      39.844  22.190  26.358  1.00  0.00     0.338 C 
ATOM      7  O   UNL A   1      40.752  21.402  26.097  1.00  0.00    -0.246 OA
BRANCH   6   8
ATOM      8  C   UNL A   1      40.217  23.544  26.881  1.00  0.00     0.060 A 
ATOM      9  C   UNL A   1      39.788  24.762  26.352  1.00  0.00     0.016 A 
ATOM     10  C   UNL A   1      41.037  23.590  28.024  1.00  0.00     0.016 A 
ATOM     11  C   UNL A   1      40.198  25.979  26.872  1.00  0.00     0.010 A 
ATOM     12  C   UNL A   1      41.431  24.815  28.581  1.00  0.00     0.010 A 
ATOM     13  C   UNL A   1      41.034  26.015  27.978  1.00  0.00    -0.014 A 
BRANCH  13  14
ATOM     14  C   UNL A   1      41.623  27.315  28.345  1.00  0.00     0.031 A 
ATOM     15  C   UNL A   1      43.098  27.468  28.185  1.00  0.00     0.074 A 
ATOM     16  C   UNL A   1      40.846  28.368  28.661  1.00  0.00     0.049 A 
ATOM     17  N   UNL A   1      43.840  28.507  28.435  1.00  0.00    -0.248 NA
ATOM     18  C   UNL A   1      43.825  26.327  27.596  1.00  0.00     0.031 C 
ATOM     19  C   UNL A   1      39.392  28.370  28.595  1.00  0.00     0.029 A 
ATOM     20  N   UNL A   1      41.143  29.621  29.118  1.00  0.00    -0.354 N 
ATOM     21  C   UNL A   1      45.112  28.162  28.008  1.00  0.00     0.074 A 
ATOM     22  C   UNL A   1      45.059  26.801  27.528  1.00  0.00     0.031 C 
ATOM     23  C   UNL A   1      38.908  29.494  29.142  1.00  0.00     0.029 A 
ATOM     24  C   UNL A   1      40.031  30.304  29.569  1.00  0.00     0.049 A 
ATOM     25  H   UNL A   1      42.053  29.999  29.125  1.00  0.00     0.167 HD
ATOM     26  C   UNL A   1      46.216  28.938  28.003  1.00  0.00     0.031 A 
ATOM     27  C   UNL A   1      39.949  31.436  30.289  1.00  0.00     0.031 A 
ATOM     28  C   UNL A   1      46.225  30.268  28.543  1.00  0.00     0.049 A 
ATOM     29  C   UNL A   1      41.229  32.183  30.497  1.00  0.00     0.074 A 
ATOM     30  C   UNL A   1      47.283  31.148  28.658  1.00  0.00     0.029 A 
ATOM     31  N   UNL A   1      45.111  30.901  29.086  1.00  0.00    -0.354 N 
ATOM     32  N   UNL A   1      42.437  31.847  30.109  1.00  0.00    -0.248 NA
ATOM     33  C   UNL A   1      41.137  33.480  31.167  1.00  0.00     0.031 C 
ATOM     34  C   UNL A   1      46.825  32.279  29.340  1.00  0.00     0.029 A 
ATOM     35  C   UNL A   1      45.465  32.142  29.581  1.00  0.00     0.049 A 
ATOM     36  H   UNL A   1      44.204  30.520  29.114  1.00  0.00     0.167 HD
ATOM     37  C   UNL A   1      43.247  32.919  30.436  1.00  0.00     0.074 A 
ATOM     38  C   UNL A   1      42.387  33.909  31.061  1.00  0.00     0.031 C 
ATOM     39  C   UNL A   1      44.573  33.082  30.216  1.00  0.00     0.031 A 
BRANCH  26  40
ATOM     40  C   UNL A   1      47.480  28.318  27.482  1.00  0.00    -0.014 A 
ATOM     41  C   UNL A   1      47.794  28.327  26.109  1.00  0.00     0.010 A 
ATOM     42  C   UNL A   1      48.347  27.674  28.379  1.00  0.00     0.010 A 
ATOM     43  C   UNL A   1      48.933  27.665  25.642  1.00  0.00     0.020 A 
ATOM     44  C   UNL A   1      49.501  27.034  27.919  1.00  0.00     0.020 A 
ATOM     45  C   UNL A   1      49.777  27.019  26.550  1.00  0.00     0.054 A 
BRANCH  45  46
ATOM     46  S   UNL A   1      51.249  26.170  25.919  1.00  0.00     0.124 S 
ATOM     47  O   UNL A   1      51.009  26.179  24.478  1.00  0.00    -0.237 OA
ATOM     48  O   UNL A   1      52.335  27.032  26.379  1.00  0.00    -0.237 OA
ATOM     49  O   UNL A   1      51.190  24.854  26.550  1.00  0.00    -0.744 OA
ENDBRANCH  45  46
ENDBRANCH  26  40
BRANCH  27  50
ATOM     50  C   UNL A   1      38.667  31.895  30.889  1.00  0.00    -0.014 A 
ATOM     51  C   UNL A   1      37.724  32.629  30.152  1.00  0.00     0.010 A 
ATOM     52  C   UNL A   1      38.416  31.644  32.252  1.00  0.00     0.010 A 
ATOM     53  C   UNL A   1      36.577  33.143  30.775  1.00  0.00     0.020 A 
ATOM     54  C   UNL A   1      37.267  32.144  32.875  1.00  0.00     0.020 A 
ATOM     55  C   UNL A   1      36.361  32.908  32.137  1.00  0.00     0.054 A 
BRANCH  55  56
ATOM     56  S   UNL A   1      34.864  33.555  32.938  1.00  0.00     0.124 S 
ATOM     57  O   UNL A   1      34.979  34.987  32.681  1.00  0.00    -0.237 OA
ATOM     58  O   UNL A   1      33.784  32.874  32.231  1.00  0.00    -0.237 OA
ATOM     59  O   UNL A   1      35.033  33.154  34.334  1.00  0.00    -0.744 OA
ENDBRANCH  55  56
ENDBRANCH  27  50
BRANCH  39  60
ATOM     60  C   UNL A   1      45.153  34.400  30.631  1.00  0.00    -0.014 A 
ATOM     61  C   UNL A   1      45.982  34.504  31.760  1.00  0.00     0.010 A 
ATOM     62  C   UNL A   1      44.890  35.537  29.847  1.00  0.00     0.010 A 
ATOM     63  C   UNL A   1      46.519  35.740  32.116  1.00  0.00     0.020 A 
ATOM     64  C   UNL A   1      45.458  36.765  30.179  1.00  0.00     0.020 A 
ATOM     65  C   UNL A   1      46.258  36.860  31.319  1.00  0.00     0.054 A 
BRANCH  65  66
ATOM     66  S   UNL A   1      47.022  38.438  31.767  1.00  0.00     0.124 S 
ATOM     67  O   UNL A   1      48.433  38.076  31.860  1.00  0.00    -0.237 OA
ATOM     68  O   UNL A   1      46.664  39.295  30.640  1.00  0.00    -0.237 OA
ATOM     69  O   UNL A   1      46.382  38.785  33.034  1.00  0.00    -0.744 OA
ENDBRANCH  65  66
ENDBRANCH  39  60
ENDBRANCH  13  14
ENDBRANCH   6   8
ENDBRANCH   5   6
ENDBRANCH   4   5
ENDBRANCH   3   4
ENDBRANCH   2   3
ENDBRANCH   1   2
BRANCH   1  70
ATOM     70  C   UNL A   1      34.743  23.392  23.361  1.00  0.00     0.188 C 
BRANCH  70  71
ATOM     71  O   UNL A   1      34.453  24.362  22.360  1.00  0.00    -0.376 OA
BRANCH  71  72
ATOM     72  C   UNL A   1      33.106  24.495  21.922  1.00  0.00     0.202 C 
BRANCH  72  73
ATOM     73  C   UNL A   1      32.703  25.731  21.101  1.00  0.00     0.261 C 
BRANCH  73  74
ATOM     74  O   UNL A   1      31.522  26.401  21.560  1.00  0.00    -0.463 OA
BRANCH  74  75
ATOM     75  C   UNL A   1      31.736  27.282  22.569  1.00  0.00     0.311 C 
ATOM     76  O   UNL A   1      32.340  28.344  22.450  1.00  0.00    -0.252 OA
BRANCH  75  77
ATOM     77  C   UNL A   1      31.064  26.893  23.860  1.00  0.00     0.128 C 
ATOM     78  C   UNL A   1      31.639  25.741  24.664  1.00  0.00     0.117 C 
ATOM     79  C   UNL A   1      31.227  28.088  24.776  1.00  0.00     0.135 C 
ATOM     80  C   UNL A   1      31.371  26.170  26.093  1.00  0.00     0.223 C 
ATOM     81  N   UNL A   1      31.358  27.548  26.099  1.00  0.00    -0.337 N 
ATOM     82  O   UNL A   1      31.239  25.434  27.047  1.00  0.00    -0.275 OA
BRANCH  81  83
ATOM     83  C   UNL A   1      31.465  28.396  27.283  1.00  0.00     0.155 C 
BRANCH  83  84
ATOM     84  C   UNL A   1      32.763  29.174  27.258  1.00  0.00    -0.027 A 
ATOM     85  C   UNL A   1      33.994  28.493  27.247  1.00  0.00     0.005 A 
ATOM     86  C   UNL A   1      32.769  30.568  27.419  1.00  0.00     0.026 A 
ATOM     87  C   UNL A   1      35.194  29.181  27.422  1.00  0.00     0.002 A 
ATOM     88  C   UNL A   1      33.973  31.254  27.575  1.00  0.00     0.041 A 
ATOM     89  C   UNL A   1      35.183  30.566  27.581  1.00  0.00     0.020 A 
ATOM     90  Cl  UNL A   1      33.965  32.951  27.869  1.00  0.00    -0.084 Cl
ENDBRANCH  83  84
ENDBRANCH  81  83
ENDBRANCH  75  77
ENDBRANCH  74  75
ENDBRANCH  73  74
ENDBRANCH  72  73
ENDBRANCH  71  72
ENDBRANCH  70  71
ENDBRANCH   1  70
TORSDOF 22
ENDMDL
MODEL 3
REMARK VINA RESULT:      -9.6      3.238      4.168
REMARK SMILES O=C(OCCOCCOCCOC(=O)[C@H]1CC(=O)N(Cc2cccc(Cl)c2)C1)c1ccc(-c2c3nc(c(-c4ccc(S(=O)(=O)[O-])cc4)c4ccc([nH]4)c(-c4ccc(S(=O)(=O)[O-])cc4)c4nc(c(-c5ccc(S(=O)(=O)[O-])cc5)c5ccc2[nH]5)C=C4)C=C3)cc1
REMARK SMILES IDX 7 1 6 2 5 3 4 4 3 5 2 6 1 7 29 8 30 9 88 10 31 11 87 12
REMARK SMILES IDX 32 13 33 14 34 15 81 16 35 17 86 18 80 19 82 20 36 21 85 22
REMARK SMILES IDX 79 23 78 24 37 26 67 27 48 28 66 29 49 30 52 31 65 32 83 33
REMARK SMILES IDX 50 34 51 35 64 37 84 38 53 39 38 40 39 41 47 42 40 43 46 44
REMARK SMILES IDX 41 45 42 46 43 47 44 48 45 49 68 50 69 51 77 52 70 53 76 54
REMARK SMILES IDX 71 55 72 56 73 57 74 58 75 59 54 60 55 61 63 62 56 63 62 64
REMARK SMILES IDX 57 65 58 66 59 67 60 68 61 69 8 70 9 71 10 72 11 73 12 74
REMARK SMILES IDX 13 75 14 76 15 77 16 78 28 79 17 80 19 81 18 82 20 83 21 84
REMARK SMILES IDX 22 85 27 86 23 87 25 88 24 89 26 90
REMARK H PARENT 82 25 52 36
REMARK Flexibility Score: inf
ROOT
ATOM      1  C   UNL A   1      35.993  20.687  25.328  1.00  0.00     0.188 C 
ENDROOT
BRANCH   1   2
ATOM      2  O   UNL A   1      37.198  20.857  24.575  1.00  0.00    -0.376 OA
BRANCH   2   3
ATOM      3  C   UNL A   1      38.365  20.357  25.241  1.00  0.00     0.202 C 
BRANCH   3   4
ATOM      4  C   UNL A   1      39.144  21.361  26.114  1.00  0.00     0.261 C 
BRANCH   4   5
ATOM      5  O   UNL A   1      39.075  22.723  25.662  1.00  0.00    -0.460 OA
BRANCH   5   6
ATOM      6  C   UNL A   1      38.414  23.780  26.200  1.00  0.00     0.338 C 
ATOM      7  O   UNL A   1      37.222  23.908  25.926  1.00  0.00    -0.246 OA
BRANCH   6   8
ATOM      8  C   UNL A   1      39.053  24.824  27.066  1.00  0.00     0.060 A 
ATOM      9  C   UNL A   1      38.770  25.039  28.415  1.00  0.00     0.016 A 
ATOM     10  C   UNL A   1      40.048  25.628  26.479  1.00  0.00     0.016 A 
ATOM     11  C   UNL A   1      39.380  26.044  29.147  1.00  0.00     0.010 A 
ATOM     12  C   UNL A   1      40.698  26.626  27.218  1.00  0.00     0.010 A 
ATOM     13  C   UNL A   1      40.335  26.854  28.551  1.00  0.00    -0.014 A 
BRANCH  13  14
ATOM     14  C   UNL A   1      40.780  28.045  29.297  1.00  0.00     0.031 A 
ATOM     15  C   UNL A   1      42.103  27.968  29.983  1.00  0.00     0.074 A 
ATOM     16  C   UNL A   1      40.099  29.204  29.232  1.00  0.00     0.049 A 
ATOM     17  N   UNL A   1      42.706  28.879  30.691  1.00  0.00    -0.248 NA
ATOM     18  C   UNL A   1      42.883  26.732  29.787  1.00  0.00     0.031 C 
ATOM     19  C   UNL A   1      38.939  29.432  28.382  1.00  0.00     0.029 A 
ATOM     20  N   UNL A   1      40.247  30.393  29.887  1.00  0.00    -0.354 N 
ATOM     21  C   UNL A   1      43.946  28.343  30.999  1.00  0.00     0.074 A 
ATOM     22  C   UNL A   1      43.996  27.009  30.447  1.00  0.00     0.031 C 
ATOM     23  C   UNL A   1      38.379  30.614  28.675  1.00  0.00     0.029 A 
ATOM     24  C   UNL A   1      39.168  31.238  29.718  1.00  0.00     0.049 A 
ATOM     25  H   UNL A   1      41.040  30.625  30.424  1.00  0.00     0.167 HD
ATOM     26  C   UNL A   1      44.954  28.939  31.668  1.00  0.00     0.031 A 
ATOM     27  C   UNL A   1      38.845  32.364  30.375  1.00  0.00     0.031 A 
ATOM     28  C   UNL A   1      44.830  30.248  32.244  1.00  0.00     0.049 A 
ATOM     29  C   UNL A   1      39.877  32.902  31.316  1.00  0.00     0.074 A 
ATOM     30  C   UNL A   1      45.749  30.952  32.998  1.00  0.00     0.029 A 
ATOM     31  N   UNL A   1      43.693  31.042  32.145  1.00  0.00    -0.354 N 
ATOM     32  N   UNL A   1      41.044  32.385  31.622  1.00  0.00    -0.248 NA
ATOM     33  C   UNL A   1      39.593  34.194  31.941  1.00  0.00     0.031 C 
ATOM     34  C   UNL A   1      45.136  32.137  33.418  1.00  0.00     0.029 A 
ATOM     35  C   UNL A   1      43.866  32.210  32.863  1.00  0.00     0.049 A 
ATOM     36  H   UNL A   1      42.882  30.807  31.638  1.00  0.00     0.167 HD
ATOM     37  C   UNL A   1      41.665  33.317  32.434  1.00  0.00     0.074 A 
ATOM     38  C   UNL A   1      40.736  34.425  32.574  1.00  0.00     0.031 C 
ATOM     39  C   UNL A   1      42.899  33.274  32.990  1.00  0.00     0.031 A 
BRANCH  26  40
ATOM     40  C   UNL A   1      46.206  28.134  31.869  1.00  0.00    -0.014 A 
ATOM     41  C   UNL A   1      46.416  27.375  33.036  1.00  0.00     0.010 A 
ATOM     42  C   UNL A   1      47.212  28.177  30.889  1.00  0.00     0.010 A 
ATOM     43  C   UNL A   1      47.628  26.707  33.235  1.00  0.00     0.020 A 
ATOM     44  C   UNL A   1      48.414  27.489  31.072  1.00  0.00     0.020 A 
ATOM     45  C   UNL A   1      48.621  26.772  32.253  1.00  0.00     0.054 A 
BRANCH  45  46
ATOM     46  S   UNL A   1      50.182  25.896  32.534  1.00  0.00     0.124 S 
ATOM     47  O   UNL A   1      49.990  25.357  33.878  1.00  0.00    -0.237 OA
ATOM     48  O   UNL A   1      50.190  24.906  31.458  1.00  0.00    -0.237 OA
ATOM     49  O   UNL A   1      51.195  26.942  32.422  1.00  0.00    -0.744 OA
ENDBRANCH  45  46
ENDBRANCH  26  40
BRANCH  27  50
ATOM     50  C   UNL A   1      37.515  33.013  30.217  1.00  0.00    -0.014 A 
ATOM     51  C   UNL A   1      36.462  32.776  31.116  1.00  0.00     0.010 A 
ATOM     52  C   UNL A   1      37.281  33.840  29.101  1.00  0.00     0.010 A 
ATOM     53  C   UNL A   1      35.189  33.315  30.879  1.00  0.00     0.020 A 
ATOM     54  C   UNL A   1      36.016  34.390  28.867  1.00  0.00     0.020 A 
ATOM     55  C   UNL A   1      34.969  34.109  29.749  1.00  0.00     0.054 A 
BRANCH  55  56
ATOM     56  S   UNL A   1      33.325  34.825  29.455  1.00  0.00     0.124 S 
ATOM     57  O   UNL A   1      33.658  36.081  28.791  1.00  0.00    -0.237 OA
ATOM     58  O   UNL A   1      32.668  33.826  28.618  1.00  0.00    -0.237 OA
ATOM     59  O   UNL A   1      32.773  34.957  30.803  1.00  0.00    -0.744 OA
ENDBRANCH  55  56
ENDBRANCH  27  50
BRANCH  39  60
ATOM     60  C   UNL A   1      43.312  34.484  33.771  1.00  0.00    -0.014 A 
ATOM     61  C   UNL A   1      43.043  34.585  35.147  1.00  0.00     0.010 A 
ATOM     62  C   UNL A   1      44.016  35.510  33.118  1.00  0.00     0.010 A 
ATOM     63  C   UNL A   1      43.451  35.715  35.852  1.00  0.00     0.020 A 
ATOM     64  C   UNL A   1      44.457  36.622  33.830  1.00  0.00     0.020 A 
ATOM     65  C   UNL A   1      44.160  36.722  35.190  1.00  0.00     0.054 A 
BRANCH  65  66
ATOM     66  S   UNL A   1      44.735  38.148  36.146  1.00  0.00     0.124 S 
ATOM     67  O   UNL A   1      46.183  38.050  35.995  1.00  0.00    -0.237 OA
ATOM     68  O   UNL A   1      44.103  39.269  35.454  1.00  0.00    -0.237 OA
ATOM     69  O   UNL A   1      44.228  37.889  37.492  1.00  0.00    -0.744 OA
ENDBRANCH  65  66
ENDBRANCH  39  60
ENDBRANCH  13  14
ENDBRANCH   6   8
ENDBRANCH   5   6
ENDBRANCH   4   5
ENDBRANCH   3   4
ENDBRANCH   2   3
ENDBRANCH   1   2
BRANCH   1  70
ATOM     70  C   UNL A   1      34.845  21.612  24.926  1.00  0.00     0.188 C 
BRANCH  70  71
ATOM     71  O   UNL A   1      33.841  21.908  25.891  1.00  0.00    -0.376 OA
BRANCH  71  72
ATOM     72  C   UNL A   1      32.559  21.310  25.734  1.00  0.00     0.202 C 
BRANCH  72  73
ATOM     73  C   UNL A   1      31.357  22.197  25.372  1.00  0.00     0.261 C 
BRANCH  73  74
ATOM     74  O   UNL A   1      31.206  23.369  26.183  1.00  0.00    -0.463 OA
BRANCH  74  75
ATOM     75  C   UNL A   1      31.117  24.527  25.481  1.00  0.00     0.311 C 
ATOM     76  O   UNL A   1      30.180  25.316  25.556  1.00  0.00    -0.252 OA
BRANCH  75  77
ATOM     77  C   UNL A   1      32.342  24.826  24.658  1.00  0.00     0.128 C 
ATOM     78  C   UNL A   1      32.210  24.889  23.147  1.00  0.00     0.117 C 
ATOM     79  C   UNL A   1      32.752  26.234  25.041  1.00  0.00     0.135 C 
ATOM     80  C   UNL A   1      33.210  25.964  22.772  1.00  0.00     0.223 C 
ATOM     81  N   UNL A   1      33.303  26.815  23.851  1.00  0.00    -0.337 N 
ATOM     82  O   UNL A   1      33.781  26.068  21.708  1.00  0.00    -0.275 OA
BRANCH  81  83
ATOM     83  C   UNL A   1      33.881  28.157  23.831  1.00  0.00     0.155 C 
BRANCH  83  84
ATOM     84  C   UNL A   1      33.362  28.971  24.998  1.00  0.00    -0.027 A 
ATOM     85  C   UNL A   1      32.084  29.555  24.937  1.00  0.00     0.005 A 
ATOM     86  C   UNL A   1      34.201  29.299  26.073  1.00  0.00     0.026 A 
ATOM     87  C   UNL A   1      31.667  30.464  25.907  1.00  0.00     0.002 A 
ATOM     88  C   UNL A   1      33.772  30.196  27.051  1.00  0.00     0.041 A 
ATOM     89  C   UNL A   1      32.511  30.782  26.970  1.00  0.00     0.020 A 
ATOM     90  Cl  UNL A   1      34.843  30.668  28.315  1.00  0.00    -0.084 Cl
ENDBRANCH  83  84
ENDBRANCH  81  83
ENDBRANCH  75  77
ENDBRANCH  74  75
ENDBRANCH  73  74
ENDBRANCH  72  73
ENDBRANCH  71  72
ENDBRANCH  70  71
ENDBRANCH   1  70
TORSDOF 22
ENDMDL
