MODEL 1
REMARK VINA RESULT:      -7.5      0.000      0.000
REMARK SMILES O=C(CCCN1C(=O)C(=O)/C(=C(/[O-])c2ccc(Cl)cc2)[C@@H]1c1ccccc1[N+](=O)[O-])OCCOCCOCCOC(=O)c1ccc(-c2c3nc(c(-c4ccc(S(=O)(=O)[O-])cc4)c4ccc([nH]4)c(-c4ccc(S(=O)(=O)[O-])cc4)c4nc(c(-c5ccc(S(=O)(=O)[O-])cc5)c5ccc2[nH]5)C=C4)C=C3)cc1
REMARK SMILES IDX 35 1 34 2 33 3 32 4 31 5 2 6 1 7 3 8 4 9 5 10 6 11 7 12
REMARK SMILES IDX 21 13 8 14 9 15 11 16 10 17 12 18 13 19 22 20 23 21 27 22
REMARK SMILES IDX 24 23 26 24 25 25 28 26 29 27 30 28 14 29 15 30 20 31 16 32
REMARK SMILES IDX 19 33 17 34 18 35 36 36 37 37 38 38 39 39 40 40 41 41 42 42
REMARK SMILES IDX 43 43 44 44 102 45 45 46 101 47 46 48 47 49 48 50 95 51
REMARK SMILES IDX 49 52 100 53 94 54 96 55 50 56 99 57 93 58 92 59 51 61 81 62
REMARK SMILES IDX 62 63 80 64 63 65 66 66 79 67 97 68 64 69 65 70 78 72 98 73
REMARK SMILES IDX 67 74 52 75 53 76 61 77 54 78 60 79 55 80 56 81 57 82 58 83
REMARK SMILES IDX 59 84 82 85 83 86 91 87 84 88 90 89 85 90 86 91 87 92 88 93
REMARK SMILES IDX 89 94 68 95 69 96 77 97 70 98 76 99 71 100 72 101 73 102
REMARK SMILES IDX 74 103 75 104
REMARK H PARENT 96 60 66 71
REMARK Flexibility Score: inf
ROOT
ATOM      1  C   UNL A   1      44.570  27.779  27.810  1.00  0.00     0.188 C 
ENDROOT
BRANCH   1   2
ATOM      2  O   UNL A   1      44.264  29.174  27.824  1.00  0.00    -0.376 OA
BRANCH   2   3
ATOM      3  C   UNL A   1      44.734  29.880  28.963  1.00  0.00     0.202 C 
BRANCH   3   4
ATOM      4  C   UNL A   1      46.228  29.715  29.192  1.00  0.00     0.261 C 
BRANCH   4   5
ATOM      5  O   UNL A   1      47.029  30.084  28.059  1.00  0.00    -0.463 OA
BRANCH   5   6
ATOM      6  C   UNL A   1      47.858  29.267  27.367  1.00  0.00     0.305 C 
ATOM      7  O   UNL A   1      48.182  29.584  26.222  1.00  0.00    -0.252 OA
BRANCH   6   8
ATOM      8  C   UNL A   1      48.238  27.902  27.905  1.00  0.00     0.124 C 
BRANCH   8   9
ATOM      9  C   UNL A   1      47.850  26.685  27.088  1.00  0.00     0.033 C 
BRANCH   9  10
ATOM     10  C   UNL A   1      48.942  26.062  26.229  1.00  0.00     0.121 C 
BRANCH  10  11
ATOM     11  N   UNL A   1      49.558  26.782  25.113  1.00  0.00    -0.324 N 
ATOM     12  C   UNL A   1      48.900  26.781  23.896  1.00  0.00     0.295 C 
ATOM     13  C   UNL A   1      50.863  27.461  25.039  1.00  0.00     0.157 C 
ATOM     14  O   UNL A   1      47.759  26.398  23.662  1.00  0.00    -0.265 OA
ATOM     15  C   UNL A   1      49.814  27.405  22.863  1.00  0.00     0.248 C 
ATOM     16  C   UNL A   1      50.966  27.973  23.600  1.00  0.00     0.025 C 
ATOM     17  O   UNL A   1      49.545  27.489  21.675  1.00  0.00    -0.283 OA
ATOM     18  C   UNL A   1      51.817  28.868  23.058  1.00  0.00    -0.092 C 
ATOM     19  O   UNL A   1      52.738  29.552  23.823  1.00  0.00    -0.872 OA
BRANCH  13  20
ATOM     20  C   UNL A   1      52.087  26.688  25.534  1.00  0.00     0.057 A 
ATOM     21  C   UNL A   1      52.571  25.648  24.706  1.00  0.00     0.013 A 
ATOM     22  C   UNL A   1      52.821  26.910  26.718  1.00  0.00     0.275 A 
ATOM     23  C   UNL A   1      53.727  24.923  25.017  1.00  0.00     0.001 A 
ATOM     24  C   UNL A   1      54.033  26.247  26.989  1.00  0.00     0.086 A 
ATOM     25  C   UNL A   1      54.485  25.253  26.131  1.00  0.00     0.007 A 
BRANCH  22  26
ATOM     26  N   UNL A   1      52.356  27.809  27.759  1.00  0.00     0.063 N 
ATOM     27  O   UNL A   1      51.648  27.326  28.653  1.00  0.00    -0.258 OA
ATOM     28  O   UNL A   1      52.705  28.994  27.678  1.00  0.00    -0.258 OA
ENDBRANCH  22  26
ENDBRANCH  13  20
BRANCH  18  29
ATOM     29  C   UNL A   1      51.963  29.164  21.618  1.00  0.00    -0.033 A 
ATOM     30  C   UNL A   1      51.364  30.275  21.009  1.00  0.00     0.009 A 
ATOM     31  C   UNL A   1      52.741  28.298  20.830  1.00  0.00     0.009 A 
ATOM     32  C   UNL A   1      51.510  30.493  19.632  1.00  0.00     0.021 A 
ATOM     33  C   UNL A   1      52.891  28.518  19.457  1.00  0.00     0.021 A 
ATOM     34  C   UNL A   1      52.268  29.611  18.863  1.00  0.00     0.041 A 
ATOM     35  Cl  UNL A   1      52.432  29.872  17.168  1.00  0.00    -0.084 Cl
ENDBRANCH  18  29
ENDBRANCH  10  11
ENDBRANCH   9  10
ENDBRANCH   8   9
ENDBRANCH   6   8
ENDBRANCH   5   6
ENDBRANCH   4   5
ENDBRANCH   3   4
ENDBRANCH   2   3
ENDBRANCH   1   2
BRANCH   1  36
ATOM     36  C   UNL A   1      43.675  26.883  26.950  1.00  0.00     0.188 C 
BRANCH  36  37
ATOM     37  O   UNL A   1      43.800  25.473  27.064  1.00  0.00    -0.376 OA
BRANCH  37  38
ATOM     38  C   UNL A   1      42.650  24.638  27.023  1.00  0.00     0.202 C 
BRANCH  38  39
ATOM     39  C   UNL A   1      41.856  24.492  28.317  1.00  0.00     0.261 C 
BRANCH  39  40
ATOM     40  O   UNL A   1      40.443  24.353  28.089  1.00  0.00    -0.460 OA
BRANCH  40  41
ATOM     41  C   UNL A   1      39.893  25.361  27.369  1.00  0.00     0.338 C 
ATOM     42  O   UNL A   1      39.550  25.342  26.201  1.00  0.00    -0.246 OA
BRANCH  41  43
ATOM     43  C   UNL A   1      39.697  26.527  28.237  1.00  0.00     0.060 A 
ATOM     44  C   UNL A   1      40.383  27.713  27.948  1.00  0.00     0.016 A 
ATOM     45  C   UNL A   1      38.963  26.385  29.416  1.00  0.00     0.016 A 
ATOM     46  C   UNL A   1      40.389  28.750  28.879  1.00  0.00     0.010 A 
ATOM     47  C   UNL A   1      38.977  27.418  30.346  1.00  0.00     0.010 A 
ATOM     48  C   UNL A   1      39.732  28.581  30.104  1.00  0.00    -0.014 A 
BRANCH  48  49
ATOM     49  C   UNL A   1      39.975  29.502  31.235  1.00  0.00     0.031 A 
ATOM     50  C   UNL A   1      41.148  29.231  32.135  1.00  0.00     0.074 A 
ATOM     51  C   UNL A   1      39.125  30.506  31.500  1.00  0.00     0.049 A 
ATOM     52  N   UNL A   1      41.446  29.764  33.289  1.00  0.00    -0.248 NA
ATOM     53  C   UNL A   1      42.105  28.212  31.672  1.00  0.00     0.031 C 
ATOM     54  C   UNL A   1      37.997  30.900  30.662  1.00  0.00     0.029 A 
ATOM     55  N   UNL A   1      39.060  31.350  32.577  1.00  0.00    -0.354 N 
ATOM     56  C   UNL A   1      42.611  29.130  33.704  1.00  0.00     0.074 A 
ATOM     57  C   UNL A   1      42.953  28.160  32.687  1.00  0.00     0.031 C 
ATOM     58  C   UNL A   1      37.313  31.875  31.285  1.00  0.00     0.029 A 
ATOM     59  C   UNL A   1      37.944  32.149  32.574  1.00  0.00     0.049 A 
ATOM     60  H   UNL A   1      39.746  31.380  33.282  1.00  0.00     0.167 HD
ATOM     61  C   UNL A   1      43.325  29.336  34.836  1.00  0.00     0.031 A 
ATOM     62  C   UNL A   1      37.465  32.977  33.523  1.00  0.00     0.031 A 
ATOM     63  C   UNL A   1      42.957  30.288  35.849  1.00  0.00     0.049 A 
ATOM     64  C   UNL A   1      38.231  33.143  34.807  1.00  0.00     0.074 A 
ATOM     65  C   UNL A   1      43.614  30.588  37.029  1.00  0.00     0.029 A 
ATOM     66  N   UNL A   1      41.823  31.085  35.806  1.00  0.00    -0.354 N 
ATOM     67  N   UNL A   1      39.337  32.549  35.186  1.00  0.00    -0.248 NA
ATOM     68  C   UNL A   1      37.693  34.101  35.783  1.00  0.00     0.031 C 
ATOM     69  C   UNL A   1      42.847  31.527  37.726  1.00  0.00     0.029 A 
ATOM     70  C   UNL A   1      41.746  31.861  36.949  1.00  0.00     0.049 A 
ATOM     71  H   UNL A   1      41.168  31.096  35.072  1.00  0.00     0.167 HD
ATOM     72  C   UNL A   1      39.650  33.089  36.430  1.00  0.00     0.074 A 
ATOM     73  C   UNL A   1      38.613  34.053  36.737  1.00  0.00     0.031 C 
ATOM     74  C   UNL A   1      40.708  32.820  37.235  1.00  0.00     0.031 A 
BRANCH  61  75
ATOM     75  C   UNL A   1      44.541  28.473  35.054  1.00  0.00    -0.014 A 
ATOM     76  C   UNL A   1      45.817  28.879  34.621  1.00  0.00     0.010 A 
ATOM     77  C   UNL A   1      44.404  27.232  35.702  1.00  0.00     0.010 A 
ATOM     78  C   UNL A   1      46.920  28.037  34.782  1.00  0.00     0.020 A 
ATOM     79  C   UNL A   1      45.510  26.400  35.892  1.00  0.00     0.020 A 
ATOM     80  C   UNL A   1      46.757  26.798  35.409  1.00  0.00     0.054 A 
BRANCH  80  81
ATOM     81  S   UNL A   1      48.202  25.718  35.592  1.00  0.00     0.124 S 
ATOM     82  O   UNL A   1      48.967  26.034  34.388  1.00  0.00    -0.237 OA
ATOM     83  O   UNL A   1      48.790  26.178  36.848  1.00  0.00    -0.237 OA
ATOM     84  O   UNL A   1      47.629  24.374  35.630  1.00  0.00    -0.744 OA
ENDBRANCH  80  81
ENDBRANCH  61  75
BRANCH  62  85
ATOM     85  C   UNL A   1      36.188  33.697  33.281  1.00  0.00    -0.014 A 
ATOM     86  C   UNL A   1      36.195  35.025  32.822  1.00  0.00     0.010 A 
ATOM     87  C   UNL A   1      34.958  33.037  33.453  1.00  0.00     0.010 A 
ATOM     88  C   UNL A   1      34.994  35.678  32.532  1.00  0.00     0.020 A 
ATOM     89  C   UNL A   1      33.757  33.678  33.142  1.00  0.00     0.020 A 
ATOM     90  C   UNL A   1      33.784  34.996  32.684  1.00  0.00     0.054 A 
BRANCH  90  91
ATOM     91  S   UNL A   1      32.244  35.829  32.204  1.00  0.00     0.124 S 
ATOM     92  O   UNL A   1      32.381  37.124  32.862  1.00  0.00    -0.237 OA
ATOM     93  O   UNL A   1      32.339  35.843  30.746  1.00  0.00    -0.237 OA
ATOM     94  O   UNL A   1      31.205  34.953  32.743  1.00  0.00    -0.744 OA
ENDBRANCH  90  91
ENDBRANCH  62  85
BRANCH  74  95
ATOM     95  C   UNL A   1      40.838  33.615  38.508  1.00  0.00    -0.014 A 
ATOM     96  C   UNL A   1      40.259  33.175  39.711  1.00  0.00     0.010 A 
ATOM     97  C   UNL A   1      41.632  34.776  38.511  1.00  0.00     0.010 A 
ATOM     98  C   UNL A   1      40.461  33.895  40.892  1.00  0.00     0.020 A 
ATOM     99  C   UNL A   1      41.858  35.481  39.694  1.00  0.00     0.020 A 
ATOM    100  C   UNL A   1      41.263  35.040  40.877  1.00  0.00     0.054 A 
BRANCH 100 101
ATOM    101  S   UNL A   1      41.567  35.915  42.437  1.00  0.00     0.124 S 
ATOM    102  O   UNL A   1      41.519  34.828  43.410  1.00  0.00    -0.237 OA
ATOM    103  O   UNL A   1      42.884  36.508  42.220  1.00  0.00    -0.237 OA
ATOM    104  O   UNL A   1      40.465  36.872  42.517  1.00  0.00    -0.744 OA
ENDBRANCH 100 101
ENDBRANCH  74  95
ENDBRANCH  48  49
ENDBRANCH  41  43
ENDBRANCH  40  41
ENDBRANCH  39  40
ENDBRANCH  38  39
ENDBRANCH  37  38
ENDBRANCH  36  37
ENDBRANCH   1  36
TORSDOF 26
ENDMDL
MODEL 2
REMARK VINA RESULT:      -7.5      5.025     12.770
REMARK SMILES O=C(CCCN1C(=O)C(=O)/C(=C(/[O-])c2ccc(Cl)cc2)[C@@H]1c1ccccc1[N+](=O)[O-])OCCOCCOCCOC(=O)c1ccc(-c2c3nc(c(-c4ccc(S(=O)(=O)[O-])cc4)c4ccc([nH]4)c(-c4ccc(S(=O)(=O)[O-])cc4)c4nc(c(-c5ccc(S(=O)(=O)[O-])cc5)c5ccc2[nH]5)C=C4)C=C3)cc1
REMARK SMILES IDX 35 1 34 2 33 3 32 4 31 5 2 6 1 7 3 8 4 9 5 10 6 11 7 12
REMARK SMILES IDX 21 13 8 14 9 15 11 16 10 17 12 18 13 19 22 20 23 21 27 22
REMARK SMILES IDX 24 23 26 24 25 25 28 26 29 27 30 28 14 29 15 30 20 31 16 32
REMARK SMILES IDX 19 33 17 34 18 35 36 36 37 37 38 38 39 39 40 40 41 41 42 42
REMARK SMILES IDX 43 43 44 44 102 45 45 46 101 47 46 48 47 49 48 50 95 51
REMARK SMILES IDX 49 52 100 53 94 54 96 55 50 56 99 57 93 58 92 59 51 61 81 62
REMARK SMILES IDX 62 63 80 64 63 65 66 66 79 67 97 68 64 69 65 70 78 72 98 73
REMARK SMILES IDX 67 74 52 75 53 76 61 77 54 78 60 79 55 80 56 81 57 82 58 83
REMARK SMILES IDX 59 84 82 85 83 86 91 87 84 88 90 89 85 90 86 91 87 92 88 93
REMARK SMILES IDX 89 94 68 95 69 96 77 97 70 98 76 99 71 100 72 101 73 102
REMARK SMILES IDX 74 103 75 104
REMARK H PARENT 96 60 66 71
REMARK Flexibility Score: inf
ROOT
ATOM      1  C   UNL A   1      31.470  29.029  26.206  1.00  0.00     0.188 C 
ENDROOT
BRANCH   1   2
ATOM      2  O   UNL A   1      31.626  30.027  27.216  1.00  0.00    -0.376 OA
BRANCH   2   3
ATOM      3  C   UNL A   1      31.715  31.360  26.733  1.00  0.00     0.202 C 
BRANCH   3   4
ATOM      4  C   UNL A   1      33.115  31.942  26.845  1.00  0.00     0.261 C 
BRANCH   4   5
ATOM      5  O   UNL A   1      33.417  32.471  28.145  1.00  0.00    -0.463 OA
BRANCH   5   6
ATOM      6  C   UNL A   1      34.039  33.646  28.405  1.00  0.00     0.305 C 
ATOM      7  O   UNL A   1      34.594  34.239  27.480  1.00  0.00    -0.252 OA
BRANCH   6   8
ATOM      8  C   UNL A   1      34.216  34.137  29.828  1.00  0.00     0.124 C 
BRANCH   8   9
ATOM      9  C   UNL A   1      35.199  33.398  30.715  1.00  0.00     0.033 C 
BRANCH   9  10
ATOM     10  C   UNL A   1      36.092  34.252  31.605  1.00  0.00     0.121 C 
BRANCH  10  11
ATOM     11  N   UNL A   1      37.551  34.230  31.490  1.00  0.00    -0.324 N 
ATOM     12  C   UNL A   1      38.106  34.332  30.226  1.00  0.00     0.295 C 
ATOM     13  C   UNL A   1      38.573  34.018  32.530  1.00  0.00     0.157 C 
ATOM     14  O   UNL A   1      37.536  34.619  29.179  1.00  0.00    -0.265 OA
ATOM     15  C   UNL A   1      39.595  34.085  30.342  1.00  0.00     0.248 C 
ATOM     16  C   UNL A   1      39.911  34.049  31.788  1.00  0.00     0.025 C 
ATOM     17  O   UNL A   1      40.356  34.041  29.387  1.00  0.00    -0.283 OA
ATOM     18  C   UNL A   1      41.166  34.161  32.269  1.00  0.00    -0.092 C 
ATOM     19  O   UNL A   1      41.416  34.355  33.611  1.00  0.00    -0.872 OA
BRANCH  13  20
ATOM     20  C   UNL A   1      38.385  32.822  33.465  1.00  0.00     0.057 A 
ATOM     21  C   UNL A   1      37.970  31.603  32.878  1.00  0.00     0.013 A 
ATOM     22  C   UNL A   1      38.611  32.777  34.857  1.00  0.00     0.275 A 
ATOM     23  C   UNL A   1      37.840  30.423  33.621  1.00  0.00     0.001 A 
ATOM     24  C   UNL A   1      38.569  31.576  35.589  1.00  0.00     0.086 A 
ATOM     25  C   UNL A   1      38.185  30.397  34.964  1.00  0.00     0.007 A 
BRANCH  22  26
ATOM     26  N   UNL A   1      38.860  33.975  35.639  1.00  0.00     0.063 N 
ATOM     27  O   UNL A   1      38.056  34.910  35.520  1.00  0.00    -0.258 OA
ATOM     28  O   UNL A   1      39.858  33.972  36.371  1.00  0.00    -0.258 OA
ENDBRANCH  22  26
ENDBRANCH  13  20
BRANCH  18  29
ATOM     29  C   UNL A   1      42.411  33.996  31.492  1.00  0.00    -0.033 A 
ATOM     30  C   UNL A   1      42.910  32.741  31.118  1.00  0.00     0.009 A 
ATOM     31  C   UNL A   1      43.118  35.147  31.104  1.00  0.00     0.009 A 
ATOM     32  C   UNL A   1      44.112  32.639  30.405  1.00  0.00     0.021 A 
ATOM     33  C   UNL A   1      44.315  35.047  30.389  1.00  0.00     0.021 A 
ATOM     34  C   UNL A   1      44.811  33.792  30.048  1.00  0.00     0.041 A 
ATOM     35  Cl  UNL A   1      46.297  33.664  29.187  1.00  0.00    -0.084 Cl
ENDBRANCH  18  29
ENDBRANCH  10  11
ENDBRANCH   9  10
ENDBRANCH   8   9
ENDBRANCH   6   8
ENDBRANCH   5   6
ENDBRANCH   4   5
ENDBRANCH   3   4
ENDBRANCH   2   3
ENDBRANCH   1   2
BRANCH   1  36
ATOM     36  C   UNL A   1      32.553  27.950  26.129  1.00  0.00     0.188 C 
BRANCH  36  37
ATOM     37  O   UNL A   1      33.726  28.207  25.370  1.00  0.00    -0.376 OA
BRANCH  37  38
ATOM     38  C   UNL A   1      34.909  28.675  26.003  1.00  0.00     0.202 C 
BRANCH  38  39
ATOM     39  C   UNL A   1      34.805  29.037  27.482  1.00  0.00     0.261 C 
BRANCH  39  40
ATOM     40  O   UNL A   1      36.068  28.948  28.165  1.00  0.00    -0.460 OA
BRANCH  40  41
ATOM     41  C   UNL A   1      36.661  30.144  28.399  1.00  0.00     0.338 C 
ATOM     42  O   UNL A   1      36.314  31.240  27.996  1.00  0.00    -0.246 OA
BRANCH  41  43
ATOM     43  C   UNL A   1      37.806  29.951  29.295  1.00  0.00     0.060 A 
ATOM     44  C   UNL A   1      38.910  30.805  29.181  1.00  0.00     0.016 A 
ATOM     45  C   UNL A   1      37.840  28.832  30.128  1.00  0.00     0.016 A 
ATOM     46  C   UNL A   1      40.089  30.501  29.859  1.00  0.00     0.010 A 
ATOM     47  C   UNL A   1      39.020  28.527  30.798  1.00  0.00     0.010 A 
ATOM     48  C   UNL A   1      40.163  29.330  30.624  1.00  0.00    -0.014 A 
BRANCH  48  49
ATOM     49  C   UNL A   1      41.463  28.802  31.090  1.00  0.00     0.031 A 
ATOM     50  C   UNL A   1      42.075  29.404  32.324  1.00  0.00     0.074 A 
ATOM     51  C   UNL A   1      42.119  27.868  30.385  1.00  0.00     0.049 A 
ATOM     52  N   UNL A   1      43.280  29.257  32.807  1.00  0.00    -0.248 NA
ATOM     53  C   UNL A   1      41.212  30.302  33.110  1.00  0.00     0.031 C 
ATOM     54  C   UNL A   1      41.595  27.170  29.215  1.00  0.00     0.029 A 
ATOM     55  N   UNL A   1      43.390  27.378  30.533  1.00  0.00    -0.354 N 
ATOM     56  C   UNL A   1      43.330  30.061  33.939  1.00  0.00     0.074 A 
ATOM     57  C   UNL A   1      42.041  30.707  34.059  1.00  0.00     0.031 C 
ATOM     58  C   UNL A   1      42.559  26.381  28.713  1.00  0.00     0.029 A 
ATOM     59  C   UNL A   1      43.772  26.543  29.512  1.00  0.00     0.049 A 
ATOM     60  H   UNL A   1      43.971  27.603  31.295  1.00  0.00     0.167 HD
ATOM     61  C   UNL A   1      44.361  30.247  34.796  1.00  0.00     0.031 A 
ATOM     62  C   UNL A   1      44.974  26.002  29.234  1.00  0.00     0.031 A 
ATOM     63  C   UNL A   1      45.644  29.615  34.648  1.00  0.00     0.049 A 
ATOM     64  C   UNL A   1      46.132  26.274  30.156  1.00  0.00     0.074 A 
ATOM     65  C   UNL A   1      46.757  29.721  35.464  1.00  0.00     0.029 A 
ATOM     66  N   UNL A   1      45.990  28.768  33.605  1.00  0.00    -0.354 N 
ATOM     67  N   UNL A   1      46.167  27.025  31.231  1.00  0.00    -0.248 NA
ATOM     68  C   UNL A   1      47.405  25.615  29.836  1.00  0.00     0.031 C 
ATOM     69  C   UNL A   1      47.793  28.982  34.883  1.00  0.00     0.029 A 
ATOM     70  C   UNL A   1      47.305  28.361  33.742  1.00  0.00     0.049 A 
ATOM     71  H   UNL A   1      45.388  28.496  32.875  1.00  0.00     0.167 HD
ATOM     72  C   UNL A   1      47.456  26.899  31.739  1.00  0.00     0.074 A 
ATOM     73  C   UNL A   1      48.168  26.003  30.850  1.00  0.00     0.031 C 
ATOM     74  C   UNL A   1      47.995  27.464  32.848  1.00  0.00     0.031 A 
BRANCH  61  75
ATOM     75  C   UNL A   1      44.151  31.213  35.932  1.00  0.00    -0.014 A 
ATOM     76  C   UNL A   1      43.677  30.783  37.185  1.00  0.00     0.010 A 
ATOM     77  C   UNL A   1      44.433  32.579  35.743  1.00  0.00     0.010 A 
ATOM     78  C   UNL A   1      43.435  31.706  38.206  1.00  0.00     0.020 A 
ATOM     79  C   UNL A   1      44.222  33.501  36.770  1.00  0.00     0.020 A 
ATOM     80  C   UNL A   1      43.701  33.061  37.988  1.00  0.00     0.054 A 
BRANCH  80  81
ATOM     81  S   UNL A   1      43.365  34.240  39.325  1.00  0.00     0.124 S 
ATOM     82  O   UNL A   1      43.772  35.505  38.717  1.00  0.00    -0.237 OA
ATOM     83  O   UNL A   1      41.929  34.081  39.540  1.00  0.00    -0.237 OA
ATOM     84  O   UNL A   1      44.213  33.774  40.420  1.00  0.00    -0.744 OA
ENDBRANCH  80  81
ENDBRANCH  61  75
BRANCH  62  85
ATOM     85  C   UNL A   1      45.128  25.160  28.020  1.00  0.00    -0.014 A 
ATOM     86  C   UNL A   1      45.192  25.750  26.747  1.00  0.00     0.010 A 
ATOM     87  C   UNL A   1      45.271  23.765  28.139  1.00  0.00     0.010 A 
ATOM     88  C   UNL A   1      45.404  24.961  25.613  1.00  0.00     0.020 A 
ATOM     89  C   UNL A   1      45.506  22.976  27.011  1.00  0.00     0.020 A 
ATOM     90  C   UNL A   1      45.570  23.580  25.754  1.00  0.00     0.054 A 
BRANCH  90  91
ATOM     91  S   UNL A   1      45.946  22.589  24.282  1.00  0.00     0.124 S 
ATOM     92  O   UNL A   1      44.647  22.520  23.622  1.00  0.00    -0.237 OA
ATOM     93  O   UNL A   1      46.958  23.400  23.609  1.00  0.00    -0.237 OA
ATOM     94  O   UNL A   1      46.439  21.331  24.839  1.00  0.00    -0.744 OA
ENDBRANCH  90  91
ENDBRANCH  62  85
BRANCH  74  95
ATOM     95  C   UNL A   1      49.410  27.091  33.206  1.00  0.00    -0.014 A 
ATOM     96  C   UNL A   1      49.697  25.952  33.977  1.00  0.00     0.010 A 
ATOM     97  C   UNL A   1      50.471  27.850  32.679  1.00  0.00     0.010 A 
ATOM     98  C   UNL A   1      51.023  25.590  34.228  1.00  0.00     0.020 A 
ATOM     99  C   UNL A   1      51.796  27.476  32.905  1.00  0.00     0.020 A 
ATOM    100  C   UNL A   1      52.064  26.350  33.686  1.00  0.00     0.054 A 
BRANCH 100 101
ATOM    101  S   UNL A   1      53.775  25.818  33.968  1.00  0.00     0.124 S 
ATOM    102  O   UNL A   1      54.311  25.784  32.611  1.00  0.00    -0.237 OA
ATOM    103  O   UNL A   1      54.302  26.877  34.826  1.00  0.00    -0.237 OA
ATOM    104  O   UNL A   1      53.631  24.515  34.615  1.00  0.00    -0.744 OA
ENDBRANCH 100 101
ENDBRANCH  74  95
ENDBRANCH  48  49
ENDBRANCH  41  43
ENDBRANCH  40  41
ENDBRANCH  39  40
ENDBRANCH  38  39
ENDBRANCH  37  38
ENDBRANCH  36  37
ENDBRANCH   1  36
TORSDOF 26
ENDMDL
MODEL 3
REMARK VINA RESULT:      -7.2      8.524     13.931
REMARK SMILES O=C(CCCN1C(=O)C(=O)/C(=C(/[O-])c2ccc(Cl)cc2)[C@@H]1c1ccccc1[N+](=O)[O-])OCCOCCOCCOC(=O)c1ccc(-c2c3nc(c(-c4ccc(S(=O)(=O)[O-])cc4)c4ccc([nH]4)c(-c4ccc(S(=O)(=O)[O-])cc4)c4nc(c(-c5ccc(S(=O)(=O)[O-])cc5)c5ccc2[nH]5)C=C4)C=C3)cc1
REMARK SMILES IDX 35 1 34 2 33 3 32 4 31 5 2 6 1 7 3 8 4 9 5 10 6 11 7 12
REMARK SMILES IDX 21 13 8 14 9 15 11 16 10 17 12 18 13 19 22 20 23 21 27 22
REMARK SMILES IDX 24 23 26 24 25 25 28 26 29 27 30 28 14 29 15 30 20 31 16 32
REMARK SMILES IDX 19 33 17 34 18 35 36 36 37 37 38 38 39 39 40 40 41 41 42 42
REMARK SMILES IDX 43 43 44 44 102 45 45 46 101 47 46 48 47 49 48 50 95 51
REMARK SMILES IDX 49 52 100 53 94 54 96 55 50 56 99 57 93 58 92 59 51 61 81 62
REMARK SMILES IDX 62 63 80 64 63 65 66 66 79 67 97 68 64 69 65 70 78 72 98 73
REMARK SMILES IDX 67 74 52 75 53 76 61 77 54 78 60 79 55 80 56 81 57 82 58 83
REMARK SMILES IDX 59 84 82 85 83 86 91 87 84 88 90 89 85 90 86 91 87 92 88 93
REMARK SMILES IDX 89 94 68 95 69 96 77 97 70 98 76 99 71 100 72 101 73 102
REMARK SMILES IDX 74 103 75 104
REMARK H PARENT 96 60 66 71
REMARK Flexibility Score: inf
ROOT
ATOM      1  C   UNL A   1      46.952  44.190  37.713  1.00  0.00     0.188 C 
ENDROOT
BRANCH   1   2
ATOM      2  O   UNL A   1      45.777  43.724  37.048  1.00  0.00    -0.376 OA
BRANCH   2   3
ATOM      3  C   UNL A   1      45.997  43.170  35.758  1.00  0.00     0.202 C 
BRANCH   3   4
ATOM      4  C   UNL A   1      45.315  41.826  35.562  1.00  0.00     0.261 C 
BRANCH   4   5
ATOM      5  O   UNL A   1      45.081  41.494  34.185  1.00  0.00    -0.463 OA
BRANCH   5   6
ATOM      6  C   UNL A   1      44.331  40.463  33.728  1.00  0.00     0.305 C 
ATOM      7  O   UNL A   1      44.808  39.328  33.751  1.00  0.00    -0.252 OA
BRANCH   6   8
ATOM      8  C   UNL A   1      43.008  40.709  33.031  1.00  0.00     0.124 C 
BRANCH   8   9
ATOM      9  C   UNL A   1      42.599  42.146  32.774  1.00  0.00     0.033 C 
BRANCH   9  10
ATOM     10  C   UNL A   1      42.445  42.562  31.318  1.00  0.00     0.121 C 
BRANCH  10  11
ATOM     11  N   UNL A   1      43.601  42.777  30.444  1.00  0.00    -0.324 N 
ATOM     12  C   UNL A   1      43.941  44.080  30.125  1.00  0.00     0.295 C 
ATOM     13  C   UNL A   1      44.444  41.794  29.743  1.00  0.00     0.157 C 
ATOM     14  O   UNL A   1      43.505  45.111  30.624  1.00  0.00    -0.265 OA
ATOM     15  C   UNL A   1      45.022  44.040  29.066  1.00  0.00     0.248 C 
ATOM     16  C   UNL A   1      45.449  42.628  28.943  1.00  0.00     0.025 C 
ATOM     17  O   UNL A   1      45.488  45.033  28.529  1.00  0.00    -0.283 OA
ATOM     18  C   UNL A   1      46.594  42.255  28.335  1.00  0.00    -0.092 C 
ATOM     19  O   UNL A   1      47.084  40.970  28.431  1.00  0.00    -0.872 OA
BRANCH  13  20
ATOM     20  C   UNL A   1      43.733  40.704  28.940  1.00  0.00     0.057 A 
ATOM     21  C   UNL A   1      42.984  41.116  27.814  1.00  0.00     0.013 A 
ATOM     22  C   UNL A   1      43.761  39.312  29.172  1.00  0.00     0.275 A 
ATOM     23  C   UNL A   1      42.354  40.203  26.960  1.00  0.00     0.001 A 
ATOM     24  C   UNL A   1      43.207  38.386  28.267  1.00  0.00     0.086 A 
ATOM     25  C   UNL A   1      42.505  38.838  27.157  1.00  0.00     0.007 A 
BRANCH  22  26
ATOM     26  N   UNL A   1      44.326  38.740  30.380  1.00  0.00     0.063 N 
ATOM     27  O   UNL A   1      45.500  39.028  30.651  1.00  0.00    -0.258 OA
ATOM     28  O   UNL A   1      43.590  38.009  31.055  1.00  0.00    -0.258 OA
ENDBRANCH  22  26
ENDBRANCH  13  20
BRANCH  18  29
ATOM     29  C   UNL A   1      47.406  43.093  27.429  1.00  0.00    -0.033 A 
ATOM     30  C   UNL A   1      48.567  43.755  27.848  1.00  0.00     0.009 A 
ATOM     31  C   UNL A   1      46.999  43.222  26.090  1.00  0.00     0.009 A 
ATOM     32  C   UNL A   1      49.285  44.562  26.954  1.00  0.00     0.021 A 
ATOM     33  C   UNL A   1      47.718  44.022  25.196  1.00  0.00     0.021 A 
ATOM     34  C   UNL A   1      48.854  44.695  25.635  1.00  0.00     0.041 A 
ATOM     35  Cl  UNL A   1      49.728  45.700  24.543  1.00  0.00    -0.084 Cl
ENDBRANCH  18  29
ENDBRANCH  10  11
ENDBRANCH   9  10
ENDBRANCH   8   9
ENDBRANCH   6   8
ENDBRANCH   5   6
ENDBRANCH   4   5
ENDBRANCH   3   4
ENDBRANCH   2   3
ENDBRANCH   1   2
BRANCH   1  36
ATOM     36  C   UNL A   1      48.085  43.178  37.903  1.00  0.00     0.188 C 
BRANCH  36  37
ATOM     37  O   UNL A   1      49.131  43.129  36.944  1.00  0.00    -0.376 OA
BRANCH  37  38
ATOM     38  C   UNL A   1      50.491  43.190  37.353  1.00  0.00     0.202 C 
BRANCH  38  39
ATOM     39  C   UNL A   1      51.317  41.916  37.200  1.00  0.00     0.261 C 
BRANCH  39  40
ATOM     40  O   UNL A   1      50.721  40.975  36.290  1.00  0.00    -0.460 OA
BRANCH  40  41
ATOM     41  C   UNL A   1      51.019  39.679  36.554  1.00  0.00     0.338 C 
ATOM     42  O   UNL A   1      52.092  39.216  36.897  1.00  0.00    -0.246 OA
BRANCH  41  43
ATOM     43  C   UNL A   1      49.806  38.865  36.424  1.00  0.00     0.060 A 
ATOM     44  C   UNL A   1      49.925  37.470  36.373  1.00  0.00     0.016 A 
ATOM     45  C   UNL A   1      48.583  39.496  36.192  1.00  0.00     0.016 A 
ATOM     46  C   UNL A   1      48.819  36.697  36.024  1.00  0.00     0.010 A 
ATOM     47  C   UNL A   1      47.484  38.722  35.836  1.00  0.00     0.010 A 
ATOM     48  C   UNL A   1      47.612  37.327  35.700  1.00  0.00    -0.014 A 
BRANCH  48  49
ATOM     49  C   UNL A   1      46.524  36.590  35.021  1.00  0.00     0.031 A 
ATOM     50  C   UNL A   1      46.646  36.340  33.544  1.00  0.00     0.074 A 
ATOM     51  C   UNL A   1      45.418  36.227  35.689  1.00  0.00     0.049 A 
ATOM     52  N   UNL A   1      45.749  35.904  32.702  1.00  0.00    -0.248 NA
ATOM     53  C   UNL A   1      47.956  36.632  32.939  1.00  0.00     0.031 C 
ATOM     54  C   UNL A   1      45.220  36.360  37.129  1.00  0.00     0.029 A 
ATOM     55  N   UNL A   1      44.237  35.707  35.229  1.00  0.00    -0.354 N 
ATOM     56  C   UNL A   1      46.375  35.892  31.461  1.00  0.00     0.074 A 
ATOM     57  C   UNL A   1      47.721  36.382  31.659  1.00  0.00     0.031 C 
ATOM     58  C   UNL A   1      43.965  35.986  37.431  1.00  0.00     0.029 A 
ATOM     59  C   UNL A   1      43.270  35.616  36.200  1.00  0.00     0.049 A 
ATOM     60  H   UNL A   1      44.096  35.428  34.296  1.00  0.00     0.167 HD
ATOM     61  C   UNL A   1      45.868  35.513  30.264  1.00  0.00     0.031 A 
ATOM     62  C   UNL A   1      41.963  35.306  36.098  1.00  0.00     0.031 A 
ATOM     63  C   UNL A   1      44.519  35.051  30.080  1.00  0.00     0.049 A 
ATOM     64  C   UNL A   1      41.394  34.955  34.750  1.00  0.00     0.074 A 
ATOM     65  C   UNL A   1      43.903  34.628  28.915  1.00  0.00     0.029 A 
ATOM     66  N   UNL A   1      43.571  34.964  31.090  1.00  0.00    -0.354 N 
ATOM     67  N   UNL A   1      41.996  34.935  33.585  1.00  0.00    -0.248 NA
ATOM     68  C   UNL A   1      39.976  34.571  34.706  1.00  0.00     0.031 C 
ATOM     69  C   UNL A   1      42.567  34.340  29.211  1.00  0.00     0.029 A 
ATOM     70  C   UNL A   1      42.368  34.517  30.573  1.00  0.00     0.049 A 
ATOM     71  H   UNL A   1      43.731  35.188  32.035  1.00  0.00     0.167 HD
ATOM     72  C   UNL A   1      41.040  34.499  32.672  1.00  0.00     0.074 A 
ATOM     73  C   UNL A   1      39.822  34.272  33.423  1.00  0.00     0.031 C 
ATOM     74  C   UNL A   1      41.167  34.293  31.338  1.00  0.00     0.031 A 
BRANCH  61  75
ATOM     75  C   UNL A   1      46.766  35.638  29.061  1.00  0.00    -0.014 A 
ATOM     76  C   UNL A   1      47.485  34.536  28.563  1.00  0.00     0.010 A 
ATOM     77  C   UNL A   1      46.894  36.882  28.418  1.00  0.00     0.010 A 
ATOM     78  C   UNL A   1      48.356  34.689  27.481  1.00  0.00     0.020 A 
ATOM     79  C   UNL A   1      47.740  37.034  27.317  1.00  0.00     0.020 A 
ATOM     80  C   UNL A   1      48.485  35.940  26.871  1.00  0.00     0.054 A 
BRANCH  80  81
ATOM     81  S   UNL A   1      49.633  36.116  25.478  1.00  0.00     0.124 S 
ATOM     82  O   UNL A   1      49.523  34.809  24.833  1.00  0.00    -0.237 OA
ATOM     83  O   UNL A   1      49.063  37.235  24.732  1.00  0.00    -0.237 OA
ATOM     84  O   UNL A   1      50.918  36.387  26.119  1.00  0.00    -0.744 OA
ENDBRANCH  80  81
ENDBRANCH  61  75
BRANCH  62  85
ATOM     85  C   UNL A   1      41.114  35.328  37.318  1.00  0.00    -0.014 A 
ATOM     86  C   UNL A   1      41.069  34.216  38.175  1.00  0.00     0.010 A 
ATOM     87  C   UNL A   1      40.392  36.488  37.657  1.00  0.00     0.010 A 
ATOM     88  C   UNL A   1      40.322  34.265  39.354  1.00  0.00     0.020 A 
ATOM     89  C   UNL A   1      39.663  36.548  38.847  1.00  0.00     0.020 A 
ATOM     90  C   UNL A   1      39.633  35.434  39.688  1.00  0.00     0.054 A 
BRANCH  90  91
ATOM     91  S   UNL A   1      38.754  35.510  41.274  1.00  0.00     0.124 S 
ATOM     92  O   UNL A   1      39.083  36.854  41.739  1.00  0.00    -0.237 OA
ATOM     93  O   UNL A   1      37.366  35.299  40.872  1.00  0.00    -0.237 OA
ATOM     94  O   UNL A   1      39.345  34.415  42.040  1.00  0.00    -0.744 OA
ENDBRANCH  90  91
ENDBRANCH  62  85
BRANCH  74  95
ATOM     95  C   UNL A   1      39.975  33.742  30.599  1.00  0.00    -0.014 A 
ATOM     96  C   UNL A   1      39.635  32.380  30.665  1.00  0.00     0.010 A 
ATOM     97  C   UNL A   1      39.132  34.628  29.903  1.00  0.00     0.010 A 
ATOM     98  C   UNL A   1      38.481  31.912  30.031  1.00  0.00     0.020 A 
ATOM     99  C   UNL A   1      37.964  34.168  29.292  1.00  0.00     0.020 A 
ATOM    100  C   UNL A   1      37.650  32.810  29.354  1.00  0.00     0.054 A 
BRANCH 100 101
ATOM    101  S   UNL A   1      36.121  32.189  28.601  1.00  0.00     0.124 S 
ATOM    102  O   UNL A   1      36.571  30.949  27.977  1.00  0.00    -0.237 OA
ATOM    103  O   UNL A   1      35.238  32.029  29.754  1.00  0.00    -0.237 OA
ATOM    104  O   UNL A   1      35.736  33.250  27.672  1.00  0.00    -0.744 OA
ENDBRANCH 100 101
ENDBRANCH  74  95
ENDBRANCH  48  49
ENDBRANCH  41  43
ENDBRANCH  40  41
ENDBRANCH  39  40
ENDBRANCH  38  39
ENDBRANCH  37  38
ENDBRANCH  36  37
ENDBRANCH   1  36
TORSDOF 26
ENDMDL
