MODEL 1
REMARK VINA RESULT:     -11.2      0.000      0.000
REMARK SMILES O=C(OCCOCCOCCOC(=O)[C@@H]1CCCC[C@H]1C(=O)Nc1sc2c(c1C(=O)NC1CCCC1)CCC2)c1ccc(-c2c3nc(c(-c4ccc(S(=O)(=O)[O-])cc4)c4ccc([nH]4)c(-c4ccc(S(=O)(=O)[O-])cc4)c4nc(c(-c5ccc(S(=O)(=O)[O-])cc5)c5ccc2[nH]5)C=C4)C=C3)cc1
REMARK SMILES IDX 8 1 7 2 6 3 5 4 4 5 3 6 2 7 1 8 40 9 41 10 99 11 42 12 98 13
REMARK SMILES IDX 43 14 44 15 45 16 92 17 46 18 97 19 91 20 93 21 47 22 96 23
REMARK SMILES IDX 90 24 89 25 48 27 78 28 59 29 77 30 60 31 63 32 76 33 94 34
REMARK SMILES IDX 61 35 62 36 75 38 95 39 64 40 49 41 50 42 58 43 51 44 57 45
REMARK SMILES IDX 52 46 53 47 54 48 55 49 56 50 79 51 80 52 88 53 81 54 87 55
REMARK SMILES IDX 82 56 83 57 84 58 85 59 86 60 65 61 66 62 74 63 67 64 73 65
REMARK SMILES IDX 68 66 69 67 70 68 71 69 72 70 9 71 10 72 11 73 12 74 13 75
REMARK SMILES IDX 14 76 15 77 16 78 20 79 17 80 19 81 18 82 21 83 22 84 23 85
REMARK SMILES IDX 24 87 25 88 28 89 26 90 27 91 39 92 37 93 38 94 29 95 30 96
REMARK SMILES IDX 31 97 32 99 33 100 36 101 34 102 35 103
REMARK H PARENT 93 26 63 37 23 86 31 98
REMARK Flexibility Score: inf
ROOT
ATOM      1  C   UNL A   1      40.112  21.435  26.127  1.00  0.00     0.188 C 
ENDROOT
BRANCH   1   2
ATOM      2  C   UNL A   1      40.520  20.008  26.571  1.00  0.00     0.188 C 
BRANCH   2   3
ATOM      3  O   UNL A   1      41.312  19.182  25.754  1.00  0.00    -0.376 OA
BRANCH   3   4
ATOM      4  C   UNL A   1      42.696  19.000  25.946  1.00  0.00     0.202 C 
BRANCH   4   5
ATOM      5  C   UNL A   1      43.804  19.858  25.330  1.00  0.00     0.261 C 
BRANCH   5   6
ATOM      6  O   UNL A   1      43.563  21.258  25.232  1.00  0.00    -0.460 OA
BRANCH   6   7
ATOM      7  C   UNL A   1      44.017  22.308  25.943  1.00  0.00     0.338 C 
ATOM      8  O   UNL A   1      45.200  22.291  26.285  1.00  0.00    -0.246 OA
BRANCH   7   9
ATOM      9  C   UNL A   1      43.191  23.439  26.463  1.00  0.00     0.060 A 
ATOM     10  C   UNL A   1      42.437  24.335  25.710  1.00  0.00     0.016 A 
ATOM     11  C   UNL A   1      43.328  23.675  27.850  1.00  0.00     0.016 A 
ATOM     12  C   UNL A   1      41.998  25.524  26.285  1.00  0.00     0.010 A 
ATOM     13  C   UNL A   1      42.898  24.861  28.426  1.00  0.00     0.010 A 
ATOM     14  C   UNL A   1      42.313  25.817  27.614  1.00  0.00    -0.014 A 
BRANCH  14  15
ATOM     15  C   UNL A   1      41.982  27.135  28.123  1.00  0.00     0.031 A 
ATOM     16  C   UNL A   1      42.985  28.182  27.838  1.00  0.00     0.074 A 
ATOM     17  C   UNL A   1      40.837  27.443  28.761  1.00  0.00     0.049 A 
ATOM     18  N   UNL A   1      44.000  28.513  28.567  1.00  0.00    -0.248 NA
ATOM     19  C   UNL A   1      42.965  28.803  26.509  1.00  0.00     0.031 C 
ATOM     20  C   UNL A   1      39.595  26.681  28.885  1.00  0.00     0.029 A 
ATOM     21  N   UNL A   1      40.546  28.602  29.406  1.00  0.00    -0.354 N 
ATOM     22  C   UNL A   1      44.622  29.555  27.890  1.00  0.00     0.074 A 
ATOM     23  C   UNL A   1      44.097  29.512  26.548  1.00  0.00     0.031 C 
ATOM     24  C   UNL A   1      38.620  27.497  29.360  1.00  0.00     0.029 A 
ATOM     25  C   UNL A   1      39.208  28.780  29.718  1.00  0.00     0.049 A 
ATOM     26  H   UNL A   1      41.235  29.267  29.634  1.00  0.00     0.167 HD
ATOM     27  C   UNL A   1      45.321  30.531  28.539  1.00  0.00     0.031 A 
ATOM     28  C   UNL A   1      38.645  29.928  30.182  1.00  0.00     0.031 A 
ATOM     29  C   UNL A   1      45.470  30.231  29.941  1.00  0.00     0.049 A 
ATOM     30  C   UNL A   1      39.740  30.745  30.774  1.00  0.00     0.074 A 
ATOM     31  C   UNL A   1      46.019  29.195  30.674  1.00  0.00     0.029 A 
ATOM     32  N   UNL A   1      44.614  30.882  30.803  1.00  0.00    -0.354 N 
ATOM     33  N   UNL A   1      40.389  30.387  31.848  1.00  0.00    -0.248 NA
ATOM     34  C   UNL A   1      40.445  31.681  29.908  1.00  0.00     0.031 C 
ATOM     35  C   UNL A   1      45.088  28.968  31.732  1.00  0.00     0.029 A 
ATOM     36  C   UNL A   1      44.081  29.930  31.632  1.00  0.00     0.049 A 
ATOM     37  H   UNL A   1      44.420  31.847  30.819  1.00  0.00     0.167 HD
ATOM     38  C   UNL A   1      41.718  30.692  31.584  1.00  0.00     0.074 A 
ATOM     39  C   UNL A   1      41.680  31.556  30.404  1.00  0.00     0.031 C 
ATOM     40  C   UNL A   1      42.739  29.995  32.167  1.00  0.00     0.031 A 
BRANCH  27  41
ATOM     41  C   UNL A   1      45.508  31.936  28.014  1.00  0.00    -0.014 A 
ATOM     42  C   UNL A   1      46.817  32.408  27.775  1.00  0.00     0.010 A 
ATOM     43  C   UNL A   1      44.476  32.893  27.978  1.00  0.00     0.010 A 
ATOM     44  C   UNL A   1      47.077  33.771  27.580  1.00  0.00     0.020 A 
ATOM     45  C   UNL A   1      44.716  34.245  27.736  1.00  0.00     0.020 A 
ATOM     46  C   UNL A   1      46.021  34.682  27.572  1.00  0.00     0.054 A 
BRANCH  46  47
ATOM     47  S   UNL A   1      46.363  36.447  27.398  1.00  0.00     0.124 S 
ATOM     48  O   UNL A   1      47.299  36.681  28.493  1.00  0.00    -0.237 OA
ATOM     49  O   UNL A   1      46.924  36.520  26.053  1.00  0.00    -0.237 OA
ATOM     50  O   UNL A   1      45.047  37.064  27.553  1.00  0.00    -0.744 OA
ENDBRANCH  46  47
ENDBRANCH  27  41
BRANCH  28  51
ATOM     51  C   UNL A   1      37.327  30.507  29.813  1.00  0.00    -0.014 A 
ATOM     52  C   UNL A   1      36.564  31.245  30.738  1.00  0.00     0.010 A 
ATOM     53  C   UNL A   1      36.955  30.580  28.455  1.00  0.00     0.010 A 
ATOM     54  C   UNL A   1      35.509  32.074  30.311  1.00  0.00     0.020 A 
ATOM     55  C   UNL A   1      35.906  31.401  28.022  1.00  0.00     0.020 A 
ATOM     56  C   UNL A   1      35.202  32.164  28.950  1.00  0.00     0.054 A 
BRANCH  56  57
ATOM     57  S   UNL A   1      33.970  33.375  28.380  1.00  0.00     0.124 S 
ATOM     58  O   UNL A   1      34.777  34.286  27.576  1.00  0.00    -0.237 OA
ATOM     59  O   UNL A   1      33.027  32.543  27.637  1.00  0.00    -0.237 OA
ATOM     60  O   UNL A   1      33.445  33.941  29.621  1.00  0.00    -0.744 OA
ENDBRANCH  56  57
ENDBRANCH  28  51
BRANCH  40  61
ATOM     61  C   UNL A   1      42.428  29.070  33.318  1.00  0.00    -0.014 A 
ATOM     62  C   UNL A   1      41.803  27.814  33.187  1.00  0.00     0.010 A 
ATOM     63  C   UNL A   1      42.915  29.446  34.582  1.00  0.00     0.010 A 
ATOM     64  C   UNL A   1      41.631  26.983  34.306  1.00  0.00     0.020 A 
ATOM     65  C   UNL A   1      42.766  28.617  35.693  1.00  0.00     0.020 A 
ATOM     66  C   UNL A   1      42.109  27.396  35.553  1.00  0.00     0.054 A 
BRANCH  66  67
ATOM     67  S   UNL A   1      41.886  26.324  37.000  1.00  0.00     0.124 S 
ATOM     68  O   UNL A   1      40.556  26.703  37.471  1.00  0.00    -0.237 OA
ATOM     69  O   UNL A   1      41.995  24.984  36.430  1.00  0.00    -0.237 OA
ATOM     70  O   UNL A   1      42.986  26.703  37.886  1.00  0.00    -0.744 OA
ENDBRANCH  66  67
ENDBRANCH  40  61
ENDBRANCH  14  15
ENDBRANCH   7   9
ENDBRANCH   6   7
ENDBRANCH   5   6
ENDBRANCH   4   5
ENDBRANCH   3   4
ENDBRANCH   2   3
ENDBRANCH   1   2
BRANCH   1  71
ATOM     71  O   UNL A   1      38.806  21.779  25.688  1.00  0.00    -0.376 OA
BRANCH  71  72
ATOM     72  C   UNL A   1      38.203  22.975  26.126  1.00  0.00     0.202 C 
BRANCH  72  73
ATOM     73  C   UNL A   1      37.270  23.703  25.158  1.00  0.00     0.261 C 
BRANCH  73  74
ATOM     74  O   UNL A   1      35.976  23.113  24.991  1.00  0.00    -0.463 OA
BRANCH  74  75
ATOM     75  C   UNL A   1      35.183  23.017  26.087  1.00  0.00     0.309 C 
ATOM     76  O   UNL A   1      35.246  23.748  27.074  1.00  0.00    -0.252 OA
BRANCH  75  77
ATOM     77  C   UNL A   1      34.204  21.857  25.934  1.00  0.00     0.111 C 
ATOM     78  C   UNL A   1      34.706  20.756  24.996  1.00  0.00     0.016 C 
ATOM     79  C   UNL A   1      32.832  22.422  25.548  1.00  0.00     0.093 C 
ATOM     80  C   UNL A   1      33.622  19.725  24.716  1.00  0.00     0.001 C 
ATOM     81  C   UNL A   1      31.817  21.408  25.004  1.00  0.00     0.014 C 
ATOM     82  C   UNL A   1      32.435  20.388  24.051  1.00  0.00     0.001 C 
BRANCH  79  83
ATOM     83  C   UNL A   1      32.257  23.283  26.681  1.00  0.00     0.228 C 
ATOM     84  O   UNL A   1      32.236  22.821  27.829  1.00  0.00    -0.274 OA
ATOM     85  N   UNL A   1      31.761  24.551  26.520  1.00  0.00    -0.317 N 
ATOM     86  H   UNL A   1      31.083  24.849  27.169  1.00  0.00     0.170 HD
BRANCH  85  87
ATOM     87  C   UNL A   1      32.120  25.449  25.536  1.00  0.00     0.108 A 
ATOM     88  S   UNL A   1      33.224  26.619  26.132  1.00  0.00    -0.122 S 
ATOM     89  C   UNL A   1      31.635  25.729  24.244  1.00  0.00     0.078 A 
ATOM     90  C   UNL A   1      33.373  27.247  24.603  1.00  0.00     0.011 A 
ATOM     91  C   UNL A   1      32.555  26.675  23.658  1.00  0.00    -0.019 A 
ATOM     92  C   UNL A   1      34.212  28.369  24.119  1.00  0.00     0.047 C 
ATOM     93  C   UNL A   1      32.819  27.354  22.352  1.00  0.00     0.038 C 
ATOM     94  C   UNL A   1      34.131  28.146  22.596  1.00  0.00     0.010 C 
BRANCH  89  95
ATOM     95  C   UNL A   1      30.361  25.121  23.781  1.00  0.00     0.254 C 
ATOM     96  O   UNL A   1      30.277  23.896  23.660  1.00  0.00    -0.269 OA
ATOM     97  N   UNL A   1      29.236  25.824  23.414  1.00  0.00    -0.349 N 
ATOM     98  H   UNL A   1      28.577  25.301  22.902  1.00  0.00     0.164 HD
BRANCH  97  99
ATOM     99  C   UNL A   1      28.860  27.185  23.651  1.00  0.00     0.082 C 
ATOM    100  C   UNL A   1      29.485  28.205  22.716  1.00  0.00     0.025 C 
ATOM    101  C   UNL A   1      27.378  27.506  23.501  1.00  0.00     0.025 C 
ATOM    102  C   UNL A   1      28.735  29.484  23.057  1.00  0.00     0.002 C 
ATOM    103  C   UNL A   1      27.370  29.034  23.586  1.00  0.00     0.002 C 
ENDBRANCH  97  99
ENDBRANCH  89  95
ENDBRANCH  85  87
ENDBRANCH  79  83
ENDBRANCH  75  77
ENDBRANCH  74  75
ENDBRANCH  73  74
ENDBRANCH  72  73
ENDBRANCH  71  72
ENDBRANCH   1  71
TORSDOF 24
ENDMDL
MODEL 2
REMARK VINA RESULT:     -10.2      2.060      2.641
REMARK SMILES O=C(OCCOCCOCCOC(=O)[C@@H]1CCCC[C@H]1C(=O)Nc1sc2c(c1C(=O)NC1CCCC1)CCC2)c1ccc(-c2c3nc(c(-c4ccc(S(=O)(=O)[O-])cc4)c4ccc([nH]4)c(-c4ccc(S(=O)(=O)[O-])cc4)c4nc(c(-c5ccc(S(=O)(=O)[O-])cc5)c5ccc2[nH]5)C=C4)C=C3)cc1
REMARK SMILES IDX 8 1 7 2 6 3 5 4 4 5 3 6 2 7 1 8 40 9 41 10 99 11 42 12 98 13
REMARK SMILES IDX 43 14 44 15 45 16 92 17 46 18 97 19 91 20 93 21 47 22 96 23
REMARK SMILES IDX 90 24 89 25 48 27 78 28 59 29 77 30 60 31 63 32 76 33 94 34
REMARK SMILES IDX 61 35 62 36 75 38 95 39 64 40 49 41 50 42 58 43 51 44 57 45
REMARK SMILES IDX 52 46 53 47 54 48 55 49 56 50 79 51 80 52 88 53 81 54 87 55
REMARK SMILES IDX 82 56 83 57 84 58 85 59 86 60 65 61 66 62 74 63 67 64 73 65
REMARK SMILES IDX 68 66 69 67 70 68 71 69 72 70 9 71 10 72 11 73 12 74 13 75
REMARK SMILES IDX 14 76 15 77 16 78 20 79 17 80 19 81 18 82 21 83 22 84 23 85
REMARK SMILES IDX 24 87 25 88 28 89 26 90 27 91 39 92 37 93 38 94 29 95 30 96
REMARK SMILES IDX 31 97 32 99 33 100 36 101 34 102 35 103
REMARK H PARENT 93 26 63 37 23 86 31 98
REMARK Flexibility Score: inf
ROOT
ATOM      1  C   UNL A   1      41.674  22.113  26.750  1.00  0.00     0.188 C 
ENDROOT
BRANCH   1   2
ATOM      2  C   UNL A   1      42.715  20.980  26.567  1.00  0.00     0.188 C 
BRANCH   2   3
ATOM      3  O   UNL A   1      43.245  20.665  25.303  1.00  0.00    -0.376 OA
BRANCH   3   4
ATOM      4  C   UNL A   1      44.481  21.158  24.836  1.00  0.00     0.202 C 
BRANCH   4   5
ATOM      5  C   UNL A   1      44.672  22.368  23.920  1.00  0.00     0.261 C 
BRANCH   5   6
ATOM      6  O   UNL A   1      44.096  23.600  24.341  1.00  0.00    -0.460 OA
BRANCH   6   7
ATOM      7  C   UNL A   1      44.593  24.642  25.036  1.00  0.00     0.338 C 
ATOM      8  O   UNL A   1      45.816  24.706  25.163  1.00  0.00    -0.246 OA
BRANCH   7   9
ATOM      9  C   UNL A   1      43.793  25.665  25.774  1.00  0.00     0.060 A 
ATOM     10  C   UNL A   1      43.106  26.743  25.220  1.00  0.00     0.016 A 
ATOM     11  C   UNL A   1      43.885  25.578  27.181  1.00  0.00     0.016 A 
ATOM     12  C   UNL A   1      42.693  27.792  26.037  1.00  0.00     0.010 A 
ATOM     13  C   UNL A   1      43.481  26.624  27.998  1.00  0.00     0.010 A 
ATOM     14  C   UNL A   1      42.967  27.765  27.406  1.00  0.00    -0.014 A 
BRANCH  14  15
ATOM     15  C   UNL A   1      42.669  28.949  28.189  1.00  0.00     0.031 A 
ATOM     16  C   UNL A   1      43.754  29.952  28.238  1.00  0.00     0.074 A 
ATOM     17  C   UNL A   1      41.492  29.189  28.797  1.00  0.00     0.049 A 
ATOM     18  N   UNL A   1      44.717  30.023  29.097  1.00  0.00    -0.248 NA
ATOM     19  C   UNL A   1      43.891  30.865  27.098  1.00  0.00     0.031 C 
ATOM     20  C   UNL A   1      40.202  28.519  28.643  1.00  0.00     0.029 A 
ATOM     21  N   UNL A   1      41.213  30.185  29.677  1.00  0.00    -0.354 N 
ATOM     22  C   UNL A   1      45.458  31.142  28.736  1.00  0.00     0.074 A 
ATOM     23  C   UNL A   1      45.054  31.455  27.388  1.00  0.00     0.031 C 
ATOM     24  C   UNL A   1      39.237  29.275  29.227  1.00  0.00     0.029 A 
ATOM     25  C   UNL A   1      39.865  30.389  29.923  1.00  0.00     0.049 A 
ATOM     26  H   UNL A   1      41.916  30.722  30.107  1.00  0.00     0.167 HD
ATOM     27  C   UNL A   1      46.152  31.881  29.649  1.00  0.00     0.031 A 
ATOM     28  C   UNL A   1      39.331  31.437  30.605  1.00  0.00     0.031 A 
ATOM     29  C   UNL A   1      46.156  31.252  30.947  1.00  0.00     0.049 A 
ATOM     30  C   UNL A   1      40.415  32.005  31.454  1.00  0.00     0.074 A 
ATOM     31  C   UNL A   1      46.575  30.034  31.448  1.00  0.00     0.029 A 
ATOM     32  N   UNL A   1      45.265  31.749  31.873  1.00  0.00    -0.354 N 
ATOM     33  N   UNL A   1      40.942  31.356  32.456  1.00  0.00    -0.248 NA
ATOM     34  C   UNL A   1      41.249  33.059  30.891  1.00  0.00     0.031 C 
ATOM     35  C   UNL A   1      45.540  29.639  32.351  1.00  0.00     0.029 A 
ATOM     36  C   UNL A   1      44.605  30.674  32.410  1.00  0.00     0.049 A 
ATOM     37  H   UNL A   1      45.128  32.696  32.105  1.00  0.00     0.167 HD
ATOM     38  C   UNL A   1      42.305  31.609  32.371  1.00  0.00     0.074 A 
ATOM     39  C   UNL A   1      42.424  32.725  31.432  1.00  0.00     0.031 C 
ATOM     40  C   UNL A   1      43.227  30.718  32.844  1.00  0.00     0.031 A 
BRANCH  27  41
ATOM     41  C   UNL A   1      46.468  33.351  29.491  1.00  0.00    -0.014 A 
ATOM     42  C   UNL A   1      45.427  34.239  29.145  1.00  0.00     0.010 A 
ATOM     43  C   UNL A   1      47.779  33.859  29.426  1.00  0.00     0.010 A 
ATOM     44  C   UNL A   1      45.696  35.539  28.695  1.00  0.00     0.020 A 
ATOM     45  C   UNL A   1      48.057  35.166  29.028  1.00  0.00     0.020 A 
ATOM     46  C   UNL A   1      47.014  35.989  28.631  1.00  0.00     0.054 A 
BRANCH  46  47
ATOM     47  S   UNL A   1      47.368  37.636  27.979  1.00  0.00     0.124 S 
ATOM     48  O   UNL A   1      48.819  37.592  27.824  1.00  0.00    -0.237 OA
ATOM     49  O   UNL A   1      46.595  37.649  26.741  1.00  0.00    -0.237 OA
ATOM     50  O   UNL A   1      46.874  38.529  29.026  1.00  0.00    -0.744 OA
ENDBRANCH  46  47
ENDBRANCH  27  41
BRANCH  28  51
ATOM     51  C   UNL A   1      38.087  32.188  30.289  1.00  0.00    -0.014 A 
ATOM     52  C   UNL A   1      38.062  33.182  29.292  1.00  0.00     0.010 A 
ATOM     53  C   UNL A   1      36.850  31.716  30.771  1.00  0.00     0.010 A 
ATOM     54  C   UNL A   1      36.844  33.639  28.754  1.00  0.00     0.020 A 
ATOM     55  C   UNL A   1      35.634  32.168  30.243  1.00  0.00     0.020 A 
ATOM     56  C   UNL A   1      35.636  33.111  29.218  1.00  0.00     0.054 A 
BRANCH  56  57
ATOM     57  S   UNL A   1      34.077  33.561  28.396  1.00  0.00     0.124 S 
ATOM     58  O   UNL A   1      33.307  34.148  29.487  1.00  0.00    -0.237 OA
ATOM     59  O   UNL A   1      34.521  34.493  27.362  1.00  0.00    -0.237 OA
ATOM     60  O   UNL A   1      33.572  32.284  27.896  1.00  0.00    -0.744 OA
ENDBRANCH  56  57
ENDBRANCH  28  51
BRANCH  40  61
ATOM     61  C   UNL A   1      42.759  29.577  33.714  1.00  0.00    -0.014 A 
ATOM     62  C   UNL A   1      42.287  28.342  33.228  1.00  0.00     0.010 A 
ATOM     63  C   UNL A   1      42.932  29.727  35.101  1.00  0.00     0.010 A 
ATOM     64  C   UNL A   1      41.955  27.306  34.115  1.00  0.00     0.020 A 
ATOM     65  C   UNL A   1      42.623  28.695  35.987  1.00  0.00     0.020 A 
ATOM     66  C   UNL A   1      42.119  27.494  35.490  1.00  0.00     0.054 A 
BRANCH  66  67
ATOM     67  S   UNL A   1      41.686  26.158  36.638  1.00  0.00     0.124 S 
ATOM     68  O   UNL A   1      40.657  26.776  37.470  1.00  0.00    -0.237 OA
ATOM     69  O   UNL A   1      41.224  25.100  35.743  1.00  0.00    -0.237 OA
ATOM     70  O   UNL A   1      42.945  25.869  37.326  1.00  0.00    -0.744 OA
ENDBRANCH  66  67
ENDBRANCH  40  61
ENDBRANCH  14  15
ENDBRANCH   7   9
ENDBRANCH   6   7
ENDBRANCH   5   6
ENDBRANCH   4   5
ENDBRANCH   3   4
ENDBRANCH   2   3
ENDBRANCH   1   2
BRANCH   1  71
ATOM     71  O   UNL A   1      40.323  21.886  27.125  1.00  0.00    -0.376 OA
BRANCH  71  72
ATOM     72  C   UNL A   1      39.278  22.538  26.440  1.00  0.00     0.202 C 
BRANCH  72  73
ATOM     73  C   UNL A   1      38.401  21.701  25.507  1.00  0.00     0.261 C 
BRANCH  73  74
ATOM     74  O   UNL A   1      37.019  21.626  25.868  1.00  0.00    -0.463 OA
BRANCH  74  75
ATOM     75  C   UNL A   1      36.121  21.392  24.878  1.00  0.00     0.309 C 
ATOM     76  O   UNL A   1      35.955  22.106  23.890  1.00  0.00    -0.252 OA
BRANCH  75  77
ATOM     77  C   UNL A   1      35.328  20.122  25.168  1.00  0.00     0.111 C 
ATOM     78  C   UNL A   1      35.786  18.916  24.344  1.00  0.00     0.016 C 
ATOM     79  C   UNL A   1      33.834  20.436  25.032  1.00  0.00     0.093 C 
ATOM     80  C   UNL A   1      34.844  17.733  24.516  1.00  0.00     0.001 C 
ATOM     81  C   UNL A   1      32.899  19.223  24.933  1.00  0.00     0.014 C 
ATOM     82  C   UNL A   1      33.452  18.106  24.053  1.00  0.00     0.001 C 
BRANCH  79  83
ATOM     83  C   UNL A   1      33.387  21.440  26.103  1.00  0.00     0.228 C 
ATOM     84  O   UNL A   1      33.550  21.153  27.296  1.00  0.00    -0.274 OA
ATOM     85  N   UNL A   1      32.814  22.658  25.837  1.00  0.00    -0.317 N 
ATOM     86  H   UNL A   1      32.223  23.031  26.529  1.00  0.00     0.170 HD
BRANCH  85  87
ATOM     87  C   UNL A   1      32.988  23.409  24.693  1.00  0.00     0.108 A 
ATOM     88  S   UNL A   1      32.530  22.529  23.293  1.00  0.00    -0.122 S 
ATOM     89  C   UNL A   1      33.635  24.628  24.414  1.00  0.00     0.078 A 
ATOM     90  C   UNL A   1      32.798  23.879  22.365  1.00  0.00     0.011 A 
ATOM     91  C   UNL A   1      33.312  24.958  23.046  1.00  0.00    -0.019 A 
ATOM     92  C   UNL A   1      32.622  24.075  20.907  1.00  0.00     0.047 C 
ATOM     93  C   UNL A   1      33.489  26.075  22.067  1.00  0.00     0.038 C 
ATOM     94  C   UNL A   1      32.691  25.612  20.818  1.00  0.00     0.010 C 
BRANCH  89  95
ATOM     95  C   UNL A   1      34.499  25.263  25.441  1.00  0.00     0.254 C 
ATOM     96  O   UNL A   1      35.569  24.734  25.753  1.00  0.00    -0.269 OA
ATOM     97  N   UNL A   1      34.187  26.408  26.140  1.00  0.00    -0.349 N 
ATOM     98  H   UNL A   1      34.734  26.556  26.945  1.00  0.00     0.164 HD
BRANCH  97  99
ATOM     99  C   UNL A   1      33.203  27.419  25.895  1.00  0.00     0.082 C 
ATOM    100  C   UNL A   1      32.737  28.185  27.120  1.00  0.00     0.025 C 
ATOM    101  C   UNL A   1      33.626  28.554  24.972  1.00  0.00     0.025 C 
ATOM    102  C   UNL A   1      31.900  29.306  26.524  1.00  0.00     0.002 C 
ATOM    103  C   UNL A   1      32.462  29.538  25.118  1.00  0.00     0.002 C 
ENDBRANCH  97  99
ENDBRANCH  89  95
ENDBRANCH  85  87
ENDBRANCH  79  83
ENDBRANCH  75  77
ENDBRANCH  74  75
ENDBRANCH  73  74
ENDBRANCH  72  73
ENDBRANCH  71  72
ENDBRANCH   1  71
TORSDOF 24
ENDMDL
MODEL 3
REMARK VINA RESULT:     -10.0      1.593      2.158
REMARK SMILES O=C(OCCOCCOCCOC(=O)[C@@H]1CCCC[C@H]1C(=O)Nc1sc2c(c1C(=O)NC1CCCC1)CCC2)c1ccc(-c2c3nc(c(-c4ccc(S(=O)(=O)[O-])cc4)c4ccc([nH]4)c(-c4ccc(S(=O)(=O)[O-])cc4)c4nc(c(-c5ccc(S(=O)(=O)[O-])cc5)c5ccc2[nH]5)C=C4)C=C3)cc1
REMARK SMILES IDX 8 1 7 2 6 3 5 4 4 5 3 6 2 7 1 8 40 9 41 10 99 11 42 12 98 13
REMARK SMILES IDX 43 14 44 15 45 16 92 17 46 18 97 19 91 20 93 21 47 22 96 23
REMARK SMILES IDX 90 24 89 25 48 27 78 28 59 29 77 30 60 31 63 32 76 33 94 34
REMARK SMILES IDX 61 35 62 36 75 38 95 39 64 40 49 41 50 42 58 43 51 44 57 45
REMARK SMILES IDX 52 46 53 47 54 48 55 49 56 50 79 51 80 52 88 53 81 54 87 55
REMARK SMILES IDX 82 56 83 57 84 58 85 59 86 60 65 61 66 62 74 63 67 64 73 65
REMARK SMILES IDX 68 66 69 67 70 68 71 69 72 70 9 71 10 72 11 73 12 74 13 75
REMARK SMILES IDX 14 76 15 77 16 78 20 79 17 80 19 81 18 82 21 83 22 84 23 85
REMARK SMILES IDX 24 87 25 88 28 89 26 90 27 91 39 92 37 93 38 94 29 95 30 96
REMARK SMILES IDX 31 97 32 99 33 100 36 101 34 102 35 103
REMARK H PARENT 93 26 63 37 23 86 31 98
REMARK Flexibility Score: inf
ROOT
ATOM      1  C   UNL A   1      40.796  20.939  26.230  1.00  0.00     0.188 C 
ENDROOT
BRANCH   1   2
ATOM      2  C   UNL A   1      41.430  19.611  26.713  1.00  0.00     0.188 C 
BRANCH   2   3
ATOM      3  O   UNL A   1      42.028  18.712  25.811  1.00  0.00    -0.376 OA
BRANCH   3   4
ATOM      4  C   UNL A   1      43.410  18.435  25.795  1.00  0.00     0.202 C 
BRANCH   4   5
ATOM      5  C   UNL A   1      44.443  19.091  24.875  1.00  0.00     0.261 C 
BRANCH   5   6
ATOM      6  O   UNL A   1      44.306  20.488  24.637  1.00  0.00    -0.460 OA
BRANCH   6   7
ATOM      7  C   UNL A   1      44.828  21.567  25.252  1.00  0.00     0.338 C 
ATOM      8  O   UNL A   1      46.043  21.574  25.450  1.00  0.00    -0.246 OA
BRANCH   7   9
ATOM      9  C   UNL A   1      44.055  22.708  25.829  1.00  0.00     0.060 A 
ATOM     10  C   UNL A   1      43.417  23.724  25.121  1.00  0.00     0.016 A 
ATOM     11  C   UNL A   1      44.119  22.808  27.237  1.00  0.00     0.016 A 
ATOM     12  C   UNL A   1      43.029  24.887  25.781  1.00  0.00     0.010 A 
ATOM     13  C   UNL A   1      43.741  23.967  27.897  1.00  0.00     0.010 A 
ATOM     14  C   UNL A   1      43.279  25.034  27.147  1.00  0.00    -0.014 A 
BRANCH  14  15
ATOM     15  C   UNL A   1      43.012  26.323  27.758  1.00  0.00     0.031 A 
ATOM     16  C   UNL A   1      44.046  27.352  27.518  1.00  0.00     0.074 A 
ATOM     17  C   UNL A   1      41.898  26.625  28.451  1.00  0.00     0.049 A 
ATOM     18  N   UNL A   1      45.093  27.593  28.237  1.00  0.00    -0.248 NA
ATOM     19  C   UNL A   1      44.013  28.067  26.238  1.00  0.00     0.031 C 
ATOM     20  C   UNL A   1      40.633  25.901  28.558  1.00  0.00     0.029 A 
ATOM     21  N   UNL A   1      41.669  27.744  29.186  1.00  0.00    -0.354 N 
ATOM     22  C   UNL A   1      45.734  28.658  27.617  1.00  0.00     0.074 A 
ATOM     23  C   UNL A   1      45.171  28.731  26.292  1.00  0.00     0.031 C 
ATOM     24  C   UNL A   1      39.702  26.715  29.120  1.00  0.00     0.029 A 
ATOM     25  C   UNL A   1      40.348  27.947  29.550  1.00  0.00     0.049 A 
ATOM     26  H   UNL A   1      42.389  28.366  29.439  1.00  0.00     0.167 HD
ATOM     27  C   UNL A   1      46.488  29.558  28.312  1.00  0.00     0.031 A 
ATOM     28  C   UNL A   1      39.842  29.077  30.111  1.00  0.00     0.031 A 
ATOM     29  C   UNL A   1      46.664  29.153  29.685  1.00  0.00     0.049 A 
ATOM     30  C   UNL A   1      40.984  29.810  30.727  1.00  0.00     0.074 A 
ATOM     31  C   UNL A   1      47.194  28.048  30.325  1.00  0.00     0.029 A 
ATOM     32  N   UNL A   1      45.857  29.770  30.616  1.00  0.00    -0.354 N 
ATOM     33  N   UNL A   1      41.648  29.352  31.752  1.00  0.00    -0.248 NA
ATOM     34  C   UNL A   1      41.699  30.780  29.908  1.00  0.00     0.031 C 
ATOM     35  C   UNL A   1      46.285  27.778  31.392  1.00  0.00     0.029 A 
ATOM     36  C   UNL A   1      45.313  28.780  31.392  1.00  0.00     0.049 A 
ATOM     37  H   UNL A   1      45.701  30.738  30.706  1.00  0.00     0.167 HD
ATOM     38  C   UNL A   1      42.979  29.628  31.470  1.00  0.00     0.074 A 
ATOM     39  C   UNL A   1      42.942  30.576  30.356  1.00  0.00     0.031 C 
ATOM     40  C   UNL A   1      43.990  28.854  31.970  1.00  0.00     0.031 A 
BRANCH  27  41
ATOM     41  C   UNL A   1      46.713  30.990  27.883  1.00  0.00    -0.014 A 
ATOM     42  C   UNL A   1      45.640  31.903  27.961  1.00  0.00     0.010 A 
ATOM     43  C   UNL A   1      47.856  31.418  27.180  1.00  0.00     0.010 A 
ATOM     44  C   UNL A   1      45.688  33.145  27.312  1.00  0.00     0.020 A 
ATOM     45  C   UNL A   1      47.936  32.670  26.572  1.00  0.00     0.020 A 
ATOM     46  C   UNL A   1      46.836  33.514  26.613  1.00  0.00     0.054 A 
BRANCH  46  47
ATOM     47  S   UNL A   1      46.872  35.079  25.712  1.00  0.00     0.124 S 
ATOM     48  O   UNL A   1      48.296  35.230  25.428  1.00  0.00    -0.237 OA
ATOM     49  O   UNL A   1      46.020  34.791  24.562  1.00  0.00    -0.237 OA
ATOM     50  O   UNL A   1      46.317  36.034  26.668  1.00  0.00    -0.744 OA
ENDBRANCH  46  47
ENDBRANCH  27  41
BRANCH  28  51
ATOM     51  C   UNL A   1      38.537  29.728  29.825  1.00  0.00    -0.014 A 
ATOM     52  C   UNL A   1      37.394  29.454  30.600  1.00  0.00     0.010 A 
ATOM     53  C   UNL A   1      38.491  30.846  28.967  1.00  0.00     0.010 A 
ATOM     54  C   UNL A   1      36.271  30.304  30.564  1.00  0.00     0.020 A 
ATOM     55  C   UNL A   1      37.378  31.694  28.923  1.00  0.00     0.020 A 
ATOM     56  C   UNL A   1      36.281  31.434  29.741  1.00  0.00     0.054 A 
BRANCH  56  57
ATOM     57  S   UNL A   1      34.914  32.631  29.835  1.00  0.00     0.124 S 
ATOM     58  O   UNL A   1      34.023  32.171  28.775  1.00  0.00    -0.237 OA
ATOM     59  O   UNL A   1      34.424  32.447  31.198  1.00  0.00    -0.237 OA
ATOM     60  O   UNL A   1      35.566  33.915  29.584  1.00  0.00    -0.744 OA
ENDBRANCH  56  57
ENDBRANCH  28  51
BRANCH  40  61
ATOM     61  C   UNL A   1      43.676  27.861  33.061  1.00  0.00    -0.014 A 
ATOM     62  C   UNL A   1      43.094  28.193  34.302  1.00  0.00     0.010 A 
ATOM     63  C   UNL A   1      43.867  26.502  32.755  1.00  0.00     0.010 A 
ATOM     64  C   UNL A   1      42.758  27.190  35.224  1.00  0.00     0.020 A 
ATOM     65  C   UNL A   1      43.517  25.499  33.659  1.00  0.00     0.020 A 
ATOM     66  C   UNL A   1      42.980  25.848  34.897  1.00  0.00     0.054 A 
BRANCH  66  67
ATOM     67  S   UNL A   1      42.549  24.550  36.089  1.00  0.00     0.124 S 
ATOM     68  O   UNL A   1      43.560  24.728  37.128  1.00  0.00    -0.237 OA
ATOM     69  O   UNL A   1      41.183  24.901  36.469  1.00  0.00    -0.237 OA
ATOM     70  O   UNL A   1      42.670  23.314  35.315  1.00  0.00    -0.744 OA
ENDBRANCH  66  67
ENDBRANCH  40  61
ENDBRANCH  14  15
ENDBRANCH   7   9
ENDBRANCH   6   7
ENDBRANCH   5   6
ENDBRANCH   4   5
ENDBRANCH   3   4
ENDBRANCH   2   3
ENDBRANCH   1   2
BRANCH   1  71
ATOM     71  O   UNL A   1      39.398  21.132  26.072  1.00  0.00    -0.376 OA
BRANCH  71  72
ATOM     72  C   UNL A   1      38.827  22.401  26.294  1.00  0.00     0.202 C 
BRANCH  72  73
ATOM     73  C   UNL A   1      38.100  23.073  25.129  1.00  0.00     0.261 C 
BRANCH  73  74
ATOM     74  O   UNL A   1      36.932  22.393  24.659  1.00  0.00    -0.463 OA
BRANCH  74  75
ATOM     75  C   UNL A   1      35.824  22.431  25.441  1.00  0.00     0.309 C 
ATOM     76  O   UNL A   1      35.368  23.441  25.974  1.00  0.00    -0.252 OA
BRANCH  75  77
ATOM     77  C   UNL A   1      35.228  21.034  25.584  1.00  0.00     0.111 C 
ATOM     78  C   UNL A   1      36.083  19.938  24.944  1.00  0.00     0.016 C 
ATOM     79  C   UNL A   1      33.780  21.066  25.080  1.00  0.00     0.093 C 
ATOM     80  C   UNL A   1      35.358  18.599  24.934  1.00  0.00     0.001 C 
ATOM     81  C   UNL A   1      33.133  19.702  24.809  1.00  0.00     0.014 C 
ATOM     82  C   UNL A   1      34.077  18.710  24.134  1.00  0.00     0.001 C 
BRANCH  79  83
ATOM     83  C   UNL A   1      32.911  21.965  25.969  1.00  0.00     0.228 C 
ATOM     84  O   UNL A   1      32.880  21.749  27.188  1.00  0.00    -0.274 OA
ATOM     85  N   UNL A   1      32.156  23.015  25.513  1.00  0.00    -0.317 N 
ATOM     86  H   UNL A   1      31.366  23.259  26.047  1.00  0.00     0.170 HD
BRANCH  85  87
ATOM     87  C   UNL A   1      32.398  23.761  24.378  1.00  0.00     0.108 A 
ATOM     88  S   UNL A   1      32.814  22.759  23.049  1.00  0.00    -0.122 S 
ATOM     89  C   UNL A   1      32.573  25.136  24.132  1.00  0.00     0.078 A 
ATOM     90  C   UNL A   1      32.832  24.091  22.059  1.00  0.00     0.011 A 
ATOM     91  C   UNL A   1      32.627  25.291  22.697  1.00  0.00    -0.019 A 
ATOM     92  C   UNL A   1      33.094  24.184  20.603  1.00  0.00     0.047 C 
ATOM     93  C   UNL A   1      32.673  26.373  21.665  1.00  0.00     0.038 C 
ATOM     94  C   UNL A   1      32.586  25.611  20.315  1.00  0.00     0.010 C 
BRANCH  89  95
ATOM     95  C   UNL A   1      32.724  26.081  25.268  1.00  0.00     0.254 C 
ATOM     96  O   UNL A   1      33.729  26.023  25.982  1.00  0.00    -0.269 OA
ATOM     97  N   UNL A   1      31.793  27.023  25.643  1.00  0.00    -0.349 N 
ATOM     98  H   UNL A   1      31.926  27.390  26.547  1.00  0.00     0.164 HD
BRANCH  97  99
ATOM     99  C   UNL A   1      30.664  27.558  24.944  1.00  0.00     0.082 C 
ATOM    100  C   UNL A   1      30.993  28.457  23.765  1.00  0.00     0.025 C 
ATOM    101  C   UNL A   1      29.733  26.540  24.297  1.00  0.00     0.025 C 
ATOM    102  C   UNL A   1      29.638  28.669  23.109  1.00  0.00     0.002 C 
ATOM    103  C   UNL A   1      28.807  27.433  23.468  1.00  0.00     0.002 C 
ENDBRANCH  97  99
ENDBRANCH  89  95
ENDBRANCH  85  87
ENDBRANCH  79  83
ENDBRANCH  75  77
ENDBRANCH  74  75
ENDBRANCH  73  74
ENDBRANCH  72  73
ENDBRANCH  71  72
ENDBRANCH   1  71
TORSDOF 24
ENDMDL
