MODEL 1
REMARK VINA RESULT:      -9.3      0.000      0.000
REMARK SMILES CCC(CC)COc1cc2c(cc1Cl)C=C(C(=O)OCCOCCOCCOC(=O)c1ccc(-c3c4nc(c(-c5ccc(S(=O)(=O)[O-])cc5)c5ccc([nH]5)c(-c5ccc(S(=O)(=O)[O-])cc5)c5nc(c(-c6ccc(S(=O)(=O)[O-])cc6)c6ccc3[nH]6)C=C5)C=C4)cc1)[C@@H](C(F)(F)F)O2
REMARK SMILES IDX 23 1 22 2 21 3 20 4 19 5 17 6 18 7 16 8 8 9 9 10 13 11 10 12
REMARK SMILES IDX 12 13 14 14 11 15 96 16 15 17 91 18 7 19 6 20 3 21 2 22 1 23
REMARK SMILES IDX 4 24 5 25 92 26 93 27 94 28 95 29 24 30 25 31 26 32 27 33
REMARK SMILES IDX 28 34 29 35 30 36 31 37 32 38 90 39 33 40 89 41 34 42 35 43
REMARK SMILES IDX 36 44 83 45 37 46 88 47 82 48 84 49 38 50 87 51 81 52 80 53
REMARK SMILES IDX 39 55 69 56 50 57 68 58 51 59 54 60 67 61 85 62 52 63 53 64
REMARK SMILES IDX 66 66 86 67 55 68 40 69 41 70 49 71 42 72 48 73 43 74 44 75
REMARK SMILES IDX 45 76 46 77 47 78 70 79 71 80 79 81 72 82 78 83 73 84 74 85
REMARK SMILES IDX 75 86 76 87 77 88 56 89 57 90 65 91 58 92 64 93 59 94 60 95
REMARK SMILES IDX 61 96 62 97 63 98
REMARK H PARENT 84 54 54 65
REMARK Flexibility Score: inf
ROOT
ATOM      1  C   UNL A   1      34.642  32.005  28.661  1.00  0.00     0.188 C 
ENDROOT
BRANCH   1   2
ATOM      2  O   UNL A   1      33.643  31.654  27.733  1.00  0.00    -0.376 OA
BRANCH   2   3
ATOM      3  C   UNL A   1      33.888  30.648  26.765  1.00  0.00     0.202 C 
BRANCH   3   4
ATOM      4  C   UNL A   1      33.788  29.130  27.019  1.00  0.00     0.261 C 
BRANCH   4   5
ATOM      5  O   UNL A   1      33.823  28.257  25.885  1.00  0.00    -0.460 OA
BRANCH   5   6
ATOM      6  C   UNL A   1      32.663  28.163  25.198  1.00  0.00     0.338 C 
ATOM      7  O   UNL A   1      32.035  29.092  24.717  1.00  0.00    -0.246 OA
BRANCH   6   8
ATOM      8  C   UNL A   1      32.308  26.748  24.974  1.00  0.00     0.087 C 
ATOM      9  C   UNL A   1      31.966  21.790  25.495  1.00  0.00     0.141 A 
ATOM     10  C   UNL A   1      31.546  22.664  24.481  1.00  0.00     0.095 A 
ATOM     11  C   UNL A   1      32.645  22.302  26.608  1.00  0.00     0.083 A 
ATOM     12  C   UNL A   1      31.734  24.044  24.636  1.00  0.00     0.131 A 
ATOM     13  C   UNL A   1      32.680  23.674  26.830  1.00  0.00     0.036 A 
ATOM     14  Cl  UNL A   1      33.511  21.301  27.713  1.00  0.00    -0.080 Cl
ATOM     15  C   UNL A   1      32.218  24.544  25.848  1.00  0.00     0.019 A 
ATOM     16  O   UNL A   1      31.435  24.870  23.582  1.00  0.00    -0.475 OA
ATOM     17  C   UNL A   1      32.334  25.972  26.062  1.00  0.00     0.027 C 
ATOM     18  C   UNL A   1      32.036  26.210  23.595  1.00  0.00     0.316 C 
BRANCH   9  19
ATOM     19  O   UNL A   1      31.807  20.437  25.343  1.00  0.00    -0.492 OA
BRANCH  19  20
ATOM     20  C   UNL A   1      32.987  19.658  25.665  1.00  0.00     0.233 C 
BRANCH  20  21
ATOM     21  C   UNL A   1      33.996  19.532  24.490  1.00  0.00     0.026 C 
BRANCH  21  22
ATOM     22  C   UNL A   1      35.364  20.155  24.857  1.00  0.00     0.003 C 
ATOM     23  C   UNL A   1      35.493  21.611  24.428  1.00  0.00     0.004 C 
ENDBRANCH  21  22
BRANCH  21  24
ATOM     24  C   UNL A   1      34.144  18.083  23.974  1.00  0.00     0.003 C 
ATOM     25  C   UNL A   1      34.254  17.005  25.040  1.00  0.00     0.004 C 
ENDBRANCH  21  24
ENDBRANCH  20  21
ENDBRANCH  19  20
ENDBRANCH   9  19
BRANCH  18  26
ATOM     26  C   UNL A   1      33.308  26.263  22.735  1.00  0.00     0.430 C 
ATOM     27  F   UNL A   1      34.407  25.913  23.443  1.00  0.00    -0.167 F 
ATOM     28  F   UNL A   1      33.225  25.398  21.694  1.00  0.00    -0.167 F 
ATOM     29  F   UNL A   1      33.531  27.492  22.219  1.00  0.00    -0.167 F 
ENDBRANCH  18  26
ENDBRANCH   6   8
ENDBRANCH   5   6
ENDBRANCH   4   5
ENDBRANCH   3   4
ENDBRANCH   2   3
ENDBRANCH   1   2
BRANCH   1  30
ATOM     30  C   UNL A   1      35.382  33.316  28.317  1.00  0.00     0.188 C 
BRANCH  30  31
ATOM     31  O   UNL A   1      34.701  34.362  27.640  1.00  0.00    -0.376 OA
BRANCH  31  32
ATOM     32  C   UNL A   1      33.585  34.983  28.269  1.00  0.00     0.202 C 
BRANCH  32  33
ATOM     33  C   UNL A   1      33.137  34.605  29.696  1.00  0.00     0.261 C 
BRANCH  33  34
ATOM     34  O   UNL A   1      32.696  35.682  30.534  1.00  0.00    -0.460 OA
BRANCH  34  35
ATOM     35  C   UNL A   1      32.825  35.475  31.874  1.00  0.00     0.338 C 
ATOM     36  O   UNL A   1      31.994  35.674  32.730  1.00  0.00    -0.246 OA
BRANCH  35  37
ATOM     37  C   UNL A   1      34.094  34.746  32.111  1.00  0.00     0.060 A 
ATOM     38  C   UNL A   1      35.306  35.252  31.646  1.00  0.00     0.016 A 
ATOM     39  C   UNL A   1      34.052  33.532  32.811  1.00  0.00     0.016 A 
ATOM     40  C   UNL A   1      36.485  34.546  31.901  1.00  0.00     0.010 A 
ATOM     41  C   UNL A   1      35.228  32.816  33.047  1.00  0.00     0.010 A 
ATOM     42  C   UNL A   1      36.457  33.331  32.613  1.00  0.00    -0.014 A 
BRANCH  42  43
ATOM     43  C   UNL A   1      37.728  32.709  33.062  1.00  0.00     0.031 A 
ATOM     44  C   UNL A   1      38.400  33.096  34.344  1.00  0.00     0.074 A 
ATOM     45  C   UNL A   1      38.276  31.767  32.269  1.00  0.00     0.049 A 
ATOM     46  N   UNL A   1      39.450  32.555  34.907  1.00  0.00    -0.248 NA
ATOM     47  C   UNL A   1      37.834  34.231  35.088  1.00  0.00     0.031 C 
ATOM     48  C   UNL A   1      37.722  31.335  30.986  1.00  0.00     0.029 A 
ATOM     49  N   UNL A   1      39.398  30.992  32.428  1.00  0.00    -0.354 N 
ATOM     50  C   UNL A   1      39.659  33.259  36.086  1.00  0.00     0.074 A 
ATOM     51  C   UNL A   1      38.656  34.304  36.130  1.00  0.00     0.031 C 
ATOM     52  C   UNL A   1      38.480  30.346  30.491  1.00  0.00     0.029 A 
ATOM     53  C   UNL A   1      39.593  30.094  31.404  1.00  0.00     0.049 A 
ATOM     54  H   UNL A   1      40.004  31.071  33.199  1.00  0.00     0.167 HD
ATOM     55  C   UNL A   1      40.588  33.034  37.045  1.00  0.00     0.031 A 
ATOM     56  C   UNL A   1      40.547  29.159  31.219  1.00  0.00     0.031 A 
ATOM     57  C   UNL A   1      41.591  31.997  36.975  1.00  0.00     0.049 A 
ATOM     58  C   UNL A   1      41.590  28.956  32.280  1.00  0.00     0.074 A 
ATOM     59  C   UNL A   1      42.543  31.665  37.924  1.00  0.00     0.029 A 
ATOM     60  N   UNL A   1      41.785  31.136  35.904  1.00  0.00    -0.354 N 
ATOM     61  N   UNL A   1      41.715  29.568  33.433  1.00  0.00    -0.248 NA
ATOM     62  C   UNL A   1      42.609  27.928  32.031  1.00  0.00     0.031 C 
ATOM     63  C   UNL A   1      43.362  30.667  37.395  1.00  0.00     0.029 A 
ATOM     64  C   UNL A   1      42.868  30.306  36.152  1.00  0.00     0.049 A 
ATOM     65  H   UNL A   1      41.235  31.119  35.087  1.00  0.00     0.167 HD
ATOM     66  C   UNL A   1      42.813  28.986  34.056  1.00  0.00     0.074 A 
ATOM     67  C   UNL A   1      43.304  27.958  33.162  1.00  0.00     0.031 C 
ATOM     68  C   UNL A   1      43.361  29.283  35.260  1.00  0.00     0.031 A 
BRANCH  55  69
ATOM     69  C   UNL A   1      40.573  33.893  38.287  1.00  0.00    -0.014 A 
ATOM     70  C   UNL A   1      39.734  33.557  39.366  1.00  0.00     0.010 A 
ATOM     71  C   UNL A   1      41.257  35.122  38.315  1.00  0.00     0.010 A 
ATOM     72  C   UNL A   1      39.542  34.449  40.426  1.00  0.00     0.020 A 
ATOM     73  C   UNL A   1      41.092  36.005  39.388  1.00  0.00     0.020 A 
ATOM     74  C   UNL A   1      40.214  35.675  40.423  1.00  0.00     0.054 A 
BRANCH  74  75
ATOM     75  S   UNL A   1      39.908  36.845  41.776  1.00  0.00     0.124 S 
ATOM     76  O   UNL A   1      41.257  37.112  42.265  1.00  0.00    -0.237 OA
ATOM     77  O   UNL A   1      39.253  37.956  41.090  1.00  0.00    -0.237 OA
ATOM     78  O   UNL A   1      39.049  36.095  42.690  1.00  0.00    -0.744 OA
ENDBRANCH  74  75
ENDBRANCH  55  69
BRANCH  56  79
ATOM     79  C   UNL A   1      40.499  28.316  29.991  1.00  0.00    -0.014 A 
ATOM     80  C   UNL A   1      39.608  27.229  29.911  1.00  0.00     0.010 A 
ATOM     81  C   UNL A   1      41.411  28.530  28.943  1.00  0.00     0.010 A 
ATOM     82  C   UNL A   1      39.676  26.334  28.841  1.00  0.00     0.020 A 
ATOM     83  C   UNL A   1      41.457  27.656  27.852  1.00  0.00     0.020 A 
ATOM     84  C   UNL A   1      40.611  26.545  27.826  1.00  0.00     0.054 A 
BRANCH  84  85
ATOM     85  S   UNL A   1      40.727  25.328  26.486  1.00  0.00     0.124 S 
ATOM     86  O   UNL A   1      39.341  24.884  26.365  1.00  0.00    -0.237 OA
ATOM     87  O   UNL A   1      41.230  26.130  25.374  1.00  0.00    -0.237 OA
ATOM     88  O   UNL A   1      41.659  24.332  27.007  1.00  0.00    -0.744 OA
ENDBRANCH  84  85
ENDBRANCH  56  79
BRANCH  68  89
ATOM     89  C   UNL A   1      44.573  28.504  35.710  1.00  0.00    -0.014 A 
ATOM     90  C   UNL A   1      44.411  27.361  36.518  1.00  0.00     0.010 A 
ATOM     91  C   UNL A   1      45.872  28.979  35.459  1.00  0.00     0.010 A 
ATOM     92  C   UNL A   1      45.517  26.742  37.108  1.00  0.00     0.020 A 
ATOM     93  C   UNL A   1      46.984  28.342  36.019  1.00  0.00     0.020 A 
ATOM     94  C   UNL A   1      46.797  27.246  36.865  1.00  0.00     0.054 A 
BRANCH  94  95
ATOM     95  S   UNL A   1      48.214  26.467  37.688  1.00  0.00     0.124 S 
ATOM     96  O   UNL A   1      49.023  26.028  36.556  1.00  0.00    -0.237 OA
ATOM     97  O   UNL A   1      48.771  27.566  38.472  1.00  0.00    -0.237 OA
ATOM     98  O   UNL A   1      47.608  25.395  38.475  1.00  0.00    -0.744 OA
ENDBRANCH  94  95
ENDBRANCH  68  89
ENDBRANCH  42  43
ENDBRANCH  35  37
ENDBRANCH  34  35
ENDBRANCH  33  34
ENDBRANCH  32  33
ENDBRANCH  31  32
ENDBRANCH  30  31
ENDBRANCH   1  30
TORSDOF 26
ENDMDL
MODEL 2
REMARK VINA RESULT:      -8.5      5.549     11.331
REMARK SMILES CCC(CC)COc1cc2c(cc1Cl)C=C(C(=O)OCCOCCOCCOC(=O)c1ccc(-c3c4nc(c(-c5ccc(S(=O)(=O)[O-])cc5)c5ccc([nH]5)c(-c5ccc(S(=O)(=O)[O-])cc5)c5nc(c(-c6ccc(S(=O)(=O)[O-])cc6)c6ccc3[nH]6)C=C5)C=C4)cc1)[C@@H](C(F)(F)F)O2
REMARK SMILES IDX 23 1 22 2 21 3 20 4 19 5 17 6 18 7 16 8 8 9 9 10 13 11 10 12
REMARK SMILES IDX 12 13 14 14 11 15 96 16 15 17 91 18 7 19 6 20 3 21 2 22 1 23
REMARK SMILES IDX 4 24 5 25 92 26 93 27 94 28 95 29 24 30 25 31 26 32 27 33
REMARK SMILES IDX 28 34 29 35 30 36 31 37 32 38 90 39 33 40 89 41 34 42 35 43
REMARK SMILES IDX 36 44 83 45 37 46 88 47 82 48 84 49 38 50 87 51 81 52 80 53
REMARK SMILES IDX 39 55 69 56 50 57 68 58 51 59 54 60 67 61 85 62 52 63 53 64
REMARK SMILES IDX 66 66 86 67 55 68 40 69 41 70 49 71 42 72 48 73 43 74 44 75
REMARK SMILES IDX 45 76 46 77 47 78 70 79 71 80 79 81 72 82 78 83 73 84 74 85
REMARK SMILES IDX 75 86 76 87 77 88 56 89 57 90 65 91 58 92 64 93 59 94 60 95
REMARK SMILES IDX 61 96 62 97 63 98
REMARK H PARENT 84 54 54 65
REMARK Flexibility Score: inf
ROOT
ATOM      1  C   UNL A   1      47.326  26.017  29.080  1.00  0.00     0.188 C 
ENDROOT
BRANCH   1   2
ATOM      2  O   UNL A   1      46.740  24.929  29.755  1.00  0.00    -0.376 OA
BRANCH   2   3
ATOM      3  C   UNL A   1      45.451  25.054  30.329  1.00  0.00     0.202 C 
BRANCH   3   4
ATOM      4  C   UNL A   1      44.137  24.583  29.671  1.00  0.00     0.261 C 
BRANCH   4   5
ATOM      5  O   UNL A   1      43.053  25.514  29.595  1.00  0.00    -0.460 OA
BRANCH   5   6
ATOM      6  C   UNL A   1      42.803  26.004  28.360  1.00  0.00     0.338 C 
ATOM      7  O   UNL A   1      43.436  25.756  27.347  1.00  0.00    -0.246 OA
BRANCH   6   8
ATOM      8  C   UNL A   1      41.555  26.791  28.359  1.00  0.00     0.087 C 
ATOM      9  C   UNL A   1      37.529  29.326  29.886  1.00  0.00     0.141 A 
ATOM     10  C   UNL A   1      37.955  28.907  28.617  1.00  0.00     0.095 A 
ATOM     11  C   UNL A   1      38.295  29.001  31.013  1.00  0.00     0.083 A 
ATOM     12  C   UNL A   1      39.182  28.244  28.485  1.00  0.00     0.131 A 
ATOM     13  C   UNL A   1      39.580  28.493  30.856  1.00  0.00     0.036 A 
ATOM     14  Cl  UNL A   1      37.694  29.143  32.622  1.00  0.00    -0.080 Cl
ATOM     15  C   UNL A   1      40.026  28.122  29.592  1.00  0.00     0.019 A 
ATOM     16  O   UNL A   1      39.521  27.729  27.258  1.00  0.00    -0.475 OA
ATOM     17  C   UNL A   1      41.338  27.522  29.457  1.00  0.00     0.027 C 
ATOM     18  C   UNL A   1      40.557  26.688  27.238  1.00  0.00     0.316 C 
BRANCH   9  19
ATOM     19  O   UNL A   1      36.320  29.955  30.031  1.00  0.00    -0.492 OA
BRANCH  19  20
ATOM     20  C   UNL A   1      36.368  31.392  29.840  1.00  0.00     0.233 C 
BRANCH  20  21
ATOM     21  C   UNL A   1      36.434  32.200  31.165  1.00  0.00     0.026 C 
BRANCH  21  22
ATOM     22  C   UNL A   1      36.785  33.683  30.900  1.00  0.00     0.003 C 
ATOM     23  C   UNL A   1      37.560  33.893  29.606  1.00  0.00     0.004 C 
ENDBRANCH  21  22
BRANCH  21  24
ATOM     24  C   UNL A   1      35.156  32.056  32.024  1.00  0.00     0.003 C 
ATOM     25  C   UNL A   1      34.625  33.338  32.645  1.00  0.00     0.004 C 
ENDBRANCH  21  24
ENDBRANCH  20  21
ENDBRANCH  19  20
ENDBRANCH   9  19
BRANCH  18  26
ATOM     26  C   UNL A   1      39.939  25.282  27.192  1.00  0.00     0.430 C 
ATOM     27  F   UNL A   1      38.661  25.311  26.749  1.00  0.00    -0.167 F 
ATOM     28  F   UNL A   1      40.626  24.477  26.344  1.00  0.00    -0.167 F 
ATOM     29  F   UNL A   1      39.937  24.680  28.403  1.00  0.00    -0.167 F 
ENDBRANCH  18  26
ENDBRANCH   6   8
ENDBRANCH   5   6
ENDBRANCH   4   5
ENDBRANCH   3   4
ENDBRANCH   2   3
ENDBRANCH   1   2
BRANCH   1  30
ATOM     30  C   UNL A   1      47.990  25.637  27.739  1.00  0.00     0.188 C 
BRANCH  30  31
ATOM     31  O   UNL A   1      47.837  24.326  27.215  1.00  0.00    -0.376 OA
BRANCH  31  32
ATOM     32  C   UNL A   1      46.798  24.072  26.275  1.00  0.00     0.202 C 
BRANCH  32  33
ATOM     33  C   UNL A   1      46.742  24.784  24.909  1.00  0.00     0.261 C 
BRANCH  33  34
ATOM     34  O   UNL A   1      45.874  25.922  24.816  1.00  0.00    -0.460 OA
BRANCH  34  35
ATOM     35  C   UNL A   1      46.482  27.101  24.506  1.00  0.00     0.338 C 
ATOM     36  O   UNL A   1      47.102  27.365  23.501  1.00  0.00    -0.246 OA
BRANCH  35  37
ATOM     37  C   UNL A   1      46.077  28.112  25.512  1.00  0.00     0.060 A 
ATOM     38  C   UNL A   1      44.731  28.348  25.786  1.00  0.00     0.016 A 
ATOM     39  C   UNL A   1      47.076  28.833  26.183  1.00  0.00     0.016 A 
ATOM     40  C   UNL A   1      44.386  29.297  26.753  1.00  0.00     0.010 A 
ATOM     41  C   UNL A   1      46.729  29.796  27.132  1.00  0.00     0.010 A 
ATOM     42  C   UNL A   1      45.380  30.019  27.441  1.00  0.00    -0.014 A 
BRANCH  42  43
ATOM     43  C   UNL A   1      45.009  30.858  28.607  1.00  0.00     0.031 A 
ATOM     44  C   UNL A   1      44.994  32.355  28.543  1.00  0.00     0.074 A 
ATOM     45  C   UNL A   1      44.680  30.228  29.752  1.00  0.00     0.049 A 
ATOM     46  N   UNL A   1      44.584  33.203  29.451  1.00  0.00    -0.248 NA
ATOM     47  C   UNL A   1      45.505  32.985  27.317  1.00  0.00     0.031 C 
ATOM     48  C   UNL A   1      44.690  28.775  29.933  1.00  0.00     0.029 A 
ATOM     49  N   UNL A   1      44.257  30.714  30.963  1.00  0.00    -0.354 N 
ATOM     50  C   UNL A   1      44.756  34.467  28.901  1.00  0.00     0.074 A 
ATOM     51  C   UNL A   1      45.362  34.275  27.598  1.00  0.00     0.031 C 
ATOM     52  C   UNL A   1      44.254  28.486  31.167  1.00  0.00     0.029 A 
ATOM     53  C   UNL A   1      43.964  29.729  31.877  1.00  0.00     0.049 A 
ATOM     54  H   UNL A   1      44.172  31.675  31.159  1.00  0.00     0.167 HD
ATOM     55  C   UNL A   1      44.420  35.668  29.431  1.00  0.00     0.031 A 
ATOM     56  C   UNL A   1      43.500  29.806  33.141  1.00  0.00     0.031 A 
ATOM     57  C   UNL A   1      43.833  35.839  30.739  1.00  0.00     0.049 A 
ATOM     58  C   UNL A   1      43.171  31.152  33.720  1.00  0.00     0.074 A 
ATOM     59  C   UNL A   1      43.413  37.015  31.339  1.00  0.00     0.029 A 
ATOM     60  N   UNL A   1      43.592  34.823  31.653  1.00  0.00    -0.354 N 
ATOM     61  N   UNL A   1      43.252  32.331  33.150  1.00  0.00    -0.248 NA
ATOM     62  C   UNL A   1      42.672  31.184  35.101  1.00  0.00     0.031 C 
ATOM     63  C   UNL A   1      43.001  36.723  32.640  1.00  0.00     0.029 A 
ATOM     64  C   UNL A   1      43.072  35.352  32.825  1.00  0.00     0.049 A 
ATOM     65  H   UNL A   1      43.765  33.867  31.493  1.00  0.00     0.167 HD
ATOM     66  C   UNL A   1      42.794  33.242  34.095  1.00  0.00     0.074 A 
ATOM     67  C   UNL A   1      42.417  32.477  35.265  1.00  0.00     0.031 C 
ATOM     68  C   UNL A   1      42.699  34.591  33.995  1.00  0.00     0.031 A 
BRANCH  55  69
ATOM     69  C   UNL A   1      44.638  36.913  28.606  1.00  0.00    -0.014 A 
ATOM     70  C   UNL A   1      45.740  37.749  28.870  1.00  0.00     0.010 A 
ATOM     71  C   UNL A   1      43.662  37.345  27.690  1.00  0.00     0.010 A 
ATOM     72  C   UNL A   1      45.840  39.009  28.272  1.00  0.00     0.020 A 
ATOM     73  C   UNL A   1      43.773  38.593  27.066  1.00  0.00     0.020 A 
ATOM     74  C   UNL A   1      44.847  39.428  27.382  1.00  0.00     0.054 A 
BRANCH  74  75
ATOM     75  S   UNL A   1      44.961  41.089  26.660  1.00  0.00     0.124 S 
ATOM     76  O   UNL A   1      44.033  41.002  25.537  1.00  0.00    -0.237 OA
ATOM     77  O   UNL A   1      44.537  41.943  27.766  1.00  0.00    -0.237 OA
ATOM     78  O   UNL A   1      46.371  41.208  26.297  1.00  0.00    -0.744 OA
ENDBRANCH  74  75
ENDBRANCH  55  69
BRANCH  56  79
ATOM     79  C   UNL A   1      43.273  28.545  33.902  1.00  0.00    -0.014 A 
ATOM     80  C   UNL A   1      42.014  27.916  33.873  1.00  0.00     0.010 A 
ATOM     81  C   UNL A   1      44.276  28.026  34.739  1.00  0.00     0.010 A 
ATOM     82  C   UNL A   1      41.740  26.836  34.715  1.00  0.00     0.020 A 
ATOM     83  C   UNL A   1      44.018  26.921  35.556  1.00  0.00     0.020 A 
ATOM     84  C   UNL A   1      42.741  26.355  35.562  1.00  0.00     0.054 A 
BRANCH  84  85
ATOM     85  S   UNL A   1      42.339  24.997  36.697  1.00  0.00     0.124 S 
ATOM     86  O   UNL A   1      41.560  25.686  37.722  1.00  0.00    -0.237 OA
ATOM     87  O   UNL A   1      41.586  24.084  35.842  1.00  0.00    -0.237 OA
ATOM     88  O   UNL A   1      43.647  24.511  37.127  1.00  0.00    -0.744 OA
ENDBRANCH  84  85
ENDBRANCH  56  79
BRANCH  68  89
ATOM     89  C   UNL A   1      42.176  35.365  35.181  1.00  0.00    -0.014 A 
ATOM     90  C   UNL A   1      43.078  35.891  36.128  1.00  0.00     0.010 A 
ATOM     91  C   UNL A   1      40.796  35.447  35.438  1.00  0.00     0.010 A 
ATOM     92  C   UNL A   1      42.613  36.435  37.328  1.00  0.00     0.020 A 
ATOM     93  C   UNL A   1      40.326  36.022  36.623  1.00  0.00     0.020 A 
ATOM     94  C   UNL A   1      41.239  36.484  37.575  1.00  0.00     0.054 A 
BRANCH  94  95
ATOM     95  S   UNL A   1      40.659  37.138  39.165  1.00  0.00     0.124 S 
ATOM     96  O   UNL A   1      39.307  37.582  38.839  1.00  0.00    -0.237 OA
ATOM     97  O   UNL A   1      40.744  35.971  40.039  1.00  0.00    -0.237 OA
ATOM     98  O   UNL A   1      41.611  38.204  39.467  1.00  0.00    -0.744 OA
ENDBRANCH  94  95
ENDBRANCH  68  89
ENDBRANCH  42  43
ENDBRANCH  35  37
ENDBRANCH  34  35
ENDBRANCH  33  34
ENDBRANCH  32  33
ENDBRANCH  31  32
ENDBRANCH  30  31
ENDBRANCH   1  30
TORSDOF 26
ENDMDL
MODEL 3
REMARK VINA RESULT:      -8.1      1.673      7.946
REMARK SMILES CCC(CC)COc1cc2c(cc1Cl)C=C(C(=O)OCCOCCOCCOC(=O)c1ccc(-c3c4nc(c(-c5ccc(S(=O)(=O)[O-])cc5)c5ccc([nH]5)c(-c5ccc(S(=O)(=O)[O-])cc5)c5nc(c(-c6ccc(S(=O)(=O)[O-])cc6)c6ccc3[nH]6)C=C5)C=C4)cc1)[C@@H](C(F)(F)F)O2
REMARK SMILES IDX 23 1 22 2 21 3 20 4 19 5 17 6 18 7 16 8 8 9 9 10 13 11 10 12
REMARK SMILES IDX 12 13 14 14 11 15 96 16 15 17 91 18 7 19 6 20 3 21 2 22 1 23
REMARK SMILES IDX 4 24 5 25 92 26 93 27 94 28 95 29 24 30 25 31 26 32 27 33
REMARK SMILES IDX 28 34 29 35 30 36 31 37 32 38 90 39 33 40 89 41 34 42 35 43
REMARK SMILES IDX 36 44 83 45 37 46 88 47 82 48 84 49 38 50 87 51 81 52 80 53
REMARK SMILES IDX 39 55 69 56 50 57 68 58 51 59 54 60 67 61 85 62 52 63 53 64
REMARK SMILES IDX 66 66 86 67 55 68 40 69 41 70 49 71 42 72 48 73 43 74 44 75
REMARK SMILES IDX 45 76 46 77 47 78 70 79 71 80 79 81 72 82 78 83 73 84 74 85
REMARK SMILES IDX 75 86 76 87 77 88 56 89 57 90 65 91 58 92 64 93 59 94 60 95
REMARK SMILES IDX 61 96 62 97 63 98
REMARK H PARENT 84 54 54 65
REMARK Flexibility Score: inf
ROOT
ATOM      1  C   UNL A   1      33.987  30.518  27.866  1.00  0.00     0.188 C 
ENDROOT
BRANCH   1   2
ATOM      2  O   UNL A   1      32.904  30.797  27.010  1.00  0.00    -0.376 OA
BRANCH   2   3
ATOM      3  C   UNL A   1      32.635  29.959  25.900  1.00  0.00     0.202 C 
BRANCH   3   4
ATOM      4  C   UNL A   1      33.055  28.479  25.784  1.00  0.00     0.261 C 
BRANCH   4   5
ATOM      5  O   UNL A   1      32.473  27.697  24.735  1.00  0.00    -0.460 OA
BRANCH   5   6
ATOM      6  C   UNL A   1      31.436  26.916  25.110  1.00  0.00     0.338 C 
ATOM      7  O   UNL A   1      30.463  27.274  25.754  1.00  0.00    -0.246 OA
BRANCH   6   8
ATOM      8  C   UNL A   1      31.557  25.573  24.512  1.00  0.00     0.087 C 
ATOM      9  C   UNL A   1      32.547  20.715  23.892  1.00  0.00     0.141 A 
ATOM     10  C   UNL A   1      32.122  21.712  23.002  1.00  0.00     0.095 A 
ATOM     11  C   UNL A   1      32.796  21.045  25.230  1.00  0.00     0.083 A 
ATOM     12  C   UNL A   1      31.870  23.004  23.482  1.00  0.00     0.131 A 
ATOM     13  C   UNL A   1      32.387  22.277  25.729  1.00  0.00     0.036 A 
ATOM     14  Cl  UNL A   1      33.654  20.004  26.304  1.00  0.00    -0.080 Cl
ATOM     15  C   UNL A   1      31.918  23.253  24.857  1.00  0.00     0.019 A 
ATOM     16  O   UNL A   1      31.580  23.996  22.578  1.00  0.00    -0.475 OA
ATOM     17  C   UNL A   1      31.571  24.558  25.382  1.00  0.00     0.027 C 
ATOM     18  C   UNL A   1      31.755  25.382  23.033  1.00  0.00     0.316 C 
BRANCH   9  19
ATOM     19  O   UNL A   1      32.819  19.453  23.429  1.00  0.00    -0.492 OA
BRANCH  19  20
ATOM     20  C   UNL A   1      32.114  18.396  24.127  1.00  0.00     0.233 C 
BRANCH  20  21
ATOM     21  C   UNL A   1      32.886  17.049  24.171  1.00  0.00     0.026 C 
BRANCH  21  22
ATOM     22  C   UNL A   1      34.318  17.205  23.606  1.00  0.00     0.003 C 
ATOM     23  C   UNL A   1      35.398  17.095  24.674  1.00  0.00     0.004 C 
ENDBRANCH  21  22
BRANCH  21  24
ATOM     24  C   UNL A   1      32.889  16.399  25.574  1.00  0.00     0.003 C 
ATOM     25  C   UNL A   1      32.105  15.103  25.709  1.00  0.00     0.004 C 
ENDBRANCH  21  24
ENDBRANCH  20  21
ENDBRANCH  19  20
ENDBRANCH   9  19
BRANCH  18  26
ATOM     26  C   UNL A   1      33.111  25.950  22.591  1.00  0.00     0.430 C 
ATOM     27  F   UNL A   1      33.597  25.303  21.506  1.00  0.00    -0.167 F 
ATOM     28  F   UNL A   1      33.001  27.257  22.246  1.00  0.00    -0.167 F 
ATOM     29  F   UNL A   1      34.046  25.870  23.564  1.00  0.00    -0.167 F 
ENDBRANCH  18  26
ENDBRANCH   6   8
ENDBRANCH   5   6
ENDBRANCH   4   5
ENDBRANCH   3   4
ENDBRANCH   2   3
ENDBRANCH   1   2
BRANCH   1  30
ATOM     30  C   UNL A   1      35.208  31.437  27.649  1.00  0.00     0.188 C 
BRANCH  30  31
ATOM     31  O   UNL A   1      35.049  32.848  27.661  1.00  0.00    -0.376 OA
BRANCH  31  32
ATOM     32  C   UNL A   1      34.054  33.427  28.498  1.00  0.00     0.202 C 
BRANCH  32  33
ATOM     33  C   UNL A   1      34.244  33.554  30.023  1.00  0.00     0.261 C 
BRANCH  33  34
ATOM     34  O   UNL A   1      33.848  34.798  30.616  1.00  0.00    -0.460 OA
BRANCH  34  35
ATOM     35  C   UNL A   1      33.847  34.827  31.978  1.00  0.00     0.338 C 
ATOM     36  O   UNL A   1      32.924  35.116  32.705  1.00  0.00    -0.246 OA
BRANCH  35  37
ATOM     37  C   UNL A   1      35.116  34.227  32.456  1.00  0.00     0.060 A 
ATOM     38  C   UNL A   1      35.120  33.004  33.124  1.00  0.00     0.016 A 
ATOM     39  C   UNL A   1      36.315  34.916  32.228  1.00  0.00     0.016 A 
ATOM     40  C   UNL A   1      36.336  32.460  33.547  1.00  0.00     0.010 A 
ATOM     41  C   UNL A   1      37.528  34.382  32.670  1.00  0.00     0.010 A 
ATOM     42  C   UNL A   1      37.548  33.137  33.313  1.00  0.00    -0.014 A 
BRANCH  42  43
ATOM     43  C   UNL A   1      38.839  32.451  33.572  1.00  0.00     0.031 A 
ATOM     44  C   UNL A   1      39.495  31.570  32.554  1.00  0.00     0.074 A 
ATOM     45  C   UNL A   1      39.419  32.644  34.773  1.00  0.00     0.049 A 
ATOM     46  N   UNL A   1      40.673  31.001  32.609  1.00  0.00    -0.248 NA
ATOM     47  C   UNL A   1      38.743  31.280  31.324  1.00  0.00     0.031 C 
ATOM     48  C   UNL A   1      38.852  33.458  35.849  1.00  0.00     0.029 A 
ATOM     49  N   UNL A   1      40.610  32.194  35.286  1.00  0.00    -0.354 N 
ATOM     50  C   UNL A   1      40.822  30.311  31.413  1.00  0.00     0.074 A 
ATOM     51  C   UNL A   1      39.587  30.487  30.673  1.00  0.00     0.031 C 
ATOM     52  C   UNL A   1      39.711  33.484  36.878  1.00  0.00     0.029 A 
ATOM     53  C   UNL A   1      40.874  32.663  36.551  1.00  0.00     0.049 A 
ATOM     54  H   UNL A   1      41.216  31.593  34.795  1.00  0.00     0.167 HD
ATOM     55  C   UNL A   1      41.898  29.616  30.972  1.00  0.00     0.031 A 
ATOM     56  C   UNL A   1      41.937  32.473  37.360  1.00  0.00     0.031 A 
ATOM     57  C   UNL A   1      43.113  29.438  31.731  1.00  0.00     0.049 A 
ATOM     58  C   UNL A   1      43.101  31.665  36.862  1.00  0.00     0.074 A 
ATOM     59  C   UNL A   1      44.274  28.789  31.343  1.00  0.00     0.029 A 
ATOM     60  N   UNL A   1      43.328  29.890  33.026  1.00  0.00    -0.354 N 
ATOM     61  N   UNL A   1      43.264  31.099  35.691  1.00  0.00    -0.248 NA
ATOM     62  C   UNL A   1      44.233  31.484  37.781  1.00  0.00     0.031 C 
ATOM     63  C   UNL A   1      45.153  28.776  32.427  1.00  0.00     0.029 A 
ATOM     64  C   UNL A   1      44.583  29.496  33.464  1.00  0.00     0.049 A 
ATOM     65  H   UNL A   1      42.683  30.413  33.555  1.00  0.00     0.167 HD
ATOM     66  C   UNL A   1      44.524  30.512  35.723  1.00  0.00     0.074 A 
ATOM     67  C   UNL A   1      45.090  30.810  37.023  1.00  0.00     0.031 C 
ATOM     68  C   UNL A   1      45.148  29.789  34.761  1.00  0.00     0.031 A 
BRANCH  55  69
ATOM     69  C   UNL A   1      41.854  29.007  29.591  1.00  0.00    -0.014 A 
ATOM     70  C   UNL A   1      41.663  27.620  29.439  1.00  0.00     0.010 A 
ATOM     71  C   UNL A   1      42.172  29.777  28.458  1.00  0.00     0.010 A 
ATOM     72  C   UNL A   1      41.836  27.008  28.194  1.00  0.00     0.020 A 
ATOM     73  C   UNL A   1      42.316  29.173  27.204  1.00  0.00     0.020 A 
ATOM     74  C   UNL A   1      42.174  27.789  27.086  1.00  0.00     0.054 A 
BRANCH  74  75
ATOM     75  S   UNL A   1      42.453  26.971  25.489  1.00  0.00     0.124 S 
ATOM     76  O   UNL A   1      42.573  28.105  24.578  1.00  0.00    -0.237 OA
ATOM     77  O   UNL A   1      43.683  26.221  25.730  1.00  0.00    -0.237 OA
ATOM     78  O   UNL A   1      41.258  26.150  25.312  1.00  0.00    -0.744 OA
ENDBRANCH  74  75
ENDBRANCH  55  69
BRANCH  56  79
ATOM     79  C   UNL A   1      41.945  33.122  38.701  1.00  0.00    -0.014 A 
ATOM     80  C   UNL A   1      42.526  34.393  38.871  1.00  0.00     0.010 A 
ATOM     81  C   UNL A   1      41.470  32.432  39.830  1.00  0.00     0.010 A 
ATOM     82  C   UNL A   1      42.692  34.932  40.148  1.00  0.00     0.020 A 
ATOM     83  C   UNL A   1      41.601  32.986  41.107  1.00  0.00     0.020 A 
ATOM     84  C   UNL A   1      42.242  34.218  41.260  1.00  0.00     0.054 A 
BRANCH  84  85
ATOM     85  S   UNL A   1      42.535  34.907  42.912  1.00  0.00     0.124 S 
ATOM     86  O   UNL A   1      41.786  33.983  43.759  1.00  0.00    -0.237 OA
ATOM     87  O   UNL A   1      43.989  34.833  43.032  1.00  0.00    -0.237 OA
ATOM     88  O   UNL A   1      41.986  36.258  42.822  1.00  0.00    -0.744 OA
ENDBRANCH  84  85
ENDBRANCH  56  79
BRANCH  68  89
ATOM     89  C   UNL A   1      46.525  29.243  35.051  1.00  0.00    -0.014 A 
ATOM     90  C   UNL A   1      46.664  27.984  35.668  1.00  0.00     0.010 A 
ATOM     91  C   UNL A   1      47.672  30.031  34.849  1.00  0.00     0.010 A 
ATOM     92  C   UNL A   1      47.911  27.547  36.124  1.00  0.00     0.020 A 
ATOM     93  C   UNL A   1      48.927  29.583  35.272  1.00  0.00     0.020 A 
ATOM     94  C   UNL A   1      49.034  28.357  35.936  1.00  0.00     0.054 A 
BRANCH  94  95
ATOM     95  S   UNL A   1      50.632  27.801  36.588  1.00  0.00     0.124 S 
ATOM     96  O   UNL A   1      50.320  27.549  37.991  1.00  0.00    -0.237 OA
ATOM     97  O   UNL A   1      50.911  26.615  35.782  1.00  0.00    -0.237 OA
ATOM     98  O   UNL A   1      51.519  28.935  36.340  1.00  0.00    -0.744 OA
ENDBRANCH  94  95
ENDBRANCH  68  89
ENDBRANCH  42  43
ENDBRANCH  35  37
ENDBRANCH  34  35
ENDBRANCH  33  34
ENDBRANCH  32  33
ENDBRANCH  31  32
ENDBRANCH  30  31
ENDBRANCH   1  30
TORSDOF 26
ENDMDL
