MODEL 1
REMARK VINA RESULT:      -9.0      0.000      0.000
REMARK SMILES C[C@@](NC(=O)[C@H]1COc2ccccc21)(C(=O)OCCOCCOCCOC(=O)c1ccc(-c2c3nc(c(-c4ccc(S(=O)(=O)[O-])cc4)c4ccc([nH]4)c(-c4ccc(S(=O)(=O)[O-])cc4)c4nc(c(-c5ccc(S(=O)(=O)[O-])cc5)c5ccc2[nH]5)C=C4)C=C3)cc1)C(F)(F)F
REMARK SMILES IDX 22 1 21 2 20 3 19 4 18 5 17 6 15 7 16 8 2 9 1 10 3 11 4 12
REMARK SMILES IDX 5 14 6 15 7 16 14 17 8 18 9 19 13 20 10 21 12 22 11 23 89 24
REMARK SMILES IDX 90 25 91 26 92 27 23 28 24 29 25 30 26 31 27 32 28 33 29 34
REMARK SMILES IDX 30 35 88 36 31 37 87 38 32 39 33 40 34 41 81 42 35 43 86 44
REMARK SMILES IDX 80 45 82 46 36 47 85 48 79 49 78 50 37 52 67 53 48 54 66 55
REMARK SMILES IDX 49 56 52 57 65 58 83 59 50 60 51 61 64 63 84 64 53 65 38 66
REMARK SMILES IDX 39 67 47 68 40 69 46 70 41 71 42 72 43 73 44 74 45 75 68 76
REMARK SMILES IDX 69 77 77 78 70 79 76 80 71 81 72 82 73 83 74 84 75 85 54 86
REMARK SMILES IDX 55 87 63 88 56 89 62 90 57 91 58 92 59 93 60 94 61 95
REMARK H PARENT 3 13 82 51 52 62
REMARK Flexibility Score: inf
ROOT
ATOM      1  C   UNL A   1      40.550  21.632  27.089  1.00  0.00     0.188 C 
ENDROOT
BRANCH   1   2
ATOM      2  C   UNL A   1      39.236  22.043  26.404  1.00  0.00     0.188 C 
BRANCH   2   3
ATOM      3  O   UNL A   1      39.134  23.445  26.246  1.00  0.00    -0.376 OA
BRANCH   3   4
ATOM      4  C   UNL A   1      37.822  23.953  26.141  1.00  0.00     0.202 C 
BRANCH   4   5
ATOM      5  C   UNL A   1      36.670  22.971  25.918  1.00  0.00     0.261 C 
BRANCH   5   6
ATOM      6  O   UNL A   1      35.304  23.441  25.981  1.00  0.00    -0.461 OA
BRANCH   6   7
ATOM      7  C   UNL A   1      34.488  23.305  24.893  1.00  0.00     0.341 C 
ATOM      8  O   UNL A   1      34.836  23.633  23.768  1.00  0.00    -0.249 OA
BRANCH   7   9
ATOM      9  C   UNL A   1      33.043  22.937  25.303  1.00  0.00     0.231 C 
ATOM     10  C   UNL A   1      32.669  23.336  26.744  1.00  0.00     0.058 C 
BRANCH   9  11
ATOM     11  N   UNL A   1      31.975  23.494  24.373  1.00  0.00    -0.332 N 
ATOM     12  C   UNL A   1      31.437  24.754  24.249  1.00  0.00     0.232 C 
ATOM     13  H   UNL A   1      31.602  22.832  23.746  1.00  0.00     0.164 HD
ATOM     14  O   UNL A   1      30.277  24.855  23.861  1.00  0.00    -0.274 OA
BRANCH  12  15
ATOM     15  C   UNL A   1      32.337  25.930  24.501  1.00  0.00     0.150 C 
ATOM     16  C   UNL A   1      32.574  26.740  23.218  1.00  0.00     0.248 C 
ATOM     17  C   UNL A   1      31.965  27.016  25.434  1.00  0.00     0.010 A 
ATOM     18  O   UNL A   1      32.074  28.088  23.389  1.00  0.00    -0.492 OA
ATOM     19  C   UNL A   1      31.924  28.214  24.741  1.00  0.00     0.123 A 
ATOM     20  C   UNL A   1      31.914  26.993  26.818  1.00  0.00     0.008 A 
ATOM     21  C   UNL A   1      31.828  29.428  25.386  1.00  0.00     0.047 A 
ATOM     22  C   UNL A   1      31.832  28.214  27.492  1.00  0.00     0.001 A 
ATOM     23  C   UNL A   1      31.796  29.424  26.781  1.00  0.00     0.004 A 
ENDBRANCH  12  15
ENDBRANCH   9  11
BRANCH   9  24
ATOM     24  C   UNL A   1      33.066  21.391  25.238  1.00  0.00     0.422 C 
ATOM     25  F   UNL A   1      33.533  20.841  26.381  1.00  0.00    -0.168 F 
ATOM     26  F   UNL A   1      31.806  20.916  25.055  1.00  0.00    -0.168 F 
ATOM     27  F   UNL A   1      33.807  20.926  24.213  1.00  0.00    -0.168 F 
ENDBRANCH   9  24
ENDBRANCH   7   9
ENDBRANCH   6   7
ENDBRANCH   5   6
ENDBRANCH   4   5
ENDBRANCH   3   4
ENDBRANCH   2   3
ENDBRANCH   1   2
BRANCH   1  28
ATOM     28  O   UNL A   1      40.733  20.308  27.570  1.00  0.00    -0.376 OA
BRANCH  28  29
ATOM     29  C   UNL A   1      41.920  19.609  27.213  1.00  0.00     0.202 C 
BRANCH  29  30
ATOM     30  C   UNL A   1      42.648  19.920  25.890  1.00  0.00     0.261 C 
BRANCH  30  31
ATOM     31  O   UNL A   1      44.067  20.129  25.976  1.00  0.00    -0.460 OA
BRANCH  31  32
ATOM     32  C   UNL A   1      44.661  20.615  24.853  1.00  0.00     0.338 C 
ATOM     33  O   UNL A   1      44.528  20.191  23.717  1.00  0.00    -0.246 OA
BRANCH  32  34
ATOM     34  C   UNL A   1      45.297  21.918  25.170  1.00  0.00     0.060 A 
ATOM     35  C   UNL A   1      45.398  22.293  26.521  1.00  0.00     0.016 A 
ATOM     36  C   UNL A   1      45.821  22.741  24.174  1.00  0.00     0.016 A 
ATOM     37  C   UNL A   1      46.019  23.489  26.880  1.00  0.00     0.010 A 
ATOM     38  C   UNL A   1      46.397  23.966  24.530  1.00  0.00     0.010 A 
ATOM     39  C   UNL A   1      46.473  24.356  25.881  1.00  0.00    -0.014 A 
BRANCH  39  40
ATOM     40  C   UNL A   1      46.775  25.765  26.229  1.00  0.00     0.031 A 
ATOM     41  C   UNL A   1      45.628  26.628  26.685  1.00  0.00     0.074 A 
ATOM     42  C   UNL A   1      48.020  26.271  26.166  1.00  0.00     0.049 A 
ATOM     43  N   UNL A   1      45.612  27.901  26.977  1.00  0.00    -0.248 NA
ATOM     44  C   UNL A   1      44.323  25.958  26.829  1.00  0.00     0.031 C 
ATOM     45  C   UNL A   1      49.226  25.525  25.811  1.00  0.00     0.029 A 
ATOM     46  N   UNL A   1      48.468  27.548  26.396  1.00  0.00    -0.354 N 
ATOM     47  C   UNL A   1      44.298  28.188  27.330  1.00  0.00     0.074 A 
ATOM     48  C   UNL A   1      43.543  26.962  27.198  1.00  0.00     0.031 C 
ATOM     49  C   UNL A   1      50.276  26.367  25.825  1.00  0.00     0.029 A 
ATOM     50  C   UNL A   1      49.813  27.714  26.157  1.00  0.00     0.049 A 
ATOM     51  H   UNL A   1      47.882  28.277  26.703  1.00  0.00     0.167 HD
ATOM     52  C   UNL A   1      43.765  29.366  27.725  1.00  0.00     0.031 A 
ATOM     53  C   UNL A   1      50.570  28.830  26.177  1.00  0.00     0.031 A 
ATOM     54  C   UNL A   1      44.508  30.590  27.833  1.00  0.00     0.049 A 
ATOM     55  C   UNL A   1      49.933  30.152  26.529  1.00  0.00     0.074 A 
ATOM     56  C   UNL A   1      44.056  31.838  28.221  1.00  0.00     0.029 A 
ATOM     57  N   UNL A   1      45.857  30.723  27.544  1.00  0.00    -0.354 N 
ATOM     58  N   UNL A   1      48.691  30.408  26.868  1.00  0.00    -0.248 NA
ATOM     59  C   UNL A   1      50.802  31.339  26.503  1.00  0.00     0.031 C 
ATOM     60  C   UNL A   1      45.119  32.738  28.113  1.00  0.00     0.029 A 
ATOM     61  C   UNL A   1      46.248  32.038  27.719  1.00  0.00     0.049 A 
ATOM     62  H   UNL A   1      46.448  29.991  27.255  1.00  0.00     0.167 HD
ATOM     63  C   UNL A   1      48.641  31.775  27.129  1.00  0.00     0.074 A 
ATOM     64  C   UNL A   1      49.976  32.291  26.916  1.00  0.00     0.031 C 
ATOM     65  C   UNL A   1      47.584  32.535  27.512  1.00  0.00     0.031 A 
BRANCH  52  66
ATOM     66  C   UNL A   1      42.292  29.391  28.025  1.00  0.00    -0.014 A 
ATOM     67  C   UNL A   1      41.812  29.764  29.293  1.00  0.00     0.010 A 
ATOM     68  C   UNL A   1      41.373  29.065  27.010  1.00  0.00     0.010 A 
ATOM     69  C   UNL A   1      40.439  29.782  29.550  1.00  0.00     0.020 A 
ATOM     70  C   UNL A   1      39.999  29.106  27.257  1.00  0.00     0.020 A 
ATOM     71  C   UNL A   1      39.542  29.452  28.529  1.00  0.00     0.054 A 
BRANCH  71  72
ATOM     72  S   UNL A   1      37.764  29.515  28.882  1.00  0.00     0.124 S 
ATOM     73  O   UNL A   1      37.636  28.538  29.960  1.00  0.00    -0.237 OA
ATOM     74  O   UNL A   1      37.564  30.909  29.270  1.00  0.00    -0.237 OA
ATOM     75  O   UNL A   1      37.146  29.129  27.616  1.00  0.00    -0.744 OA
ENDBRANCH  71  72
ENDBRANCH  52  66
BRANCH  53  76
ATOM     76  C   UNL A   1      52.015  28.764  25.817  1.00  0.00    -0.014 A 
ATOM     77  C   UNL A   1      52.421  28.717  24.471  1.00  0.00     0.010 A 
ATOM     78  C   UNL A   1      52.994  28.713  26.826  1.00  0.00     0.010 A 
ATOM     79  C   UNL A   1      53.775  28.596  24.143  1.00  0.00     0.020 A 
ATOM     80  C   UNL A   1      54.350  28.621  26.502  1.00  0.00     0.020 A 
ATOM     81  C   UNL A   1      54.732  28.548  25.161  1.00  0.00     0.054 A 
BRANCH  81  82
ATOM     82  S   UNL A   1      56.486  28.426  24.711  1.00  0.00     0.124 S 
ATOM     83  O   UNL A   1      56.493  28.990  23.365  1.00  0.00    -0.237 OA
ATOM     84  O   UNL A   1      57.133  29.233  25.741  1.00  0.00    -0.237 OA
ATOM     85  O   UNL A   1      56.759  26.992  24.791  1.00  0.00    -0.744 OA
ENDBRANCH  81  82
ENDBRANCH  53  76
BRANCH  65  86
ATOM     86  C   UNL A   1      47.831  33.997  27.778  1.00  0.00    -0.014 A 
ATOM     87  C   UNL A   1      47.682  34.962  26.766  1.00  0.00     0.010 A 
ATOM     88  C   UNL A   1      48.144  34.418  29.084  1.00  0.00     0.010 A 
ATOM     89  C   UNL A   1      47.872  36.318  27.050  1.00  0.00     0.020 A 
ATOM     90  C   UNL A   1      48.308  35.774  29.378  1.00  0.00     0.020 A 
ATOM     91  C   UNL A   1      48.183  36.715  28.354  1.00  0.00     0.054 A 
BRANCH  91  92
ATOM     92  S   UNL A   1      48.376  38.484  28.708  1.00  0.00     0.124 S 
ATOM     93  O   UNL A   1      49.523  38.491  29.612  1.00  0.00    -0.237 OA
ATOM     94  O   UNL A   1      48.617  39.052  27.383  1.00  0.00    -0.237 OA
ATOM     95  O   UNL A   1      47.101  38.858  29.317  1.00  0.00    -0.744 OA
ENDBRANCH  91  92
ENDBRANCH  65  86
ENDBRANCH  39  40
ENDBRANCH  32  34
ENDBRANCH  31  32
ENDBRANCH  30  31
ENDBRANCH  29  30
ENDBRANCH  28  29
ENDBRANCH   1  28
TORSDOF 23
ENDMDL
MODEL 2
REMARK VINA RESULT:      -8.5      2.602      8.697
REMARK SMILES C[C@@](NC(=O)[C@H]1COc2ccccc21)(C(=O)OCCOCCOCCOC(=O)c1ccc(-c2c3nc(c(-c4ccc(S(=O)(=O)[O-])cc4)c4ccc([nH]4)c(-c4ccc(S(=O)(=O)[O-])cc4)c4nc(c(-c5ccc(S(=O)(=O)[O-])cc5)c5ccc2[nH]5)C=C4)C=C3)cc1)C(F)(F)F
REMARK SMILES IDX 22 1 21 2 20 3 19 4 18 5 17 6 15 7 16 8 2 9 1 10 3 11 4 12
REMARK SMILES IDX 5 14 6 15 7 16 14 17 8 18 9 19 13 20 10 21 12 22 11 23 89 24
REMARK SMILES IDX 90 25 91 26 92 27 23 28 24 29 25 30 26 31 27 32 28 33 29 34
REMARK SMILES IDX 30 35 88 36 31 37 87 38 32 39 33 40 34 41 81 42 35 43 86 44
REMARK SMILES IDX 80 45 82 46 36 47 85 48 79 49 78 50 37 52 67 53 48 54 66 55
REMARK SMILES IDX 49 56 52 57 65 58 83 59 50 60 51 61 64 63 84 64 53 65 38 66
REMARK SMILES IDX 39 67 47 68 40 69 46 70 41 71 42 72 43 73 44 74 45 75 68 76
REMARK SMILES IDX 69 77 77 78 70 79 76 80 71 81 72 82 73 83 74 84 75 85 54 86
REMARK SMILES IDX 55 87 63 88 56 89 62 90 57 91 58 92 59 93 60 94 61 95
REMARK H PARENT 3 13 82 51 52 62
REMARK Flexibility Score: inf
ROOT
ATOM      1  C   UNL A   1      35.298  31.744  29.030  1.00  0.00     0.188 C 
ENDROOT
BRANCH   1   2
ATOM      2  C   UNL A   1      34.254  31.482  27.932  1.00  0.00     0.188 C 
BRANCH   2   3
ATOM      3  O   UNL A   1      33.953  30.107  27.801  1.00  0.00    -0.376 OA
BRANCH   3   4
ATOM      4  C   UNL A   1      33.498  29.699  26.529  1.00  0.00     0.202 C 
BRANCH   4   5
ATOM      5  C   UNL A   1      31.995  29.514  26.313  1.00  0.00     0.261 C 
BRANCH   5   6
ATOM      6  O   UNL A   1      31.497  28.275  25.756  1.00  0.00    -0.461 OA
BRANCH   6   7
ATOM      7  C   UNL A   1      32.062  27.767  24.619  1.00  0.00     0.341 C 
ATOM      8  O   UNL A   1      32.323  28.463  23.650  1.00  0.00    -0.249 OA
BRANCH   7   9
ATOM      9  C   UNL A   1      32.084  26.220  24.634  1.00  0.00     0.231 C 
ATOM     10  C   UNL A   1      33.389  25.597  24.101  1.00  0.00     0.058 C 
BRANCH   9  11
ATOM     11  N   UNL A   1      31.799  25.611  25.998  1.00  0.00    -0.332 N 
ATOM     12  C   UNL A   1      31.893  24.318  26.460  1.00  0.00     0.232 C 
ATOM     13  H   UNL A   1      31.490  26.258  26.673  1.00  0.00     0.164 HD
ATOM     14  O   UNL A   1      31.132  23.963  27.356  1.00  0.00    -0.274 OA
BRANCH  12  15
ATOM     15  C   UNL A   1      32.989  23.453  25.906  1.00  0.00     0.150 C 
ATOM     16  C   UNL A   1      33.928  22.958  27.017  1.00  0.00     0.248 C 
ATOM     17  C   UNL A   1      32.705  22.177  25.213  1.00  0.00     0.010 A 
ATOM     18  O   UNL A   1      33.894  21.512  27.080  1.00  0.00    -0.492 OA
ATOM     19  C   UNL A   1      33.326  21.143  25.894  1.00  0.00     0.123 A 
ATOM     20  C   UNL A   1      32.161  21.974  23.955  1.00  0.00     0.008 A 
ATOM     21  C   UNL A   1      33.430  19.876  25.363  1.00  0.00     0.047 A 
ATOM     22  C   UNL A   1      32.269  20.700  23.391  1.00  0.00     0.001 A 
ATOM     23  C   UNL A   1      32.905  19.659  24.088  1.00  0.00     0.004 A 
ENDBRANCH  12  15
ENDBRANCH   9  11
BRANCH   9  24
ATOM     24  C   UNL A   1      30.957  25.866  23.635  1.00  0.00     0.422 C 
ATOM     25  F   UNL A   1      29.929  26.743  23.698  1.00  0.00    -0.168 F 
ATOM     26  F   UNL A   1      31.434  25.905  22.364  1.00  0.00    -0.168 F 
ATOM     27  F   UNL A   1      30.466  24.626  23.825  1.00  0.00    -0.168 F 
ENDBRANCH   9  24
ENDBRANCH   7   9
ENDBRANCH   6   7
ENDBRANCH   5   6
ENDBRANCH   4   5
ENDBRANCH   3   4
ENDBRANCH   2   3
ENDBRANCH   1   2
BRANCH   1  28
ATOM     28  O   UNL A   1      35.043  32.688  30.061  1.00  0.00    -0.376 OA
BRANCH  28  29
ATOM     29  C   UNL A   1      35.761  32.574  31.284  1.00  0.00     0.202 C 
BRANCH  29  30
ATOM     30  C   UNL A   1      36.000  31.195  31.930  1.00  0.00     0.261 C 
BRANCH  30  31
ATOM     31  O   UNL A   1      37.358  30.726  31.952  1.00  0.00    -0.460 OA
BRANCH  31  32
ATOM     32  C   UNL A   1      38.240  31.503  32.634  1.00  0.00     0.338 C 
ATOM     33  O   UNL A   1      38.047  32.058  33.704  1.00  0.00    -0.246 OA
BRANCH  32  34
ATOM     34  C   UNL A   1      39.582  31.365  32.016  1.00  0.00     0.060 A 
ATOM     35  C   UNL A   1      39.734  31.749  30.672  1.00  0.00     0.016 A 
ATOM     36  C   UNL A   1      40.682  30.909  32.742  1.00  0.00     0.016 A 
ATOM     37  C   UNL A   1      40.979  31.677  30.050  1.00  0.00     0.010 A 
ATOM     38  C   UNL A   1      41.921  30.786  32.102  1.00  0.00     0.010 A 
ATOM     39  C   UNL A   1      42.068  31.144  30.748  1.00  0.00    -0.014 A 
BRANCH  39  40
ATOM     40  C   UNL A   1      43.269  30.713  29.994  1.00  0.00     0.031 A 
ATOM     41  C   UNL A   1      43.239  29.346  29.363  1.00  0.00     0.074 A 
ATOM     42  C   UNL A   1      44.349  31.502  29.849  1.00  0.00     0.049 A 
ATOM     43  N   UNL A   1      44.179  28.709  28.716  1.00  0.00    -0.248 NA
ATOM     44  C   UNL A   1      41.973  28.600  29.479  1.00  0.00     0.031 C 
ATOM     45  C   UNL A   1      44.478  32.870  30.348  1.00  0.00     0.029 A 
ATOM     46  N   UNL A   1      45.553  31.250  29.240  1.00  0.00    -0.354 N 
ATOM     47  C   UNL A   1      43.624  27.486  28.358  1.00  0.00     0.074 A 
ATOM     48  C   UNL A   1      42.273  27.462  28.873  1.00  0.00     0.031 C 
ATOM     49  C   UNL A   1      45.706  33.329  30.042  1.00  0.00     0.029 A 
ATOM     50  C   UNL A   1      46.459  32.279  29.357  1.00  0.00     0.049 A 
ATOM     51  H   UNL A   1      45.750  30.411  28.763  1.00  0.00     0.167 HD
ATOM     52  C   UNL A   1      44.187  26.470  27.665  1.00  0.00     0.031 A 
ATOM     53  C   UNL A   1      47.752  32.349  28.981  1.00  0.00     0.031 A 
ATOM     54  C   UNL A   1      45.536  26.483  27.173  1.00  0.00     0.049 A 
ATOM     55  C   UNL A   1      48.388  31.166  28.292  1.00  0.00     0.074 A 
ATOM     56  C   UNL A   1      46.200  25.499  26.463  1.00  0.00     0.029 A 
ATOM     57  N   UNL A   1      46.431  27.527  27.348  1.00  0.00    -0.354 N 
ATOM     58  N   UNL A   1      47.850  30.018  27.952  1.00  0.00    -0.248 NA
ATOM     59  C   UNL A   1      49.810  31.289  27.933  1.00  0.00     0.031 C 
ATOM     60  C   UNL A   1      47.515  25.925  26.256  1.00  0.00     0.029 A 
ATOM     61  C   UNL A   1      47.650  27.200  26.782  1.00  0.00     0.049 A 
ATOM     62  H   UNL A   1      46.229  28.373  27.807  1.00  0.00     0.167 HD
ATOM     63  C   UNL A   1      48.856  29.300  27.310  1.00  0.00     0.074 A 
ATOM     64  C   UNL A   1      50.032  30.144  27.302  1.00  0.00     0.031 C 
ATOM     65  C   UNL A   1      48.810  28.055  26.773  1.00  0.00     0.031 A 
BRANCH  52  66
ATOM     66  C   UNL A   1      43.351  25.241  27.440  1.00  0.00    -0.014 A 
ATOM     67  C   UNL A   1      43.314  24.201  28.386  1.00  0.00     0.010 A 
ATOM     68  C   UNL A   1      42.567  25.141  26.276  1.00  0.00     0.010 A 
ATOM     69  C   UNL A   1      42.529  23.068  28.157  1.00  0.00     0.020 A 
ATOM     70  C   UNL A   1      41.761  24.021  26.057  1.00  0.00     0.020 A 
ATOM     71  C   UNL A   1      41.758  22.986  26.993  1.00  0.00     0.054 A 
BRANCH  71  72
ATOM     72  S   UNL A   1      40.724  21.518  26.738  1.00  0.00     0.124 S 
ATOM     73  O   UNL A   1      40.682  20.942  28.080  1.00  0.00    -0.237 OA
ATOM     74  O   UNL A   1      39.468  22.091  26.260  1.00  0.00    -0.237 OA
ATOM     75  O   UNL A   1      41.466  20.739  25.750  1.00  0.00    -0.744 OA
ENDBRANCH  71  72
ENDBRANCH  52  66
BRANCH  53  76
ATOM     76  C   UNL A   1      48.556  33.568  29.276  1.00  0.00    -0.014 A 
ATOM     77  C   UNL A   1      49.242  33.701  30.497  1.00  0.00     0.010 A 
ATOM     78  C   UNL A   1      48.610  34.622  28.346  1.00  0.00     0.010 A 
ATOM     79  C   UNL A   1      49.946  34.873  30.791  1.00  0.00     0.020 A 
ATOM     80  C   UNL A   1      49.337  35.784  28.624  1.00  0.00     0.020 A 
ATOM     81  C   UNL A   1      49.988  35.908  29.852  1.00  0.00     0.054 A 
BRANCH  81  82
ATOM     82  S   UNL A   1      50.936  37.407  30.240  1.00  0.00     0.124 S 
ATOM     83  O   UNL A   1      51.459  37.782  28.929  1.00  0.00    -0.237 OA
ATOM     84  O   UNL A   1      49.916  38.292  30.793  1.00  0.00    -0.237 OA
ATOM     85  O   UNL A   1      51.933  36.939  31.201  1.00  0.00    -0.744 OA
ENDBRANCH  81  82
ENDBRANCH  53  76
BRANCH  65  86
ATOM     86  C   UNL A   1      50.047  27.541  26.085  1.00  0.00    -0.014 A 
ATOM     87  C   UNL A   1      50.295  27.808  24.726  1.00  0.00     0.010 A 
ATOM     88  C   UNL A   1      51.013  26.842  26.832  1.00  0.00     0.010 A 
ATOM     89  C   UNL A   1      51.473  27.358  24.122  1.00  0.00     0.020 A 
ATOM     90  C   UNL A   1      52.204  26.415  26.239  1.00  0.00     0.020 A 
ATOM     91  C   UNL A   1      52.420  26.665  24.883  1.00  0.00     0.054 A 
BRANCH  91  92
ATOM     92  S   UNL A   1      53.963  26.135  24.088  1.00  0.00     0.124 S 
ATOM     93  O   UNL A   1      53.552  25.985  22.695  1.00  0.00    -0.237 OA
ATOM     94  O   UNL A   1      54.865  27.251  24.362  1.00  0.00    -0.237 OA
ATOM     95  O   UNL A   1      54.297  24.889  24.777  1.00  0.00    -0.744 OA
ENDBRANCH  91  92
ENDBRANCH  65  86
ENDBRANCH  39  40
ENDBRANCH  32  34
ENDBRANCH  31  32
ENDBRANCH  30  31
ENDBRANCH  29  30
ENDBRANCH  28  29
ENDBRANCH   1  28
TORSDOF 23
ENDMDL
MODEL 3
REMARK VINA RESULT:      -8.5     10.869     15.571
REMARK SMILES C[C@@](NC(=O)[C@H]1COc2ccccc21)(C(=O)OCCOCCOCCOC(=O)c1ccc(-c2c3nc(c(-c4ccc(S(=O)(=O)[O-])cc4)c4ccc([nH]4)c(-c4ccc(S(=O)(=O)[O-])cc4)c4nc(c(-c5ccc(S(=O)(=O)[O-])cc5)c5ccc2[nH]5)C=C4)C=C3)cc1)C(F)(F)F
REMARK SMILES IDX 22 1 21 2 20 3 19 4 18 5 17 6 15 7 16 8 2 9 1 10 3 11 4 12
REMARK SMILES IDX 5 14 6 15 7 16 14 17 8 18 9 19 13 20 10 21 12 22 11 23 89 24
REMARK SMILES IDX 90 25 91 26 92 27 23 28 24 29 25 30 26 31 27 32 28 33 29 34
REMARK SMILES IDX 30 35 88 36 31 37 87 38 32 39 33 40 34 41 81 42 35 43 86 44
REMARK SMILES IDX 80 45 82 46 36 47 85 48 79 49 78 50 37 52 67 53 48 54 66 55
REMARK SMILES IDX 49 56 52 57 65 58 83 59 50 60 51 61 64 63 84 64 53 65 38 66
REMARK SMILES IDX 39 67 47 68 40 69 46 70 41 71 42 72 43 73 44 74 45 75 68 76
REMARK SMILES IDX 69 77 77 78 70 79 76 80 71 81 72 82 73 83 74 84 75 85 54 86
REMARK SMILES IDX 55 87 63 88 56 89 62 90 57 91 58 92 59 93 60 94 61 95
REMARK H PARENT 3 13 82 51 52 62
REMARK Flexibility Score: inf
ROOT
ATOM      1  C   UNL A   1      46.337  19.514  37.330  1.00  0.00     0.188 C 
ENDROOT
BRANCH   1   2
ATOM      2  C   UNL A   1      46.855  18.853  38.618  1.00  0.00     0.188 C 
BRANCH   2   3
ATOM      3  O   UNL A   1      46.081  19.208  39.747  1.00  0.00    -0.376 OA
BRANCH   3   4
ATOM      4  C   UNL A   1      45.418  18.142  40.392  1.00  0.00     0.202 C 
BRANCH   4   5
ATOM      5  C   UNL A   1      46.252  16.970  40.914  1.00  0.00     0.261 C 
BRANCH   5   6
ATOM      6  O   UNL A   1      45.690  16.073  41.900  1.00  0.00    -0.461 OA
BRANCH   6   7
ATOM      7  C   UNL A   1      45.849  16.342  43.231  1.00  0.00     0.341 C 
ATOM      8  O   UNL A   1      46.901  16.139  43.819  1.00  0.00    -0.249 OA
BRANCH   7   9
ATOM      9  C   UNL A   1      44.502  16.679  43.912  1.00  0.00     0.231 C 
ATOM     10  C   UNL A   1      43.260  16.369  43.054  1.00  0.00     0.058 C 
BRANCH   9  11
ATOM     11  N   UNL A   1      44.311  16.015  45.267  1.00  0.00    -0.332 N 
ATOM     12  C   UNL A   1      43.866  14.761  45.617  1.00  0.00     0.232 C 
ATOM     13  H   UNL A   1      44.549  16.587  46.033  1.00  0.00     0.164 HD
ATOM     14  O   UNL A   1      43.288  14.628  46.692  1.00  0.00    -0.274 OA
BRANCH  12  15
ATOM     15  C   UNL A   1      44.204  13.616  44.705  1.00  0.00     0.150 C 
ATOM     16  C   UNL A   1      45.260  12.693  45.331  1.00  0.00     0.248 C 
ATOM     17  C   UNL A   1      43.193  12.618  44.292  1.00  0.00     0.010 A 
ATOM     18  O   UNL A   1      44.711  11.365  45.503  1.00  0.00    -0.492 OA
ATOM     19  C   UNL A   1      43.601  11.362  44.707  1.00  0.00     0.123 A 
ATOM     20  C   UNL A   1      42.135  12.767  43.410  1.00  0.00     0.008 A 
ATOM     21  C   UNL A   1      42.980  10.211  44.272  1.00  0.00     0.047 A 
ATOM     22  C   UNL A   1      41.501  11.613  42.945  1.00  0.00     0.001 A 
ATOM     23  C   UNL A   1      41.925  10.342  43.368  1.00  0.00     0.004 A 
ENDBRANCH  12  15
ENDBRANCH   9  11
BRANCH   9  24
ATOM     24  C   UNL A   1      44.589  18.216  44.069  1.00  0.00     0.422 C 
ATOM     25  F   UNL A   1      45.850  18.674  43.897  1.00  0.00    -0.168 F 
ATOM     26  F   UNL A   1      43.815  18.823  43.131  1.00  0.00    -0.168 F 
ATOM     27  F   UNL A   1      44.146  18.641  45.269  1.00  0.00    -0.168 F 
ENDBRANCH   9  24
ENDBRANCH   7   9
ENDBRANCH   6   7
ENDBRANCH   5   6
ENDBRANCH   4   5
ENDBRANCH   3   4
ENDBRANCH   2   3
ENDBRANCH   1   2
BRANCH   1  28
ATOM     28  O   UNL A   1      47.243  19.971  36.336  1.00  0.00    -0.376 OA
BRANCH  28  29
ATOM     29  C   UNL A   1      46.821  19.977  34.977  1.00  0.00     0.202 C 
BRANCH  29  30
ATOM     30  C   UNL A   1      46.091  21.200  34.385  1.00  0.00     0.261 C 
BRANCH  30  31
ATOM     31  O   UNL A   1      44.910  21.636  35.078  1.00  0.00    -0.460 OA
BRANCH  31  32
ATOM     32  C   UNL A   1      45.038  22.779  35.803  1.00  0.00     0.338 C 
ATOM     33  O   UNL A   1      45.460  22.876  36.944  1.00  0.00    -0.246 OA
BRANCH  32  34
ATOM     34  C   UNL A   1      44.839  23.943  34.904  1.00  0.00     0.060 A 
ATOM     35  C   UNL A   1      45.800  24.969  34.927  1.00  0.00     0.016 A 
ATOM     36  C   UNL A   1      43.758  24.017  34.026  1.00  0.00     0.016 A 
ATOM     37  C   UNL A   1      45.684  26.068  34.078  1.00  0.00     0.010 A 
ATOM     38  C   UNL A   1      43.613  25.146  33.211  1.00  0.00     0.010 A 
ATOM     39  C   UNL A   1      44.561  26.187  33.255  1.00  0.00    -0.014 A 
BRANCH  39  40
ATOM     40  C   UNL A   1      44.242  27.503  32.650  1.00  0.00     0.031 A 
ATOM     41  C   UNL A   1      44.714  27.752  31.242  1.00  0.00     0.074 A 
ATOM     42  C   UNL A   1      43.543  28.446  33.307  1.00  0.00     0.049 A 
ATOM     43  N   UNL A   1      44.627  28.835  30.517  1.00  0.00    -0.248 NA
ATOM     44  C   UNL A   1      45.373  26.621  30.564  1.00  0.00     0.031 C 
ATOM     45  C   UNL A   1      42.968  28.305  34.644  1.00  0.00     0.029 A 
ATOM     46  N   UNL A   1      43.207  29.722  32.929  1.00  0.00    -0.354 N 
ATOM     47  C   UNL A   1      45.228  28.522  29.303  1.00  0.00     0.074 A 
ATOM     48  C   UNL A   1      45.690  27.155  29.394  1.00  0.00     0.031 C 
ATOM     49  C   UNL A   1      42.369  29.461  34.982  1.00  0.00     0.029 A 
ATOM     50  C   UNL A   1      42.546  30.433  33.903  1.00  0.00     0.049 A 
ATOM     51  H   UNL A   1      43.421  30.095  32.042  1.00  0.00     0.167 HD
ATOM     52  C   UNL A   1      45.385  29.301  28.209  1.00  0.00     0.031 A 
ATOM     53  C   UNL A   1      42.156  31.724  33.928  1.00  0.00     0.031 A 
ATOM     54  C   UNL A   1      44.947  30.666  28.124  1.00  0.00     0.049 A 
ATOM     55  C   UNL A   1      42.426  32.602  32.731  1.00  0.00     0.074 A 
ATOM     56  C   UNL A   1      45.065  31.541  27.060  1.00  0.00     0.029 A 
ATOM     57  N   UNL A   1      44.318  31.359  29.147  1.00  0.00    -0.354 N 
ATOM     58  N   UNL A   1      42.988  32.291  31.586  1.00  0.00    -0.248 NA
ATOM     59  C   UNL A   1      42.007  34.009  32.828  1.00  0.00     0.031 C 
ATOM     60  C   UNL A   1      44.555  32.780  27.457  1.00  0.00     0.029 A 
ATOM     61  C   UNL A   1      44.064  32.659  28.747  1.00  0.00     0.049 A 
ATOM     62  H   UNL A   1      44.087  30.982  30.026  1.00  0.00     0.167 HD
ATOM     63  C   UNL A   1      42.956  33.452  30.817  1.00  0.00     0.074 A 
ATOM     64  C   UNL A   1      42.315  34.470  31.623  1.00  0.00     0.031 C 
ATOM     65  C   UNL A   1      43.415  33.658  29.558  1.00  0.00     0.031 A 
BRANCH  52  66
ATOM     66  C   UNL A   1      46.101  28.702  27.031  1.00  0.00    -0.014 A 
ATOM     67  C   UNL A   1      45.391  28.143  25.953  1.00  0.00     0.010 A 
ATOM     68  C   UNL A   1      47.507  28.728  26.990  1.00  0.00     0.010 A 
ATOM     69  C   UNL A   1      46.077  27.592  24.867  1.00  0.00     0.020 A 
ATOM     70  C   UNL A   1      48.195  28.201  25.894  1.00  0.00     0.020 A 
ATOM     71  C   UNL A   1      47.475  27.625  24.846  1.00  0.00     0.054 A 
BRANCH  71  72
ATOM     72  S   UNL A   1      48.338  26.932  23.409  1.00  0.00     0.124 S 
ATOM     73  O   UNL A   1      47.663  27.603  22.300  1.00  0.00    -0.237 OA
ATOM     74  O   UNL A   1      49.721  27.339  23.640  1.00  0.00    -0.237 OA
ATOM     75  O   UNL A   1      48.087  25.497  23.513  1.00  0.00    -0.744 OA
ENDBRANCH  71  72
ENDBRANCH  52  66
BRANCH  53  76
ATOM     76  C   UNL A   1      41.499  32.287  35.141  1.00  0.00    -0.014 A 
ATOM     77  C   UNL A   1      42.266  32.815  36.196  1.00  0.00     0.010 A 
ATOM     78  C   UNL A   1      40.098  32.267  35.261  1.00  0.00     0.010 A 
ATOM     79  C   UNL A   1      41.644  33.289  37.356  1.00  0.00     0.020 A 
ATOM     80  C   UNL A   1      39.471  32.766  36.407  1.00  0.00     0.020 A 
ATOM     81  C   UNL A   1      40.250  33.260  37.455  1.00  0.00     0.054 A 
BRANCH  81  82
ATOM     82  S   UNL A   1      39.463  33.911  38.955  1.00  0.00     0.124 S 
ATOM     83  O   UNL A   1      40.605  34.452  39.685  1.00  0.00    -0.237 OA
ATOM     84  O   UNL A   1      38.528  34.897  38.419  1.00  0.00    -0.237 OA
ATOM     85  O   UNL A   1      38.839  32.732  39.551  1.00  0.00    -0.744 OA
ENDBRANCH  81  82
ENDBRANCH  53  76
BRANCH  65  86
ATOM     86  C   UNL A   1      43.199  35.017  28.944  1.00  0.00    -0.014 A 
ATOM     87  C   UNL A   1      42.132  35.261  28.061  1.00  0.00     0.010 A 
ATOM     88  C   UNL A   1      44.036  36.084  29.319  1.00  0.00     0.010 A 
ATOM     89  C   UNL A   1      41.927  36.543  27.541  1.00  0.00     0.020 A 
ATOM     90  C   UNL A   1      43.817  37.372  28.823  1.00  0.00     0.020 A 
ATOM     91  C   UNL A   1      42.769  37.590  27.926  1.00  0.00     0.054 A 
BRANCH  91  92
ATOM     92  S   UNL A   1      42.452  39.254  27.276  1.00  0.00     0.124 S 
ATOM     93  O   UNL A   1      43.650  39.504  26.480  1.00  0.00    -0.237 OA
ATOM     94  O   UNL A   1      41.218  39.071  26.514  1.00  0.00    -0.237 OA
ATOM     95  O   UNL A   1      42.318  40.076  28.477  1.00  0.00    -0.744 OA
ENDBRANCH  91  92
ENDBRANCH  65  86
ENDBRANCH  39  40
ENDBRANCH  32  34
ENDBRANCH  31  32
ENDBRANCH  30  31
ENDBRANCH  29  30
ENDBRANCH  28  29
ENDBRANCH   1  28
TORSDOF 23
ENDMDL
