MODEL 1
REMARK VINA RESULT:     -10.3      0.000      0.000
REMARK SMILES Cc1cc(N2CCOC[C@H]2C(=O)OCCOCCOCCOC(=O)c2ccc(-c3c4nc(c(-c5ccc(S(=O)(=O)[O-])cc5)c5ccc([nH]5)c(-c5ccc(S(=O)(=O)[O-])cc5)c5nc(c(-c6ccc(S(=O)(=O)[O-])cc6)c6ccc3[nH]6)C=C5)C=C4)cc2)ncc1[N+](=O)[O-]
REMARK SMILES IDX 18 1 17 2 16 3 15 4 14 5 13 6 11 7 12 8 10 9 5 10 6 11 7 12
REMARK SMILES IDX 9 13 8 14 4 15 1 16 2 17 3 18 87 19 86 20 85 21 88 22 89 23
REMARK SMILES IDX 90 24 19 25 20 26 21 27 22 28 23 29 24 30 25 31 26 32 84 33
REMARK SMILES IDX 27 34 83 35 28 36 29 37 30 38 77 39 31 40 82 41 76 42 78 43
REMARK SMILES IDX 32 44 81 45 75 46 74 47 33 49 63 50 44 51 62 52 45 53 48 54
REMARK SMILES IDX 61 55 79 56 46 57 47 58 60 60 80 61 49 62 34 63 35 64 43 65
REMARK SMILES IDX 36 66 42 67 37 68 38 69 39 70 40 71 41 72 64 73 65 74 73 75
REMARK SMILES IDX 66 76 72 77 67 78 68 79 69 80 70 81 71 82 50 83 51 84 59 85
REMARK SMILES IDX 52 86 58 87 53 88 54 89 55 90 56 91 57 92
REMARK H PARENT 78 48 48 59
REMARK Flexibility Score: inf
ROOT
ATOM      1  C   UNL A   1      37.495  21.229  25.694  1.00  0.00     0.188 C 
ENDROOT
BRANCH   1   2
ATOM      2  C   UNL A   1      36.374  21.312  24.643  1.00  0.00     0.188 C 
BRANCH   2   3
ATOM      3  O   UNL A   1      35.183  21.997  25.020  1.00  0.00    -0.376 OA
BRANCH   3   4
ATOM      4  C   UNL A   1      35.204  22.721  26.246  1.00  0.00     0.202 C 
BRANCH   4   5
ATOM      5  C   UNL A   1      34.022  23.670  26.432  1.00  0.00     0.261 C 
BRANCH   5   6
ATOM      6  O   UNL A   1      33.664  24.277  25.177  1.00  0.00    -0.462 OA
BRANCH   6   7
ATOM      7  C   UNL A   1      33.424  25.613  25.179  1.00  0.00     0.331 C 
ATOM      8  O   UNL A   1      33.983  26.411  25.926  1.00  0.00    -0.250 OA
BRANCH   7   9
ATOM      9  C   UNL A   1      32.337  26.047  24.190  1.00  0.00     0.220 C 
ATOM     10  N   UNL A   1      32.499  27.423  23.632  1.00  0.00    -0.339 N 
ATOM     11  C   UNL A   1      33.449  27.549  22.510  1.00  0.00     0.147 C 
ATOM     12  C   UNL A   1      33.269  26.427  21.483  1.00  0.00     0.181 C 
ATOM     13  C   UNL A   1      32.287  24.987  23.073  1.00  0.00     0.197 C 
ATOM     14  O   UNL A   1      33.348  25.138  22.111  1.00  0.00    -0.377 OA
BRANCH  10  15
ATOM     15  C   UNL A   1      31.331  28.174  23.504  1.00  0.00     0.130 A 
ATOM     16  C   UNL A   1      30.030  31.528  24.740  1.00  0.00     0.052 C 
ATOM     17  C   UNL A   1      30.082  30.209  24.028  1.00  0.00     0.032 A 
ATOM     18  C   UNL A   1      31.182  29.355  24.242  1.00  0.00     0.057 A 
ATOM     19  C   UNL A   1      29.117  29.778  23.118  1.00  0.00     0.290 A 
ATOM     20  C   UNL A   1      29.310  28.588  22.438  1.00  0.00     0.199 A 
ATOM     21  N   UNL A   1      30.399  27.796  22.605  1.00  0.00    -0.232 NA
BRANCH  19  22
ATOM     22  N   UNL A   1      27.906  30.522  22.835  1.00  0.00     0.064 N 
ATOM     23  O   UNL A   1      27.772  30.958  21.683  1.00  0.00    -0.258 OA
ATOM     24  O   UNL A   1      27.078  30.635  23.745  1.00  0.00    -0.258 OA
ENDBRANCH  19  22
ENDBRANCH  10  15
ENDBRANCH   7   9
ENDBRANCH   6   7
ENDBRANCH   5   6
ENDBRANCH   4   5
ENDBRANCH   3   4
ENDBRANCH   2   3
ENDBRANCH   1   2
BRANCH   1  25
ATOM     25  O   UNL A   1      38.665  22.008  25.450  1.00  0.00    -0.376 OA
BRANCH  25  26
ATOM     26  C   UNL A   1      39.782  21.767  26.304  1.00  0.00     0.202 C 
BRANCH  26  27
ATOM     27  C   UNL A   1      40.381  23.046  26.878  1.00  0.00     0.261 C 
BRANCH  27  28
ATOM     28  O   UNL A   1      39.684  24.181  26.335  1.00  0.00    -0.460 OA
BRANCH  28  29
ATOM     29  C   UNL A   1      40.414  25.314  26.330  1.00  0.00     0.338 C 
ATOM     30  O   UNL A   1      40.923  25.851  25.355  1.00  0.00    -0.246 OA
BRANCH  29  31
ATOM     31  C   UNL A   1      40.519  25.866  27.691  1.00  0.00     0.060 A 
ATOM     32  C   UNL A   1      39.395  25.949  28.514  1.00  0.00     0.016 A 
ATOM     33  C   UNL A   1      41.705  26.499  28.057  1.00  0.00     0.016 A 
ATOM     34  C   UNL A   1      39.413  26.798  29.626  1.00  0.00     0.010 A 
ATOM     35  C   UNL A   1      41.737  27.297  29.202  1.00  0.00     0.010 A 
ATOM     36  C   UNL A   1      40.565  27.533  29.944  1.00  0.00    -0.014 A 
BRANCH  36  37
ATOM     37  C   UNL A   1      40.514  28.692  30.885  1.00  0.00     0.031 A 
ATOM     38  C   UNL A   1      41.551  28.780  31.986  1.00  0.00     0.074 A 
ATOM     39  C   UNL A   1      39.618  29.690  30.765  1.00  0.00     0.049 A 
ATOM     40  N   UNL A   1      41.549  29.508  33.073  1.00  0.00    -0.248 NA
ATOM     41  C   UNL A   1      42.741  27.919  31.849  1.00  0.00     0.031 C 
ATOM     42  C   UNL A   1      38.628  29.831  29.698  1.00  0.00     0.029 A 
ATOM     43  N   UNL A   1      39.411  30.794  31.559  1.00  0.00    -0.354 N 
ATOM     44  C   UNL A   1      42.675  29.119  33.793  1.00  0.00     0.074 A 
ATOM     45  C   UNL A   1      43.356  28.116  33.006  1.00  0.00     0.031 C 
ATOM     46  C   UNL A   1      37.948  30.975  29.881  1.00  0.00     0.029 A 
ATOM     47  C   UNL A   1      38.381  31.597  31.129  1.00  0.00     0.049 A 
ATOM     48  H   UNL A   1      39.948  30.990  32.360  1.00  0.00     0.167 HD
ATOM     49  C   UNL A   1      43.092  29.545  35.010  1.00  0.00     0.031 A 
ATOM     50  C   UNL A   1      37.814  32.679  31.699  1.00  0.00     0.031 A 
ATOM     51  C   UNL A   1      42.467  30.607  35.750  1.00  0.00     0.049 A 
ATOM     52  C   UNL A   1      38.287  33.139  33.053  1.00  0.00     0.074 A 
ATOM     53  C   UNL A   1      42.798  31.098  37.001  1.00  0.00     0.029 A 
ATOM     54  N   UNL A   1      41.411  31.373  35.287  1.00  0.00    -0.354 N 
ATOM     55  N   UNL A   1      39.254  32.659  33.797  1.00  0.00    -0.248 NA
ATOM     56  C   UNL A   1      37.566  34.271  33.657  1.00  0.00     0.031 C 
ATOM     57  C   UNL A   1      41.926  32.150  37.304  1.00  0.00     0.029 A 
ATOM     58  C   UNL A   1      41.082  32.338  36.222  1.00  0.00     0.049 A 
ATOM     59  H   UNL A   1      40.961  31.250  34.419  1.00  0.00     0.167 HD
ATOM     60  C   UNL A   1      39.262  33.434  34.952  1.00  0.00     0.074 A 
ATOM     61  C   UNL A   1      38.221  34.429  34.799  1.00  0.00     0.031 C 
ATOM     62  C   UNL A   1      40.050  33.324  36.050  1.00  0.00     0.031 A 
BRANCH  49  63
ATOM     63  C   UNL A   1      44.240  28.818  35.654  1.00  0.00    -0.014 A 
ATOM     64  C   UNL A   1      45.569  29.253  35.520  1.00  0.00     0.010 A 
ATOM     65  C   UNL A   1      43.962  27.703  36.468  1.00  0.00     0.010 A 
ATOM     66  C   UNL A   1      46.601  28.572  36.175  1.00  0.00     0.020 A 
ATOM     67  C   UNL A   1      44.988  27.034  37.140  1.00  0.00     0.020 A 
ATOM     68  C   UNL A   1      46.304  27.467  36.980  1.00  0.00     0.054 A 
BRANCH  68  69
ATOM     69  S   UNL A   1      47.652  26.629  37.859  1.00  0.00     0.124 S 
ATOM     70  O   UNL A   1      48.381  25.998  36.762  1.00  0.00    -0.237 OA
ATOM     71  O   UNL A   1      48.343  27.733  38.520  1.00  0.00    -0.237 OA
ATOM     72  O   UNL A   1      46.958  25.708  38.757  1.00  0.00    -0.744 OA
ENDBRANCH  68  69
ENDBRANCH  49  63
BRANCH  50  73
ATOM     73  C   UNL A   1      36.676  33.367  31.029  1.00  0.00    -0.014 A 
ATOM     74  C   UNL A   1      36.828  33.922  29.745  1.00  0.00     0.010 A 
ATOM     75  C   UNL A   1      35.435  33.487  31.681  1.00  0.00     0.010 A 
ATOM     76  C   UNL A   1      35.766  34.594  29.134  1.00  0.00     0.020 A 
ATOM     77  C   UNL A   1      34.363  34.130  31.061  1.00  0.00     0.020 A 
ATOM     78  C   UNL A   1      34.539  34.694  29.796  1.00  0.00     0.054 A 
BRANCH  78  79
ATOM     79  S   UNL A   1      33.149  35.520  28.973  1.00  0.00     0.124 S 
ATOM     80  O   UNL A   1      33.822  36.597  28.253  1.00  0.00    -0.237 OA
ATOM     81  O   UNL A   1      32.586  34.457  28.145  1.00  0.00    -0.237 OA
ATOM     82  O   UNL A   1      32.303  35.942  30.088  1.00  0.00    -0.744 OA
ENDBRANCH  78  79
ENDBRANCH  50  73
BRANCH  62  83
ATOM     83  C   UNL A   1      39.843  34.329  37.149  1.00  0.00    -0.014 A 
ATOM     84  C   UNL A   1      39.076  34.016  38.284  1.00  0.00     0.010 A 
ATOM     85  C   UNL A   1      40.449  35.594  37.054  1.00  0.00     0.010 A 
ATOM     86  C   UNL A   1      38.883  34.968  39.288  1.00  0.00     0.020 A 
ATOM     87  C   UNL A   1      40.276  36.542  38.066  1.00  0.00     0.020 A 
ATOM     88  C   UNL A   1      39.477  36.229  39.168  1.00  0.00     0.054 A 
BRANCH  88  89
ATOM     89  S   UNL A   1      39.226  37.449  40.487  1.00  0.00     0.124 S 
ATOM     90  O   UNL A   1      38.779  36.609  41.594  1.00  0.00    -0.237 OA
ATOM     91  O   UNL A   1      40.554  38.039  40.642  1.00  0.00    -0.237 OA
ATOM     92  O   UNL A   1      38.214  38.348  39.937  1.00  0.00    -0.744 OA
ENDBRANCH  88  89
ENDBRANCH  62  83
ENDBRANCH  36  37
ENDBRANCH  29  31
ENDBRANCH  28  29
ENDBRANCH  27  28
ENDBRANCH  26  27
ENDBRANCH  25  26
ENDBRANCH   1  25
TORSDOF 22
ENDMDL
MODEL 2
REMARK VINA RESULT:     -10.2      6.701     12.241
REMARK SMILES Cc1cc(N2CCOC[C@H]2C(=O)OCCOCCOCCOC(=O)c2ccc(-c3c4nc(c(-c5ccc(S(=O)(=O)[O-])cc5)c5ccc([nH]5)c(-c5ccc(S(=O)(=O)[O-])cc5)c5nc(c(-c6ccc(S(=O)(=O)[O-])cc6)c6ccc3[nH]6)C=C5)C=C4)cc2)ncc1[N+](=O)[O-]
REMARK SMILES IDX 18 1 17 2 16 3 15 4 14 5 13 6 11 7 12 8 10 9 5 10 6 11 7 12
REMARK SMILES IDX 9 13 8 14 4 15 1 16 2 17 3 18 87 19 86 20 85 21 88 22 89 23
REMARK SMILES IDX 90 24 19 25 20 26 21 27 22 28 23 29 24 30 25 31 26 32 84 33
REMARK SMILES IDX 27 34 83 35 28 36 29 37 30 38 77 39 31 40 82 41 76 42 78 43
REMARK SMILES IDX 32 44 81 45 75 46 74 47 33 49 63 50 44 51 62 52 45 53 48 54
REMARK SMILES IDX 61 55 79 56 46 57 47 58 60 60 80 61 49 62 34 63 35 64 43 65
REMARK SMILES IDX 36 66 42 67 37 68 38 69 39 70 40 71 41 72 64 73 65 74 73 75
REMARK SMILES IDX 66 76 72 77 67 78 68 79 69 80 70 81 71 82 50 83 51 84 59 85
REMARK SMILES IDX 52 86 58 87 53 88 54 89 55 90 56 91 57 92
REMARK H PARENT 78 48 48 59
REMARK Flexibility Score: inf
ROOT
ATOM      1  C   UNL A   1      33.948  31.273  27.799  1.00  0.00     0.188 C 
ENDROOT
BRANCH   1   2
ATOM      2  C   UNL A   1      32.825  30.942  26.800  1.00  0.00     0.188 C 
BRANCH   2   3
ATOM      3  O   UNL A   1      31.854  29.985  27.212  1.00  0.00    -0.376 OA
BRANCH   3   4
ATOM      4  C   UNL A   1      32.261  28.623  27.275  1.00  0.00     0.202 C 
BRANCH   4   5
ATOM      5  C   UNL A   1      31.504  27.699  26.324  1.00  0.00     0.261 C 
BRANCH   5   6
ATOM      6  O   UNL A   1      31.022  28.436  25.186  1.00  0.00    -0.462 OA
BRANCH   6   7
ATOM      7  C   UNL A   1      31.688  28.275  24.014  1.00  0.00     0.331 C 
ATOM      8  O   UNL A   1      31.612  29.054  23.068  1.00  0.00    -0.250 OA
BRANCH   7   9
ATOM      9  C   UNL A   1      32.517  26.988  23.946  1.00  0.00     0.220 C 
ATOM     10  N   UNL A   1      31.823  25.818  23.329  1.00  0.00    -0.339 N 
ATOM     11  C   UNL A   1      31.812  25.787  21.853  1.00  0.00     0.147 C 
ATOM     12  C   UNL A   1      33.183  26.137  21.267  1.00  0.00     0.181 C 
ATOM     13  C   UNL A   1      33.824  27.325  23.202  1.00  0.00     0.197 C 
ATOM     14  O   UNL A   1      33.653  27.396  21.775  1.00  0.00    -0.377 OA
BRANCH  10  15
ATOM     15  C   UNL A   1      32.035  24.585  23.944  1.00  0.00     0.130 A 
ATOM     16  C   UNL A   1      30.307  22.454  26.579  1.00  0.00     0.052 C 
ATOM     17  C   UNL A   1      31.302  22.888  25.544  1.00  0.00     0.032 A 
ATOM     18  C   UNL A   1      31.206  24.184  24.999  1.00  0.00     0.057 A 
ATOM     19  C   UNL A   1      32.312  22.067  25.044  1.00  0.00     0.290 A 
ATOM     20  C   UNL A   1      33.116  22.530  24.016  1.00  0.00     0.199 A 
ATOM     21  N   UNL A   1      32.984  23.759  23.455  1.00  0.00    -0.232 NA
BRANCH  19  22
ATOM     22  N   UNL A   1      32.567  20.731  25.542  1.00  0.00     0.064 N 
ATOM     23  O   UNL A   1      33.369  20.625  26.480  1.00  0.00    -0.258 OA
ATOM     24  O   UNL A   1      31.939  19.799  25.027  1.00  0.00    -0.258 OA
ENDBRANCH  19  22
ENDBRANCH  10  15
ENDBRANCH   7   9
ENDBRANCH   6   7
ENDBRANCH   5   6
ENDBRANCH   4   5
ENDBRANCH   3   4
ENDBRANCH   2   3
ENDBRANCH   1   2
BRANCH   1  25
ATOM     25  O   UNL A   1      35.095  31.944  27.278  1.00  0.00    -0.376 OA
BRANCH  25  26
ATOM     26  C   UNL A   1      35.874  32.692  28.208  1.00  0.00     0.202 C 
BRANCH  26  27
ATOM     27  C   UNL A   1      36.097  31.961  29.527  1.00  0.00     0.261 C 
BRANCH  27  28
ATOM     28  O   UNL A   1      37.295  31.171  29.434  1.00  0.00    -0.460 OA
BRANCH  28  29
ATOM     29  C   UNL A   1      37.079  29.845  29.532  1.00  0.00     0.338 C 
ATOM     30  O   UNL A   1      36.093  29.297  30.006  1.00  0.00    -0.246 OA
BRANCH  29  31
ATOM     31  C   UNL A   1      38.212  29.095  28.963  1.00  0.00     0.060 A 
ATOM     32  C   UNL A   1      38.837  28.085  29.696  1.00  0.00     0.016 A 
ATOM     33  C   UNL A   1      38.782  29.558  27.778  1.00  0.00     0.016 A 
ATOM     34  C   UNL A   1      40.114  27.649  29.324  1.00  0.00     0.010 A 
ATOM     35  C   UNL A   1      40.029  29.076  27.377  1.00  0.00     0.010 A 
ATOM     36  C   UNL A   1      40.751  28.189  28.197  1.00  0.00    -0.014 A 
BRANCH  36  37
ATOM     37  C   UNL A   1      42.219  28.019  27.976  1.00  0.00     0.031 A 
ATOM     38  C   UNL A   1      43.153  29.126  28.421  1.00  0.00     0.074 A 
ATOM     39  C   UNL A   1      42.753  26.902  27.446  1.00  0.00     0.049 A 
ATOM     40  N   UNL A   1      44.401  29.342  28.091  1.00  0.00    -0.248 NA
ATOM     41  C   UNL A   1      42.600  30.130  29.349  1.00  0.00     0.031 C 
ATOM     42  C   UNL A   1      42.019  25.693  27.074  1.00  0.00     0.029 A 
ATOM     43  N   UNL A   1      44.060  26.604  27.141  1.00  0.00    -0.354 N 
ATOM     44  C   UNL A   1      44.746  30.554  28.684  1.00  0.00     0.074 A 
ATOM     45  C   UNL A   1      43.589  31.010  29.422  1.00  0.00     0.031 C 
ATOM     46  C   UNL A   1      42.890  24.771  26.631  1.00  0.00     0.029 A 
ATOM     47  C   UNL A   1      44.227  25.356  26.590  1.00  0.00     0.049 A 
ATOM     48  H   UNL A   1      44.806  27.226  27.301  1.00  0.00     0.167 HD
ATOM     49  C   UNL A   1      45.913  31.235  28.603  1.00  0.00     0.031 A 
ATOM     50  C   UNL A   1      45.320  24.766  26.063  1.00  0.00     0.031 A 
ATOM     51  C   UNL A   1      47.093  30.738  27.948  1.00  0.00     0.049 A 
ATOM     52  C   UNL A   1      46.611  25.537  25.979  1.00  0.00     0.074 A 
ATOM     53  C   UNL A   1      48.320  31.361  27.790  1.00  0.00     0.029 A 
ATOM     54  N   UNL A   1      47.207  29.480  27.380  1.00  0.00    -0.354 N 
ATOM     55  N   UNL A   1      46.879  26.749  26.404  1.00  0.00    -0.248 NA
ATOM     56  C   UNL A   1      47.739  24.868  25.312  1.00  0.00     0.031 C 
ATOM     57  C   UNL A   1      49.171  30.484  27.107  1.00  0.00     0.029 A 
ATOM     58  C   UNL A   1      48.484  29.304  26.878  1.00  0.00     0.049 A 
ATOM     59  H   UNL A   1      46.486  28.811  27.341  1.00  0.00     0.167 HD
ATOM     60  C   UNL A   1      48.207  26.983  26.062  1.00  0.00     0.074 A 
ATOM     61  C   UNL A   1      48.696  25.781  25.419  1.00  0.00     0.031 C 
ATOM     62  C   UNL A   1      48.954  28.099  26.250  1.00  0.00     0.031 A 
BRANCH  49  63
ATOM     63  C   UNL A   1      45.960  32.623  29.180  1.00  0.00    -0.014 A 
ATOM     64  C   UNL A   1      45.557  33.751  28.445  1.00  0.00     0.010 A 
ATOM     65  C   UNL A   1      46.361  32.784  30.520  1.00  0.00     0.010 A 
ATOM     66  C   UNL A   1      45.574  35.019  29.038  1.00  0.00     0.020 A 
ATOM     67  C   UNL A   1      46.359  34.046  31.121  1.00  0.00     0.020 A 
ATOM     68  C   UNL A   1      45.976  35.158  30.371  1.00  0.00     0.054 A 
BRANCH  68  69
ATOM     69  S   UNL A   1      45.943  36.803  31.135  1.00  0.00     0.124 S 
ATOM     70  O   UNL A   1      45.675  36.480  32.534  1.00  0.00    -0.237 OA
ATOM     71  O   UNL A   1      47.282  37.317  30.854  1.00  0.00    -0.237 OA
ATOM     72  O   UNL A   1      44.859  37.488  30.435  1.00  0.00    -0.744 OA
ENDBRANCH  68  69
ENDBRANCH  49  63
BRANCH  50  73
ATOM     73  C   UNL A   1      45.229  23.392  25.499  1.00  0.00    -0.014 A 
ATOM     74  C   UNL A   1      44.896  23.191  24.147  1.00  0.00     0.010 A 
ATOM     75  C   UNL A   1      45.460  22.271  26.318  1.00  0.00     0.010 A 
ATOM     76  C   UNL A   1      44.781  21.898  23.630  1.00  0.00     0.020 A 
ATOM     77  C   UNL A   1      45.378  20.979  25.798  1.00  0.00     0.020 A 
ATOM     78  C   UNL A   1      45.023  20.799  24.459  1.00  0.00     0.054 A 
BRANCH  78  79
ATOM     79  S   UNL A   1      44.926  19.125  23.767  1.00  0.00     0.124 S 
ATOM     80  O   UNL A   1      44.135  18.427  24.775  1.00  0.00    -0.237 OA
ATOM     81  O   UNL A   1      44.266  19.344  22.483  1.00  0.00    -0.237 OA
ATOM     82  O   UNL A   1      46.327  18.719  23.675  1.00  0.00    -0.744 OA
ENDBRANCH  78  79
ENDBRANCH  50  73
BRANCH  62  83
ATOM     83  C   UNL A   1      50.385  28.054  25.792  1.00  0.00    -0.014 A 
ATOM     84  C   UNL A   1      51.437  27.890  26.710  1.00  0.00     0.010 A 
ATOM     85  C   UNL A   1      50.677  28.151  24.420  1.00  0.00     0.010 A 
ATOM     86  C   UNL A   1      52.762  27.865  26.267  1.00  0.00     0.020 A 
ATOM     87  C   UNL A   1      52.000  28.106  23.971  1.00  0.00     0.020 A 
ATOM     88  C   UNL A   1      53.036  27.983  24.900  1.00  0.00     0.054 A 
BRANCH  88  89
ATOM     89  S   UNL A   1      54.760  27.937  24.341  1.00  0.00     0.124 S 
ATOM     90  O   UNL A   1      54.755  26.793  23.436  1.00  0.00    -0.237 OA
ATOM     91  O   UNL A   1      54.931  29.241  23.704  1.00  0.00    -0.237 OA
ATOM     92  O   UNL A   1      55.518  27.753  25.577  1.00  0.00    -0.744 OA
ENDBRANCH  88  89
ENDBRANCH  62  83
ENDBRANCH  36  37
ENDBRANCH  29  31
ENDBRANCH  28  29
ENDBRANCH  27  28
ENDBRANCH  26  27
ENDBRANCH  25  26
ENDBRANCH   1  25
TORSDOF 22
ENDMDL
MODEL 3
REMARK VINA RESULT:      -9.9      1.516      8.329
REMARK SMILES Cc1cc(N2CCOC[C@H]2C(=O)OCCOCCOCCOC(=O)c2ccc(-c3c4nc(c(-c5ccc(S(=O)(=O)[O-])cc5)c5ccc([nH]5)c(-c5ccc(S(=O)(=O)[O-])cc5)c5nc(c(-c6ccc(S(=O)(=O)[O-])cc6)c6ccc3[nH]6)C=C5)C=C4)cc2)ncc1[N+](=O)[O-]
REMARK SMILES IDX 18 1 17 2 16 3 15 4 14 5 13 6 11 7 12 8 10 9 5 10 6 11 7 12
REMARK SMILES IDX 9 13 8 14 4 15 1 16 2 17 3 18 87 19 86 20 85 21 88 22 89 23
REMARK SMILES IDX 90 24 19 25 20 26 21 27 22 28 23 29 24 30 25 31 26 32 84 33
REMARK SMILES IDX 27 34 83 35 28 36 29 37 30 38 77 39 31 40 82 41 76 42 78 43
REMARK SMILES IDX 32 44 81 45 75 46 74 47 33 49 63 50 44 51 62 52 45 53 48 54
REMARK SMILES IDX 61 55 79 56 46 57 47 58 60 60 80 61 49 62 34 63 35 64 43 65
REMARK SMILES IDX 36 66 42 67 37 68 38 69 39 70 40 71 41 72 64 73 65 74 73 75
REMARK SMILES IDX 66 76 72 77 67 78 68 79 69 80 70 81 71 82 50 83 51 84 59 85
REMARK SMILES IDX 52 86 58 87 53 88 54 89 55 90 56 91 57 92
REMARK H PARENT 78 48 48 59
REMARK Flexibility Score: inf
ROOT
ATOM      1  C   UNL A   1      40.616  22.274  27.012  1.00  0.00     0.188 C 
ENDROOT
BRANCH   1   2
ATOM      2  C   UNL A   1      39.484  21.750  26.110  1.00  0.00     0.188 C 
BRANCH   2   3
ATOM      3  O   UNL A   1      38.306  22.545  26.023  1.00  0.00    -0.376 OA
BRANCH   3   4
ATOM      4  C   UNL A   1      37.397  22.256  24.966  1.00  0.00     0.202 C 
BRANCH   4   5
ATOM      5  C   UNL A   1      36.417  21.126  25.273  1.00  0.00     0.261 C 
BRANCH   5   6
ATOM      6  O   UNL A   1      35.084  21.496  24.876  1.00  0.00    -0.462 OA
BRANCH   6   7
ATOM      7  C   UNL A   1      34.300  22.091  25.810  1.00  0.00     0.331 C 
ATOM      8  O   UNL A   1      34.493  22.013  27.020  1.00  0.00    -0.250 OA
BRANCH   7   9
ATOM      9  C   UNL A   1      33.098  22.838  25.222  1.00  0.00     0.220 C 
ATOM     10  N   UNL A   1      33.356  23.539  23.929  1.00  0.00    -0.339 N 
ATOM     11  C   UNL A   1      33.310  22.689  22.722  1.00  0.00     0.147 C 
ATOM     12  C   UNL A   1      32.107  21.740  22.741  1.00  0.00     0.181 C 
ATOM     13  C   UNL A   1      31.947  21.821  25.093  1.00  0.00     0.197 C 
ATOM     14  O   UNL A   1      32.087  20.961  23.947  1.00  0.00    -0.377 OA
BRANCH  10  15
ATOM     15  C   UNL A   1      32.776  24.798  23.787  1.00  0.00     0.130 A 
ATOM     16  C   UNL A   1      33.891  28.270  22.705  1.00  0.00     0.052 C 
ATOM     17  C   UNL A   1      33.007  27.153  23.175  1.00  0.00     0.032 A 
ATOM     18  C   UNL A   1      33.580  25.899  23.466  1.00  0.00     0.057 A 
ATOM     19  C   UNL A   1      31.623  27.261  23.307  1.00  0.00     0.290 A 
ATOM     20  C   UNL A   1      30.886  26.141  23.652  1.00  0.00     0.199 A 
ATOM     21  N   UNL A   1      31.435  24.920  23.877  1.00  0.00    -0.232 NA
BRANCH  19  22
ATOM     22  N   UNL A   1      30.900  28.498  23.094  1.00  0.00     0.064 N 
ATOM     23  O   UNL A   1      30.944  29.338  24.003  1.00  0.00    -0.258 OA
ATOM     24  O   UNL A   1      30.326  28.646  22.009  1.00  0.00    -0.258 OA
ENDBRANCH  19  22
ENDBRANCH  10  15
ENDBRANCH   7   9
ENDBRANCH   6   7
ENDBRANCH   5   6
ENDBRANCH   4   5
ENDBRANCH   3   4
ENDBRANCH   2   3
ENDBRANCH   1   2
BRANCH   1  25
ATOM     25  O   UNL A   1      41.840  21.542  26.999  1.00  0.00    -0.376 OA
BRANCH  25  26
ATOM     26  C   UNL A   1      43.034  22.289  27.222  1.00  0.00     0.202 C 
BRANCH  26  27
ATOM     27  C   UNL A   1      42.802  23.558  28.033  1.00  0.00     0.261 C 
BRANCH  27  28
ATOM     28  O   UNL A   1      43.346  24.682  27.319  1.00  0.00    -0.460 OA
BRANCH  28  29
ATOM     29  C   UNL A   1      42.438  25.348  26.580  1.00  0.00     0.338 C 
ATOM     30  O   UNL A   1      42.145  25.132  25.412  1.00  0.00    -0.246 OA
BRANCH  29  31
ATOM     31  C   UNL A   1      41.796  26.404  27.381  1.00  0.00     0.060 A 
ATOM     32  C   UNL A   1      42.360  27.678  27.462  1.00  0.00     0.016 A 
ATOM     33  C   UNL A   1      40.746  26.046  28.225  1.00  0.00     0.016 A 
ATOM     34  C   UNL A   1      41.976  28.540  28.495  1.00  0.00     0.010 A 
ATOM     35  C   UNL A   1      40.323  26.934  29.217  1.00  0.00     0.010 A 
ATOM     36  C   UNL A   1      41.000  28.150  29.424  1.00  0.00    -0.014 A 
BRANCH  36  37
ATOM     37  C   UNL A   1      40.823  28.874  30.719  1.00  0.00     0.031 A 
ATOM     38  C   UNL A   1      39.666  29.843  30.858  1.00  0.00     0.074 A 
ATOM     39  C   UNL A   1      41.617  28.665  31.786  1.00  0.00     0.049 A 
ATOM     40  N   UNL A   1      39.471  30.781  31.749  1.00  0.00    -0.248 NA
ATOM     41  C   UNL A   1      38.596  29.749  29.847  1.00  0.00     0.031 C 
ATOM     42  C   UNL A   1      42.700  27.686  31.870  1.00  0.00     0.029 A 
ATOM     43  N   UNL A   1      41.619  29.269  33.021  1.00  0.00    -0.354 N 
ATOM     44  C   UNL A   1      38.318  31.451  31.348  1.00  0.00     0.074 A 
ATOM     45  C   UNL A   1      37.838  30.792  30.154  1.00  0.00     0.031 C 
ATOM     46  C   UNL A   1      43.232  27.727  33.104  1.00  0.00     0.029 A 
ATOM     47  C   UNL A   1      42.600  28.802  33.863  1.00  0.00     0.049 A 
ATOM     48  H   UNL A   1      40.978  29.970  33.278  1.00  0.00     0.167 HD
ATOM     49  C   UNL A   1      37.726  32.531  31.912  1.00  0.00     0.031 A 
ATOM     50  C   UNL A   1      42.984  29.224  35.085  1.00  0.00     0.031 A 
ATOM     51  C   UNL A   1      38.149  33.128  33.149  1.00  0.00     0.049 A 
ATOM     52  C   UNL A   1      42.317  30.427  35.698  1.00  0.00     0.074 A 
ATOM     53  C   UNL A   1      37.631  34.238  33.794  1.00  0.00     0.029 A 
ATOM     54  N   UNL A   1      39.165  32.637  33.953  1.00  0.00    -0.354 N 
ATOM     55  N   UNL A   1      41.328  31.151  35.231  1.00  0.00    -0.248 NA
ATOM     56  C   UNL A   1      42.843  30.888  36.992  1.00  0.00     0.031 C 
ATOM     57  C   UNL A   1      38.349  34.431  34.980  1.00  0.00     0.029 A 
ATOM     58  C   UNL A   1      39.285  33.416  35.090  1.00  0.00     0.049 A 
ATOM     59  H   UNL A   1      39.719  31.850  33.745  1.00  0.00     0.167 HD
ATOM     60  C   UNL A   1      41.110  32.148  36.178  1.00  0.00     0.074 A 
ATOM     61  C   UNL A   1      42.052  31.919  37.254  1.00  0.00     0.031 C 
ATOM     62  C   UNL A   1      40.220  33.170  36.153  1.00  0.00     0.031 A 
BRANCH  49  63
ATOM     63  C   UNL A   1      36.595  33.183  31.166  1.00  0.00    -0.014 A 
ATOM     64  C   UNL A   1      35.267  33.122  31.619  1.00  0.00     0.010 A 
ATOM     65  C   UNL A   1      36.892  33.932  30.010  1.00  0.00     0.010 A 
ATOM     66  C   UNL A   1      34.253  33.782  30.916  1.00  0.00     0.020 A 
ATOM     67  C   UNL A   1      35.886  34.611  29.320  1.00  0.00     0.020 A 
ATOM     68  C   UNL A   1      34.569  34.522  29.771  1.00  0.00     0.054 A 
BRANCH  68  69
ATOM     69  S   UNL A   1      33.247  35.412  28.904  1.00  0.00     0.124 S 
ATOM     70  O   UNL A   1      34.004  36.377  28.111  1.00  0.00    -0.237 OA
ATOM     71  O   UNL A   1      32.588  34.353  28.143  1.00  0.00    -0.237 OA
ATOM     72  O   UNL A   1      32.449  35.984  29.985  1.00  0.00    -0.744 OA
ENDBRANCH  68  69
ENDBRANCH  49  63
BRANCH  50  73
ATOM     73  C   UNL A   1      44.111  28.552  35.788  1.00  0.00    -0.014 A 
ATOM     74  C   UNL A   1      43.892  27.389  36.549  1.00  0.00     0.010 A 
ATOM     75  C   UNL A   1      45.412  29.083  35.713  1.00  0.00     0.010 A 
ATOM     76  C   UNL A   1      44.947  26.780  37.232  1.00  0.00     0.020 A 
ATOM     77  C   UNL A   1      46.475  28.460  36.369  1.00  0.00     0.020 A 
ATOM     78  C   UNL A   1      46.234  27.320  37.139  1.00  0.00     0.054 A 
BRANCH  78  79
ATOM     79  S   UNL A   1      47.609  26.493  37.984  1.00  0.00     0.124 S 
ATOM     80  O   UNL A   1      48.088  25.575  36.955  1.00  0.00    -0.237 OA
ATOM     81  O   UNL A   1      48.501  27.602  38.311  1.00  0.00    -0.237 OA
ATOM     82  O   UNL A   1      46.964  25.865  39.136  1.00  0.00    -0.744 OA
ENDBRANCH  78  79
ENDBRANCH  50  73
BRANCH  62  83
ATOM     83  C   UNL A   1      40.197  34.090  37.342  1.00  0.00    -0.014 A 
ATOM     84  C   UNL A   1      40.954  35.275  37.358  1.00  0.00     0.010 A 
ATOM     85  C   UNL A   1      39.383  33.777  38.445  1.00  0.00     0.010 A 
ATOM     86  C   UNL A   1      40.930  36.110  38.477  1.00  0.00     0.020 A 
ATOM     87  C   UNL A   1      39.341  34.621  39.558  1.00  0.00     0.020 A 
ATOM     88  C   UNL A   1      40.131  35.773  39.575  1.00  0.00     0.054 A 
BRANCH  88  89
ATOM     89  S   UNL A   1      40.103  36.875  41.015  1.00  0.00     0.124 S 
ATOM     90  O   UNL A   1      41.072  36.239  41.902  1.00  0.00    -0.237 OA
ATOM     91  O   UNL A   1      40.515  38.158  40.450  1.00  0.00    -0.237 OA
ATOM     92  O   UNL A   1      38.713  36.819  41.465  1.00  0.00    -0.744 OA
ENDBRANCH  88  89
ENDBRANCH  62  83
ENDBRANCH  36  37
ENDBRANCH  29  31
ENDBRANCH  28  29
ENDBRANCH  27  28
ENDBRANCH  26  27
ENDBRANCH  25  26
ENDBRANCH   1  25
TORSDOF 22
ENDMDL
