MODEL 1
REMARK VINA RESULT:      -9.6      0.000      0.000
REMARK SMILES CC1(C)S[C@@H](c2ccsc2)[NH2+][C@@H]1C(=O)OCCOCCOCCOC(=O)c1ccc(-c2c3nc(c(-c4ccc(S(=O)(=O)[O-])cc4)c4ccc([nH]4)c(-c4ccc(S(=O)(=O)[O-])cc4)c4nc(c(-c5ccc(S(=O)(=O)[O-])cc5)c5ccc2[nH]5)C=C4)C=C3)cc1
REMARK SMILES IDX 20 1 19 2 18 3 17 4 16 5 15 6 13 7 14 8 12 9 1 10 2 11 3 12
REMARK SMILES IDX 4 13 5 14 11 15 6 18 7 19 10 20 8 21 9 22 21 23 22 24 23 25
REMARK SMILES IDX 24 26 25 27 26 28 27 29 28 30 86 31 29 32 85 33 30 34 31 35
REMARK SMILES IDX 32 36 79 37 33 38 84 39 78 40 80 41 34 42 83 43 77 44 76 45
REMARK SMILES IDX 35 47 65 48 46 49 64 50 47 51 50 52 63 53 81 54 48 55 49 56
REMARK SMILES IDX 62 58 82 59 51 60 36 61 37 62 45 63 38 64 44 65 39 66 40 67
REMARK SMILES IDX 41 68 42 69 43 70 66 71 67 72 75 73 68 74 74 75 69 76 70 77
REMARK SMILES IDX 71 78 72 79 73 80 52 81 53 82 61 83 54 84 60 85 55 86 56 87
REMARK SMILES IDX 57 88 58 89 59 90
REMARK H PARENT 11 16 11 17 80 46 50 57
REMARK Flexibility Score: inf
ROOT
ATOM      1  C   UNL A   1      41.408  21.130  26.892  1.00  0.00     0.188 C 
ENDROOT
BRANCH   1   2
ATOM      2  C   UNL A   1      39.956  21.658  26.791  1.00  0.00     0.188 C 
BRANCH   2   3
ATOM      3  O   UNL A   1      39.385  21.494  25.506  1.00  0.00    -0.376 OA
BRANCH   3   4
ATOM      4  C   UNL A   1      37.967  21.452  25.416  1.00  0.00     0.202 C 
BRANCH   4   5
ATOM      5  C   UNL A   1      37.220  22.726  24.995  1.00  0.00     0.261 C 
BRANCH   5   6
ATOM      6  O   UNL A   1      36.255  23.191  25.948  1.00  0.00    -0.459 OA
BRANCH   6   7
ATOM      7  C   UNL A   1      35.131  22.446  26.153  1.00  0.00     0.366 C 
ATOM      8  O   UNL A   1      34.655  22.207  27.250  1.00  0.00    -0.245 OA
BRANCH   7   9
ATOM      9  C   UNL A   1      34.599  21.968  24.774  1.00  0.00     0.310 C 
ATOM     10  C   UNL A   1      32.975  22.230  22.832  1.00  0.00     0.030 C 
ATOM     11  C   UNL A   1      33.174  22.383  24.357  1.00  0.00     0.079 C 
ATOM     12  C   UNL A   1      32.801  23.819  24.730  1.00  0.00     0.030 C 
ATOM     13  S   UNL A   1      32.146  21.112  25.164  1.00  0.00    -0.081 SA
ATOM     14  C   UNL A   1      33.542  19.992  25.463  1.00  0.00     0.275 C 
ATOM     15  N   UNL A   1      34.703  20.491  24.716  1.00  0.00    -0.319 N 
ATOM     16  H   UNL A   1      34.670  20.167  23.749  1.00  0.00     0.348 HD
ATOM     17  H   UNL A   1      35.581  20.155  25.111  1.00  0.00     0.348 HD
BRANCH  14  18
ATOM     18  C   UNL A   1      33.310  18.576  25.027  1.00  0.00     0.031 A 
ATOM     19  C   UNL A   1      33.727  17.985  23.782  1.00  0.00     0.022 A 
ATOM     20  C   UNL A   1      32.702  17.620  25.826  1.00  0.00     0.075 A 
ATOM     21  C   UNL A   1      33.402  16.651  23.686  1.00  0.00     0.065 A 
ATOM     22  S   UNL A   1      32.611  16.083  25.087  1.00  0.00    -0.152 S 
ENDBRANCH  14  18
ENDBRANCH   7   9
ENDBRANCH   6   7
ENDBRANCH   5   6
ENDBRANCH   4   5
ENDBRANCH   3   4
ENDBRANCH   2   3
ENDBRANCH   1   2
BRANCH   1  23
ATOM     23  O   UNL A   1      42.272  21.219  25.770  1.00  0.00    -0.376 OA
BRANCH  23  24
ATOM     24  C   UNL A   1      42.673  22.506  25.323  1.00  0.00     0.202 C 
BRANCH  24  25
ATOM     25  C   UNL A   1      42.587  23.711  26.280  1.00  0.00     0.261 C 
BRANCH  25  26
ATOM     26  O   UNL A   1      41.480  24.610  26.076  1.00  0.00    -0.460 OA
BRANCH  26  27
ATOM     27  C   UNL A   1      41.794  25.932  26.011  1.00  0.00     0.338 C 
ATOM     28  O   UNL A   1      41.918  26.606  25.005  1.00  0.00    -0.246 OA
BRANCH  27  29
ATOM     29  C   UNL A   1      41.782  26.522  27.370  1.00  0.00     0.060 A 
ATOM     30  C   UNL A   1      40.816  26.082  28.289  1.00  0.00     0.016 A 
ATOM     31  C   UNL A   1      42.663  27.546  27.715  1.00  0.00     0.016 A 
ATOM     32  C   UNL A   1      40.717  26.676  29.550  1.00  0.00     0.010 A 
ATOM     33  C   UNL A   1      42.543  28.160  28.968  1.00  0.00     0.010 A 
ATOM     34  C   UNL A   1      41.553  27.749  29.881  1.00  0.00    -0.014 A 
BRANCH  34  35
ATOM     35  C   UNL A   1      41.285  28.561  31.096  1.00  0.00     0.031 A 
ATOM     36  C   UNL A   1      40.164  29.568  31.055  1.00  0.00     0.074 A 
ATOM     37  C   UNL A   1      42.021  28.424  32.213  1.00  0.00     0.049 A 
ATOM     38  N   UNL A   1      39.809  30.450  31.951  1.00  0.00    -0.248 NA
ATOM     39  C   UNL A   1      39.339  29.579  29.835  1.00  0.00     0.031 C 
ATOM     40  C   UNL A   1      43.097  27.453  32.406  1.00  0.00     0.029 A 
ATOM     41  N   UNL A   1      41.982  29.122  33.395  1.00  0.00    -0.354 N 
ATOM     42  C   UNL A   1      38.731  31.134  31.400  1.00  0.00     0.074 A 
ATOM     43  C   UNL A   1      38.505  30.578  30.084  1.00  0.00     0.031 C 
ATOM     44  C   UNL A   1      43.630  27.631  33.628  1.00  0.00     0.029 A 
ATOM     45  C   UNL A   1      42.962  28.753  34.287  1.00  0.00     0.049 A 
ATOM     46  H   UNL A   1      41.315  29.820  33.586  1.00  0.00     0.167 HD
ATOM     47  C   UNL A   1      37.996  32.137  31.938  1.00  0.00     0.031 A 
ATOM     48  C   UNL A   1      43.301  29.279  35.482  1.00  0.00     0.031 A 
ATOM     49  C   UNL A   1      38.233  32.705  33.239  1.00  0.00     0.049 A 
ATOM     50  C   UNL A   1      42.524  30.454  36.025  1.00  0.00     0.074 A 
ATOM     51  C   UNL A   1      37.533  33.714  33.876  1.00  0.00     0.029 A 
ATOM     52  N   UNL A   1      39.253  32.324  34.097  1.00  0.00    -0.354 N 
ATOM     53  N   UNL A   1      41.495  31.077  35.502  1.00  0.00    -0.248 NA
ATOM     54  C   UNL A   1      42.955  30.993  37.324  1.00  0.00     0.031 C 
ATOM     55  C   UNL A   1      38.170  33.987  35.092  1.00  0.00     0.029 A 
ATOM     56  C   UNL A   1      39.221  33.098  35.244  1.00  0.00     0.049 A 
ATOM     57  H   UNL A   1      39.906  31.608  33.916  1.00  0.00     0.167 HD
ATOM     58  C   UNL A   1      41.135  32.057  36.424  1.00  0.00     0.074 A 
ATOM     59  C   UNL A   1      42.049  31.939  37.540  1.00  0.00     0.031 C 
ATOM     60  C   UNL A   1      40.134  32.970  36.353  1.00  0.00     0.031 A 
BRANCH  47  61
ATOM     61  C   UNL A   1      36.888  32.717  31.098  1.00  0.00    -0.014 A 
ATOM     62  C   UNL A   1      35.545  32.350  31.303  1.00  0.00     0.010 A 
ATOM     63  C   UNL A   1      37.192  33.673  30.112  1.00  0.00     0.010 A 
ATOM     64  C   UNL A   1      34.533  32.898  30.512  1.00  0.00     0.020 A 
ATOM     65  C   UNL A   1      36.179  34.247  29.339  1.00  0.00     0.020 A 
ATOM     66  C   UNL A   1      34.857  33.843  29.532  1.00  0.00     0.054 A 
BRANCH  66  67
ATOM     67  S   UNL A   1      33.521  34.555  28.535  1.00  0.00     0.124 S 
ATOM     68  O   UNL A   1      34.204  35.654  27.857  1.00  0.00    -0.237 OA
ATOM     69  O   UNL A   1      33.130  33.437  27.679  1.00  0.00    -0.237 OA
ATOM     70  O   UNL A   1      32.524  34.958  29.523  1.00  0.00    -0.744 OA
ENDBRANCH  66  67
ENDBRANCH  47  61
BRANCH  48  71
ATOM     71  C   UNL A   1      44.454  28.720  36.243  1.00  0.00    -0.014 A 
ATOM     72  C   UNL A   1      45.754  29.218  36.046  1.00  0.00     0.010 A 
ATOM     73  C   UNL A   1      44.258  27.675  37.165  1.00  0.00     0.010 A 
ATOM     74  C   UNL A   1      46.837  28.671  36.742  1.00  0.00     0.020 A 
ATOM     75  C   UNL A   1      45.332  27.146  37.886  1.00  0.00     0.020 A 
ATOM     76  C   UNL A   1      46.618  27.641  37.661  1.00  0.00     0.054 A 
BRANCH  76  77
ATOM     77  S   UNL A   1      48.030  26.983  38.590  1.00  0.00     0.124 S 
ATOM     78  O   UNL A   1      47.838  27.587  39.904  1.00  0.00    -0.237 OA
ATOM     79  O   UNL A   1      47.808  25.540  38.517  1.00  0.00    -0.237 OA
ATOM     80  O   UNL A   1      49.188  27.467  37.842  1.00  0.00    -0.744 OA
ENDBRANCH  76  77
ENDBRANCH  48  71
BRANCH  60  81
ATOM     81  C   UNL A   1      39.935  33.890  37.531  1.00  0.00    -0.014 A 
ATOM     82  C   UNL A   1      40.452  35.197  37.540  1.00  0.00     0.010 A 
ATOM     83  C   UNL A   1      39.154  33.458  38.620  1.00  0.00     0.010 A 
ATOM     84  C   UNL A   1      40.217  36.044  38.628  1.00  0.00     0.020 A 
ATOM     85  C   UNL A   1      38.891  34.310  39.695  1.00  0.00     0.020 A 
ATOM     86  C   UNL A   1      39.436  35.596  39.699  1.00  0.00     0.054 A 
BRANCH  86  87
ATOM     87  S   UNL A   1      39.103  36.730  41.074  1.00  0.00     0.124 S 
ATOM     88  O   UNL A   1      40.438  36.933  41.631  1.00  0.00    -0.237 OA
ATOM     89  O   UNL A   1      38.522  37.889  40.399  1.00  0.00    -0.237 OA
ATOM     90  O   UNL A   1      38.180  35.984  41.926  1.00  0.00    -0.744 OA
ENDBRANCH  86  87
ENDBRANCH  60  81
ENDBRANCH  34  35
ENDBRANCH  27  29
ENDBRANCH  26  27
ENDBRANCH  25  26
ENDBRANCH  24  25
ENDBRANCH  23  24
ENDBRANCH   1  23
TORSDOF 21
ENDMDL
MODEL 2
REMARK VINA RESULT:      -9.5      2.161      8.999
REMARK SMILES CC1(C)S[C@@H](c2ccsc2)[NH2+][C@@H]1C(=O)OCCOCCOCCOC(=O)c1ccc(-c2c3nc(c(-c4ccc(S(=O)(=O)[O-])cc4)c4ccc([nH]4)c(-c4ccc(S(=O)(=O)[O-])cc4)c4nc(c(-c5ccc(S(=O)(=O)[O-])cc5)c5ccc2[nH]5)C=C4)C=C3)cc1
REMARK SMILES IDX 20 1 19 2 18 3 17 4 16 5 15 6 13 7 14 8 12 9 1 10 2 11 3 12
REMARK SMILES IDX 4 13 5 14 11 15 6 18 7 19 10 20 8 21 9 22 21 23 22 24 23 25
REMARK SMILES IDX 24 26 25 27 26 28 27 29 28 30 86 31 29 32 85 33 30 34 31 35
REMARK SMILES IDX 32 36 79 37 33 38 84 39 78 40 80 41 34 42 83 43 77 44 76 45
REMARK SMILES IDX 35 47 65 48 46 49 64 50 47 51 50 52 63 53 81 54 48 55 49 56
REMARK SMILES IDX 62 58 82 59 51 60 36 61 37 62 45 63 38 64 44 65 39 66 40 67
REMARK SMILES IDX 41 68 42 69 43 70 66 71 67 72 75 73 68 74 74 75 69 76 70 77
REMARK SMILES IDX 71 78 72 79 73 80 52 81 53 82 61 83 54 84 60 85 55 86 56 87
REMARK SMILES IDX 57 88 58 89 59 90
REMARK H PARENT 11 16 11 17 80 46 50 57
REMARK Flexibility Score: inf
ROOT
ATOM      1  C   UNL A   1      37.193  21.874  25.197  1.00  0.00     0.188 C 
ENDROOT
BRANCH   1   2
ATOM      2  C   UNL A   1      36.651  22.580  23.931  1.00  0.00     0.188 C 
BRANCH   2   3
ATOM      3  O   UNL A   1      35.294  22.967  24.038  1.00  0.00    -0.376 OA
BRANCH   3   4
ATOM      4  C   UNL A   1      34.814  23.338  25.322  1.00  0.00     0.202 C 
BRANCH   4   5
ATOM      5  C   UNL A   1      33.511  22.705  25.831  1.00  0.00     0.261 C 
BRANCH   5   6
ATOM      6  O   UNL A   1      32.323  23.420  25.472  1.00  0.00    -0.459 OA
BRANCH   6   7
ATOM      7  C   UNL A   1      31.519  23.890  26.469  1.00  0.00     0.366 C 
ATOM      8  O   UNL A   1      31.482  23.428  27.598  1.00  0.00    -0.245 OA
BRANCH   7   9
ATOM      9  C   UNL A   1      30.683  25.074  25.910  1.00  0.00     0.310 C 
ATOM     10  C   UNL A   1      29.508  26.211  23.959  1.00  0.00     0.030 C 
ATOM     11  C   UNL A   1      30.703  25.329  24.390  1.00  0.00     0.079 C 
ATOM     12  C   UNL A   1      30.672  24.059  23.537  1.00  0.00     0.030 C 
ATOM     13  S   UNL A   1      32.212  26.330  24.181  1.00  0.00    -0.081 SA
ATOM     14  C   UNL A   1      32.342  26.730  25.947  1.00  0.00     0.275 C 
ATOM     15  N   UNL A   1      31.101  26.313  26.608  1.00  0.00    -0.319 N 
ATOM     16  H   UNL A   1      30.386  27.036  26.513  1.00  0.00     0.348 HD
ATOM     17  H   UNL A   1      31.235  26.161  27.607  1.00  0.00     0.348 HD
BRANCH  14  18
ATOM     18  C   UNL A   1      32.534  28.189  26.243  1.00  0.00     0.031 A 
ATOM     19  C   UNL A   1      31.732  29.275  25.742  1.00  0.00     0.022 A 
ATOM     20  C   UNL A   1      33.497  28.671  27.114  1.00  0.00     0.075 A 
ATOM     21  C   UNL A   1      32.131  30.501  26.224  1.00  0.00     0.065 A 
ATOM     22  S   UNL A   1      33.455  30.369  27.292  1.00  0.00    -0.152 S 
ENDBRANCH  14  18
ENDBRANCH   7   9
ENDBRANCH   6   7
ENDBRANCH   5   6
ENDBRANCH   4   5
ENDBRANCH   3   4
ENDBRANCH   2   3
ENDBRANCH   1   2
BRANCH   1  23
ATOM     23  O   UNL A   1      38.299  22.425  25.896  1.00  0.00    -0.376 OA
BRANCH  23  24
ATOM     24  C   UNL A   1      39.425  21.597  26.145  1.00  0.00     0.202 C 
BRANCH  24  25
ATOM     25  C   UNL A   1      40.842  22.201  26.114  1.00  0.00     0.261 C 
BRANCH  25  26
ATOM     26  O   UNL A   1      41.175  23.105  27.186  1.00  0.00    -0.460 OA
BRANCH  26  27
ATOM     27  C   UNL A   1      41.989  24.143  26.855  1.00  0.00     0.338 C 
ATOM     28  O   UNL A   1      42.791  24.181  25.939  1.00  0.00    -0.246 OA
BRANCH  27  29
ATOM     29  C   UNL A   1      41.637  25.338  27.657  1.00  0.00     0.060 A 
ATOM     30  C   UNL A   1      42.583  26.369  27.783  1.00  0.00     0.016 A 
ATOM     31  C   UNL A   1      40.422  25.415  28.334  1.00  0.00     0.016 A 
ATOM     32  C   UNL A   1      42.322  27.471  28.601  1.00  0.00     0.010 A 
ATOM     33  C   UNL A   1      40.174  26.506  29.177  1.00  0.00     0.010 A 
ATOM     34  C   UNL A   1      41.132  27.525  29.337  1.00  0.00    -0.014 A 
BRANCH  34  35
ATOM     35  C   UNL A   1      40.958  28.542  30.407  1.00  0.00     0.031 A 
ATOM     36  C   UNL A   1      41.823  28.445  31.637  1.00  0.00     0.074 A 
ATOM     37  C   UNL A   1      40.048  29.526  30.302  1.00  0.00     0.049 A 
ATOM     38  N   UNL A   1      41.784  29.154  32.735  1.00  0.00    -0.248 NA
ATOM     39  C   UNL A   1      42.865  27.406  31.625  1.00  0.00     0.031 C 
ATOM     40  C   UNL A   1      39.187  29.767  29.145  1.00  0.00     0.029 A 
ATOM     41  N   UNL A   1      39.687  30.502  31.200  1.00  0.00    -0.354 N 
ATOM     42  C   UNL A   1      42.784  28.638  33.552  1.00  0.00     0.074 A 
ATOM     43  C   UNL A   1      43.397  27.543  32.831  1.00  0.00     0.031 C 
ATOM     44  C   UNL A   1      38.382  30.812  29.413  1.00  0.00     0.029 A 
ATOM     45  C   UNL A   1      38.642  31.286  30.772  1.00  0.00     0.049 A 
ATOM     46  H   UNL A   1      40.134  30.628  32.067  1.00  0.00     0.167 HD
ATOM     47  C   UNL A   1      43.158  29.035  34.792  1.00  0.00     0.031 A 
ATOM     48  C   UNL A   1      37.953  32.254  31.412  1.00  0.00     0.031 A 
ATOM     49  C   UNL A   1      42.536  30.111  35.518  1.00  0.00     0.049 A 
ATOM     50  C   UNL A   1      38.329  32.623  32.826  1.00  0.00     0.074 A 
ATOM     51  C   UNL A   1      42.854  30.596  36.774  1.00  0.00     0.029 A 
ATOM     52  N   UNL A   1      41.462  30.859  35.061  1.00  0.00    -0.354 N 
ATOM     53  N   UNL A   1      39.290  32.140  33.578  1.00  0.00    -0.248 NA
ATOM     54  C   UNL A   1      37.529  33.671  33.476  1.00  0.00     0.031 C 
ATOM     55  C   UNL A   1      41.932  31.595  37.103  1.00  0.00     0.029 A 
ATOM     56  C   UNL A   1      41.085  31.781  36.022  1.00  0.00     0.049 A 
ATOM     57  H   UNL A   1      41.030  30.750  34.183  1.00  0.00     0.167 HD
ATOM     58  C   UNL A   1      39.230  32.850  34.775  1.00  0.00     0.074 A 
ATOM     59  C   UNL A   1      38.146  33.801  34.643  1.00  0.00     0.031 C 
ATOM     60  C   UNL A   1      40.007  32.728  35.881  1.00  0.00     0.031 A 
BRANCH  47  61
ATOM     61  C   UNL A   1      44.271  28.272  35.462  1.00  0.00    -0.014 A 
ATOM     62  C   UNL A   1      45.613  28.669  35.331  1.00  0.00     0.010 A 
ATOM     63  C   UNL A   1      43.961  27.160  36.267  1.00  0.00     0.010 A 
ATOM     64  C   UNL A   1      46.630  27.945  35.960  1.00  0.00     0.020 A 
ATOM     65  C   UNL A   1      44.972  26.452  36.923  1.00  0.00     0.020 A 
ATOM     66  C   UNL A   1      46.302  26.839  36.751  1.00  0.00     0.054 A 
BRANCH  66  67
ATOM     67  S   UNL A   1      47.639  25.932  37.574  1.00  0.00     0.124 S 
ATOM     68  O   UNL A   1      47.246  26.025  38.978  1.00  0.00    -0.237 OA
ATOM     69  O   UNL A   1      47.536  24.602  36.980  1.00  0.00    -0.237 OA
ATOM     70  O   UNL A   1      48.841  26.680  37.215  1.00  0.00    -0.744 OA
ENDBRANCH  66  67
ENDBRANCH  47  61
BRANCH  48  71
ATOM     71  C   UNL A   1      36.810  32.930  30.735  1.00  0.00    -0.014 A 
ATOM     72  C   UNL A   1      37.035  33.945  29.789  1.00  0.00     0.010 A 
ATOM     73  C   UNL A   1      35.486  32.566  31.042  1.00  0.00     0.010 A 
ATOM     74  C   UNL A   1      35.959  34.596  29.176  1.00  0.00     0.020 A 
ATOM     75  C   UNL A   1      34.408  33.191  30.409  1.00  0.00     0.020 A 
ATOM     76  C   UNL A   1      34.652  34.211  29.488  1.00  0.00     0.054 A 
BRANCH  76  77
ATOM     77  S   UNL A   1      33.273  35.034  28.642  1.00  0.00     0.124 S 
ATOM     78  O   UNL A   1      33.967  36.009  27.807  1.00  0.00    -0.237 OA
ATOM     79  O   UNL A   1      32.638  33.927  27.930  1.00  0.00    -0.237 OA
ATOM     80  O   UNL A   1      32.486  35.595  29.737  1.00  0.00    -0.744 OA
ENDBRANCH  76  77
ENDBRANCH  48  71
BRANCH  60  81
ATOM     81  C   UNL A   1      39.751  33.673  37.028  1.00  0.00    -0.014 A 
ATOM     82  C   UNL A   1      38.966  33.296  38.132  1.00  0.00     0.010 A 
ATOM     83  C   UNL A   1      40.369  34.938  37.031  1.00  0.00     0.010 A 
ATOM     84  C   UNL A   1      38.781  34.177  39.202  1.00  0.00     0.020 A 
ATOM     85  C   UNL A   1      40.211  35.809  38.111  1.00  0.00     0.020 A 
ATOM     86  C   UNL A   1      39.406  35.428  39.186  1.00  0.00     0.054 A 
BRANCH  86  87
ATOM     87  S   UNL A   1      39.190  36.532  40.609  1.00  0.00     0.124 S 
ATOM     88  O   UNL A   1      38.772  37.776  39.969  1.00  0.00    -0.237 OA
ATOM     89  O   UNL A   1      38.160  35.850  41.390  1.00  0.00    -0.237 OA
ATOM     90  O   UNL A   1      40.514  36.564  41.228  1.00  0.00    -0.744 OA
ENDBRANCH  86  87
ENDBRANCH  60  81
ENDBRANCH  34  35
ENDBRANCH  27  29
ENDBRANCH  26  27
ENDBRANCH  25  26
ENDBRANCH  24  25
ENDBRANCH  23  24
ENDBRANCH   1  23
TORSDOF 21
ENDMDL
MODEL 3
REMARK VINA RESULT:      -9.4      6.426     12.384
REMARK SMILES CC1(C)S[C@@H](c2ccsc2)[NH2+][C@@H]1C(=O)OCCOCCOCCOC(=O)c1ccc(-c2c3nc(c(-c4ccc(S(=O)(=O)[O-])cc4)c4ccc([nH]4)c(-c4ccc(S(=O)(=O)[O-])cc4)c4nc(c(-c5ccc(S(=O)(=O)[O-])cc5)c5ccc2[nH]5)C=C4)C=C3)cc1
REMARK SMILES IDX 20 1 19 2 18 3 17 4 16 5 15 6 13 7 14 8 12 9 1 10 2 11 3 12
REMARK SMILES IDX 4 13 5 14 11 15 6 18 7 19 10 20 8 21 9 22 21 23 22 24 23 25
REMARK SMILES IDX 24 26 25 27 26 28 27 29 28 30 86 31 29 32 85 33 30 34 31 35
REMARK SMILES IDX 32 36 79 37 33 38 84 39 78 40 80 41 34 42 83 43 77 44 76 45
REMARK SMILES IDX 35 47 65 48 46 49 64 50 47 51 50 52 63 53 81 54 48 55 49 56
REMARK SMILES IDX 62 58 82 59 51 60 36 61 37 62 45 63 38 64 44 65 39 66 40 67
REMARK SMILES IDX 41 68 42 69 43 70 66 71 67 72 75 73 68 74 74 75 69 76 70 77
REMARK SMILES IDX 71 78 72 79 73 80 52 81 53 82 61 83 54 84 60 85 55 86 56 87
REMARK SMILES IDX 57 88 58 89 59 90
REMARK H PARENT 11 16 11 17 80 46 50 57
REMARK Flexibility Score: inf
ROOT
ATOM      1  C   UNL A   1      34.278  33.817  29.553  1.00  0.00     0.188 C 
ENDROOT
BRANCH   1   2
ATOM      2  C   UNL A   1      34.244  33.623  28.017  1.00  0.00     0.188 C 
BRANCH   2   3
ATOM      3  O   UNL A   1      34.282  32.265  27.620  1.00  0.00    -0.376 OA
BRANCH   3   4
ATOM      4  C   UNL A   1      33.048  31.639  27.295  1.00  0.00     0.202 C 
BRANCH   4   5
ATOM      5  C   UNL A   1      33.067  30.175  26.833  1.00  0.00     0.261 C 
BRANCH   5   6
ATOM      6  O   UNL A   1      31.984  29.380  27.334  1.00  0.00    -0.459 OA
BRANCH   6   7
ATOM      7  C   UNL A   1      31.812  28.124  26.831  1.00  0.00     0.366 C 
ATOM      8  O   UNL A   1      31.008  27.314  27.263  1.00  0.00    -0.245 OA
BRANCH   7   9
ATOM      9  C   UNL A   1      32.805  27.925  25.653  1.00  0.00     0.310 C 
ATOM     10  C   UNL A   1      33.319  28.049  23.163  1.00  0.00     0.030 C 
ATOM     11  C   UNL A   1      32.231  27.784  24.230  1.00  0.00     0.079 C 
ATOM     12  C   UNL A   1      31.054  28.713  23.930  1.00  0.00     0.030 C 
ATOM     13  S   UNL A   1      31.821  26.009  24.148  1.00  0.00    -0.081 SA
ATOM     14  C   UNL A   1      32.827  25.581  25.597  1.00  0.00     0.275 C 
ATOM     15  N   UNL A   1      33.651  26.744  25.947  1.00  0.00    -0.319 N 
ATOM     16  H   UNL A   1      34.500  26.762  25.381  1.00  0.00     0.348 HD
ATOM     17  H   UNL A   1      33.946  26.719  26.923  1.00  0.00     0.348 HD
BRANCH  14  18
ATOM     18  C   UNL A   1      33.759  24.424  25.388  1.00  0.00     0.031 A 
ATOM     19  C   UNL A   1      35.146  24.364  25.771  1.00  0.00     0.022 A 
ATOM     20  C   UNL A   1      33.364  23.213  24.842  1.00  0.00     0.075 A 
ATOM     21  C   UNL A   1      35.729  23.150  25.482  1.00  0.00     0.065 A 
ATOM     22  S   UNL A   1      34.625  22.064  24.766  1.00  0.00    -0.152 S 
ENDBRANCH  14  18
ENDBRANCH   7   9
ENDBRANCH   6   7
ENDBRANCH   5   6
ENDBRANCH   4   5
ENDBRANCH   3   4
ENDBRANCH   2   3
ENDBRANCH   1   2
BRANCH   1  23
ATOM     23  O   UNL A   1      34.477  32.698  30.403  1.00  0.00    -0.376 OA
BRANCH  23  24
ATOM     24  C   UNL A   1      35.778  32.464  30.922  1.00  0.00     0.202 C 
BRANCH  24  25
ATOM     25  C   UNL A   1      36.934  32.119  29.964  1.00  0.00     0.261 C 
BRANCH  25  26
ATOM     26  O   UNL A   1      36.789  30.908  29.196  1.00  0.00    -0.460 OA
BRANCH  26  27
ATOM     27  C   UNL A   1      37.113  29.755  29.839  1.00  0.00     0.338 C 
ATOM     28  O   UNL A   1      36.403  29.110  30.588  1.00  0.00    -0.246 OA
BRANCH  27  29
ATOM     29  C   UNL A   1      38.421  29.256  29.355  1.00  0.00     0.060 A 
ATOM     30  C   UNL A   1      39.277  28.612  30.263  1.00  0.00     0.016 A 
ATOM     31  C   UNL A   1      38.833  29.480  28.042  1.00  0.00     0.016 A 
ATOM     32  C   UNL A   1      40.553  28.205  29.865  1.00  0.00     0.010 A 
ATOM     33  C   UNL A   1      40.123  29.098  27.654  1.00  0.00     0.010 A 
ATOM     34  C   UNL A   1      41.000  28.484  28.569  1.00  0.00    -0.014 A 
BRANCH  34  35
ATOM     35  C   UNL A   1      42.432  28.306  28.214  1.00  0.00     0.031 A 
ATOM     36  C   UNL A   1      43.367  29.475  28.391  1.00  0.00     0.074 A 
ATOM     37  C   UNL A   1      42.900  27.140  27.735  1.00  0.00     0.049 A 
ATOM     38  N   UNL A   1      44.626  29.586  28.061  1.00  0.00    -0.248 NA
ATOM     39  C   UNL A   1      42.799  30.678  29.022  1.00  0.00     0.031 C 
ATOM     40  C   UNL A   1      42.117  25.916  27.566  1.00  0.00     0.029 A 
ATOM     41  N   UNL A   1      44.153  26.803  27.285  1.00  0.00    -0.354 N 
ATOM     42  C   UNL A   1      45.000  30.875  28.426  1.00  0.00     0.074 A 
ATOM     43  C   UNL A   1      43.827  31.513  28.984  1.00  0.00     0.031 C 
ATOM     44  C   UNL A   1      42.905  24.967  27.030  1.00  0.00     0.029 A 
ATOM     45  C   UNL A   1      44.233  25.526  26.779  1.00  0.00     0.049 A 
ATOM     46  H   UNL A   1      44.922  27.416  27.321  1.00  0.00     0.167 HD
ATOM     47  C   UNL A   1      46.208  31.475  28.307  1.00  0.00     0.031 A 
ATOM     48  C   UNL A   1      45.250  24.892  26.158  1.00  0.00     0.031 A 
ATOM     49  C   UNL A   1      47.369  30.848  27.734  1.00  0.00     0.049 A 
ATOM     50  C   UNL A   1      46.562  25.610  25.957  1.00  0.00     0.074 A 
ATOM     51  C   UNL A   1      48.642  31.372  27.582  1.00  0.00     0.029 A 
ATOM     52  N   UNL A   1      47.400  29.566  27.207  1.00  0.00    -0.354 N 
ATOM     53  N   UNL A   1      46.906  26.821  26.326  1.00  0.00    -0.248 NA
ATOM     54  C   UNL A   1      47.624  24.872  25.257  1.00  0.00     0.031 C 
ATOM     55  C   UNL A   1      49.424  30.429  26.905  1.00  0.00     0.029 A 
ATOM     56  C   UNL A   1      48.659  29.292  26.701  1.00  0.00     0.049 A 
ATOM     57  H   UNL A   1      46.638  28.942  27.193  1.00  0.00     0.167 HD
ATOM     58  C   UNL A   1      48.234  26.975  25.934  1.00  0.00     0.074 A 
ATOM     59  C   UNL A   1      48.632  25.732  25.309  1.00  0.00     0.031 C 
ATOM     60  C   UNL A   1      49.049  28.049  26.084  1.00  0.00     0.031 A 
BRANCH  47  61
ATOM     61  C   UNL A   1      46.324  32.905  28.769  1.00  0.00    -0.014 A 
ATOM     62  C   UNL A   1      45.956  33.975  27.934  1.00  0.00     0.010 A 
ATOM     63  C   UNL A   1      46.773  33.178  30.074  1.00  0.00     0.010 A 
ATOM     64  C   UNL A   1      46.074  35.294  28.381  1.00  0.00     0.020 A 
ATOM     65  C   UNL A   1      46.862  34.493  30.536  1.00  0.00     0.020 A 
ATOM     66  C   UNL A   1      46.528  35.544  29.680  1.00  0.00     0.054 A 
BRANCH  66  67
ATOM     67  S   UNL A   1      46.648  37.264  30.243  1.00  0.00     0.124 S 
ATOM     68  O   UNL A   1      47.974  37.646  29.762  1.00  0.00    -0.237 OA
ATOM     69  O   UNL A   1      45.526  37.903  29.560  1.00  0.00    -0.237 OA
ATOM     70  O   UNL A   1      46.518  37.166  31.694  1.00  0.00    -0.744 OA
ENDBRANCH  66  67
ENDBRANCH  47  61
BRANCH  48  71
ATOM     71  C   UNL A   1      45.064  23.503  25.651  1.00  0.00    -0.014 A 
ATOM     72  C   UNL A   1      45.618  22.408  26.336  1.00  0.00     0.010 A 
ATOM     73  C   UNL A   1      44.337  23.270  24.468  1.00  0.00     0.010 A 
ATOM     74  C   UNL A   1      45.464  21.109  25.840  1.00  0.00     0.020 A 
ATOM     75  C   UNL A   1      44.154  21.971  23.987  1.00  0.00     0.020 A 
ATOM     76  C   UNL A   1      44.729  20.899  24.671  1.00  0.00     0.054 A 
BRANCH  76  77
ATOM     77  S   UNL A   1      44.499  19.200  24.075  1.00  0.00     0.124 S 
ATOM     78  O   UNL A   1      44.519  19.380  22.628  1.00  0.00    -0.237 OA
ATOM     79  O   UNL A   1      45.655  18.510  24.644  1.00  0.00    -0.237 OA
ATOM     80  O   UNL A   1      43.209  18.811  24.640  1.00  0.00    -0.744 OA
ENDBRANCH  76  77
ENDBRANCH  48  71
BRANCH  60  81
ATOM     81  C   UNL A   1      50.474  27.922  25.607  1.00  0.00    -0.014 A 
ATOM     82  C   UNL A   1      51.516  27.571  26.483  1.00  0.00     0.010 A 
ATOM     83  C   UNL A   1      50.762  28.089  24.238  1.00  0.00     0.010 A 
ATOM     84  C   UNL A   1      52.822  27.418  26.006  1.00  0.00     0.020 A 
ATOM     85  C   UNL A   1      52.059  27.907  23.752  1.00  0.00     0.020 A 
ATOM     86  C   UNL A   1      53.085  27.585  24.642  1.00  0.00     0.054 A 
BRANCH  86  87
ATOM     87  S   UNL A   1      54.777  27.332  24.041  1.00  0.00     0.124 S 
ATOM     88  O   UNL A   1      55.319  28.687  24.076  1.00  0.00    -0.237 OA
ATOM     89  O   UNL A   1      55.332  26.407  25.028  1.00  0.00    -0.237 OA
ATOM     90  O   UNL A   1      54.591  26.770  22.705  1.00  0.00    -0.744 OA
ENDBRANCH  86  87
ENDBRANCH  60  81
ENDBRANCH  34  35
ENDBRANCH  27  29
ENDBRANCH  26  27
ENDBRANCH  25  26
ENDBRANCH  24  25
ENDBRANCH  23  24
ENDBRANCH   1  23
TORSDOF 21
ENDMDL
