MODEL 1
REMARK VINA RESULT:     -10.3      0.000      0.000
REMARK SMILES O=C(OCCOCCOCCOC(=O)c1nccnc1C(=O)Nc1ccc2c(c1)OCO2)c1ccc(-c2c3nc(c(-c4ccc(S(=O)(=O)[O-])cc4)c4ccc([nH]4)c(-c4ccc(S(=O)(=O)[O-])cc4)c4nc(c(-c5ccc(S(=O)(=O)[O-])cc5)c5ccc2[nH]5)C=C4)C=C3)cc1
REMARK SMILES IDX 7 1 6 2 5 3 4 4 3 5 2 6 1 7 33 8 34 9 92 10 35 11 91 12
REMARK SMILES IDX 36 13 37 14 38 15 85 16 39 17 90 18 84 19 86 20 40 21 89 22
REMARK SMILES IDX 83 23 82 24 41 26 71 27 52 28 70 29 53 30 56 31 69 32 87 33
REMARK SMILES IDX 54 34 55 35 68 37 88 38 57 39 42 40 43 41 51 42 44 43 50 44
REMARK SMILES IDX 45 45 46 46 47 47 48 48 49 49 72 50 73 51 81 52 74 53 80 54
REMARK SMILES IDX 75 55 76 56 77 57 78 58 79 59 58 60 59 61 67 62 60 63 66 64
REMARK SMILES IDX 61 65 62 66 63 67 64 68 65 69 8 70 9 71 10 72 11 73 12 74
REMARK SMILES IDX 13 75 14 76 15 77 16 78 20 79 17 80 19 81 18 82 21 83 22 84
REMARK SMILES IDX 23 85 24 87 25 88 29 89 26 90 28 91 27 92 30 93 32 94 31 95
REMARK H PARENT 86 25 56 36 23 86
REMARK Flexibility Score: inf
ROOT
ATOM      1  C   UNL A   1      35.038  20.683  24.947  1.00  0.00     0.188 C 
ENDROOT
BRANCH   1   2
ATOM      2  O   UNL A   1      36.151  19.800  25.057  1.00  0.00    -0.376 OA
BRANCH   2   3
ATOM      3  C   UNL A   1      37.352  20.250  24.456  1.00  0.00     0.202 C 
BRANCH   3   4
ATOM      4  C   UNL A   1      38.296  20.986  25.407  1.00  0.00     0.261 C 
BRANCH   4   5
ATOM      5  O   UNL A   1      37.722  22.081  26.141  1.00  0.00    -0.460 OA
BRANCH   5   6
ATOM      6  C   UNL A   1      37.795  23.422  25.952  1.00  0.00     0.338 C 
ATOM      7  O   UNL A   1      37.109  23.897  25.046  1.00  0.00    -0.246 OA
BRANCH   6   8
ATOM      8  C   UNL A   1      38.723  24.358  26.675  1.00  0.00     0.060 A 
ATOM      9  C   UNL A   1      38.728  24.617  28.048  1.00  0.00     0.016 A 
ATOM     10  C   UNL A   1      39.659  25.056  25.882  1.00  0.00     0.016 A 
ATOM     11  C   UNL A   1      39.626  25.526  28.616  1.00  0.00     0.010 A 
ATOM     12  C   UNL A   1      40.526  26.011  26.432  1.00  0.00     0.010 A 
ATOM     13  C   UNL A   1      40.483  26.273  27.804  1.00  0.00    -0.014 A 
BRANCH  13  14
ATOM     14  C   UNL A   1      41.055  27.521  28.357  1.00  0.00     0.031 A 
ATOM     15  C   UNL A   1      42.556  27.612  28.416  1.00  0.00     0.074 A 
ATOM     16  C   UNL A   1      40.292  28.574  28.696  1.00  0.00     0.049 A 
ATOM     17  N   UNL A   1      43.310  28.610  28.788  1.00  0.00    -0.248 NA
ATOM     18  C   UNL A   1      43.307  26.428  27.957  1.00  0.00     0.031 C 
ATOM     19  C   UNL A   1      38.838  28.638  28.571  1.00  0.00     0.029 A 
ATOM     20  N   UNL A   1      40.638  29.804  29.195  1.00  0.00    -0.354 N 
ATOM     21  C   UNL A   1      44.617  28.181  28.593  1.00  0.00     0.074 A 
ATOM     22  C   UNL A   1      44.560  26.834  28.078  1.00  0.00     0.031 C 
ATOM     23  C   UNL A   1      38.418  29.847  28.983  1.00  0.00     0.029 A 
ATOM     24  C   UNL A   1      39.561  30.613  29.467  1.00  0.00     0.049 A 
ATOM     25  H   UNL A   1      41.571  30.081  29.347  1.00  0.00     0.167 HD
ATOM     26  C   UNL A   1      45.767  28.850  28.832  1.00  0.00     0.031 A 
ATOM     27  C   UNL A   1      39.501  31.814  30.077  1.00  0.00     0.031 A 
ATOM     28  C   UNL A   1      45.814  30.162  29.410  1.00  0.00     0.049 A 
ATOM     29  C   UNL A   1      40.790  32.469  30.494  1.00  0.00     0.074 A 
ATOM     30  C   UNL A   1      46.922  30.919  29.739  1.00  0.00     0.029 A 
ATOM     31  N   UNL A   1      44.696  30.897  29.778  1.00  0.00    -0.354 N 
ATOM     32  N   UNL A   1      42.020  32.058  30.292  1.00  0.00    -0.248 NA
ATOM     33  C   UNL A   1      40.689  33.746  31.215  1.00  0.00     0.031 C 
ATOM     34  C   UNL A   1      46.476  32.082  30.372  1.00  0.00     0.029 A 
ATOM     35  C   UNL A   1      45.088  32.081  30.373  1.00  0.00     0.049 A 
ATOM     36  H   UNL A   1      43.763  30.618  29.636  1.00  0.00     0.167 HD
ATOM     37  C   UNL A   1      42.840  33.036  30.842  1.00  0.00     0.074 A 
ATOM     38  C   UNL A   1      41.967  34.063  31.373  1.00  0.00     0.031 C 
ATOM     39  C   UNL A   1      44.194  33.082  30.898  1.00  0.00     0.031 A 
BRANCH  26  40
ATOM     40  C   UNL A   1      47.054  28.129  28.545  1.00  0.00    -0.014 A 
ATOM     41  C   UNL A   1      47.689  28.229  27.295  1.00  0.00     0.010 A 
ATOM     42  C   UNL A   1      47.635  27.336  29.550  1.00  0.00     0.010 A 
ATOM     43  C   UNL A   1      48.869  27.523  27.045  1.00  0.00     0.020 A 
ATOM     44  C   UNL A   1      48.827  26.647  29.312  1.00  0.00     0.020 A 
ATOM     45  C   UNL A   1      49.429  26.735  28.056  1.00  0.00     0.054 A 
BRANCH  45  46
ATOM     46  S   UNL A   1      50.972  25.846  27.714  1.00  0.00     0.124 S 
ATOM     47  O   UNL A   1      51.448  26.521  26.510  1.00  0.00    -0.237 OA
ATOM     48  O   UNL A   1      51.755  26.090  28.923  1.00  0.00    -0.237 OA
ATOM     49  O   UNL A   1      50.542  24.463  27.523  1.00  0.00    -0.744 OA
ENDBRANCH  45  46
ENDBRANCH  26  40
BRANCH  27  50
ATOM     50  C   UNL A   1      38.185  32.423  30.417  1.00  0.00    -0.014 A 
ATOM     51  C   UNL A   1      37.536  33.317  29.547  1.00  0.00     0.010 A 
ATOM     52  C   UNL A   1      37.585  32.124  31.656  1.00  0.00     0.010 A 
ATOM     53  C   UNL A   1      36.323  33.911  29.918  1.00  0.00     0.020 A 
ATOM     54  C   UNL A   1      36.364  32.695  32.018  1.00  0.00     0.020 A 
ATOM     55  C   UNL A   1      35.747  33.597  31.152  1.00  0.00     0.054 A 
BRANCH  55  56
ATOM     56  S   UNL A   1      34.157  34.350  31.605  1.00  0.00     0.124 S 
ATOM     57  O   UNL A   1      33.600  33.355  32.514  1.00  0.00    -0.237 OA
ATOM     58  O   UNL A   1      34.568  35.611  32.215  1.00  0.00    -0.237 OA
ATOM     59  O   UNL A   1      33.473  34.481  30.320  1.00  0.00    -0.744 OA
ENDBRANCH  55  56
ENDBRANCH  27  50
BRANCH  39  60
ATOM     60  C   UNL A   1      44.818  34.292  31.534  1.00  0.00    -0.014 A 
ATOM     61  C   UNL A   1      45.085  34.328  32.913  1.00  0.00     0.010 A 
ATOM     62  C   UNL A   1      45.225  35.365  30.721  1.00  0.00     0.010 A 
ATOM     63  C   UNL A   1      45.738  35.428  33.471  1.00  0.00     0.020 A 
ATOM     64  C   UNL A   1      45.903  36.453  31.271  1.00  0.00     0.020 A 
ATOM     65  C   UNL A   1      46.149  36.480  32.645  1.00  0.00     0.054 A 
BRANCH  65  66
ATOM     66  S   UNL A   1      47.064  37.861  33.383  1.00  0.00     0.124 S 
ATOM     67  O   UNL A   1      46.297  39.014  32.919  1.00  0.00    -0.237 OA
ATOM     68  O   UNL A   1      46.971  37.578  34.812  1.00  0.00    -0.237 OA
ATOM     69  O   UNL A   1      48.403  37.732  32.813  1.00  0.00    -0.744 OA
ENDBRANCH  65  66
ENDBRANCH  39  60
ENDBRANCH  13  14
ENDBRANCH   6   8
ENDBRANCH   5   6
ENDBRANCH   4   5
ENDBRANCH   3   4
ENDBRANCH   2   3
ENDBRANCH   1   2
BRANCH   1  70
ATOM     70  C   UNL A   1      33.822  20.281  25.790  1.00  0.00     0.188 C 
BRANCH  70  71
ATOM     71  O   UNL A   1      32.624  20.176  25.033  1.00  0.00    -0.376 OA
BRANCH  71  72
ATOM     72  C   UNL A   1      32.567  20.706  23.705  1.00  0.00     0.202 C 
BRANCH  72  73
ATOM     73  C   UNL A   1      32.447  22.337  23.525  1.00  0.00     0.261 C 
BRANCH  73  74
ATOM     74  O   UNL A   1      32.040  23.727  24.945  1.00  0.00    -0.458 OA
BRANCH  74  75
ATOM     75  C   UNL A   1      31.820  24.930  25.686  1.00  0.00     0.359 C 
ATOM     76  O   UNL A   1      30.968  24.935  26.578  1.00  0.00    -0.244 OA
BRANCH  75  77
ATOM     77  C   UNL A   1      32.593  26.215  25.441  1.00  0.00     0.179 A 
ATOM     78  N   UNL A   1      33.100  26.728  26.607  1.00  0.00    -0.245 NA
ATOM     79  C   UNL A   1      32.831  26.863  24.217  1.00  0.00     0.161 A 
ATOM     80  C   UNL A   1      33.827  27.865  26.518  1.00  0.00     0.132 A 
ATOM     81  N   UNL A   1      33.519  28.051  24.162  1.00  0.00    -0.247 NA
ATOM     82  C   UNL A   1      34.011  28.528  25.324  1.00  0.00     0.132 A 
BRANCH  79  83
ATOM     83  C   UNL A   1      32.446  26.392  22.840  1.00  0.00     0.276 C 
ATOM     84  O   UNL A   1      33.166  25.614  22.213  1.00  0.00    -0.267 OA
ATOM     85  N   UNL A   1      31.260  26.756  22.260  1.00  0.00    -0.320 N 
ATOM     86  H   UNL A   1      31.004  26.321  21.415  1.00  0.00     0.170 HD
BRANCH  85  87
ATOM     87  C   UNL A   1      30.406  27.698  22.792  1.00  0.00     0.045 A 
ATOM     88  C   UNL A   1      28.773  27.182  23.453  1.00  0.00     0.030 A 
ATOM     89  C   UNL A   1      30.659  29.387  22.184  1.00  0.00     0.076 A 
ATOM     90  C   UNL A   1      27.411  28.371  23.453  1.00  0.00     0.053 A 
ATOM     91  C   UNL A   1      29.274  30.520  22.254  1.00  0.00     0.167 A 
ATOM     92  C   UNL A   1      27.707  30.023  22.844  1.00  0.00     0.165 A 
ATOM     93  O   UNL A   1      29.214  31.851  22.020  1.00  0.00    -0.454 OA
ATOM     94  O   UNL A   1      26.931  31.130  22.905  1.00  0.00    -0.454 OA
ATOM     95  C   UNL A   1      27.882  32.195  22.551  1.00  0.00     0.468 C 
ENDBRANCH  85  87
ENDBRANCH  79  83
ENDBRANCH  75  77
ENDBRANCH  74  75
ENDBRANCH  73  74
ENDBRANCH  72  73
ENDBRANCH  71  72
ENDBRANCH  70  71
ENDBRANCH   1  70
TORSDOF 22
ENDMDL
MODEL 2
REMARK VINA RESULT:     -10.0      1.849      8.510
REMARK SMILES O=C(OCCOCCOCCOC(=O)c1nccnc1C(=O)Nc1ccc2c(c1)OCO2)c1ccc(-c2c3nc(c(-c4ccc(S(=O)(=O)[O-])cc4)c4ccc([nH]4)c(-c4ccc(S(=O)(=O)[O-])cc4)c4nc(c(-c5ccc(S(=O)(=O)[O-])cc5)c5ccc2[nH]5)C=C4)C=C3)cc1
REMARK SMILES IDX 7 1 6 2 5 3 4 4 3 5 2 6 1 7 33 8 34 9 92 10 35 11 91 12
REMARK SMILES IDX 36 13 37 14 38 15 85 16 39 17 90 18 84 19 86 20 40 21 89 22
REMARK SMILES IDX 83 23 82 24 41 26 71 27 52 28 70 29 53 30 56 31 69 32 87 33
REMARK SMILES IDX 54 34 55 35 68 37 88 38 57 39 42 40 43 41 51 42 44 43 50 44
REMARK SMILES IDX 45 45 46 46 47 47 48 48 49 49 72 50 73 51 81 52 74 53 80 54
REMARK SMILES IDX 75 55 76 56 77 57 78 58 79 59 58 60 59 61 67 62 60 63 66 64
REMARK SMILES IDX 61 65 62 66 63 67 64 68 65 69 8 70 9 71 10 72 11 73 12 74
REMARK SMILES IDX 13 75 14 76 15 77 16 78 20 79 17 80 19 81 18 82 21 83 22 84
REMARK SMILES IDX 23 85 24 87 25 88 29 89 26 90 28 91 27 92 30 93 32 94 31 95
REMARK H PARENT 86 25 56 36 23 86
REMARK Flexibility Score: inf
ROOT
ATOM      1  C   UNL A   1      34.175  22.378  26.146  1.00  0.00     0.188 C 
ENDROOT
BRANCH   1   2
ATOM      2  O   UNL A   1      34.890  21.184  25.838  1.00  0.00    -0.376 OA
BRANCH   2   3
ATOM      3  C   UNL A   1      36.126  21.365  25.172  1.00  0.00     0.202 C 
BRANCH   3   4
ATOM      4  C   UNL A   1      36.969  22.523  25.708  1.00  0.00     0.261 C 
BRANCH   4   5
ATOM      5  O   UNL A   1      38.394  22.347  25.641  1.00  0.00    -0.460 OA
BRANCH   5   6
ATOM      6  C   UNL A   1      39.377  22.658  26.523  1.00  0.00     0.338 C 
ATOM      7  O   UNL A   1      39.889  21.724  27.141  1.00  0.00    -0.246 OA
BRANCH   6   8
ATOM      8  C   UNL A   1      39.813  24.048  26.892  1.00  0.00     0.060 A 
ATOM      9  C   UNL A   1      40.169  25.064  26.002  1.00  0.00     0.016 A 
ATOM     10  C   UNL A   1      39.892  24.340  28.271  1.00  0.00     0.016 A 
ATOM     11  C   UNL A   1      40.582  26.321  26.456  1.00  0.00     0.010 A 
ATOM     12  C   UNL A   1      40.358  25.576  28.739  1.00  0.00     0.010 A 
ATOM     13  C   UNL A   1      40.739  26.561  27.823  1.00  0.00    -0.014 A 
BRANCH  13  14
ATOM     14  C   UNL A   1      41.603  27.690  28.237  1.00  0.00     0.031 A 
ATOM     15  C   UNL A   1      40.923  28.858  28.897  1.00  0.00     0.074 A 
ATOM     16  C   UNL A   1      42.942  27.646  28.134  1.00  0.00     0.049 A 
ATOM     17  N   UNL A   1      41.447  29.937  29.413  1.00  0.00    -0.248 NA
ATOM     18  C   UNL A   1      39.455  28.780  29.025  1.00  0.00     0.031 C 
ATOM     19  C   UNL A   1      43.713  26.519  27.618  1.00  0.00     0.029 A 
ATOM     20  N   UNL A   1      43.895  28.570  28.481  1.00  0.00    -0.354 N 
ATOM     21  C   UNL A   1      40.379  30.653  29.939  1.00  0.00     0.074 A 
ATOM     22  C   UNL A   1      39.177  29.898  29.676  1.00  0.00     0.031 C 
ATOM     23  C   UNL A   1      45.022  26.818  27.683  1.00  0.00     0.029 A 
ATOM     24  C   UNL A   1      45.177  28.182  28.177  1.00  0.00     0.049 A 
ATOM     25  H   UNL A   1      43.680  29.432  28.907  1.00  0.00     0.167 HD
ATOM     26  C   UNL A   1      40.398  31.845  30.577  1.00  0.00     0.031 A 
ATOM     27  C   UNL A   1      46.338  28.866  28.246  1.00  0.00     0.031 A 
ATOM     28  C   UNL A   1      41.589  32.621  30.769  1.00  0.00     0.049 A 
ATOM     29  C   UNL A   1      46.312  30.264  28.803  1.00  0.00     0.074 A 
ATOM     30  C   UNL A   1      41.721  33.862  31.362  1.00  0.00     0.029 A 
ATOM     31  N   UNL A   1      42.851  32.239  30.339  1.00  0.00    -0.354 N 
ATOM     32  N   UNL A   1      45.297  30.925  29.308  1.00  0.00    -0.248 NA
ATOM     33  C   UNL A   1      47.580  31.007  28.805  1.00  0.00     0.031 C 
ATOM     34  C   UNL A   1      43.053  34.263  31.225  1.00  0.00     0.029 A 
ATOM     35  C   UNL A   1      43.762  33.242  30.611  1.00  0.00     0.049 A 
ATOM     36  H   UNL A   1      43.066  31.383  29.905  1.00  0.00     0.167 HD
ATOM     37  C   UNL A   1      45.808  32.154  29.708  1.00  0.00     0.074 A 
ATOM     38  C   UNL A   1      47.223  32.139  29.397  1.00  0.00     0.031 C 
ATOM     39  C   UNL A   1      45.165  33.199  30.284  1.00  0.00     0.031 A 
BRANCH  26  40
ATOM     40  C   UNL A   1      39.077  32.405  31.026  1.00  0.00    -0.014 A 
ATOM     41  C   UNL A   1      38.375  33.343  30.250  1.00  0.00     0.010 A 
ATOM     42  C   UNL A   1      38.533  31.982  32.252  1.00  0.00     0.010 A 
ATOM     43  C   UNL A   1      37.163  33.870  30.707  1.00  0.00     0.020 A 
ATOM     44  C   UNL A   1      37.312  32.489  32.701  1.00  0.00     0.020 A 
ATOM     45  C   UNL A   1      36.641  33.440  31.931  1.00  0.00     0.054 A 
BRANCH  45  46
ATOM     46  S   UNL A   1      35.058  34.124  32.491  1.00  0.00     0.124 S 
ATOM     47  O   UNL A   1      34.206  33.904  31.326  1.00  0.00    -0.237 OA
ATOM     48  O   UNL A   1      34.751  33.301  33.659  1.00  0.00    -0.237 OA
ATOM     49  O   UNL A   1      35.366  35.523  32.782  1.00  0.00    -0.744 OA
ENDBRANCH  45  46
ENDBRANCH  26  40
BRANCH  27  50
ATOM     50  C   UNL A   1      47.591  28.283  27.690  1.00  0.00    -0.014 A 
ATOM     51  C   UNL A   1      47.992  28.519  26.364  1.00  0.00     0.010 A 
ATOM     52  C   UNL A   1      48.382  27.445  28.502  1.00  0.00     0.010 A 
ATOM     53  C   UNL A   1      49.150  27.916  25.857  1.00  0.00     0.020 A 
ATOM     54  C   UNL A   1      49.550  26.863  28.006  1.00  0.00     0.020 A 
ATOM     55  C   UNL A   1      49.920  27.091  26.681  1.00  0.00     0.054 A 
BRANCH  55  56
ATOM     56  S   UNL A   1      51.436  26.342  26.019  1.00  0.00     0.124 S 
ATOM     57  O   UNL A   1      51.219  26.444  24.580  1.00  0.00    -0.237 OA
ATOM     58  O   UNL A   1      52.480  27.202  26.569  1.00  0.00    -0.237 OA
ATOM     59  O   UNL A   1      51.403  24.986  26.565  1.00  0.00    -0.744 OA
ENDBRANCH  55  56
ENDBRANCH  27  50
BRANCH  39  60
ATOM     60  C   UNL A   1      45.988  34.405  30.640  1.00  0.00    -0.014 A 
ATOM     61  C   UNL A   1      46.107  35.487  29.752  1.00  0.00     0.010 A 
ATOM     62  C   UNL A   1      46.570  34.489  31.917  1.00  0.00     0.010 A 
ATOM     63  C   UNL A   1      46.809  36.632  30.133  1.00  0.00     0.020 A 
ATOM     64  C   UNL A   1      47.248  35.642  32.312  1.00  0.00     0.020 A 
ATOM     65  C   UNL A   1      47.369  36.704  31.414  1.00  0.00     0.054 A 
BRANCH  65  66
ATOM     66  S   UNL A   1      48.210  38.232  31.911  1.00  0.00     0.124 S 
ATOM     67  O   UNL A   1      47.085  39.107  32.229  1.00  0.00    -0.237 OA
ATOM     68  O   UNL A   1      49.012  37.798  33.052  1.00  0.00    -0.237 OA
ATOM     69  O   UNL A   1      48.976  38.607  30.725  1.00  0.00    -0.744 OA
ENDBRANCH  65  66
ENDBRANCH  39  60
ENDBRANCH  13  14
ENDBRANCH   6   8
ENDBRANCH   5   6
ENDBRANCH   4   5
ENDBRANCH   3   4
ENDBRANCH   2   3
ENDBRANCH   1   2
BRANCH   1  70
ATOM     70  C   UNL A   1      33.559  22.407  27.549  1.00  0.00     0.188 C 
BRANCH  70  71
ATOM     71  O   UNL A   1      32.250  22.958  27.577  1.00  0.00    -0.376 OA
BRANCH  71  72
ATOM     72  C   UNL A   1      31.261  22.502  26.648  1.00  0.00     0.202 C 
BRANCH  72  73
ATOM     73  C   UNL A   1      31.020  23.382  25.279  1.00  0.00     0.261 C 
BRANCH  73  74
ATOM     74  O   UNL A   1      32.201  24.835  24.499  1.00  0.00    -0.458 OA
BRANCH  74  75
ATOM     75  C   UNL A   1      32.728  26.019  23.893  1.00  0.00     0.359 C 
ATOM     76  O   UNL A   1      33.832  25.968  23.346  1.00  0.00    -0.244 OA
BRANCH  75  77
ATOM     77  C   UNL A   1      31.991  27.347  23.876  1.00  0.00     0.179 A 
ATOM     78  N   UNL A   1      31.847  27.826  22.600  1.00  0.00    -0.245 NA
ATOM     79  C   UNL A   1      31.468  28.062  24.966  1.00  0.00     0.161 A 
ATOM     80  C   UNL A   1      31.188  28.998  22.450  1.00  0.00     0.132 A 
ATOM     81  N   UNL A   1      30.859  29.281  24.794  1.00  0.00    -0.247 NA
ATOM     82  C   UNL A   1      30.726  29.724  23.526  1.00  0.00     0.132 A 
BRANCH  79  83
ATOM     83  C   UNL A   1      31.440  27.639  26.411  1.00  0.00     0.276 C 
ATOM     84  O   UNL A   1      30.673  26.756  26.798  1.00  0.00    -0.267 OA
ATOM     85  N   UNL A   1      32.302  28.170  27.334  1.00  0.00    -0.320 N 
ATOM     86  H   UNL A   1      32.325  27.769  28.232  1.00  0.00     0.170 HD
BRANCH  85  87
ATOM     87  C   UNL A   1      33.140  29.234  27.074  1.00  0.00     0.045 A 
ATOM     88  C   UNL A   1      34.960  29.003  27.147  1.00  0.00     0.030 A 
ATOM     89  C   UNL A   1      32.408  30.867  27.359  1.00  0.00     0.076 A 
ATOM     90  C   UNL A   1      36.007  30.422  27.545  1.00  0.00     0.053 A 
ATOM     91  C   UNL A   1      33.513  32.232  27.707  1.00  0.00     0.167 A 
ATOM     92  C   UNL A   1      35.243  32.012  27.818  1.00  0.00     0.165 A 
ATOM     93  O   UNL A   1      33.268  33.559  27.806  1.00  0.00    -0.454 OA
ATOM     94  O   UNL A   1      35.797  33.240  27.944  1.00  0.00    -0.454 OA
ATOM     95  C   UNL A   1      34.630  34.124  27.793  1.00  0.00     0.468 C 
ENDBRANCH  85  87
ENDBRANCH  79  83
ENDBRANCH  75  77
ENDBRANCH  74  75
ENDBRANCH  73  74
ENDBRANCH  72  73
ENDBRANCH  71  72
ENDBRANCH  70  71
ENDBRANCH   1  70
TORSDOF 22
ENDMDL
MODEL 3
REMARK VINA RESULT:     -10.0      3.437     10.157
REMARK SMILES O=C(OCCOCCOCCOC(=O)c1nccnc1C(=O)Nc1ccc2c(c1)OCO2)c1ccc(-c2c3nc(c(-c4ccc(S(=O)(=O)[O-])cc4)c4ccc([nH]4)c(-c4ccc(S(=O)(=O)[O-])cc4)c4nc(c(-c5ccc(S(=O)(=O)[O-])cc5)c5ccc2[nH]5)C=C4)C=C3)cc1
REMARK SMILES IDX 7 1 6 2 5 3 4 4 3 5 2 6 1 7 33 8 34 9 92 10 35 11 91 12
REMARK SMILES IDX 36 13 37 14 38 15 85 16 39 17 90 18 84 19 86 20 40 21 89 22
REMARK SMILES IDX 83 23 82 24 41 26 71 27 52 28 70 29 53 30 56 31 69 32 87 33
REMARK SMILES IDX 54 34 55 35 68 37 88 38 57 39 42 40 43 41 51 42 44 43 50 44
REMARK SMILES IDX 45 45 46 46 47 47 48 48 49 49 72 50 73 51 81 52 74 53 80 54
REMARK SMILES IDX 75 55 76 56 77 57 78 58 79 59 58 60 59 61 67 62 60 63 66 64
REMARK SMILES IDX 61 65 62 66 63 67 64 68 65 69 8 70 9 71 10 72 11 73 12 74
REMARK SMILES IDX 13 75 14 76 15 77 16 78 20 79 17 80 19 81 18 82 21 83 22 84
REMARK SMILES IDX 23 85 24 87 25 88 29 89 26 90 28 91 27 92 30 93 32 94 31 95
REMARK H PARENT 86 25 56 36 23 86
REMARK Flexibility Score: inf
ROOT
ATOM      1  C   UNL A   1      35.614  31.756  28.101  1.00  0.00     0.188 C 
ENDROOT
BRANCH   1   2
ATOM      2  O   UNL A   1      35.357  32.348  29.371  1.00  0.00    -0.376 OA
BRANCH   2   3
ATOM      3  C   UNL A   1      36.339  33.258  29.833  1.00  0.00     0.202 C 
BRANCH   3   4
ATOM      4  C   UNL A   1      37.678  32.613  30.190  1.00  0.00     0.261 C 
BRANCH   4   5
ATOM      5  O   UNL A   1      37.608  31.402  30.963  1.00  0.00    -0.460 OA
BRANCH   5   6
ATOM      6  C   UNL A   1      37.729  30.101  30.601  1.00  0.00     0.338 C 
ATOM      7  O   UNL A   1      36.770  29.364  30.833  1.00  0.00    -0.246 OA
BRANCH   6   8
ATOM      8  C   UNL A   1      38.972  29.459  30.049  1.00  0.00     0.060 A 
ATOM      9  C   UNL A   1      39.937  28.766  30.782  1.00  0.00     0.016 A 
ATOM     10  C   UNL A   1      39.190  29.597  28.660  1.00  0.00     0.016 A 
ATOM     11  C   UNL A   1      41.071  28.224  30.168  1.00  0.00     0.010 A 
ATOM     12  C   UNL A   1      40.349  29.108  28.043  1.00  0.00     0.010 A 
ATOM     13  C   UNL A   1      41.313  28.449  28.811  1.00  0.00    -0.014 A 
BRANCH  13  14
ATOM     14  C   UNL A   1      42.699  28.287  28.314  1.00  0.00     0.031 A 
ATOM     15  C   UNL A   1      43.624  29.460  28.488  1.00  0.00     0.074 A 
ATOM     16  C   UNL A   1      43.156  27.121  27.827  1.00  0.00     0.049 A 
ATOM     17  N   UNL A   1      44.894  29.561  28.206  1.00  0.00    -0.248 NA
ATOM     18  C   UNL A   1      43.043  30.673  29.096  1.00  0.00     0.031 C 
ATOM     19  C   UNL A   1      42.382  25.888  27.722  1.00  0.00     0.029 A 
ATOM     20  N   UNL A   1      44.396  26.778  27.350  1.00  0.00    -0.354 N 
ATOM     21  C   UNL A   1      45.266  30.835  28.618  1.00  0.00     0.074 A 
ATOM     22  C   UNL A   1      44.092  31.476  29.159  1.00  0.00     0.031 C 
ATOM     23  C   UNL A   1      43.166  24.922  27.211  1.00  0.00     0.029 A 
ATOM     24  C   UNL A   1      44.472  25.486  26.888  1.00  0.00     0.049 A 
ATOM     25  H   UNL A   1      45.159  27.399  27.337  1.00  0.00     0.167 HD
ATOM     26  C   UNL A   1      46.481  31.424  28.540  1.00  0.00     0.031 A 
ATOM     27  C   UNL A   1      45.465  24.846  26.238  1.00  0.00     0.031 A 
ATOM     28  C   UNL A   1      47.624  30.803  27.935  1.00  0.00     0.049 A 
ATOM     29  C   UNL A   1      46.758  25.581  26.008  1.00  0.00     0.074 A 
ATOM     30  C   UNL A   1      48.892  31.321  27.760  1.00  0.00     0.029 A 
ATOM     31  N   UNL A   1      47.622  29.534  27.374  1.00  0.00    -0.354 N 
ATOM     32  N   UNL A   1      47.101  26.781  26.412  1.00  0.00    -0.248 NA
ATOM     33  C   UNL A   1      47.798  24.881  25.240  1.00  0.00     0.031 C 
ATOM     34  C   UNL A   1      49.638  30.392  27.029  1.00  0.00     0.029 A 
ATOM     35  C   UNL A   1      48.855  29.268  26.810  1.00  0.00     0.049 A 
ATOM     36  H   UNL A   1      46.857  28.915  27.377  1.00  0.00     0.167 HD
ATOM     37  C   UNL A   1      48.403  26.973  25.967  1.00  0.00     0.074 A 
ATOM     38  C   UNL A   1      48.790  25.761  25.273  1.00  0.00     0.031 C 
ATOM     39  C   UNL A   1      49.208  28.053  26.121  1.00  0.00     0.031 A 
BRANCH  26  40
ATOM     40  C   UNL A   1      46.595  32.834  29.047  1.00  0.00    -0.014 A 
ATOM     41  C   UNL A   1      46.932  33.109  30.384  1.00  0.00     0.010 A 
ATOM     42  C   UNL A   1      46.357  33.902  28.164  1.00  0.00     0.010 A 
ATOM     43  C   UNL A   1      47.001  34.430  30.836  1.00  0.00     0.020 A 
ATOM     44  C   UNL A   1      46.448  35.224  28.607  1.00  0.00     0.020 A 
ATOM     45  C   UNL A   1      46.756  35.478  29.944  1.00  0.00     0.054 A 
BRANCH  45  46
ATOM     46  S   UNL A   1      46.873  37.183  30.551  1.00  0.00     0.124 S 
ATOM     47  O   UNL A   1      47.888  37.749  29.667  1.00  0.00    -0.237 OA
ATOM     48  O   UNL A   1      45.515  37.685  30.350  1.00  0.00    -0.237 OA
ATOM     49  O   UNL A   1      47.277  37.030  31.946  1.00  0.00    -0.744 OA
ENDBRANCH  45  46
ENDBRANCH  26  40
BRANCH  27  50
ATOM     50  C   UNL A   1      45.246  23.483  25.678  1.00  0.00    -0.014 A 
ATOM     51  C   UNL A   1      45.544  22.323  26.414  1.00  0.00     0.010 A 
ATOM     52  C   UNL A   1      44.758  23.348  24.363  1.00  0.00     0.010 A 
ATOM     53  C   UNL A   1      45.373  21.057  25.840  1.00  0.00     0.020 A 
ATOM     54  C   UNL A   1      44.563  22.087  23.797  1.00  0.00     0.020 A 
ATOM     55  C   UNL A   1      44.885  20.948  24.535  1.00  0.00     0.054 A 
BRANCH  55  56
ATOM     56  S   UNL A   1      44.638  19.299  23.815  1.00  0.00     0.124 S 
ATOM     57  O   UNL A   1      43.497  18.805  24.578  1.00  0.00    -0.237 OA
ATOM     58  O   UNL A   1      44.383  19.602  22.410  1.00  0.00    -0.237 OA
ATOM     59  O   UNL A   1      45.910  18.628  24.080  1.00  0.00    -0.744 OA
ENDBRANCH  55  56
ENDBRANCH  27  50
BRANCH  39  60
ATOM     60  C   UNL A   1      50.596  27.967  25.553  1.00  0.00    -0.014 A 
ATOM     61  C   UNL A   1      51.685  27.584  26.354  1.00  0.00     0.010 A 
ATOM     62  C   UNL A   1      50.791  28.184  24.177  1.00  0.00     0.010 A 
ATOM     63  C   UNL A   1      52.951  27.432  25.789  1.00  0.00     0.020 A 
ATOM     64  C   UNL A   1      52.050  28.006  23.603  1.00  0.00     0.020 A 
ATOM     65  C   UNL A   1      53.124  27.638  24.415  1.00  0.00     0.054 A 
BRANCH  65  66
ATOM     66  S   UNL A   1      54.764  27.360  23.692  1.00  0.00     0.124 S 
ATOM     67  O   UNL A   1      54.431  26.998  22.317  1.00  0.00    -0.237 OA
ATOM     68  O   UNL A   1      55.412  28.657  23.862  1.00  0.00    -0.237 OA
ATOM     69  O   UNL A   1      55.321  26.280  24.504  1.00  0.00    -0.744 OA
ENDBRANCH  65  66
ENDBRANCH  39  60
ENDBRANCH  13  14
ENDBRANCH   6   8
ENDBRANCH   5   6
ENDBRANCH   4   5
ENDBRANCH   3   4
ENDBRANCH   2   3
ENDBRANCH   1   2
BRANCH   1  70
ATOM     70  C   UNL A   1      34.992  30.368  27.908  1.00  0.00     0.188 C 
BRANCH  70  71
ATOM     71  O   UNL A   1      34.135  30.289  26.778  1.00  0.00    -0.376 OA
BRANCH  71  72
ATOM     72  C   UNL A   1      32.745  29.997  26.952  1.00  0.00     0.202 C 
BRANCH  72  73
ATOM     73  C   UNL A   1      31.675  30.650  25.887  1.00  0.00     0.261 C 
BRANCH  73  74
ATOM     74  O   UNL A   1      30.692  29.724  24.373  1.00  0.00    -0.458 OA
BRANCH  74  75
ATOM     75  C   UNL A   1      30.324  28.992  23.201  1.00  0.00     0.359 C 
ATOM     76  O   UNL A   1      29.578  29.524  22.375  1.00  0.00    -0.244 OA
BRANCH  75  77
ATOM     77  C   UNL A   1      30.813  27.584  22.906  1.00  0.00     0.179 A 
ATOM     78  N   UNL A   1      31.941  27.596  22.128  1.00  0.00    -0.245 NA
ATOM     79  C   UNL A   1      30.265  26.367  23.345  1.00  0.00     0.161 A 
ATOM     80  C   UNL A   1      32.487  26.400  21.812  1.00  0.00     0.132 A 
ATOM     81  N   UNL A   1      30.801  25.163  22.957  1.00  0.00    -0.247 NA
ATOM     82  C   UNL A   1      31.915  25.206  22.196  1.00  0.00     0.132 A 
BRANCH  79  83
ATOM     83  C   UNL A   1      29.105  26.169  24.283  1.00  0.00     0.276 C 
ATOM     84  O   UNL A   1      27.961  26.486  23.952  1.00  0.00    -0.267 OA
ATOM     85  N   UNL A   1      29.261  25.575  25.507  1.00  0.00    -0.320 N 
ATOM     86  H   UNL A   1      28.453  25.357  26.025  1.00  0.00     0.170 HD
BRANCH  85  87
ATOM     87  C   UNL A   1      30.488  25.264  26.055  1.00  0.00     0.045 A 
ATOM     88  C   UNL A   1      31.798  26.547  26.149  1.00  0.00     0.030 A 
ATOM     89  C   UNL A   1      30.926  23.506  25.997  1.00  0.00     0.076 A 
ATOM     90  C   UNL A   1      33.531  26.033  26.146  1.00  0.00     0.053 A 
ATOM     91  C   UNL A   1      32.662  23.072  26.039  1.00  0.00     0.167 A 
ATOM     92  C   UNL A   1      33.915  24.290  26.088  1.00  0.00     0.165 A 
ATOM     93  O   UNL A   1      33.265  21.868  26.162  1.00  0.00    -0.454 OA
ATOM     94  O   UNL A   1      35.093  23.647  26.258  1.00  0.00    -0.454 OA
ATOM     95  C   UNL A   1      34.662  22.251  26.436  1.00  0.00     0.468 C 
ENDBRANCH  85  87
ENDBRANCH  79  83
ENDBRANCH  75  77
ENDBRANCH  74  75
ENDBRANCH  73  74
ENDBRANCH  72  73
ENDBRANCH  71  72
ENDBRANCH  70  71
ENDBRANCH   1  70
TORSDOF 22
ENDMDL
