MODEL 1
REMARK VINA RESULT:     -10.7      0.000      0.000
REMARK SMILES CC1(C)[C@@](C)(C(=O)Nc2ccc(Cl)cc2Cl)CC[C@]1(C)C(=O)OCCOCCOCCOC(=O)c1ccc(-c2c3nc(c(-c4ccc(S(=O)(=O)[O-])cc4)c4ccc([nH]4)c(-c4ccc(S(=O)(=O)[O-])cc4)c4nc(c(-c5ccc(S(=O)(=O)[O-])cc5)c5ccc2[nH]5)C=C4)C=C3)cc1
REMARK SMILES IDX 28 1 27 2 26 3 25 4 24 5 23 6 21 7 22 8 19 9 1 10 2 11 3 12
REMARK SMILES IDX 4 13 5 14 17 15 18 16 20 17 6 18 7 19 8 20 9 22 10 23 15 24
REMARK SMILES IDX 11 25 14 26 16 27 12 28 13 29 29 30 30 31 31 32 32 33 33 34
REMARK SMILES IDX 34 35 35 36 36 37 94 38 37 39 93 40 38 41 39 42 40 43 87 44
REMARK SMILES IDX 41 45 92 46 86 47 88 48 42 49 91 50 85 51 84 52 43 54 73 55
REMARK SMILES IDX 54 56 72 57 55 58 58 59 71 60 89 61 56 62 57 63 70 65 90 66
REMARK SMILES IDX 59 67 44 68 45 69 53 70 46 71 52 72 47 73 48 74 49 75 50 76
REMARK SMILES IDX 51 77 74 78 75 79 83 80 76 81 82 82 77 83 78 84 79 85 80 86
REMARK SMILES IDX 81 87 60 88 61 89 69 90 62 91 68 92 63 93 64 94 65 95 66 96
REMARK SMILES IDX 67 97
REMARK H PARENT 8 21 88 53 58 64
REMARK Flexibility Score: inf
ROOT
ATOM      1  C   UNL A   1      40.788  20.779  27.389  1.00  0.00     0.188 C 
ENDROOT
BRANCH   1   2
ATOM      2  C   UNL A   1      39.992  21.114  26.141  1.00  0.00     0.188 C 
BRANCH   2   3
ATOM      3  O   UNL A   1      38.800  21.881  26.266  1.00  0.00    -0.376 OA
BRANCH   3   4
ATOM      4  C   UNL A   1      37.862  21.932  25.201  1.00  0.00     0.202 C 
BRANCH   4   5
ATOM      5  C   UNL A   1      36.509  21.221  25.410  1.00  0.00     0.261 C 
BRANCH   5   6
ATOM      6  O   UNL A   1      35.454  21.396  24.429  1.00  0.00    -0.463 OA
BRANCH   6   7
ATOM      7  C   UNL A   1      34.184  21.388  24.917  1.00  0.00     0.312 C 
ATOM      8  O   UNL A   1      33.754  20.481  25.626  1.00  0.00    -0.252 OA
BRANCH   7   9
ATOM      9  C   UNL A   1      33.270  22.559  24.458  1.00  0.00     0.071 C 
ATOM     10  C   UNL A   1      34.543  24.771  24.274  1.00  0.00     0.013 C 
ATOM     11  C   UNL A   1      33.407  24.051  25.054  1.00  0.00    -0.005 C 
ATOM     12  C   UNL A   1      33.762  24.067  26.556  1.00  0.00     0.013 C 
ATOM     13  C   UNL A   1      31.928  24.709  24.946  1.00  0.00     0.053 C 
ATOM     14  C   UNL A   1      31.254  25.336  26.206  1.00  0.00     0.022 C 
ATOM     15  C   UNL A   1      31.006  23.457  24.681  1.00  0.00     0.018 C 
ATOM     16  C   UNL A   1      31.834  22.192  24.848  1.00  0.00     0.020 C 
ATOM     17  C   UNL A   1      33.366  22.489  22.908  1.00  0.00     0.024 C 
BRANCH  13  18
ATOM     18  C   UNL A   1      31.787  25.772  23.824  1.00  0.00     0.230 C 
ATOM     19  O   UNL A   1      31.436  25.429  22.687  1.00  0.00    -0.274 OA
ATOM     20  N   UNL A   1      31.963  27.124  23.991  1.00  0.00    -0.324 N 
ATOM     21  H   UNL A   1      31.584  27.622  23.231  1.00  0.00     0.170 HD
BRANCH  20  22
ATOM     22  C   UNL A   1      32.534  28.013  24.941  1.00  0.00     0.060 A 
ATOM     23  C   UNL A   1      33.700  27.762  25.657  1.00  0.00     0.029 A 
ATOM     24  C   UNL A   1      31.948  29.277  25.140  1.00  0.00     0.066 A 
ATOM     25  C   UNL A   1      34.268  28.677  26.546  1.00  0.00     0.023 A 
ATOM     26  C   UNL A   1      32.494  30.208  26.040  1.00  0.00     0.043 A 
ATOM     27  Cl  UNL A   1      30.511  29.733  24.291  1.00  0.00    -0.082 Cl
ATOM     28  C   UNL A   1      33.656  29.900  26.740  1.00  0.00     0.042 A 
ATOM     29  Cl  UNL A   1      34.352  31.033  27.827  1.00  0.00    -0.084 Cl
ENDBRANCH  20  22
ENDBRANCH  13  18
ENDBRANCH   7   9
ENDBRANCH   6   7
ENDBRANCH   5   6
ENDBRANCH   4   5
ENDBRANCH   3   4
ENDBRANCH   2   3
ENDBRANCH   1   2
BRANCH   1  30
ATOM     30  O   UNL A   1      42.178  20.645  27.156  1.00  0.00    -0.376 OA
BRANCH  30  31
ATOM     31  C   UNL A   1      42.731  21.377  26.076  1.00  0.00     0.202 C 
BRANCH  31  32
ATOM     32  C   UNL A   1      43.568  22.541  26.615  1.00  0.00     0.261 C 
BRANCH  32  33
ATOM     33  O   UNL A   1      42.787  23.569  27.250  1.00  0.00    -0.460 OA
BRANCH  33  34
ATOM     34  C   UNL A   1      42.614  24.706  26.527  1.00  0.00     0.338 C 
ATOM     35  O   UNL A   1      42.682  24.815  25.322  1.00  0.00    -0.246 OA
BRANCH  34  36
ATOM     36  C   UNL A   1      42.076  25.752  27.428  1.00  0.00     0.060 A 
ATOM     37  C   UNL A   1      42.677  27.017  27.394  1.00  0.00     0.016 A 
ATOM     38  C   UNL A   1      41.001  25.508  28.281  1.00  0.00     0.016 A 
ATOM     39  C   UNL A   1      42.258  28.021  28.265  1.00  0.00     0.010 A 
ATOM     40  C   UNL A   1      40.582  26.513  29.159  1.00  0.00     0.010 A 
ATOM     41  C   UNL A   1      41.240  27.757  29.190  1.00  0.00    -0.014 A 
BRANCH  41  42
ATOM     42  C   UNL A   1      41.002  28.699  30.314  1.00  0.00     0.031 A 
ATOM     43  C   UNL A   1      41.887  28.598  31.530  1.00  0.00     0.074 A 
ATOM     44  C   UNL A   1      40.049  29.646  30.251  1.00  0.00     0.049 A 
ATOM     45  N   UNL A   1      41.835  29.270  32.652  1.00  0.00    -0.248 NA
ATOM     46  C   UNL A   1      42.971  27.603  31.475  1.00  0.00     0.031 C 
ATOM     47  C   UNL A   1      39.163  29.887  29.113  1.00  0.00     0.029 A 
ATOM     48  N   UNL A   1      39.667  30.584  31.178  1.00  0.00    -0.354 N 
ATOM     49  C   UNL A   1      42.862  28.763  33.442  1.00  0.00     0.074 A 
ATOM     50  C   UNL A   1      43.502  27.712  32.684  1.00  0.00     0.031 C 
ATOM     51  C   UNL A   1      38.336  30.904  29.412  1.00  0.00     0.029 A 
ATOM     52  C   UNL A   1      38.604  31.359  30.776  1.00  0.00     0.049 A 
ATOM     53  H   UNL A   1      40.111  30.692  32.051  1.00  0.00     0.167 HD
ATOM     54  C   UNL A   1      43.242  29.141  34.685  1.00  0.00     0.031 A 
ATOM     55  C   UNL A   1      37.912  32.307  31.438  1.00  0.00     0.031 A 
ATOM     56  C   UNL A   1      42.606  30.188  35.439  1.00  0.00     0.049 A 
ATOM     57  C   UNL A   1      38.315  32.668  32.847  1.00  0.00     0.074 A 
ATOM     58  C   UNL A   1      42.930  30.656  36.701  1.00  0.00     0.029 A 
ATOM     59  N   UNL A   1      41.516  30.928  35.006  1.00  0.00    -0.354 N 
ATOM     60  N   UNL A   1      39.293  32.186  33.578  1.00  0.00    -0.248 NA
ATOM     61  C   UNL A   1      37.526  33.714  33.515  1.00  0.00     0.031 C 
ATOM     62  C   UNL A   1      41.996  31.633  37.058  1.00  0.00     0.029 A 
ATOM     63  C   UNL A   1      41.139  31.831  35.987  1.00  0.00     0.049 A 
ATOM     64  H   UNL A   1      41.076  30.827  34.132  1.00  0.00     0.167 HD
ATOM     65  C   UNL A   1      39.259  32.897  34.775  1.00  0.00     0.074 A 
ATOM     66  C   UNL A   1      38.175  33.851  34.663  1.00  0.00     0.031 C 
ATOM     67  C   UNL A   1      40.058  32.778  35.865  1.00  0.00     0.031 A 
BRANCH  54  68
ATOM     68  C   UNL A   1      44.377  28.386  35.329  1.00  0.00    -0.014 A 
ATOM     69  C   UNL A   1      45.680  28.914  35.377  1.00  0.00     0.010 A 
ATOM     70  C   UNL A   1      44.120  27.144  35.939  1.00  0.00     0.010 A 
ATOM     71  C   UNL A   1      46.710  28.197  35.991  1.00  0.00     0.020 A 
ATOM     72  C   UNL A   1      45.140  26.439  36.583  1.00  0.00     0.020 A 
ATOM     73  C   UNL A   1      46.433  26.964  36.593  1.00  0.00     0.054 A 
BRANCH  73  74
ATOM     74  S   UNL A   1      47.782  26.074  37.413  1.00  0.00     0.124 S 
ATOM     75  O   UNL A   1      48.646  27.168  37.848  1.00  0.00    -0.237 OA
ATOM     76  O   UNL A   1      47.089  25.359  38.482  1.00  0.00    -0.237 OA
ATOM     77  O   UNL A   1      48.334  25.227  36.358  1.00  0.00    -0.744 OA
ENDBRANCH  73  74
ENDBRANCH  54  68
BRANCH  55  78
ATOM     78  C   UNL A   1      36.744  32.971  30.792  1.00  0.00    -0.014 A 
ATOM     79  C   UNL A   1      36.916  33.823  29.686  1.00  0.00     0.010 A 
ATOM     80  C   UNL A   1      35.447  32.766  31.298  1.00  0.00     0.010 A 
ATOM     81  C   UNL A   1      35.818  34.476  29.116  1.00  0.00     0.020 A 
ATOM     82  C   UNL A   1      34.343  33.390  30.710  1.00  0.00     0.020 A 
ATOM     83  C   UNL A   1      34.537  34.254  29.631  1.00  0.00     0.054 A 
BRANCH  83  84
ATOM     84  S   UNL A   1      33.124  35.082  28.852  1.00  0.00     0.124 S 
ATOM     85  O   UNL A   1      32.242  35.314  29.990  1.00  0.00    -0.237 OA
ATOM     86  O   UNL A   1      33.739  36.274  28.273  1.00  0.00    -0.237 OA
ATOM     87  O   UNL A   1      32.645  34.101  27.879  1.00  0.00    -0.744 OA
ENDBRANCH  83  84
ENDBRANCH  55  78
BRANCH  67  88
ATOM     88  C   UNL A   1      39.835  33.742  37.004  1.00  0.00    -0.014 A 
ATOM     89  C   UNL A   1      38.918  33.474  38.035  1.00  0.00     0.010 A 
ATOM     90  C   UNL A   1      40.588  34.930  37.055  1.00  0.00     0.010 A 
ATOM     91  C   UNL A   1      38.718  34.400  39.064  1.00  0.00     0.020 A 
ATOM     92  C   UNL A   1      40.417  35.842  38.100  1.00  0.00     0.020 A 
ATOM     93  C   UNL A   1      39.466  35.581  39.086  1.00  0.00     0.054 A 
BRANCH  93  94
ATOM     94  S   UNL A   1      39.195  36.764  40.435  1.00  0.00     0.124 S 
ATOM     95  O   UNL A   1      40.562  37.072  40.847  1.00  0.00    -0.237 OA
ATOM     96  O   UNL A   1      38.479  37.850  39.769  1.00  0.00    -0.237 OA
ATOM     97  O   UNL A   1      38.407  36.009  41.406  1.00  0.00    -0.744 OA
ENDBRANCH  93  94
ENDBRANCH  67  88
ENDBRANCH  41  42
ENDBRANCH  34  36
ENDBRANCH  33  34
ENDBRANCH  32  33
ENDBRANCH  31  32
ENDBRANCH  30  31
ENDBRANCH   1  30
TORSDOF 22
ENDMDL
MODEL 2
REMARK VINA RESULT:     -10.0      5.766     12.104
REMARK SMILES CC1(C)[C@@](C)(C(=O)Nc2ccc(Cl)cc2Cl)CC[C@]1(C)C(=O)OCCOCCOCCOC(=O)c1ccc(-c2c3nc(c(-c4ccc(S(=O)(=O)[O-])cc4)c4ccc([nH]4)c(-c4ccc(S(=O)(=O)[O-])cc4)c4nc(c(-c5ccc(S(=O)(=O)[O-])cc5)c5ccc2[nH]5)C=C4)C=C3)cc1
REMARK SMILES IDX 28 1 27 2 26 3 25 4 24 5 23 6 21 7 22 8 19 9 1 10 2 11 3 12
REMARK SMILES IDX 4 13 5 14 17 15 18 16 20 17 6 18 7 19 8 20 9 22 10 23 15 24
REMARK SMILES IDX 11 25 14 26 16 27 12 28 13 29 29 30 30 31 31 32 32 33 33 34
REMARK SMILES IDX 34 35 35 36 36 37 94 38 37 39 93 40 38 41 39 42 40 43 87 44
REMARK SMILES IDX 41 45 92 46 86 47 88 48 42 49 91 50 85 51 84 52 43 54 73 55
REMARK SMILES IDX 54 56 72 57 55 58 58 59 71 60 89 61 56 62 57 63 70 65 90 66
REMARK SMILES IDX 59 67 44 68 45 69 53 70 46 71 52 72 47 73 48 74 49 75 50 76
REMARK SMILES IDX 51 77 74 78 75 79 83 80 76 81 82 82 77 83 78 84 79 85 80 86
REMARK SMILES IDX 81 87 60 88 61 89 69 90 62 91 68 92 63 93 64 94 65 95 66 96
REMARK SMILES IDX 67 97
REMARK H PARENT 8 21 88 53 58 64
REMARK Flexibility Score: inf
ROOT
ATOM      1  C   UNL A   1      34.702  33.919  28.402  1.00  0.00     0.188 C 
ENDROOT
BRANCH   1   2
ATOM      2  C   UNL A   1      34.916  32.470  28.006  1.00  0.00     0.188 C 
BRANCH   2   3
ATOM      3  O   UNL A   1      33.812  31.573  28.045  1.00  0.00    -0.376 OA
BRANCH   3   4
ATOM      4  C   UNL A   1      33.514  30.751  26.927  1.00  0.00     0.202 C 
BRANCH   4   5
ATOM      5  C   UNL A   1      32.034  30.384  26.688  1.00  0.00     0.261 C 
BRANCH   5   6
ATOM      6  O   UNL A   1      31.684  29.015  26.357  1.00  0.00    -0.463 OA
BRANCH   6   7
ATOM      7  C   UNL A   1      31.526  28.748  25.032  1.00  0.00     0.312 C 
ATOM      8  O   UNL A   1      30.877  29.474  24.284  1.00  0.00    -0.252 OA
BRANCH   7   9
ATOM      9  C   UNL A   1      32.149  27.415  24.527  1.00  0.00     0.071 C 
ATOM     10  C   UNL A   1      31.465  26.875  22.121  1.00  0.00     0.013 C 
ATOM     11  C   UNL A   1      31.340  26.381  23.590  1.00  0.00    -0.005 C 
ATOM     12  C   UNL A   1      29.842  26.292  23.949  1.00  0.00     0.013 C 
ATOM     13  C   UNL A   1      31.957  24.916  23.914  1.00  0.00     0.053 C 
ATOM     14  C   UNL A   1      31.015  23.741  24.323  1.00  0.00     0.022 C 
ATOM     15  C   UNL A   1      32.759  25.161  25.249  1.00  0.00     0.018 C 
ATOM     16  C   UNL A   1      32.449  26.559  25.761  1.00  0.00     0.020 C 
ATOM     17  C   UNL A   1      33.511  27.872  23.931  1.00  0.00     0.024 C 
BRANCH  13  18
ATOM     18  C   UNL A   1      32.869  24.349  22.793  1.00  0.00     0.230 C 
ATOM     19  O   UNL A   1      33.198  25.069  21.841  1.00  0.00    -0.274 OA
ATOM     20  N   UNL A   1      33.420  23.091  22.784  1.00  0.00    -0.324 N 
ATOM     21  H   UNL A   1      34.150  23.035  22.126  1.00  0.00     0.170 HD
BRANCH  20  22
ATOM     22  C   UNL A   1      33.243  21.848  23.448  1.00  0.00     0.060 A 
ATOM     23  C   UNL A   1      32.358  20.854  23.040  1.00  0.00     0.029 A 
ATOM     24  C   UNL A   1      34.057  21.534  24.552  1.00  0.00     0.066 A 
ATOM     25  C   UNL A   1      32.243  19.618  23.682  1.00  0.00     0.023 A 
ATOM     26  C   UNL A   1      33.948  20.304  25.220  1.00  0.00     0.043 A 
ATOM     27  Cl  UNL A   1      35.222  22.668  25.146  1.00  0.00    -0.082 Cl
ATOM     28  C   UNL A   1      33.038  19.349  24.778  1.00  0.00     0.042 A 
ATOM     29  Cl  UNL A   1      32.906  17.830  25.568  1.00  0.00    -0.084 Cl
ENDBRANCH  20  22
ENDBRANCH  13  18
ENDBRANCH   7   9
ENDBRANCH   6   7
ENDBRANCH   5   6
ENDBRANCH   4   5
ENDBRANCH   3   4
ENDBRANCH   2   3
ENDBRANCH   1   2
BRANCH   1  30
ATOM     30  O   UNL A   1      35.362  34.283  29.601  1.00  0.00    -0.376 OA
BRANCH  30  31
ATOM     31  C   UNL A   1      34.931  33.657  30.798  1.00  0.00     0.202 C 
BRANCH  31  32
ATOM     32  C   UNL A   1      36.145  33.151  31.582  1.00  0.00     0.261 C 
BRANCH  32  33
ATOM     33  O   UNL A   1      36.988  32.259  30.830  1.00  0.00    -0.460 OA
BRANCH  33  34
ATOM     34  C   UNL A   1      36.924  30.950  31.187  1.00  0.00     0.338 C 
ATOM     35  O   UNL A   1      35.998  30.394  31.738  1.00  0.00    -0.246 OA
BRANCH  34  36
ATOM     36  C   UNL A   1      38.068  30.242  30.566  1.00  0.00     0.060 A 
ATOM     37  C   UNL A   1      38.954  29.563  31.412  1.00  0.00     0.016 A 
ATOM     38  C   UNL A   1      38.268  30.233  29.186  1.00  0.00     0.016 A 
ATOM     39  C   UNL A   1      40.085  28.935  30.892  1.00  0.00     0.010 A 
ATOM     40  C   UNL A   1      39.404  29.607  28.664  1.00  0.00     0.010 A 
ATOM     41  C   UNL A   1      40.344  28.999  29.518  1.00  0.00    -0.014 A 
BRANCH  41  42
ATOM     42  C   UNL A   1      41.681  28.612  29.000  1.00  0.00     0.031 A 
ATOM     43  C   UNL A   1      42.752  29.670  28.924  1.00  0.00     0.074 A 
ATOM     44  C   UNL A   1      41.958  27.346  28.636  1.00  0.00     0.049 A 
ATOM     45  N   UNL A   1      43.971  29.586  28.458  1.00  0.00    -0.248 NA
ATOM     46  C   UNL A   1      42.396  31.004  29.437  1.00  0.00     0.031 C 
ATOM     47  C   UNL A   1      41.031  26.218  28.713  1.00  0.00     0.029 A 
ATOM     48  N   UNL A   1      43.110  26.802  28.124  1.00  0.00    -0.354 N 
ATOM     49  C   UNL A   1      44.518  30.856  28.600  1.00  0.00     0.074 A 
ATOM     50  C   UNL A   1      43.492  31.699  29.171  1.00  0.00     0.031 C 
ATOM     51  C   UNL A   1      41.652  25.114  28.257  1.00  0.00     0.029 A 
ATOM     52  C   UNL A   1      43.001  25.466  27.819  1.00  0.00     0.049 A 
ATOM     53  H   UNL A   1      43.936  27.320  27.987  1.00  0.00     0.167 HD
ATOM     54  C   UNL A   1      45.765  31.284  28.289  1.00  0.00     0.031 A 
ATOM     55  C   UNL A   1      43.879  24.628  27.231  1.00  0.00     0.031 A 
ATOM     56  C   UNL A   1      46.787  30.445  27.723  1.00  0.00     0.049 A 
ATOM     57  C   UNL A   1      45.242  25.143  26.836  1.00  0.00     0.074 A 
ATOM     58  C   UNL A   1      48.088  30.782  27.389  1.00  0.00     0.029 A 
ATOM     59  N   UNL A   1      46.627  29.104  27.404  1.00  0.00    -0.354 N 
ATOM     60  N   UNL A   1      45.747  26.345  26.984  1.00  0.00    -0.248 NA
ATOM     61  C   UNL A   1      46.157  24.181  26.205  1.00  0.00     0.031 C 
ATOM     62  C   UNL A   1      48.693  29.664  26.807  1.00  0.00     0.029 A 
ATOM     63  C   UNL A   1      47.797  28.608  26.852  1.00  0.00     0.049 A 
ATOM     64  H   UNL A   1      45.804  28.584  27.547  1.00  0.00     0.167 HD
ATOM     65  C   UNL A   1      47.052  26.271  26.502  1.00  0.00     0.074 A 
ATOM     66  C   UNL A   1      47.260  24.904  26.070  1.00  0.00     0.031 C 
ATOM     67  C   UNL A   1      47.994  27.244  26.428  1.00  0.00     0.031 A 
BRANCH  54  68
ATOM     68  C   UNL A   1      46.082  32.740  28.515  1.00  0.00    -0.014 A 
ATOM     69  C   UNL A   1      45.768  33.720  27.556  1.00  0.00     0.010 A 
ATOM     70  C   UNL A   1      46.664  33.138  29.733  1.00  0.00     0.010 A 
ATOM     71  C   UNL A   1      46.063  35.065  27.798  1.00  0.00     0.020 A 
ATOM     72  C   UNL A   1      46.930  34.485  29.992  1.00  0.00     0.020 A 
ATOM     73  C   UNL A   1      46.640  35.439  29.016  1.00  0.00     0.054 A 
BRANCH  73  74
ATOM     74  S   UNL A   1      46.979  37.195  29.315  1.00  0.00     0.124 S 
ATOM     75  O   UNL A   1      48.089  37.449  28.401  1.00  0.00    -0.237 OA
ATOM     76  O   UNL A   1      45.713  37.829  28.956  1.00  0.00    -0.237 OA
ATOM     77  O   UNL A   1      47.317  37.247  30.735  1.00  0.00    -0.744 OA
ENDBRANCH  73  74
ENDBRANCH  54  68
BRANCH  55  78
ATOM     78  C   UNL A   1      43.494  23.215  26.951  1.00  0.00    -0.014 A 
ATOM     79  C   UNL A   1      42.998  22.384  27.972  1.00  0.00     0.010 A 
ATOM     80  C   UNL A   1      43.643  22.686  25.656  1.00  0.00     0.010 A 
ATOM     81  C   UNL A   1      42.683  21.047  27.708  1.00  0.00     0.020 A 
ATOM     82  C   UNL A   1      43.298  21.360  25.380  1.00  0.00     0.020 A 
ATOM     83  C   UNL A   1      42.833  20.544  26.413  1.00  0.00     0.054 A 
BRANCH  83  84
ATOM     84  S   UNL A   1      42.382  18.817  26.086  1.00  0.00     0.124 S 
ATOM     85  O   UNL A   1      42.620  18.190  27.381  1.00  0.00    -0.237 OA
ATOM     86  O   UNL A   1      40.982  18.930  25.683  1.00  0.00    -0.237 OA
ATOM     87  O   UNL A   1      43.300  18.420  25.020  1.00  0.00    -0.744 OA
ENDBRANCH  83  84
ENDBRANCH  55  78
BRANCH  67  88
ATOM     88  C   UNL A   1      49.362  26.856  25.920  1.00  0.00    -0.014 A 
ATOM     89  C   UNL A   1      49.808  27.220  24.637  1.00  0.00     0.010 A 
ATOM     90  C   UNL A   1      50.228  26.135  26.763  1.00  0.00     0.010 A 
ATOM     91  C   UNL A   1      51.072  26.824  24.189  1.00  0.00     0.020 A 
ATOM     92  C   UNL A   1      51.505  25.767  26.332  1.00  0.00     0.020 A 
ATOM     93  C   UNL A   1      51.910  26.095  25.038  1.00  0.00     0.054 A 
BRANCH  93  94
ATOM     94  S   UNL A   1      53.548  25.598  24.437  1.00  0.00     0.124 S 
ATOM     95  O   UNL A   1      54.425  26.532  25.139  1.00  0.00    -0.237 OA
ATOM     96  O   UNL A   1      53.639  24.206  24.868  1.00  0.00    -0.237 OA
ATOM     97  O   UNL A   1      53.462  25.793  22.991  1.00  0.00    -0.744 OA
ENDBRANCH  93  94
ENDBRANCH  67  88
ENDBRANCH  41  42
ENDBRANCH  34  36
ENDBRANCH  33  34
ENDBRANCH  32  33
ENDBRANCH  31  32
ENDBRANCH  30  31
ENDBRANCH   1  30
TORSDOF 22
ENDMDL
MODEL 3
REMARK VINA RESULT:      -9.9      5.916     11.533
REMARK SMILES CC1(C)[C@@](C)(C(=O)Nc2ccc(Cl)cc2Cl)CC[C@]1(C)C(=O)OCCOCCOCCOC(=O)c1ccc(-c2c3nc(c(-c4ccc(S(=O)(=O)[O-])cc4)c4ccc([nH]4)c(-c4ccc(S(=O)(=O)[O-])cc4)c4nc(c(-c5ccc(S(=O)(=O)[O-])cc5)c5ccc2[nH]5)C=C4)C=C3)cc1
REMARK SMILES IDX 28 1 27 2 26 3 25 4 24 5 23 6 21 7 22 8 19 9 1 10 2 11 3 12
REMARK SMILES IDX 4 13 5 14 17 15 18 16 20 17 6 18 7 19 8 20 9 22 10 23 15 24
REMARK SMILES IDX 11 25 14 26 16 27 12 28 13 29 29 30 30 31 31 32 32 33 33 34
REMARK SMILES IDX 34 35 35 36 36 37 94 38 37 39 93 40 38 41 39 42 40 43 87 44
REMARK SMILES IDX 41 45 92 46 86 47 88 48 42 49 91 50 85 51 84 52 43 54 73 55
REMARK SMILES IDX 54 56 72 57 55 58 58 59 71 60 89 61 56 62 57 63 70 65 90 66
REMARK SMILES IDX 59 67 44 68 45 69 53 70 46 71 52 72 47 73 48 74 49 75 50 76
REMARK SMILES IDX 51 77 74 78 75 79 83 80 76 81 82 82 77 83 78 84 79 85 80 86
REMARK SMILES IDX 81 87 60 88 61 89 69 90 62 91 68 92 63 93 64 94 65 95 66 96
REMARK SMILES IDX 67 97
REMARK H PARENT 8 21 88 53 58 64
REMARK Flexibility Score: inf
ROOT
ATOM      1  C   UNL A   1      35.049  34.065  29.014  1.00  0.00     0.188 C 
ENDROOT
BRANCH   1   2
ATOM      2  C   UNL A   1      35.526  32.720  28.496  1.00  0.00     0.188 C 
BRANCH   2   3
ATOM      3  O   UNL A   1      34.690  31.986  27.608  1.00  0.00    -0.376 OA
BRANCH   3   4
ATOM      4  C   UNL A   1      34.941  30.612  27.354  1.00  0.00     0.202 C 
BRANCH   4   5
ATOM      5  C   UNL A   1      33.726  29.709  27.060  1.00  0.00     0.261 C 
BRANCH   5   6
ATOM      6  O   UNL A   1      33.937  28.400  26.471  1.00  0.00    -0.463 OA
BRANCH   6   7
ATOM      7  C   UNL A   1      33.411  28.216  25.230  1.00  0.00     0.312 C 
ATOM      8  O   UNL A   1      33.160  29.151  24.473  1.00  0.00    -0.252 OA
BRANCH   7   9
ATOM      9  C   UNL A   1      33.065  26.750  24.846  1.00  0.00     0.071 C 
ATOM     10  C   UNL A   1      31.033  26.605  23.298  1.00  0.00     0.013 C 
ATOM     11  C   UNL A   1      31.546  26.224  24.715  1.00  0.00    -0.005 C 
ATOM     12  C   UNL A   1      30.601  26.852  25.761  1.00  0.00     0.013 C 
ATOM     13  C   UNL A   1      31.595  24.640  25.063  1.00  0.00     0.053 C 
ATOM     14  C   UNL A   1      30.656  24.048  26.160  1.00  0.00     0.022 C 
ATOM     15  C   UNL A   1      33.013  24.472  25.732  1.00  0.00     0.018 C 
ATOM     16  C   UNL A   1      33.619  25.849  25.954  1.00  0.00     0.020 C 
ATOM     17  C   UNL A   1      33.926  26.511  23.573  1.00  0.00     0.024 C 
BRANCH  13  18
ATOM     18  C   UNL A   1      31.431  23.714  23.828  1.00  0.00     0.230 C 
ATOM     19  O   UNL A   1      30.347  23.666  23.230  1.00  0.00    -0.274 OA
ATOM     20  N   UNL A   1      32.431  22.954  23.272  1.00  0.00    -0.324 N 
ATOM     21  H   UNL A   1      32.179  22.652  22.370  1.00  0.00     0.170 HD
BRANCH  20  22
ATOM     22  C   UNL A   1      33.723  22.477  23.621  1.00  0.00     0.060 A 
ATOM     23  C   UNL A   1      34.918  23.061  23.212  1.00  0.00     0.029 A 
ATOM     24  C   UNL A   1      33.839  21.388  24.505  1.00  0.00     0.066 A 
ATOM     25  C   UNL A   1      36.174  22.602  23.615  1.00  0.00     0.023 A 
ATOM     26  C   UNL A   1      35.092  20.901  24.912  1.00  0.00     0.043 A 
ATOM     27  Cl  UNL A   1      32.432  20.587  25.115  1.00  0.00    -0.082 Cl
ATOM     28  C   UNL A   1      36.257  21.514  24.463  1.00  0.00     0.042 A 
ATOM     29  Cl  UNL A   1      37.798  20.949  24.967  1.00  0.00    -0.084 Cl
ENDBRANCH  20  22
ENDBRANCH  13  18
ENDBRANCH   7   9
ENDBRANCH   6   7
ENDBRANCH   5   6
ENDBRANCH   4   5
ENDBRANCH   3   4
ENDBRANCH   2   3
ENDBRANCH   1   2
BRANCH   1  30
ATOM     30  O   UNL A   1      35.429  34.322  30.354  1.00  0.00    -0.376 OA
BRANCH  30  31
ATOM     31  C   UNL A   1      34.870  33.493  31.360  1.00  0.00     0.202 C 
BRANCH  31  32
ATOM     32  C   UNL A   1      35.992  32.844  32.175  1.00  0.00     0.261 C 
BRANCH  32  33
ATOM     33  O   UNL A   1      36.936  32.109  31.375  1.00  0.00    -0.460 OA
BRANCH  33  34
ATOM     34  C   UNL A   1      37.101  30.804  31.714  1.00  0.00     0.338 C 
ATOM     35  O   UNL A   1      36.324  30.113  32.336  1.00  0.00    -0.246 OA
BRANCH  34  36
ATOM     36  C   UNL A   1      38.277  30.279  30.980  1.00  0.00     0.060 A 
ATOM     37  C   UNL A   1      39.201  29.504  31.693  1.00  0.00     0.016 A 
ATOM     38  C   UNL A   1      38.469  30.528  29.622  1.00  0.00     0.016 A 
ATOM     39  C   UNL A   1      40.359  29.039  31.072  1.00  0.00     0.010 A 
ATOM     40  C   UNL A   1      39.633  30.065  28.999  1.00  0.00     0.010 A 
ATOM     41  C   UNL A   1      40.607  29.362  29.733  1.00  0.00    -0.014 A 
BRANCH  41  42
ATOM     42  C   UNL A   1      41.959  29.143  29.159  1.00  0.00     0.031 A 
ATOM     43  C   UNL A   1      42.293  27.776  28.617  1.00  0.00     0.074 A 
ATOM     44  C   UNL A   1      42.864  30.135  29.086  1.00  0.00     0.049 A 
ATOM     45  N   UNL A   1      43.420  27.332  28.121  1.00  0.00    -0.248 NA
ATOM     46  C   UNL A   1      41.212  26.776  28.642  1.00  0.00     0.031 C 
ATOM     47  C   UNL A   1      42.650  31.514  29.522  1.00  0.00     0.029 A 
ATOM     48  N   UNL A   1      44.154  30.128  28.616  1.00  0.00    -0.354 N 
ATOM     49  C   UNL A   1      43.190  25.999  27.799  1.00  0.00     0.074 A 
ATOM     50  C   UNL A   1      41.828  25.698  28.178  1.00  0.00     0.031 C 
ATOM     51  C   UNL A   1      43.774  32.220  29.303  1.00  0.00     0.029 A 
ATOM     52  C   UNL A   1      44.799  31.335  28.752  1.00  0.00     0.049 A 
ATOM     53  H   UNL A   1      44.578  29.333  28.218  1.00  0.00     0.167 HD
ATOM     54  C   UNL A   1      44.034  25.104  27.233  1.00  0.00     0.031 A 
ATOM     55  C   UNL A   1      46.075  31.680  28.487  1.00  0.00     0.031 A 
ATOM     56  C   UNL A   1      45.390  25.403  26.854  1.00  0.00     0.049 A 
ATOM     57  C   UNL A   1      47.017  30.649  27.914  1.00  0.00     0.074 A 
ATOM     58  C   UNL A   1      46.319  24.568  26.258  1.00  0.00     0.029 A 
ATOM     59  N   UNL A   1      46.012  26.629  27.036  1.00  0.00    -0.354 N 
ATOM     60  N   UNL A   1      46.783  29.394  27.607  1.00  0.00    -0.248 NA
ATOM     61  C   UNL A   1      48.393  31.087  27.639  1.00  0.00     0.031 C 
ATOM     62  C   UNL A   1      47.523  25.269  26.140  1.00  0.00     0.029 A 
ATOM     63  C   UNL A   1      47.321  26.565  26.587  1.00  0.00     0.049 A 
ATOM     64  H   UNL A   1      45.587  27.427  27.425  1.00  0.00     0.167 HD
ATOM     65  C   UNL A   1      47.971  28.907  27.068  1.00  0.00     0.074 A 
ATOM     66  C   UNL A   1      48.915  30.005  27.078  1.00  0.00     0.031 C 
ATOM     67  C   UNL A   1      48.253  27.665  26.600  1.00  0.00     0.031 A 
BRANCH  54  68
ATOM     68  C   UNL A   1      43.530  23.699  27.028  1.00  0.00    -0.014 A 
ATOM     69  C   UNL A   1      43.375  22.807  28.104  1.00  0.00     0.010 A 
ATOM     70  C   UNL A   1      43.162  23.281  25.736  1.00  0.00     0.010 A 
ATOM     71  C   UNL A   1      42.894  21.513  27.886  1.00  0.00     0.020 A 
ATOM     72  C   UNL A   1      42.649  21.999  25.518  1.00  0.00     0.020 A 
ATOM     73  C   UNL A   1      42.532  21.118  26.593  1.00  0.00     0.054 A 
BRANCH  73  74
ATOM     74  S   UNL A   1      41.877  19.445  26.346  1.00  0.00     0.124 S 
ATOM     75  O   UNL A   1      42.379  18.747  27.527  1.00  0.00    -0.237 OA
ATOM     76  O   UNL A   1      40.434  19.669  26.316  1.00  0.00    -0.237 OA
ATOM     77  O   UNL A   1      42.467  19.025  25.077  1.00  0.00    -0.744 OA
ENDBRANCH  73  74
ENDBRANCH  54  68
BRANCH  55  78
ATOM     78  C   UNL A   1      46.554  33.060  28.782  1.00  0.00    -0.014 A 
ATOM     79  C   UNL A   1      47.095  33.387  30.039  1.00  0.00     0.010 A 
ATOM     80  C   UNL A   1      46.453  34.067  27.803  1.00  0.00     0.010 A 
ATOM     81  C   UNL A   1      47.500  34.696  30.319  1.00  0.00     0.020 A 
ATOM     82  C   UNL A   1      46.888  35.368  28.068  1.00  0.00     0.020 A 
ATOM     83  C   UNL A   1      47.396  35.678  29.331  1.00  0.00     0.054 A 
BRANCH  83  84
ATOM     84  S   UNL A   1      47.963  37.361  29.704  1.00  0.00     0.124 S 
ATOM     85  O   UNL A   1      49.325  37.126  30.171  1.00  0.00    -0.237 OA
ATOM     86  O   UNL A   1      47.843  38.027  28.409  1.00  0.00    -0.237 OA
ATOM     87  O   UNL A   1      47.022  37.821  30.723  1.00  0.00    -0.744 OA
ENDBRANCH  83  84
ENDBRANCH  55  78
BRANCH  67  88
ATOM     88  C   UNL A   1      49.619  27.438  25.999  1.00  0.00    -0.014 A 
ATOM     89  C   UNL A   1      50.714  27.026  26.779  1.00  0.00     0.010 A 
ATOM     90  C   UNL A   1      49.797  27.614  24.614  1.00  0.00     0.010 A 
ATOM     91  C   UNL A   1      51.972  26.848  26.195  1.00  0.00     0.020 A 
ATOM     92  C   UNL A   1      51.044  27.403  24.020  1.00  0.00     0.020 A 
ATOM     93  C   UNL A   1      52.129  27.043  24.819  1.00  0.00     0.054 A 
BRANCH  93  94
ATOM     94  S   UNL A   1      53.769  26.799  24.082  1.00  0.00     0.124 S 
ATOM     95  O   UNL A   1      54.543  26.309  25.220  1.00  0.00    -0.237 OA
ATOM     96  O   UNL A   1      53.506  25.817  23.033  1.00  0.00    -0.237 OA
ATOM     97  O   UNL A   1      54.138  28.129  23.604  1.00  0.00    -0.744 OA
ENDBRANCH  93  94
ENDBRANCH  67  88
ENDBRANCH  41  42
ENDBRANCH  34  36
ENDBRANCH  33  34
ENDBRANCH  32  33
ENDBRANCH  31  32
ENDBRANCH  30  31
ENDBRANCH   1  30
TORSDOF 22
ENDMDL
