MODEL 1
REMARK VINA RESULT:      -8.5      0.000      0.000
REMARK SMILES CCOc1ccc(-c2nc(C(=O)OCCOCCOCCOC(=O)c3ccc(-c4c5nc(c(-c6ccc(S(=O)(=O)[O-])cc6)c6ccc([nH]6)c(-c6ccc(S(=O)(=O)[O-])cc6)c6nc(c(-c7ccc(S(=O)(=O)[O-])cc7)c7ccc4[nH]7)C=C6)C=C5)cc3)cc(=O)[nH]2)cc1
REMARK SMILES IDX 17 1 16 2 15 3 14 4 13 5 11 6 12 7 10 8 8 9 9 10 88 11 86 12
REMARK SMILES IDX 85 14 87 15 7 16 4 17 5 18 90 19 6 20 89 21 3 22 2 23 1 24
REMARK SMILES IDX 18 25 19 26 20 27 21 28 22 29 23 30 24 31 25 32 26 33 84 34
REMARK SMILES IDX 27 35 83 36 28 37 29 38 30 39 77 40 31 41 82 42 76 43 78 44
REMARK SMILES IDX 32 45 81 46 75 47 74 48 33 50 63 51 44 52 62 53 45 54 48 55
REMARK SMILES IDX 61 56 79 57 46 58 47 59 60 61 80 62 49 63 34 64 35 65 43 66
REMARK SMILES IDX 36 67 42 68 37 69 38 70 39 71 40 72 41 73 64 74 65 75 73 76
REMARK SMILES IDX 66 77 72 78 67 79 68 80 69 81 70 82 71 83 50 84 51 85 59 86
REMARK SMILES IDX 52 87 58 88 53 89 54 90 55 91 56 92 57 93
REMARK H PARENT 88 13 78 49 48 60
REMARK Flexibility Score: inf
ROOT
ATOM      1  C   UNL A   1      44.639  21.165  25.295  1.00  0.00     0.188 C 
ENDROOT
BRANCH   1   2
ATOM      2  O   UNL A   1      44.726  19.756  25.182  1.00  0.00    -0.376 OA
BRANCH   2   3
ATOM      3  C   UNL A   1      43.545  18.970  25.149  1.00  0.00     0.202 C 
BRANCH   3   4
ATOM      4  C   UNL A   1      42.736  18.678  26.419  1.00  0.00     0.261 C 
BRANCH   4   5
ATOM      5  O   UNL A   1      41.888  19.757  26.828  1.00  0.00    -0.459 OA
BRANCH   5   6
ATOM      6  C   UNL A   1      40.682  19.816  26.197  1.00  0.00     0.357 C 
ATOM      7  O   UNL A   1      40.135  18.895  25.609  1.00  0.00    -0.244 OA
BRANCH   6   8
ATOM      8  C   UNL A   1      40.044  21.150  26.429  1.00  0.00     0.156 A 
ATOM      9  C   UNL A   1      38.392  22.625  25.887  1.00  0.00     0.141 A 
ATOM     10  N   UNL A   1      38.901  21.450  25.720  1.00  0.00    -0.223 NA
ATOM     11  N   UNL A   1      38.920  23.553  26.745  1.00  0.00    -0.306 N 
ATOM     12  C   UNL A   1      40.021  23.291  27.506  1.00  0.00     0.251 A 
ATOM     13  H   UNL A   1      38.493  24.437  26.813  1.00  0.00     0.171 HD
ATOM     14  C   UNL A   1      40.629  21.969  27.311  1.00  0.00     0.107 A 
ATOM     15  O   UNL A   1      40.488  24.095  28.303  1.00  0.00    -0.269 OA
BRANCH   9  16
ATOM     16  C   UNL A   1      37.171  23.032  25.171  1.00  0.00     0.018 A 
ATOM     17  C   UNL A   1      34.930  23.861  23.744  1.00  0.00     0.119 A 
ATOM     18  C   UNL A   1      35.187  24.395  25.010  1.00  0.00     0.047 A 
ATOM     19  C   UNL A   1      35.806  22.933  23.182  1.00  0.00     0.047 A 
ATOM     20  C   UNL A   1      36.304  23.972  25.736  1.00  0.00     0.016 A 
ATOM     21  C   UNL A   1      36.929  22.514  23.897  1.00  0.00     0.016 A 
BRANCH  17  22
ATOM     22  O   UNL A   1      33.905  24.404  23.023  1.00  0.00    -0.494 OA
BRANCH  22  23
ATOM     23  C   UNL A   1      33.287  25.539  23.638  1.00  0.00     0.226 C 
ATOM     24  C   UNL A   1      33.218  26.734  22.701  1.00  0.00     0.049 C 
ENDBRANCH  22  23
ENDBRANCH  17  22
ENDBRANCH   9  16
ENDBRANCH   6   8
ENDBRANCH   5   6
ENDBRANCH   4   5
ENDBRANCH   3   4
ENDBRANCH   2   3
ENDBRANCH   1   2
BRANCH   1  25
ATOM     25  C   UNL A   1      45.601  22.065  24.492  1.00  0.00     0.188 C 
BRANCH  25  26
ATOM     26  O   UNL A   1      45.134  23.254  23.892  1.00  0.00    -0.376 OA
BRANCH  26  27
ATOM     27  C   UNL A   1      44.423  24.223  24.644  1.00  0.00     0.202 C 
BRANCH  27  28
ATOM     28  C   UNL A   1      44.944  24.926  25.906  1.00  0.00     0.261 C 
BRANCH  28  29
ATOM     29  O   UNL A   1      44.682  26.324  26.033  1.00  0.00    -0.460 OA
BRANCH  29  30
ATOM     30  C   UNL A   1      43.857  26.657  27.053  1.00  0.00     0.338 C 
ATOM     31  O   UNL A   1      43.089  25.917  27.659  1.00  0.00    -0.246 OA
BRANCH  30  32
ATOM     32  C   UNL A   1      44.135  28.037  27.472  1.00  0.00     0.060 A 
ATOM     33  C   UNL A   1      44.979  28.238  28.571  1.00  0.00     0.016 A 
ATOM     34  C   UNL A   1      43.531  29.117  26.826  1.00  0.00     0.016 A 
ATOM     35  C   UNL A   1      45.209  29.529  29.039  1.00  0.00     0.010 A 
ATOM     36  C   UNL A   1      43.752  30.409  27.309  1.00  0.00     0.010 A 
ATOM     37  C   UNL A   1      44.575  30.619  28.429  1.00  0.00    -0.014 A 
BRANCH  37  38
ATOM     38  C   UNL A   1      44.646  31.950  29.073  1.00  0.00     0.031 A 
ATOM     39  C   UNL A   1      45.753  32.884  28.668  1.00  0.00     0.074 A 
ATOM     40  C   UNL A   1      43.721  32.340  29.969  1.00  0.00     0.049 A 
ATOM     41  N   UNL A   1      46.039  34.073  29.128  1.00  0.00    -0.248 NA
ATOM     42  C   UNL A   1      46.647  32.419  27.595  1.00  0.00     0.031 C 
ATOM     43  C   UNL A   1      42.566  31.551  30.394  1.00  0.00     0.029 A 
ATOM     44  N   UNL A   1      43.618  33.504  30.688  1.00  0.00    -0.354 N 
ATOM     45  C   UNL A   1      47.144  34.501  28.399  1.00  0.00     0.074 A 
ATOM     46  C   UNL A   1      47.490  33.435  27.484  1.00  0.00     0.031 C 
ATOM     47  C   UNL A   1      41.883  32.246  31.321  1.00  0.00     0.029 A 
ATOM     48  C   UNL A   1      42.571  33.509  31.579  1.00  0.00     0.049 A 
ATOM     49  H   UNL A   1      44.234  34.264  30.577  1.00  0.00     0.167 HD
ATOM     50  C   UNL A   1      47.805  35.679  28.479  1.00  0.00     0.031 A 
ATOM     51  C   UNL A   1      42.231  34.413  32.520  1.00  0.00     0.031 A 
ATOM     52  C   UNL A   1      47.484  36.723  29.412  1.00  0.00     0.049 A 
ATOM     53  C   UNL A   1      43.053  35.670  32.666  1.00  0.00     0.074 A 
ATOM     54  C   UNL A   1      48.116  37.941  29.592  1.00  0.00     0.029 A 
ATOM     55  N   UNL A   1      46.442  36.674  30.326  1.00  0.00    -0.354 N 
ATOM     56  N   UNL A   1      44.095  36.062  31.970  1.00  0.00    -0.248 NA
ATOM     57  C   UNL A   1      42.648  36.612  33.721  1.00  0.00     0.031 C 
ATOM     58  C   UNL A   1      47.486  38.609  30.647  1.00  0.00     0.029 A 
ATOM     59  C   UNL A   1      46.423  37.833  31.082  1.00  0.00     0.049 A 
ATOM     60  H   UNL A   1      45.810  35.925  30.424  1.00  0.00     0.167 HD
ATOM     61  C   UNL A   1      44.450  37.306  32.484  1.00  0.00     0.074 A 
ATOM     62  C   UNL A   1      43.503  37.609  33.537  1.00  0.00     0.031 C 
ATOM     63  C   UNL A   1      45.467  38.125  32.120  1.00  0.00     0.031 A 
BRANCH  50  64
ATOM     64  C   UNL A   1      48.965  35.886  27.545  1.00  0.00    -0.014 A 
ATOM     65  C   UNL A   1      48.802  36.587  26.338  1.00  0.00     0.010 A 
ATOM     66  C   UNL A   1      50.243  35.417  27.899  1.00  0.00     0.010 A 
ATOM     67  C   UNL A   1      49.891  36.796  25.489  1.00  0.00     0.020 A 
ATOM     68  C   UNL A   1      51.341  35.645  27.065  1.00  0.00     0.020 A 
ATOM     69  C   UNL A   1      51.155  36.324  25.859  1.00  0.00     0.054 A 
BRANCH  69  70
ATOM     70  S   UNL A   1      52.558  36.645  24.756  1.00  0.00     0.124 S 
ATOM     71  O   UNL A   1      52.793  38.071  24.976  1.00  0.00    -0.237 OA
ATOM     72  O   UNL A   1      53.586  35.751  25.280  1.00  0.00    -0.237 OA
ATOM     73  O   UNL A   1      52.047  36.295  23.433  1.00  0.00    -0.744 OA
ENDBRANCH  69  70
ENDBRANCH  50  64
BRANCH  51  74
ATOM     74  C   UNL A   1      41.093  34.147  33.445  1.00  0.00    -0.014 A 
ATOM     75  C   UNL A   1      41.283  33.436  34.643  1.00  0.00     0.010 A 
ATOM     76  C   UNL A   1      39.794  34.565  33.100  1.00  0.00     0.010 A 
ATOM     77  C   UNL A   1      40.192  33.116  35.458  1.00  0.00     0.020 A 
ATOM     78  C   UNL A   1      38.705  34.273  33.926  1.00  0.00     0.020 A 
ATOM     79  C   UNL A   1      38.908  33.531  35.090  1.00  0.00     0.054 A 
BRANCH  79  80
ATOM     80  S   UNL A   1      37.505  33.110  36.162  1.00  0.00     0.124 S 
ATOM     81  O   UNL A   1      37.793  33.894  37.358  1.00  0.00    -0.237 OA
ATOM     82  O   UNL A   1      36.358  33.555  35.375  1.00  0.00    -0.237 OA
ATOM     83  O   UNL A   1      37.620  31.661  36.320  1.00  0.00    -0.744 OA
ENDBRANCH  79  80
ENDBRANCH  51  74
BRANCH  63  84
ATOM     84  C   UNL A   1      45.584  39.453  32.823  1.00  0.00    -0.014 A 
ATOM     85  C   UNL A   1      44.907  40.592  32.354  1.00  0.00     0.010 A 
ATOM     86  C   UNL A   1      46.334  39.541  34.010  1.00  0.00     0.010 A 
ATOM     87  C   UNL A   1      45.004  41.804  33.044  1.00  0.00     0.020 A 
ATOM     88  C   UNL A   1      46.410  40.743  34.717  1.00  0.00     0.020 A 
ATOM     89  C   UNL A   1      45.755  41.872  34.222  1.00  0.00     0.054 A 
BRANCH  89  90
ATOM     90  S   UNL A   1      45.827  43.443  35.125  1.00  0.00     0.124 S 
ATOM     91  O   UNL A   1      46.182  43.004  36.471  1.00  0.00    -0.237 OA
ATOM     92  O   UNL A   1      46.867  44.179  34.408  1.00  0.00    -0.237 OA
ATOM     93  O   UNL A   1      44.479  43.988  34.983  1.00  0.00    -0.744 OA
ENDBRANCH  89  90
ENDBRANCH  63  84
ENDBRANCH  37  38
ENDBRANCH  30  32
ENDBRANCH  29  30
ENDBRANCH  28  29
ENDBRANCH  27  28
ENDBRANCH  26  27
ENDBRANCH  25  26
ENDBRANCH   1  25
TORSDOF 23
ENDMDL
MODEL 2
REMARK VINA RESULT:      -8.3      3.292      8.928
REMARK SMILES CCOc1ccc(-c2nc(C(=O)OCCOCCOCCOC(=O)c3ccc(-c4c5nc(c(-c6ccc(S(=O)(=O)[O-])cc6)c6ccc([nH]6)c(-c6ccc(S(=O)(=O)[O-])cc6)c6nc(c(-c7ccc(S(=O)(=O)[O-])cc7)c7ccc4[nH]7)C=C6)C=C5)cc3)cc(=O)[nH]2)cc1
REMARK SMILES IDX 17 1 16 2 15 3 14 4 13 5 11 6 12 7 10 8 8 9 9 10 88 11 86 12
REMARK SMILES IDX 85 14 87 15 7 16 4 17 5 18 90 19 6 20 89 21 3 22 2 23 1 24
REMARK SMILES IDX 18 25 19 26 20 27 21 28 22 29 23 30 24 31 25 32 26 33 84 34
REMARK SMILES IDX 27 35 83 36 28 37 29 38 30 39 77 40 31 41 82 42 76 43 78 44
REMARK SMILES IDX 32 45 81 46 75 47 74 48 33 50 63 51 44 52 62 53 45 54 48 55
REMARK SMILES IDX 61 56 79 57 46 58 47 59 60 61 80 62 49 63 34 64 35 65 43 66
REMARK SMILES IDX 36 67 42 68 37 69 38 70 39 71 40 72 41 73 64 74 65 75 73 76
REMARK SMILES IDX 66 77 72 78 67 79 68 80 69 81 70 82 71 83 50 84 51 85 59 86
REMARK SMILES IDX 52 87 58 88 53 89 54 90 55 91 56 92 57 93
REMARK H PARENT 88 13 78 49 48 60
REMARK Flexibility Score: inf
ROOT
ATOM      1  C   UNL A   1      45.431  21.695  24.646  1.00  0.00     0.188 C 
ENDROOT
BRANCH   1   2
ATOM      2  O   UNL A   1      45.741  20.331  24.423  1.00  0.00    -0.376 OA
BRANCH   2   3
ATOM      3  C   UNL A   1      44.700  19.378  24.278  1.00  0.00     0.202 C 
BRANCH   3   4
ATOM      4  C   UNL A   1      43.739  19.054  25.428  1.00  0.00     0.261 C 
BRANCH   4   5
ATOM      5  O   UNL A   1      42.520  19.806  25.395  1.00  0.00    -0.459 OA
BRANCH   5   6
ATOM      6  C   UNL A   1      41.907  19.964  26.602  1.00  0.00     0.357 C 
ATOM      7  O   UNL A   1      42.201  19.385  27.636  1.00  0.00    -0.244 OA
BRANCH   6   8
ATOM      8  C   UNL A   1      40.886  21.056  26.521  1.00  0.00     0.156 A 
ATOM      9  C   UNL A   1      40.293  23.193  27.047  1.00  0.00     0.141 A 
ATOM     10  N   UNL A   1      41.203  22.278  27.073  1.00  0.00    -0.223 NA
ATOM     11  N   UNL A   1      39.061  23.006  26.478  1.00  0.00    -0.306 N 
ATOM     12  C   UNL A   1      38.712  21.834  25.875  1.00  0.00     0.251 A 
ATOM     13  H   UNL A   1      38.406  23.740  26.506  1.00  0.00     0.171 HD
ATOM     14  C   UNL A   1      39.725  20.772  25.917  1.00  0.00     0.107 A 
ATOM     15  O   UNL A   1      37.629  21.658  25.331  1.00  0.00    -0.269 OA
BRANCH   9  16
ATOM     16  C   UNL A   1      40.543  24.530  27.612  1.00  0.00     0.018 A 
ATOM     17  C   UNL A   1      41.035  27.005  28.784  1.00  0.00     0.119 A 
ATOM     18  C   UNL A   1      39.737  26.664  28.394  1.00  0.00     0.047 A 
ATOM     19  C   UNL A   1      42.081  26.100  28.612  1.00  0.00     0.047 A 
ATOM     20  C   UNL A   1      39.488  25.428  27.793  1.00  0.00     0.016 A 
ATOM     21  C   UNL A   1      41.837  24.859  28.022  1.00  0.00     0.016 A 
BRANCH  17  22
ATOM     22  O   UNL A   1      41.203  28.165  29.486  1.00  0.00    -0.494 OA
BRANCH  22  23
ATOM     23  C   UNL A   1      41.042  28.026  30.902  1.00  0.00     0.226 C 
ATOM     24  C   UNL A   1      39.807  28.750  31.413  1.00  0.00     0.049 C 
ENDBRANCH  22  23
ENDBRANCH  17  22
ENDBRANCH   9  16
ENDBRANCH   6   8
ENDBRANCH   5   6
ENDBRANCH   4   5
ENDBRANCH   3   4
ENDBRANCH   2   3
ENDBRANCH   1   2
BRANCH   1  25
ATOM     25  C   UNL A   1      46.389  22.798  24.149  1.00  0.00     0.188 C 
BRANCH  25  26
ATOM     26  O   UNL A   1      46.212  24.136  24.557  1.00  0.00    -0.376 OA
BRANCH  26  27
ATOM     27  C   UNL A   1      46.121  24.477  25.931  1.00  0.00     0.202 C 
BRANCH  27  28
ATOM     28  C   UNL A   1      47.170  24.138  27.001  1.00  0.00     0.261 C 
BRANCH  28  29
ATOM     29  O   UNL A   1      47.248  24.999  28.138  1.00  0.00    -0.460 OA
BRANCH  29  30
ATOM     30  C   UNL A   1      46.061  25.273  28.726  1.00  0.00     0.338 C 
ATOM     31  O   UNL A   1      45.304  24.480  29.276  1.00  0.00    -0.246 OA
BRANCH  30  32
ATOM     32  C   UNL A   1      45.866  26.728  28.772  1.00  0.00     0.060 A 
ATOM     33  C   UNL A   1      45.331  27.360  27.644  1.00  0.00     0.016 A 
ATOM     34  C   UNL A   1      46.256  27.467  29.890  1.00  0.00     0.016 A 
ATOM     35  C   UNL A   1      45.198  28.746  27.627  1.00  0.00     0.010 A 
ATOM     36  C   UNL A   1      46.136  28.859  29.862  1.00  0.00     0.010 A 
ATOM     37  C   UNL A   1      45.626  29.505  28.723  1.00  0.00    -0.014 A 
BRANCH  37  38
ATOM     38  C   UNL A   1      45.690  30.980  28.601  1.00  0.00     0.031 A 
ATOM     39  C   UNL A   1      44.477  31.784  28.978  1.00  0.00     0.074 A 
ATOM     40  C   UNL A   1      46.818  31.596  28.204  1.00  0.00     0.049 A 
ATOM     41  N   UNL A   1      44.289  33.075  28.909  1.00  0.00    -0.248 NA
ATOM     42  C   UNL A   1      43.331  31.033  29.515  1.00  0.00     0.031 C 
ATOM     43  C   UNL A   1      48.078  30.930  27.874  1.00  0.00     0.029 A 
ATOM     44  N   UNL A   1      47.079  32.928  28.006  1.00  0.00    -0.354 N 
ATOM     45  C   UNL A   1      43.005  33.293  29.395  1.00  0.00     0.074 A 
ATOM     46  C   UNL A   1      42.452  32.001  29.734  1.00  0.00     0.031 C 
ATOM     47  C   UNL A   1      48.972  31.859  27.489  1.00  0.00     0.029 A 
ATOM     48  C   UNL A   1      48.338  33.175  27.511  1.00  0.00     0.049 A 
ATOM     49  H   UNL A   1      46.427  33.640  28.198  1.00  0.00     0.167 HD
ATOM     50  C   UNL A   1      42.348  34.466  29.553  1.00  0.00     0.031 A 
ATOM     51  C   UNL A   1      48.899  34.327  27.090  1.00  0.00     0.031 A 
ATOM     52  C   UNL A   1      42.884  35.747  29.183  1.00  0.00     0.049 A 
ATOM     53  C   UNL A   1      48.105  35.607  27.172  1.00  0.00     0.074 A 
ATOM     54  C   UNL A   1      42.282  36.990  29.276  1.00  0.00     0.029 A 
ATOM     55  N   UNL A   1      44.146  35.952  28.648  1.00  0.00    -0.354 N 
ATOM     56  N   UNL A   1      46.891  35.799  27.635  1.00  0.00    -0.248 NA
ATOM     57  C   UNL A   1      48.759  36.829  26.681  1.00  0.00     0.031 C 
ATOM     58  C   UNL A   1      43.164  37.942  28.752  1.00  0.00     0.029 A 
ATOM     59  C   UNL A   1      44.337  37.298  28.391  1.00  0.00     0.049 A 
ATOM     60  H   UNL A   1      44.809  35.244  28.476  1.00  0.00     0.167 HD
ATOM     61  C   UNL A   1      46.651  37.165  27.516  1.00  0.00     0.074 A 
ATOM     62  C   UNL A   1      47.849  37.754  26.955  1.00  0.00     0.031 C 
ATOM     63  C   UNL A   1      45.540  37.871  27.842  1.00  0.00     0.031 A 
BRANCH  50  64
ATOM     64  C   UNL A   1      40.960  34.410  30.129  1.00  0.00    -0.014 A 
ATOM     65  C   UNL A   1      39.831  34.440  29.293  1.00  0.00     0.010 A 
ATOM     66  C   UNL A   1      40.783  34.277  31.518  1.00  0.00     0.010 A 
ATOM     67  C   UNL A   1      38.546  34.362  29.837  1.00  0.00     0.020 A 
ATOM     68  C   UNL A   1      39.501  34.173  32.065  1.00  0.00     0.020 A 
ATOM     69  C   UNL A   1      38.390  34.228  31.221  1.00  0.00     0.054 A 
BRANCH  69  70
ATOM     70  S   UNL A   1      36.712  34.088  31.894  1.00  0.00     0.124 S 
ATOM     71  O   UNL A   1      35.893  34.241  30.694  1.00  0.00    -0.237 OA
ATOM     72  O   UNL A   1      36.716  32.752  32.484  1.00  0.00    -0.237 OA
ATOM     73  O   UNL A   1      36.629  35.189  32.850  1.00  0.00    -0.744 OA
ENDBRANCH  69  70
ENDBRANCH  50  64
BRANCH  51  74
ATOM     74  C   UNL A   1      50.266  34.325  26.496  1.00  0.00    -0.014 A 
ATOM     75  C   UNL A   1      51.410  34.426  27.307  1.00  0.00     0.010 A 
ATOM     76  C   UNL A   1      50.424  34.273  25.098  1.00  0.00     0.010 A 
ATOM     77  C   UNL A   1      52.682  34.513  26.731  1.00  0.00     0.020 A 
ATOM     78  C   UNL A   1      51.696  34.330  24.520  1.00  0.00     0.020 A 
ATOM     79  C   UNL A   1      52.815  34.471  25.339  1.00  0.00     0.054 A 
BRANCH  79  80
ATOM     80  S   UNL A   1      54.474  34.582  24.610  1.00  0.00     0.124 S 
ATOM     81  O   UNL A   1      54.441  35.899  23.983  1.00  0.00    -0.237 OA
ATOM     82  O   UNL A   1      55.343  34.459  25.777  1.00  0.00    -0.237 OA
ATOM     83  O   UNL A   1      54.517  33.449  23.688  1.00  0.00    -0.744 OA
ENDBRANCH  79  80
ENDBRANCH  51  74
BRANCH  63  84
ATOM     84  C   UNL A   1      45.578  39.365  27.653  1.00  0.00    -0.014 A 
ATOM     85  C   UNL A   1      44.990  39.976  26.532  1.00  0.00     0.010 A 
ATOM     86  C   UNL A   1      46.157  40.173  28.649  1.00  0.00     0.010 A 
ATOM     87  C   UNL A   1      45.007  41.368  26.397  1.00  0.00     0.020 A 
ATOM     88  C   UNL A   1      46.151  41.565  28.531  1.00  0.00     0.020 A 
ATOM     89  C   UNL A   1      45.589  42.153  27.398  1.00  0.00     0.054 A 
BRANCH  89  90
ATOM     90  S   UNL A   1      45.558  43.958  27.222  1.00  0.00     0.124 S 
ATOM     91  O   UNL A   1      44.794  44.131  25.990  1.00  0.00    -0.237 OA
ATOM     92  O   UNL A   1      44.885  44.388  28.446  1.00  0.00    -0.237 OA
ATOM     93  O   UNL A   1      46.970  44.323  27.136  1.00  0.00    -0.744 OA
ENDBRANCH  89  90
ENDBRANCH  63  84
ENDBRANCH  37  38
ENDBRANCH  30  32
ENDBRANCH  29  30
ENDBRANCH  28  29
ENDBRANCH  27  28
ENDBRANCH  26  27
ENDBRANCH  25  26
ENDBRANCH   1  25
TORSDOF 23
ENDMDL
MODEL 3
REMARK VINA RESULT:      -8.2      5.582     15.937
REMARK SMILES CCOc1ccc(-c2nc(C(=O)OCCOCCOCCOC(=O)c3ccc(-c4c5nc(c(-c6ccc(S(=O)(=O)[O-])cc6)c6ccc([nH]6)c(-c6ccc(S(=O)(=O)[O-])cc6)c6nc(c(-c7ccc(S(=O)(=O)[O-])cc7)c7ccc4[nH]7)C=C6)C=C5)cc3)cc(=O)[nH]2)cc1
REMARK SMILES IDX 17 1 16 2 15 3 14 4 13 5 11 6 12 7 10 8 8 9 9 10 88 11 86 12
REMARK SMILES IDX 85 14 87 15 7 16 4 17 5 18 90 19 6 20 89 21 3 22 2 23 1 24
REMARK SMILES IDX 18 25 19 26 20 27 21 28 22 29 23 30 24 31 25 32 26 33 84 34
REMARK SMILES IDX 27 35 83 36 28 37 29 38 30 39 77 40 31 41 82 42 76 43 78 44
REMARK SMILES IDX 32 45 81 46 75 47 74 48 33 50 63 51 44 52 62 53 45 54 48 55
REMARK SMILES IDX 61 56 79 57 46 58 47 59 60 61 80 62 49 63 34 64 35 65 43 66
REMARK SMILES IDX 36 67 42 68 37 69 38 70 39 71 40 72 41 73 64 74 65 75 73 76
REMARK SMILES IDX 66 77 72 78 67 79 68 80 69 81 70 82 71 83 50 84 51 85 59 86
REMARK SMILES IDX 52 87 58 88 53 89 54 90 55 91 56 92 57 93
REMARK H PARENT 88 13 78 49 48 60
REMARK Flexibility Score: inf
ROOT
ATOM      1  C   UNL A   1      45.724  35.937  32.695  1.00  0.00     0.188 C 
ENDROOT
BRANCH   1   2
ATOM      2  O   UNL A   1      45.510  35.530  31.356  1.00  0.00    -0.376 OA
BRANCH   2   3
ATOM      3  C   UNL A   1      44.252  35.748  30.737  1.00  0.00     0.202 C 
BRANCH   3   4
ATOM      4  C   UNL A   1      44.139  36.351  29.332  1.00  0.00     0.261 C 
BRANCH   4   5
ATOM      5  O   UNL A   1      42.794  36.629  28.926  1.00  0.00    -0.459 OA
BRANCH   5   6
ATOM      6  C   UNL A   1      42.657  37.060  27.640  1.00  0.00     0.357 C 
ATOM      7  O   UNL A   1      42.704  36.360  26.640  1.00  0.00    -0.244 OA
BRANCH   6   8
ATOM      8  C   UNL A   1      42.309  38.516  27.621  1.00  0.00     0.156 A 
ATOM      9  C   UNL A   1      42.355  40.501  26.501  1.00  0.00     0.141 A 
ATOM     10  N   UNL A   1      42.608  39.235  26.484  1.00  0.00    -0.223 NA
ATOM     11  N   UNL A   1      41.788  41.136  27.574  1.00  0.00    -0.306 N 
ATOM     12  C   UNL A   1      41.428  40.464  28.705  1.00  0.00     0.251 A 
ATOM     13  H   UNL A   1      41.636  42.107  27.529  1.00  0.00     0.171 HD
ATOM     14  C   UNL A   1      41.731  39.028  28.715  1.00  0.00     0.107 A 
ATOM     15  O   UNL A   1      40.889  41.008  29.662  1.00  0.00    -0.269 OA
BRANCH   9  16
ATOM     16  C   UNL A   1      42.640  41.349  25.330  1.00  0.00     0.018 A 
ATOM     17  C   UNL A   1      43.155  43.043  23.184  1.00  0.00     0.119 A 
ATOM     18  C   UNL A   1      41.997  42.261  23.192  1.00  0.00     0.047 A 
ATOM     19  C   UNL A   1      44.042  42.997  24.260  1.00  0.00     0.047 A 
ATOM     20  C   UNL A   1      41.740  41.399  24.262  1.00  0.00     0.016 A 
ATOM     21  C   UNL A   1      43.786  42.146  25.336  1.00  0.00     0.016 A 
BRANCH  17  22
ATOM     22  O   UNL A   1      43.292  43.965  22.185  1.00  0.00    -0.494 OA
BRANCH  22  23
ATOM     23  C   UNL A   1      43.589  43.404  20.902  1.00  0.00     0.226 C 
ATOM     24  C   UNL A   1      42.812  44.083  19.785  1.00  0.00     0.049 C 
ENDBRANCH  22  23
ENDBRANCH  17  22
ENDBRANCH   9  16
ENDBRANCH   6   8
ENDBRANCH   5   6
ENDBRANCH   4   5
ENDBRANCH   3   4
ENDBRANCH   2   3
ENDBRANCH   1   2
BRANCH   1  25
ATOM     25  C   UNL A   1      45.781  37.439  33.047  1.00  0.00     0.188 C 
BRANCH  25  26
ATOM     26  O   UNL A   1      45.734  38.413  32.028  1.00  0.00    -0.376 OA
BRANCH  26  27
ATOM     27  C   UNL A   1      46.920  38.881  31.408  1.00  0.00     0.202 C 
BRANCH  27  28
ATOM     28  C   UNL A   1      48.138  38.015  31.051  1.00  0.00     0.261 C 
BRANCH  28  29
ATOM     29  O   UNL A   1      48.228  37.531  29.711  1.00  0.00    -0.460 OA
BRANCH  29  30
ATOM     30  C   UNL A   1      49.063  36.480  29.542  1.00  0.00     0.338 C 
ATOM     31  O   UNL A   1      50.281  36.467  29.689  1.00  0.00    -0.246 OA
BRANCH  30  32
ATOM     32  C   UNL A   1      48.272  35.263  29.315  1.00  0.00     0.060 A 
ATOM     33  C   UNL A   1      48.391  34.215  30.236  1.00  0.00     0.016 A 
ATOM     34  C   UNL A   1      47.466  35.133  28.183  1.00  0.00     0.016 A 
ATOM     35  C   UNL A   1      47.710  33.021  30.014  1.00  0.00     0.010 A 
ATOM     36  C   UNL A   1      46.798  33.928  27.956  1.00  0.00     0.010 A 
ATOM     37  C   UNL A   1      46.934  32.859  28.861  1.00  0.00    -0.014 A 
BRANCH  37  38
ATOM     38  C   UNL A   1      46.404  31.518  28.526  1.00  0.00     0.031 A 
ATOM     39  C   UNL A   1      44.982  31.196  28.893  1.00  0.00     0.074 A 
ATOM     40  C   UNL A   1      47.159  30.616  27.871  1.00  0.00     0.049 A 
ATOM     41  N   UNL A   1      44.324  30.078  28.742  1.00  0.00    -0.248 NA
ATOM     42  C   UNL A   1      44.197  32.284  29.499  1.00  0.00     0.031 C 
ATOM     43  C   UNL A   1      48.528  30.833  27.406  1.00  0.00     0.029 A 
ATOM     44  N   UNL A   1      46.873  29.329  27.491  1.00  0.00    -0.354 N 
ATOM     45  C   UNL A   1      43.046  30.326  29.230  1.00  0.00     0.074 A 
ATOM     46  C   UNL A   1      43.029  31.692  29.704  1.00  0.00     0.031 C 
ATOM     47  C   UNL A   1      48.972  29.705  26.823  1.00  0.00     0.029 A 
ATOM     48  C   UNL A   1      47.935  28.679  26.907  1.00  0.00     0.049 A 
ATOM     49  H   UNL A   1      45.992  28.910  27.624  1.00  0.00     0.167 HD
ATOM     50  C   UNL A   1      41.980  29.493  29.273  1.00  0.00     0.031 A 
ATOM     51  C   UNL A   1      48.064  27.394  26.520  1.00  0.00     0.031 A 
ATOM     52  C   UNL A   1      42.007  28.124  28.835  1.00  0.00     0.049 A 
ATOM     53  C   UNL A   1      46.896  26.454  26.682  1.00  0.00     0.074 A 
ATOM     54  C   UNL A   1      40.986  27.190  28.868  1.00  0.00     0.029 A 
ATOM     55  N   UNL A   1      43.112  27.491  28.288  1.00  0.00    -0.354 N 
ATOM     56  N   UNL A   1      45.693  26.702  27.145  1.00  0.00    -0.248 NA
ATOM     57  C   UNL A   1      47.100  25.059  26.261  1.00  0.00     0.031 C 
ATOM     58  C   UNL A   1      41.488  25.978  28.384  1.00  0.00     0.029 A 
ATOM     59  C   UNL A   1      42.803  26.175  27.993  1.00  0.00     0.049 A 
ATOM     60  H   UNL A   1      43.987  27.914  28.133  1.00  0.00     0.167 HD
ATOM     61  C   UNL A   1      44.992  25.504  27.045  1.00  0.00     0.074 A 
ATOM     62  C   UNL A   1      45.898  24.536  26.462  1.00  0.00     0.031 C 
ATOM     63  C   UNL A   1      43.713  25.227  27.401  1.00  0.00     0.031 A 
BRANCH  50  64
ATOM     64  C   UNL A   1      40.698  30.037  29.841  1.00  0.00    -0.014 A 
ATOM     65  C   UNL A   1      40.593  30.358  31.205  1.00  0.00     0.010 A 
ATOM     66  C   UNL A   1      39.602  30.277  28.992  1.00  0.00     0.010 A 
ATOM     67  C   UNL A   1      39.406  30.887  31.717  1.00  0.00     0.020 A 
ATOM     68  C   UNL A   1      38.422  30.829  29.495  1.00  0.00     0.020 A 
ATOM     69  C   UNL A   1      38.328  31.120  30.858  1.00  0.00     0.054 A 
BRANCH  69  70
ATOM     70  S   UNL A   1      36.814  31.846  31.544  1.00  0.00     0.124 S 
ATOM     71  O   UNL A   1      36.480  32.853  30.539  1.00  0.00    -0.237 OA
ATOM     72  O   UNL A   1      35.911  30.699  31.606  1.00  0.00    -0.237 OA
ATOM     73  O   UNL A   1      37.237  32.374  32.838  1.00  0.00    -0.744 OA
ENDBRANCH  69  70
ENDBRANCH  50  64
BRANCH  51  74
ATOM     74  C   UNL A   1      49.366  26.894  25.994  1.00  0.00    -0.014 A 
ATOM     75  C   UNL A   1      50.301  26.273  26.842  1.00  0.00     0.010 A 
ATOM     76  C   UNL A   1      49.697  27.084  24.640  1.00  0.00     0.010 A 
ATOM     77  C   UNL A   1      51.554  25.888  26.354  1.00  0.00     0.020 A 
ATOM     78  C   UNL A   1      50.937  26.674  24.141  1.00  0.00     0.020 A 
ATOM     79  C   UNL A   1      51.866  26.097  25.007  1.00  0.00     0.054 A 
BRANCH  79  80
ATOM     80  S   UNL A   1      53.496  25.588  24.391  1.00  0.00     0.124 S 
ATOM     81  O   UNL A   1      54.393  26.421  25.186  1.00  0.00    -0.237 OA
ATOM     82  O   UNL A   1      53.520  24.161  24.699  1.00  0.00    -0.237 OA
ATOM     83  O   UNL A   1      53.439  25.910  22.967  1.00  0.00    -0.744 OA
ENDBRANCH  79  80
ENDBRANCH  51  74
BRANCH  63  84
ATOM     84  C   UNL A   1      43.193  23.840  27.126  1.00  0.00    -0.014 A 
ATOM     85  C   UNL A   1      42.843  23.434  25.826  1.00  0.00     0.010 A 
ATOM     86  C   UNL A   1      43.117  22.909  28.178  1.00  0.00     0.010 A 
ATOM     87  C   UNL A   1      42.397  22.129  25.591  1.00  0.00     0.020 A 
ATOM     88  C   UNL A   1      42.698  21.598  27.942  1.00  0.00     0.020 A 
ATOM     89  C   UNL A   1      42.327  21.220  26.651  1.00  0.00     0.054 A 
BRANCH  89  90
ATOM     90  S   UNL A   1      41.790  19.521  26.313  1.00  0.00     0.124 S 
ATOM     91  O   UNL A   1      40.364  19.698  26.052  1.00  0.00    -0.237 OA
ATOM     92  O   UNL A   1      42.600  19.152  25.154  1.00  0.00    -0.237 OA
ATOM     93  O   UNL A   1      42.113  18.803  27.543  1.00  0.00    -0.744 OA
ENDBRANCH  89  90
ENDBRANCH  63  84
ENDBRANCH  37  38
ENDBRANCH  30  32
ENDBRANCH  29  30
ENDBRANCH  28  29
ENDBRANCH  27  28
ENDBRANCH  26  27
ENDBRANCH  25  26
ENDBRANCH   1  25
TORSDOF 23
ENDMDL
