MODEL 1
REMARK VINA RESULT:      -9.9      0.000      0.000
REMARK SMILES COc1ccc2cc([C@H](C)C(=O)OCCOCCOCCOC(=O)c3ccc(-c4c5nc(c(-c6ccc(S(=O)(=O)[O-])cc6)c6ccc([nH]6)c(-c6ccc(S(=O)(=O)[O-])cc6)c6nc(c(-c7ccc(S(=O)(=O)[O-])cc7)c7ccc4[nH]7)C=C6)C=C5)cc3)ccc2c1
REMARK SMILES IDX 18 1 17 2 16 3 15 4 14 5 13 6 11 7 12 8 9 9 10 10 8 11 3 12
REMARK SMILES IDX 4 13 88 14 5 15 87 16 6 17 86 18 7 19 85 20 2 21 1 22 19 23
REMARK SMILES IDX 20 24 21 25 22 26 23 27 24 28 25 29 26 30 84 31 27 32 83 33
REMARK SMILES IDX 28 34 29 35 30 36 77 37 31 38 82 39 76 40 78 41 32 42 81 43
REMARK SMILES IDX 75 44 74 45 33 47 63 48 44 49 62 50 45 51 48 52 61 53 79 54
REMARK SMILES IDX 46 55 47 56 60 58 80 59 49 60 34 61 35 62 43 63 36 64 42 65
REMARK SMILES IDX 37 66 38 67 39 68 40 69 41 70 64 71 65 72 73 73 66 74 72 75
REMARK SMILES IDX 67 76 68 77 69 78 70 79 71 80 50 81 51 82 59 83 52 84 58 85
REMARK SMILES IDX 53 86 54 87 55 88 56 89 57 90
REMARK H PARENT 78 46 48 57
REMARK Flexibility Score: inf
ROOT
ATOM      1  C   UNL A   1      30.402  29.370  23.774  1.00  0.00     0.188 C 
ENDROOT
BRANCH   1   2
ATOM      2  C   UNL A   1      30.551  28.740  22.383  1.00  0.00     0.188 C 
BRANCH   2   3
ATOM      3  O   UNL A   1      30.459  27.330  22.251  1.00  0.00    -0.376 OA
BRANCH   3   4
ATOM      4  C   UNL A   1      31.614  26.571  21.918  1.00  0.00     0.202 C 
BRANCH   4   5
ATOM      5  C   UNL A   1      31.761  25.110  22.386  1.00  0.00     0.261 C 
BRANCH   5   6
ATOM      6  O   UNL A   1      32.392  24.901  23.669  1.00  0.00    -0.463 OA
BRANCH   6   7
ATOM      7  C   UNL A   1      33.633  24.351  23.629  1.00  0.00     0.313 C 
ATOM      8  O   UNL A   1      34.302  24.263  22.602  1.00  0.00    -0.252 OA
BRANCH   7   9
ATOM      9  C   UNL A   1      34.149  23.801  24.972  1.00  0.00     0.126 C 
ATOM     10  C   UNL A   1      33.397  24.031  26.288  1.00  0.00     0.025 C 
BRANCH   9  11
ATOM     11  C   UNL A   1      34.405  22.327  24.784  1.00  0.00    -0.033 A 
ATOM     12  C   UNL A   1      33.831  17.361  24.323  1.00  0.00     0.119 A 
ATOM     13  C   UNL A   1      32.571  17.913  24.101  1.00  0.00     0.047 A 
ATOM     14  C   UNL A   1      34.923  18.178  24.613  1.00  0.00     0.055 A 
ATOM     15  C   UNL A   1      32.405  19.294  24.126  1.00  0.00     0.012 A 
ATOM     16  C   UNL A   1      34.773  19.566  24.648  1.00  0.00    -0.015 A 
ATOM     17  C   UNL A   1      33.497  20.123  24.397  1.00  0.00    -0.018 A 
ATOM     18  C   UNL A   1      35.854  20.403  24.948  1.00  0.00     0.009 A 
ATOM     19  C   UNL A   1      33.327  21.500  24.456  1.00  0.00     0.013 A 
ATOM     20  C   UNL A   1      35.669  21.777  25.030  1.00  0.00     0.005 A 
BRANCH  12  21
ATOM     21  O   UNL A   1      34.072  16.015  24.327  1.00  0.00    -0.497 OA
ATOM     22  C   UNL A   1      33.279  15.326  25.289  1.00  0.00     0.278 C 
ENDBRANCH  12  21
ENDBRANCH   9  11
ENDBRANCH   7   9
ENDBRANCH   6   7
ENDBRANCH   5   6
ENDBRANCH   4   5
ENDBRANCH   3   4
ENDBRANCH   2   3
ENDBRANCH   1   2
BRANCH   1  23
ATOM     23  O   UNL A   1      31.601  29.620  24.461  1.00  0.00    -0.376 OA
BRANCH  23  24
ATOM     24  C   UNL A   1      31.678  29.311  25.837  1.00  0.00     0.202 C 
BRANCH  24  25
ATOM     25  C   UNL A   1      32.244  30.300  26.876  1.00  0.00     0.261 C 
BRANCH  25  26
ATOM     26  O   UNL A   1      33.658  30.293  27.123  1.00  0.00    -0.460 OA
BRANCH  26  27
ATOM     27  C   UNL A   1      34.200  31.392  27.698  1.00  0.00     0.338 C 
ATOM     28  O   UNL A   1      33.631  32.452  27.924  1.00  0.00    -0.246 OA
BRANCH  27  29
ATOM     29  C   UNL A   1      35.529  31.017  28.238  1.00  0.00     0.060 A 
ATOM     30  C   UNL A   1      35.697  29.762  28.844  1.00  0.00     0.016 A 
ATOM     31  C   UNL A   1      36.613  31.890  28.127  1.00  0.00     0.016 A 
ATOM     32  C   UNL A   1      36.942  29.385  29.356  1.00  0.00     0.010 A 
ATOM     33  C   UNL A   1      37.851  31.523  28.666  1.00  0.00     0.010 A 
ATOM     34  C   UNL A   1      38.017  30.281  29.307  1.00  0.00    -0.014 A 
BRANCH  34  35
ATOM     35  C   UNL A   1      39.261  30.006  30.071  1.00  0.00     0.031 A 
ATOM     36  C   UNL A   1      40.162  28.896  29.596  1.00  0.00     0.074 A 
ATOM     37  C   UNL A   1      39.586  30.710  31.171  1.00  0.00     0.049 A 
ATOM     38  N   UNL A   1      41.243  28.410  30.148  1.00  0.00    -0.248 NA
ATOM     39  C   UNL A   1      39.787  28.245  28.329  1.00  0.00     0.031 C 
ATOM     40  C   UNL A   1      38.830  31.837  31.711  1.00  0.00     0.029 A 
ATOM     41  N   UNL A   1      40.638  30.562  32.043  1.00  0.00    -0.354 N 
ATOM     42  C   UNL A   1      41.664  27.381  29.312  1.00  0.00     0.074 A 
ATOM     43  C   UNL A   1      40.714  27.304  28.224  1.00  0.00     0.031 C 
ATOM     44  C   UNL A   1      39.430  32.267  32.836  1.00  0.00     0.029 A 
ATOM     45  C   UNL A   1      40.588  31.418  33.119  1.00  0.00     0.049 A 
ATOM     46  H   UNL A   1      41.360  29.905  31.911  1.00  0.00     0.167 HD
ATOM     47  C   UNL A   1      42.743  26.573  29.439  1.00  0.00     0.031 A 
ATOM     48  C   UNL A   1      41.364  31.488  34.221  1.00  0.00     0.031 A 
ATOM     49  C   UNL A   1      43.681  26.645  30.529  1.00  0.00     0.049 A 
ATOM     50  C   UNL A   1      42.518  30.528  34.377  1.00  0.00     0.074 A 
ATOM     51  C   UNL A   1      44.823  25.887  30.728  1.00  0.00     0.029 A 
ATOM     52  N   UNL A   1      43.583  27.510  31.606  1.00  0.00    -0.354 N 
ATOM     53  N   UNL A   1      42.927  29.585  33.561  1.00  0.00    -0.248 NA
ATOM     54  C   UNL A   1      43.320  30.645  35.605  1.00  0.00     0.031 C 
ATOM     55  C   UNL A   1      45.373  26.244  31.962  1.00  0.00     0.029 A 
ATOM     56  C   UNL A   1      44.621  27.280  32.494  1.00  0.00     0.049 A 
ATOM     57  H   UNL A   1      42.878  28.189  31.724  1.00  0.00     0.167 HD
ATOM     58  C   UNL A   1      44.049  29.020  34.161  1.00  0.00     0.074 A 
ATOM     59  C   UNL A   1      44.264  29.736  35.401  1.00  0.00     0.031 C 
ATOM     60  C   UNL A   1      44.829  27.999  33.725  1.00  0.00     0.031 A 
BRANCH  47  61
ATOM     61  C   UNL A   1      42.943  25.504  28.397  1.00  0.00    -0.014 A 
ATOM     62  C   UNL A   1      43.635  25.763  27.200  1.00  0.00     0.010 A 
ATOM     63  C   UNL A   1      42.477  24.200  28.648  1.00  0.00     0.010 A 
ATOM     64  C   UNL A   1      43.826  24.747  26.260  1.00  0.00     0.020 A 
ATOM     65  C   UNL A   1      42.693  23.174  27.724  1.00  0.00     0.020 A 
ATOM     66  C   UNL A   1      43.355  23.458  26.529  1.00  0.00     0.054 A 
BRANCH  66  67
ATOM     67  S   UNL A   1      43.651  22.152  25.306  1.00  0.00     0.124 S 
ATOM     68  O   UNL A   1      42.591  21.197  25.625  1.00  0.00    -0.237 OA
ATOM     69  O   UNL A   1      43.497  22.860  24.039  1.00  0.00    -0.237 OA
ATOM     70  O   UNL A   1      45.007  21.697  25.603  1.00  0.00    -0.744 OA
ENDBRANCH  66  67
ENDBRANCH  47  61
BRANCH  48  71
ATOM     71  C   UNL A   1      41.056  32.480  35.290  1.00  0.00    -0.014 A 
ATOM     72  C   UNL A   1      41.676  33.743  35.305  1.00  0.00     0.010 A 
ATOM     73  C   UNL A   1      40.150  32.157  36.317  1.00  0.00     0.010 A 
ATOM     74  C   UNL A   1      41.411  34.652  36.335  1.00  0.00     0.020 A 
ATOM     75  C   UNL A   1      39.857  33.075  37.329  1.00  0.00     0.020 A 
ATOM     76  C   UNL A   1      40.500  34.314  37.338  1.00  0.00     0.054 A 
BRANCH  76  77
ATOM     77  S   UNL A   1      40.138  35.528  38.637  1.00  0.00     0.124 S 
ATOM     78  O   UNL A   1      41.287  35.376  39.524  1.00  0.00    -0.237 OA
ATOM     79  O   UNL A   1      40.078  36.781  37.887  1.00  0.00    -0.237 OA
ATOM     80  O   UNL A   1      38.861  35.075  39.183  1.00  0.00    -0.744 OA
ENDBRANCH  76  77
ENDBRANCH  48  71
BRANCH  60  81
ATOM     81  C   UNL A   1      46.021  27.616  34.567  1.00  0.00    -0.014 A 
ATOM     82  C   UNL A   1      47.268  28.246  34.407  1.00  0.00     0.010 A 
ATOM     83  C   UNL A   1      45.871  26.650  35.580  1.00  0.00     0.010 A 
ATOM     84  C   UNL A   1      48.349  27.893  35.220  1.00  0.00     0.020 A 
ATOM     85  C   UNL A   1      46.940  26.318  36.417  1.00  0.00     0.020 A 
ATOM     86  C   UNL A   1      48.178  26.932  36.222  1.00  0.00     0.054 A 
BRANCH  86  87
ATOM     87  S   UNL A   1      49.585  26.526  37.291  1.00  0.00     0.124 S 
ATOM     88  O   UNL A   1      50.398  25.684  36.419  1.00  0.00    -0.237 OA
ATOM     89  O   UNL A   1      50.145  27.840  37.597  1.00  0.00    -0.237 OA
ATOM     90  O   UNL A   1      48.972  25.838  38.426  1.00  0.00    -0.744 OA
ENDBRANCH  86  87
ENDBRANCH  60  81
ENDBRANCH  34  35
ENDBRANCH  27  29
ENDBRANCH  26  27
ENDBRANCH  25  26
ENDBRANCH  24  25
ENDBRANCH  23  24
ENDBRANCH   1  23
TORSDOF 22
ENDMDL
MODEL 2
REMARK VINA RESULT:      -9.8      2.640      9.076
REMARK SMILES COc1ccc2cc([C@H](C)C(=O)OCCOCCOCCOC(=O)c3ccc(-c4c5nc(c(-c6ccc(S(=O)(=O)[O-])cc6)c6ccc([nH]6)c(-c6ccc(S(=O)(=O)[O-])cc6)c6nc(c(-c7ccc(S(=O)(=O)[O-])cc7)c7ccc4[nH]7)C=C6)C=C5)cc3)ccc2c1
REMARK SMILES IDX 18 1 17 2 16 3 15 4 14 5 13 6 11 7 12 8 9 9 10 10 8 11 3 12
REMARK SMILES IDX 4 13 88 14 5 15 87 16 6 17 86 18 7 19 85 20 2 21 1 22 19 23
REMARK SMILES IDX 20 24 21 25 22 26 23 27 24 28 25 29 26 30 84 31 27 32 83 33
REMARK SMILES IDX 28 34 29 35 30 36 77 37 31 38 82 39 76 40 78 41 32 42 81 43
REMARK SMILES IDX 75 44 74 45 33 47 63 48 44 49 62 50 45 51 48 52 61 53 79 54
REMARK SMILES IDX 46 55 47 56 60 58 80 59 49 60 34 61 35 62 43 63 36 64 42 65
REMARK SMILES IDX 37 66 38 67 39 68 40 69 41 70 64 71 65 72 73 73 66 74 72 75
REMARK SMILES IDX 67 76 68 77 69 78 70 79 71 80 50 81 51 82 59 83 52 84 58 85
REMARK SMILES IDX 53 86 54 87 55 88 56 89 57 90
REMARK H PARENT 78 46 48 57
REMARK Flexibility Score: inf
ROOT
ATOM      1  C   UNL A   1      36.560  21.371  25.676  1.00  0.00     0.188 C 
ENDROOT
BRANCH   1   2
ATOM      2  C   UNL A   1      35.430  21.022  24.699  1.00  0.00     0.188 C 
BRANCH   2   3
ATOM      3  O   UNL A   1      34.621  19.885  24.957  1.00  0.00    -0.376 OA
BRANCH   3   4
ATOM      4  C   UNL A   1      33.218  20.036  25.126  1.00  0.00     0.202 C 
BRANCH   4   5
ATOM      5  C   UNL A   1      32.621  21.368  25.624  1.00  0.00     0.261 C 
BRANCH   5   6
ATOM      6  O   UNL A   1      31.436  21.840  24.946  1.00  0.00    -0.463 OA
BRANCH   6   7
ATOM      7  C   UNL A   1      31.604  22.943  24.171  1.00  0.00     0.313 C 
ATOM      8  O   UNL A   1      30.770  23.333  23.358  1.00  0.00    -0.252 OA
BRANCH   7   9
ATOM      9  C   UNL A   1      32.950  23.671  24.353  1.00  0.00     0.126 C 
ATOM     10  C   UNL A   1      33.912  23.906  23.183  1.00  0.00     0.025 C 
BRANCH   9  11
ATOM     11  C   UNL A   1      32.662  24.979  25.045  1.00  0.00    -0.033 A 
ATOM     12  C   UNL A   1      32.723  29.798  26.450  1.00  0.00     0.119 A 
ATOM     13  C   UNL A   1      33.327  29.759  25.194  1.00  0.00     0.047 A 
ATOM     14  C   UNL A   1      32.258  28.630  27.051  1.00  0.00     0.055 A 
ATOM     15  C   UNL A   1      33.432  28.550  24.514  1.00  0.00     0.012 A 
ATOM     16  C   UNL A   1      32.362  27.407  26.384  1.00  0.00    -0.015 A 
ATOM     17  C   UNL A   1      32.953  27.376  25.099  1.00  0.00    -0.018 A 
ATOM     18  C   UNL A   1      31.913  26.220  26.975  1.00  0.00     0.009 A 
ATOM     19  C   UNL A   1      33.087  26.163  24.437  1.00  0.00     0.013 A 
ATOM     20  C   UNL A   1      32.074  25.009  26.316  1.00  0.00     0.005 A 
BRANCH  12  21
ATOM     21  O   UNL A   1      32.593  30.944  27.186  1.00  0.00    -0.497 OA
ATOM     22  C   UNL A   1      33.829  31.362  27.757  1.00  0.00     0.278 C 
ENDBRANCH  12  21
ENDBRANCH   9  11
ENDBRANCH   7   9
ENDBRANCH   6   7
ENDBRANCH   5   6
ENDBRANCH   4   5
ENDBRANCH   3   4
ENDBRANCH   2   3
ENDBRANCH   1   2
BRANCH   1  23
ATOM     23  O   UNL A   1      37.834  20.895  25.330  1.00  0.00    -0.376 OA
BRANCH  23  24
ATOM     24  C   UNL A   1      38.974  21.556  25.837  1.00  0.00     0.202 C 
BRANCH  24  25
ATOM     25  C   UNL A   1      38.937  23.021  26.315  1.00  0.00     0.261 C 
BRANCH  25  26
ATOM     26  O   UNL A   1      39.767  23.397  27.424  1.00  0.00    -0.460 OA
BRANCH  26  27
ATOM     27  C   UNL A   1      40.822  24.208  27.172  1.00  0.00     0.338 C 
ATOM     28  O   UNL A   1      41.649  24.070  26.280  1.00  0.00    -0.246 OA
BRANCH  27  29
ATOM     29  C   UNL A   1      40.668  25.428  27.998  1.00  0.00     0.060 A 
ATOM     30  C   UNL A   1      41.709  26.370  28.036  1.00  0.00     0.016 A 
ATOM     31  C   UNL A   1      39.493  25.657  28.716  1.00  0.00     0.016 A 
ATOM     32  C   UNL A   1      41.585  27.530  28.805  1.00  0.00     0.010 A 
ATOM     33  C   UNL A   1      39.382  26.805  29.509  1.00  0.00     0.010 A 
ATOM     34  C   UNL A   1      40.436  27.735  29.579  1.00  0.00    -0.014 A 
BRANCH  34  35
ATOM     35  C   UNL A   1      40.397  28.819  30.595  1.00  0.00     0.031 A 
ATOM     36  C   UNL A   1      41.334  28.731  31.772  1.00  0.00     0.074 A 
ATOM     37  C   UNL A   1      39.542  29.854  30.494  1.00  0.00     0.049 A 
ATOM     38  N   UNL A   1      41.416  29.498  32.826  1.00  0.00    -0.248 NA
ATOM     39  C   UNL A   1      42.305  27.623  31.753  1.00  0.00     0.031 C 
ATOM     40  C   UNL A   1      38.617  30.084  29.387  1.00  0.00     0.029 A 
ATOM     41  N   UNL A   1      39.306  30.899  31.354  1.00  0.00    -0.354 N 
ATOM     42  C   UNL A   1      42.429  28.954  33.610  1.00  0.00     0.074 A 
ATOM     43  C   UNL A   1      42.921  27.784  32.916  1.00  0.00     0.031 C 
ATOM     44  C   UNL A   1      37.896  31.191  29.645  1.00  0.00     0.029 A 
ATOM     45  C   UNL A   1      38.278  31.722  30.953  1.00  0.00     0.049 A 
ATOM     46  H   UNL A   1      39.823  31.046  32.179  1.00  0.00     0.167 HD
ATOM     47  C   UNL A   1      42.905  29.388  34.800  1.00  0.00     0.031 A 
ATOM     48  C   UNL A   1      37.691  32.761  31.584  1.00  0.00     0.031 A 
ATOM     49  C   UNL A   1      42.408  30.547  35.495  1.00  0.00     0.049 A 
ATOM     50  C   UNL A   1      38.190  33.182  32.944  1.00  0.00     0.074 A 
ATOM     51  C   UNL A   1      42.848  31.082  36.694  1.00  0.00     0.029 A 
ATOM     52  N   UNL A   1      41.355  31.338  35.067  1.00  0.00    -0.354 N 
ATOM     53  N   UNL A   1      39.173  32.682  33.656  1.00  0.00    -0.248 NA
ATOM     54  C   UNL A   1      37.502  34.313  33.585  1.00  0.00     0.031 C 
ATOM     55  C   UNL A   1      42.014  32.153  37.025  1.00  0.00     0.029 A 
ATOM     56  C   UNL A   1      41.104  32.335  35.995  1.00  0.00     0.049 A 
ATOM     57  H   UNL A   1      40.857  31.211  34.226  1.00  0.00     0.167 HD
ATOM     58  C   UNL A   1      39.239  33.456  34.811  1.00  0.00     0.074 A 
ATOM     59  C   UNL A   1      38.209  34.467  34.696  1.00  0.00     0.031 C 
ATOM     60  C   UNL A   1      40.077  33.340  35.872  1.00  0.00     0.031 A 
BRANCH  47  61
ATOM     61  C   UNL A   1      43.994  28.579  35.457  1.00  0.00    -0.014 A 
ATOM     62  C   UNL A   1      43.708  27.651  36.475  1.00  0.00     0.010 A 
ATOM     63  C   UNL A   1      45.320  28.712  35.006  1.00  0.00     0.010 A 
ATOM     64  C   UNL A   1      44.734  26.897  37.052  1.00  0.00     0.020 A 
ATOM     65  C   UNL A   1      46.343  27.938  35.559  1.00  0.00     0.020 A 
ATOM     66  C   UNL A   1      46.045  27.044  36.589  1.00  0.00     0.054 A 
BRANCH  66  67
ATOM     67  S   UNL A   1      47.349  26.025  37.331  1.00  0.00     0.124 S 
ATOM     68  O   UNL A   1      46.757  25.674  38.620  1.00  0.00    -0.237 OA
ATOM     69  O   UNL A   1      47.476  24.926  36.378  1.00  0.00    -0.237 OA
ATOM     70  O   UNL A   1      48.498  26.924  37.399  1.00  0.00    -0.744 OA
ENDBRANCH  66  67
ENDBRANCH  47  61
BRANCH  48  71
ATOM     71  C   UNL A   1      36.533  33.459  30.954  1.00  0.00    -0.014 A 
ATOM     72  C   UNL A   1      36.636  34.012  29.665  1.00  0.00     0.010 A 
ATOM     73  C   UNL A   1      35.319  33.591  31.654  1.00  0.00     0.010 A 
ATOM     74  C   UNL A   1      35.557  34.699  29.099  1.00  0.00     0.020 A 
ATOM     75  C   UNL A   1      34.228  34.247  31.079  1.00  0.00     0.020 A 
ATOM     76  C   UNL A   1      34.359  34.809  29.808  1.00  0.00     0.054 A 
BRANCH  76  77
ATOM     77  S   UNL A   1      32.959  35.665  29.034  1.00  0.00     0.124 S 
ATOM     78  O   UNL A   1      32.169  36.068  30.194  1.00  0.00    -0.237 OA
ATOM     79  O   UNL A   1      33.616  36.750  28.308  1.00  0.00    -0.237 OA
ATOM     80  O   UNL A   1      32.353  34.638  28.190  1.00  0.00    -0.744 OA
ENDBRANCH  76  77
ENDBRANCH  48  71
BRANCH  60  81
ATOM     81  C   UNL A   1      39.954  34.354  36.982  1.00  0.00    -0.014 A 
ATOM     82  C   UNL A   1      40.553  35.623  36.887  1.00  0.00     0.010 A 
ATOM     83  C   UNL A   1      39.170  34.053  38.111  1.00  0.00     0.010 A 
ATOM     84  C   UNL A   1      40.399  36.557  37.917  1.00  0.00     0.020 A 
ATOM     85  C   UNL A   1      38.985  34.995  39.127  1.00  0.00     0.020 A 
ATOM     86  C   UNL A   1      39.614  36.237  39.030  1.00  0.00     0.054 A 
BRANCH  86  87
ATOM     87  S   UNL A   1      39.393  37.483  40.330  1.00  0.00     0.124 S 
ATOM     88  O   UNL A   1      38.644  36.741  41.339  1.00  0.00    -0.237 OA
ATOM     89  O   UNL A   1      40.770  37.818  40.688  1.00  0.00    -0.237 OA
ATOM     90  O   UNL A   1      38.652  38.553  39.665  1.00  0.00    -0.744 OA
ENDBRANCH  86  87
ENDBRANCH  60  81
ENDBRANCH  34  35
ENDBRANCH  27  29
ENDBRANCH  26  27
ENDBRANCH  25  26
ENDBRANCH  24  25
ENDBRANCH  23  24
ENDBRANCH   1  23
TORSDOF 22
ENDMDL
MODEL 3
REMARK VINA RESULT:      -9.7      2.944      8.616
REMARK SMILES COc1ccc2cc([C@H](C)C(=O)OCCOCCOCCOC(=O)c3ccc(-c4c5nc(c(-c6ccc(S(=O)(=O)[O-])cc6)c6ccc([nH]6)c(-c6ccc(S(=O)(=O)[O-])cc6)c6nc(c(-c7ccc(S(=O)(=O)[O-])cc7)c7ccc4[nH]7)C=C6)C=C5)cc3)ccc2c1
REMARK SMILES IDX 18 1 17 2 16 3 15 4 14 5 13 6 11 7 12 8 9 9 10 10 8 11 3 12
REMARK SMILES IDX 4 13 88 14 5 15 87 16 6 17 86 18 7 19 85 20 2 21 1 22 19 23
REMARK SMILES IDX 20 24 21 25 22 26 23 27 24 28 25 29 26 30 84 31 27 32 83 33
REMARK SMILES IDX 28 34 29 35 30 36 77 37 31 38 82 39 76 40 78 41 32 42 81 43
REMARK SMILES IDX 75 44 74 45 33 47 63 48 44 49 62 50 45 51 48 52 61 53 79 54
REMARK SMILES IDX 46 55 47 56 60 58 80 59 49 60 34 61 35 62 43 63 36 64 42 65
REMARK SMILES IDX 37 66 38 67 39 68 40 69 41 70 64 71 65 72 73 73 66 74 72 75
REMARK SMILES IDX 67 76 68 77 69 78 70 79 71 80 50 81 51 82 59 83 52 84 58 85
REMARK SMILES IDX 53 86 54 87 55 88 56 89 57 90
REMARK H PARENT 78 46 48 57
REMARK Flexibility Score: inf
ROOT
ATOM      1  C   UNL A   1      36.506  21.649  25.729  1.00  0.00     0.188 C 
ENDROOT
BRANCH   1   2
ATOM      2  C   UNL A   1      35.577  21.137  24.622  1.00  0.00     0.188 C 
BRANCH   2   3
ATOM      3  O   UNL A   1      34.450  20.350  24.975  1.00  0.00    -0.376 OA
BRANCH   3   4
ATOM      4  C   UNL A   1      33.139  20.819  24.690  1.00  0.00     0.202 C 
BRANCH   4   5
ATOM      5  C   UNL A   1      32.808  22.324  24.756  1.00  0.00     0.261 C 
BRANCH   5   6
ATOM      6  O   UNL A   1      32.852  23.052  23.510  1.00  0.00    -0.463 OA
BRANCH   6   7
ATOM      7  C   UNL A   1      33.732  24.086  23.466  1.00  0.00     0.313 C 
ATOM      8  O   UNL A   1      34.255  24.487  22.429  1.00  0.00    -0.252 OA
BRANCH   7   9
ATOM      9  C   UNL A   1      34.070  24.715  24.831  1.00  0.00     0.126 C 
ATOM     10  C   UNL A   1      35.508  24.799  25.355  1.00  0.00     0.025 C 
BRANCH   9  11
ATOM     11  C   UNL A   1      33.437  26.083  24.862  1.00  0.00    -0.033 A 
ATOM     12  C   UNL A   1      31.752  30.576  26.338  1.00  0.00     0.119 A 
ATOM     13  C   UNL A   1      32.694  30.190  27.290  1.00  0.00     0.047 A 
ATOM     14  C   UNL A   1      31.455  29.748  25.257  1.00  0.00     0.055 A 
ATOM     15  C   UNL A   1      33.376  28.987  27.142  1.00  0.00     0.012 A 
ATOM     16  C   UNL A   1      32.126  28.534  25.097  1.00  0.00    -0.015 A 
ATOM     17  C   UNL A   1      33.099  28.158  26.052  1.00  0.00    -0.018 A 
ATOM     18  C   UNL A   1      31.833  27.682  24.025  1.00  0.00     0.009 A 
ATOM     19  C   UNL A   1      33.754  26.940  25.919  1.00  0.00     0.013 A 
ATOM     20  C   UNL A   1      32.476  26.456  23.914  1.00  0.00     0.005 A 
BRANCH  12  21
ATOM     21  O   UNL A   1      31.032  31.736  26.420  1.00  0.00    -0.497 OA
ATOM     22  C   UNL A   1      31.858  32.867  26.682  1.00  0.00     0.278 C 
ENDBRANCH  12  21
ENDBRANCH   9  11
ENDBRANCH   7   9
ENDBRANCH   6   7
ENDBRANCH   5   6
ENDBRANCH   4   5
ENDBRANCH   3   4
ENDBRANCH   2   3
ENDBRANCH   1   2
BRANCH   1  23
ATOM     23  O   UNL A   1      37.863  21.319  25.588  1.00  0.00    -0.376 OA
BRANCH  23  24
ATOM     24  C   UNL A   1      38.840  22.199  26.104  1.00  0.00     0.202 C 
BRANCH  24  25
ATOM     25  C   UNL A   1      38.529  23.670  26.449  1.00  0.00     0.261 C 
BRANCH  25  26
ATOM     26  O   UNL A   1      39.375  24.340  27.395  1.00  0.00    -0.460 OA
BRANCH  26  27
ATOM     27  C   UNL A   1      40.020  25.456  26.979  1.00  0.00     0.338 C 
ATOM     28  O   UNL A   1      40.424  25.683  25.846  1.00  0.00    -0.246 OA
BRANCH  27  29
ATOM     29  C   UNL A   1      39.936  26.463  28.063  1.00  0.00     0.060 A 
ATOM     30  C   UNL A   1      40.591  27.696  27.909  1.00  0.00     0.016 A 
ATOM     31  C   UNL A   1      39.196  26.205  29.217  1.00  0.00     0.016 A 
ATOM     32  C   UNL A   1      40.522  28.663  28.916  1.00  0.00     0.010 A 
ATOM     33  C   UNL A   1      39.152  27.163  30.237  1.00  0.00     0.010 A 
ATOM     34  C   UNL A   1      39.835  28.386  30.105  1.00  0.00    -0.014 A 
BRANCH  34  35
ATOM     35  C   UNL A   1      39.970  29.286  31.279  1.00  0.00     0.031 A 
ATOM     36  C   UNL A   1      41.104  29.042  32.241  1.00  0.00     0.074 A 
ATOM     37  C   UNL A   1      39.104  30.291  31.504  1.00  0.00     0.049 A 
ATOM     38  N   UNL A   1      41.368  29.628  33.379  1.00  0.00    -0.248 NA
ATOM     39  C   UNL A   1      42.064  27.989  31.867  1.00  0.00     0.031 C 
ATOM     40  C   UNL A   1      37.994  30.666  30.631  1.00  0.00     0.029 A 
ATOM     41  N   UNL A   1      39.018  31.173  32.555  1.00  0.00    -0.354 N 
ATOM     42  C   UNL A   1      42.508  29.002  33.871  1.00  0.00     0.074 A 
ATOM     43  C   UNL A   1      42.876  27.980  32.914  1.00  0.00     0.031 C 
ATOM     44  C   UNL A   1      37.322  31.687  31.193  1.00  0.00     0.029 A 
ATOM     45  C   UNL A   1      37.928  32.011  32.484  1.00  0.00     0.049 A 
ATOM     46  H   UNL A   1      39.672  31.201  33.290  1.00  0.00     0.167 HD
ATOM     47  C   UNL A   1      43.187  29.253  35.015  1.00  0.00     0.031 A 
ATOM     48  C   UNL A   1      37.456  32.910  33.373  1.00  0.00     0.031 A 
ATOM     49  C   UNL A   1      42.813  30.262  35.970  1.00  0.00     0.049 A 
ATOM     50  C   UNL A   1      38.187  33.121  34.676  1.00  0.00     0.074 A 
ATOM     51  C   UNL A   1      43.456  30.610  37.146  1.00  0.00     0.029 A 
ATOM     52  N   UNL A   1      41.694  31.074  35.872  1.00  0.00    -0.354 N 
ATOM     53  N   UNL A   1      39.285  32.548  35.111  1.00  0.00    -0.248 NA
ATOM     54  C   UNL A   1      37.617  34.105  35.608  1.00  0.00     0.031 C 
ATOM     55  C   UNL A   1      42.686  31.581  37.793  1.00  0.00     0.029 A 
ATOM     56  C   UNL A   1      41.606  31.895  36.984  1.00  0.00     0.049 A 
ATOM     57  H   UNL A   1      41.055  31.067  35.122  1.00  0.00     0.167 HD
ATOM     58  C   UNL A   1      39.551  33.124  36.350  1.00  0.00     0.074 A 
ATOM     59  C   UNL A   1      38.510  34.102  36.588  1.00  0.00     0.031 C 
ATOM     60  C   UNL A   1      40.566  32.867  37.212  1.00  0.00     0.031 A 
BRANCH  47  61
ATOM     61  C   UNL A   1      44.381  28.387  35.325  1.00  0.00    -0.014 A 
ATOM     62  C   UNL A   1      44.276  27.263  36.164  1.00  0.00     0.010 A 
ATOM     63  C   UNL A   1      45.617  28.676  34.720  1.00  0.00     0.010 A 
ATOM     64  C   UNL A   1      45.395  26.465  36.418  1.00  0.00     0.020 A 
ATOM     65  C   UNL A   1      46.731  27.863  34.947  1.00  0.00     0.020 A 
ATOM     66  C   UNL A   1      46.616  26.769  35.806  1.00  0.00     0.054 A 
BRANCH  66  67
ATOM     67  S   UNL A   1      48.040  25.694  36.125  1.00  0.00     0.124 S 
ATOM     68  O   UNL A   1      47.666  25.068  37.392  1.00  0.00    -0.237 OA
ATOM     69  O   UNL A   1      48.039  24.809  34.963  1.00  0.00    -0.237 OA
ATOM     70  O   UNL A   1      49.167  26.620  36.199  1.00  0.00    -0.744 OA
ENDBRANCH  66  67
ENDBRANCH  47  61
BRANCH  48  71
ATOM     71  C   UNL A   1      36.199  33.658  33.082  1.00  0.00    -0.014 A 
ATOM     72  C   UNL A   1      36.239  34.968  32.572  1.00  0.00     0.010 A 
ATOM     73  C   UNL A   1      34.947  33.065  33.334  1.00  0.00     0.010 A 
ATOM     74  C   UNL A   1      35.054  35.676  32.340  1.00  0.00     0.020 A 
ATOM     75  C   UNL A   1      33.762  33.756  33.072  1.00  0.00     0.020 A 
ATOM     76  C   UNL A   1      33.823  35.064  32.588  1.00  0.00     0.054 A 
BRANCH  76  77
ATOM     77  S   UNL A   1      32.301  35.986  32.235  1.00  0.00     0.124 S 
ATOM     78  O   UNL A   1      31.269  35.033  32.633  1.00  0.00    -0.237 OA
ATOM     79  O   UNL A   1      32.440  37.163  33.090  1.00  0.00    -0.237 OA
ATOM     80  O   UNL A   1      32.387  36.253  30.801  1.00  0.00    -0.744 OA
ENDBRANCH  76  77
ENDBRANCH  48  71
BRANCH  60  81
ATOM     81  C   UNL A   1      40.636  33.681  38.481  1.00  0.00    -0.014 A 
ATOM     82  C   UNL A   1      40.017  33.247  39.667  1.00  0.00     0.010 A 
ATOM     83  C   UNL A   1      41.387  34.871  38.499  1.00  0.00     0.010 A 
ATOM     84  C   UNL A   1      40.121  34.006  40.837  1.00  0.00     0.020 A 
ATOM     85  C   UNL A   1      41.522  35.614  39.675  1.00  0.00     0.020 A 
ATOM     86  C   UNL A   1      40.875  35.184  40.835  1.00  0.00     0.054 A 
BRANCH  86  87
ATOM     87  S   UNL A   1      41.031  36.125  42.377  1.00  0.00     0.124 S 
ATOM     88  O   UNL A   1      40.801  37.494  41.924  1.00  0.00    -0.237 OA
ATOM     89  O   UNL A   1      39.974  35.553  43.209  1.00  0.00    -0.237 OA
ATOM     90  O   UNL A   1      42.392  35.837  42.825  1.00  0.00    -0.744 OA
ENDBRANCH  86  87
ENDBRANCH  60  81
ENDBRANCH  34  35
ENDBRANCH  27  29
ENDBRANCH  26  27
ENDBRANCH  25  26
ENDBRANCH  24  25
ENDBRANCH  23  24
ENDBRANCH   1  23
TORSDOF 22
ENDMDL
