MODEL 1
REMARK VINA RESULT:     -10.0      0.000      0.000
REMARK SMILES Cc1cc2c(c(C)c1Cl)C=C(C(=O)OCCOCCOCCOC(=O)c1ccc(-c3c4nc(c(-c5ccc(S(=O)(=O)[O-])cc5)c5ccc([nH]5)c(-c5ccc(S(=O)(=O)[O-])cc5)c5nc(c(-c6ccc(S(=O)(=O)[O-])cc6)c6ccc3[nH]6)C=C5)C=C4)cc1)[C@@H](C(F)(F)F)O2
REMARK SMILES IDX 19 1 18 2 17 3 16 4 15 5 14 6 12 7 13 8 11 9 1 10 2 11 3 12
REMARK SMILES IDX 8 13 4 14 6 15 9 16 5 17 91 18 7 19 10 20 86 21 87 22 88 23
REMARK SMILES IDX 89 24 90 25 20 26 21 27 22 28 23 29 24 30 25 31 26 32 27 33
REMARK SMILES IDX 85 34 28 35 84 36 29 37 30 38 31 39 78 40 32 41 83 42 77 43
REMARK SMILES IDX 79 44 33 45 82 46 76 47 75 48 34 50 64 51 45 52 63 53 46 54
REMARK SMILES IDX 49 55 62 56 80 57 47 58 48 59 61 61 81 62 50 63 35 64 36 65
REMARK SMILES IDX 44 66 37 67 43 68 38 69 39 70 40 71 41 72 42 73 65 74 66 75
REMARK SMILES IDX 74 76 67 77 73 78 68 79 69 80 70 81 71 82 72 83 51 84 52 85
REMARK SMILES IDX 60 86 53 87 59 88 54 89 55 90 56 91 57 92 58 93
REMARK H PARENT 79 49 49 60
REMARK Flexibility Score: inf
ROOT
ATOM      1  C   UNL A   1      33.114  28.920  24.924  1.00  0.00     0.188 C 
ENDROOT
BRANCH   1   2
ATOM      2  C   UNL A   1      32.780  29.158  23.437  1.00  0.00     0.188 C 
BRANCH   2   3
ATOM      3  O   UNL A   1      33.565  28.570  22.421  1.00  0.00    -0.376 OA
BRANCH   3   4
ATOM      4  C   UNL A   1      33.601  27.170  22.213  1.00  0.00     0.202 C 
BRANCH   4   5
ATOM      5  C   UNL A   1      32.396  26.244  22.417  1.00  0.00     0.261 C 
BRANCH   5   6
ATOM      6  O   UNL A   1      32.707  24.879  22.709  1.00  0.00    -0.460 OA
BRANCH   6   7
ATOM      7  C   UNL A   1      32.502  24.515  23.998  1.00  0.00     0.338 C 
ATOM      8  O   UNL A   1      31.683  24.985  24.771  1.00  0.00    -0.246 OA
BRANCH   7   9
ATOM      9  C   UNL A   1      33.359  23.363  24.325  1.00  0.00     0.087 C 
ATOM     10  C   UNL A   1      38.186  19.138  25.132  1.00  0.00     0.046 C 
ATOM     11  C   UNL A   1      37.281  20.341  25.142  1.00  0.00    -0.028 A 
ATOM     12  C   UNL A   1      35.929  20.155  24.830  1.00  0.00     0.052 A 
ATOM     13  C   UNL A   1      37.729  21.632  25.485  1.00  0.00     0.047 A 
ATOM     14  C   UNL A   1      35.058  21.239  24.756  1.00  0.00     0.128 A 
ATOM     15  C   UNL A   1      36.855  22.744  25.430  1.00  0.00    -0.021 A 
ATOM     16  Cl  UNL A   1      39.385  21.832  25.968  1.00  0.00    -0.084 Cl
ATOM     17  C   UNL A   1      35.517  22.537  25.006  1.00  0.00     0.022 A 
ATOM     18  O   UNL A   1      33.773  20.917  24.421  1.00  0.00    -0.475 OA
ATOM     19  C   UNL A   1      37.316  24.137  25.798  1.00  0.00     0.047 C 
ATOM     20  C   UNL A   1      34.597  23.642  24.752  1.00  0.00     0.027 C 
ATOM     21  C   UNL A   1      32.819  21.975  24.155  1.00  0.00     0.316 C 
BRANCH  21  22
ATOM     22  C   UNL A   1      32.217  21.733  22.763  1.00  0.00     0.430 C 
ATOM     23  F   UNL A   1      33.012  22.246  21.791  1.00  0.00    -0.167 F 
ATOM     24  F   UNL A   1      32.085  20.414  22.490  1.00  0.00    -0.167 F 
ATOM     25  F   UNL A   1      30.997  22.299  22.628  1.00  0.00    -0.167 F 
ENDBRANCH  21  22
ENDBRANCH   7   9
ENDBRANCH   6   7
ENDBRANCH   5   6
ENDBRANCH   4   5
ENDBRANCH   3   4
ENDBRANCH   2   3
ENDBRANCH   1   2
BRANCH   1  26
ATOM     26  O   UNL A   1      32.138  29.112  25.931  1.00  0.00    -0.376 OA
BRANCH  26  27
ATOM     27  C   UNL A   1      31.499  30.375  26.040  1.00  0.00     0.202 C 
BRANCH  27  28
ATOM     28  C   UNL A   1      32.104  31.487  26.905  1.00  0.00     0.261 C 
BRANCH  28  29
ATOM     29  O   UNL A   1      33.290  31.103  27.613  1.00  0.00    -0.460 OA
BRANCH  29  30
ATOM     30  C   UNL A   1      34.262  32.049  27.659  1.00  0.00     0.338 C 
ATOM     31  O   UNL A   1      34.127  33.252  27.523  1.00  0.00    -0.246 OA
BRANCH  30  32
ATOM     32  C   UNL A   1      35.525  31.431  28.101  1.00  0.00     0.060 A 
ATOM     33  C   UNL A   1      35.518  30.061  28.404  1.00  0.00     0.016 A 
ATOM     34  C   UNL A   1      36.684  32.190  28.263  1.00  0.00     0.016 A 
ATOM     35  C   UNL A   1      36.671  29.450  28.890  1.00  0.00     0.010 A 
ATOM     36  C   UNL A   1      37.832  31.580  28.780  1.00  0.00     0.010 A 
ATOM     37  C   UNL A   1      37.822  30.215  29.119  1.00  0.00    -0.014 A 
BRANCH  37  38
ATOM     38  C   UNL A   1      38.944  29.628  29.888  1.00  0.00     0.031 A 
ATOM     39  C   UNL A   1      39.125  30.049  31.320  1.00  0.00     0.074 A 
ATOM     40  C   UNL A   1      39.757  28.705  29.343  1.00  0.00     0.049 A 
ATOM     41  N   UNL A   1      40.039  29.683  32.180  1.00  0.00    -0.248 NA
ATOM     42  C   UNL A   1      38.138  31.002  31.859  1.00  0.00     0.031 C 
ATOM     43  C   UNL A   1      39.642  28.164  27.988  1.00  0.00     0.029 A 
ATOM     44  N   UNL A   1      40.844  28.056  29.873  1.00  0.00    -0.354 N 
ATOM     45  C   UNL A   1      39.730  30.345  33.362  1.00  0.00     0.074 A 
ATOM     46  C   UNL A   1      38.565  31.161  33.103  1.00  0.00     0.031 C 
ATOM     47  C   UNL A   1      40.623  27.264  27.795  1.00  0.00     0.029 A 
ATOM     48  C   UNL A   1      41.453  27.190  28.997  1.00  0.00     0.049 A 
ATOM     49  H   UNL A   1      41.157  28.198  30.795  1.00  0.00     0.167 HD
ATOM     50  C   UNL A   1      40.356  30.276  34.559  1.00  0.00     0.031 A 
ATOM     51  C   UNL A   1      42.563  26.439  29.144  1.00  0.00     0.031 A 
ATOM     52  C   UNL A   1      41.533  29.493  34.811  1.00  0.00     0.049 A 
ATOM     53  C   UNL A   1      43.317  26.480  30.451  1.00  0.00     0.074 A 
ATOM     54  C   UNL A   1      42.255  29.382  35.987  1.00  0.00     0.029 A 
ATOM     55  N   UNL A   1      42.165  28.690  33.875  1.00  0.00    -0.354 N 
ATOM     56  N   UNL A   1      43.017  27.119  31.557  1.00  0.00    -0.248 NA
ATOM     57  C   UNL A   1      44.561  25.700  30.527  1.00  0.00     0.031 C 
ATOM     58  C   UNL A   1      43.353  28.550  35.747  1.00  0.00     0.029 A 
ATOM     59  C   UNL A   1      43.282  28.100  34.438  1.00  0.00     0.049 A 
ATOM     60  H   UNL A   1      41.863  28.561  32.947  1.00  0.00     0.167 HD
ATOM     61  C   UNL A   1      44.021  26.794  32.466  1.00  0.00     0.074 A 
ATOM     62  C   UNL A   1      44.930  25.895  31.786  1.00  0.00     0.031 C 
ATOM     63  C   UNL A   1      44.175  27.203  33.749  1.00  0.00     0.031 A 
BRANCH  50  64
ATOM     64  C   UNL A   1      39.786  31.085  35.691  1.00  0.00    -0.014 A 
ATOM     65  C   UNL A   1      38.574  30.714  36.300  1.00  0.00     0.010 A 
ATOM     66  C   UNL A   1      40.500  32.188  36.193  1.00  0.00     0.010 A 
ATOM     67  C   UNL A   1      38.080  31.440  37.385  1.00  0.00     0.020 A 
ATOM     68  C   UNL A   1      40.018  32.903  37.292  1.00  0.00     0.020 A 
ATOM     69  C   UNL A   1      38.807  32.528  37.876  1.00  0.00     0.054 A 
BRANCH  69  70
ATOM     70  S   UNL A   1      38.163  33.420  39.320  1.00  0.00     0.124 S 
ATOM     71  O   UNL A   1      36.727  33.179  39.206  1.00  0.00    -0.237 OA
ATOM     72  O   UNL A   1      38.827  32.746  40.432  1.00  0.00    -0.237 OA
ATOM     73  O   UNL A   1      38.583  34.800  39.091  1.00  0.00    -0.744 OA
ENDBRANCH  69  70
ENDBRANCH  50  64
BRANCH  51  74
ATOM     74  C   UNL A   1      43.056  25.595  28.022  1.00  0.00    -0.014 A 
ATOM     75  C   UNL A   1      42.625  24.263  27.885  1.00  0.00     0.010 A 
ATOM     76  C   UNL A   1      43.988  26.108  27.100  1.00  0.00     0.010 A 
ATOM     77  C   UNL A   1      43.134  23.454  26.865  1.00  0.00     0.020 A 
ATOM     78  C   UNL A   1      44.480  25.310  26.062  1.00  0.00     0.020 A 
ATOM     79  C   UNL A   1      44.059  23.984  25.960  1.00  0.00     0.054 A 
BRANCH  79  80
ATOM     80  S   UNL A   1      44.686  22.922  24.628  1.00  0.00     0.124 S 
ATOM     81  O   UNL A   1      43.474  22.640  23.867  1.00  0.00    -0.237 OA
ATOM     82  O   UNL A   1      45.661  23.788  23.969  1.00  0.00    -0.237 OA
ATOM     83  O   UNL A   1      45.258  21.782  25.341  1.00  0.00    -0.744 OA
ENDBRANCH  79  80
ENDBRANCH  51  74
BRANCH  63  84
ATOM     84  C   UNL A   1      45.351  26.668  34.523  1.00  0.00    -0.014 A 
ATOM     85  C   UNL A   1      46.513  27.436  34.701  1.00  0.00     0.010 A 
ATOM     86  C   UNL A   1      45.253  25.414  35.155  1.00  0.00     0.010 A 
ATOM     87  C   UNL A   1      47.565  26.953  35.484  1.00  0.00     0.020 A 
ATOM     88  C   UNL A   1      46.293  24.939  35.961  1.00  0.00     0.020 A 
ATOM     89  C   UNL A   1      47.447  25.709  36.112  1.00  0.00     0.054 A 
BRANCH  89  90
ATOM     90  S   UNL A   1      48.801  25.138  37.176  1.00  0.00     0.124 S 
ATOM     91  O   UNL A   1      49.377  26.398  37.638  1.00  0.00    -0.237 OA
ATOM     92  O   UNL A   1      48.102  24.357  38.192  1.00  0.00    -0.237 OA
ATOM     93  O   UNL A   1      49.647  24.361  36.273  1.00  0.00    -0.744 OA
ENDBRANCH  89  90
ENDBRANCH  63  84
ENDBRANCH  37  38
ENDBRANCH  30  32
ENDBRANCH  29  30
ENDBRANCH  28  29
ENDBRANCH  27  28
ENDBRANCH  26  27
ENDBRANCH   1  26
TORSDOF 21
ENDMDL
MODEL 2
REMARK VINA RESULT:      -9.9      2.245      8.429
REMARK SMILES Cc1cc2c(c(C)c1Cl)C=C(C(=O)OCCOCCOCCOC(=O)c1ccc(-c3c4nc(c(-c5ccc(S(=O)(=O)[O-])cc5)c5ccc([nH]5)c(-c5ccc(S(=O)(=O)[O-])cc5)c5nc(c(-c6ccc(S(=O)(=O)[O-])cc6)c6ccc3[nH]6)C=C5)C=C4)cc1)[C@@H](C(F)(F)F)O2
REMARK SMILES IDX 19 1 18 2 17 3 16 4 15 5 14 6 12 7 13 8 11 9 1 10 2 11 3 12
REMARK SMILES IDX 8 13 4 14 6 15 9 16 5 17 91 18 7 19 10 20 86 21 87 22 88 23
REMARK SMILES IDX 89 24 90 25 20 26 21 27 22 28 23 29 24 30 25 31 26 32 27 33
REMARK SMILES IDX 85 34 28 35 84 36 29 37 30 38 31 39 78 40 32 41 83 42 77 43
REMARK SMILES IDX 79 44 33 45 82 46 76 47 75 48 34 50 64 51 45 52 63 53 46 54
REMARK SMILES IDX 49 55 62 56 80 57 47 58 48 59 61 61 81 62 50 63 35 64 36 65
REMARK SMILES IDX 44 66 37 67 43 68 38 69 39 70 40 71 41 72 42 73 65 74 66 75
REMARK SMILES IDX 74 76 67 77 73 78 68 79 69 80 70 81 71 82 72 83 51 84 52 85
REMARK SMILES IDX 60 86 53 87 59 88 54 89 55 90 56 91 57 92 58 93
REMARK H PARENT 79 49 49 60
REMARK Flexibility Score: inf
ROOT
ATOM      1  C   UNL A   1      32.604  29.370  24.839  1.00  0.00     0.188 C 
ENDROOT
BRANCH   1   2
ATOM      2  C   UNL A   1      31.180  29.017  24.362  1.00  0.00     0.188 C 
BRANCH   2   3
ATOM      3  O   UNL A   1      30.978  28.029  23.373  1.00  0.00    -0.376 OA
BRANCH   3   4
ATOM      4  C   UNL A   1      30.952  26.647  23.683  1.00  0.00     0.202 C 
BRANCH   4   5
ATOM      5  C   UNL A   1      31.258  26.077  25.073  1.00  0.00     0.261 C 
BRANCH   5   6
ATOM      6  O   UNL A   1      32.644  25.914  25.383  1.00  0.00    -0.460 OA
BRANCH   6   7
ATOM      7  C   UNL A   1      33.430  25.606  24.323  1.00  0.00     0.338 C 
ATOM      8  O   UNL A   1      33.669  26.313  23.358  1.00  0.00    -0.246 OA
BRANCH   7   9
ATOM      9  C   UNL A   1      34.067  24.297  24.548  1.00  0.00     0.087 C 
ATOM     10  C   UNL A   1      38.080  19.249  25.014  1.00  0.00     0.046 C 
ATOM     11  C   UNL A   1      37.391  20.583  25.129  1.00  0.00    -0.028 A 
ATOM     12  C   UNL A   1      36.039  20.663  24.774  1.00  0.00     0.052 A 
ATOM     13  C   UNL A   1      38.037  21.739  25.610  1.00  0.00     0.047 A 
ATOM     14  C   UNL A   1      35.367  21.882  24.793  1.00  0.00     0.128 A 
ATOM     15  C   UNL A   1      37.366  22.984  25.653  1.00  0.00    -0.021 A 
ATOM     16  Cl  UNL A   1      39.684  21.604  26.144  1.00  0.00    -0.084 Cl
ATOM     17  C   UNL A   1      36.029  23.052  25.183  1.00  0.00     0.022 A 
ATOM     18  O   UNL A   1      34.059  21.819  24.402  1.00  0.00    -0.475 OA
ATOM     19  C   UNL A   1      38.041  24.236  26.170  1.00  0.00     0.047 C 
ATOM     20  C   UNL A   1      35.318  24.318  25.025  1.00  0.00     0.027 C 
ATOM     21  C   UNL A   1      33.307  23.045  24.227  1.00  0.00     0.316 C 
BRANCH  21  22
ATOM     22  C   UNL A   1      32.725  23.047  22.806  1.00  0.00     0.430 C 
ATOM     23  F   UNL A   1      31.508  23.644  22.776  1.00  0.00    -0.167 F 
ATOM     24  F   UNL A   1      33.507  23.732  21.938  1.00  0.00    -0.167 F 
ATOM     25  F   UNL A   1      32.574  21.797  22.314  1.00  0.00    -0.167 F 
ENDBRANCH  21  22
ENDBRANCH   7   9
ENDBRANCH   6   7
ENDBRANCH   5   6
ENDBRANCH   4   5
ENDBRANCH   3   4
ENDBRANCH   2   3
ENDBRANCH   1   2
BRANCH   1  26
ATOM     26  O   UNL A   1      32.819  30.017  26.080  1.00  0.00    -0.376 OA
BRANCH  26  27
ATOM     27  C   UNL A   1      31.781  30.816  26.629  1.00  0.00     0.202 C 
BRANCH  27  28
ATOM     28  C   UNL A   1      32.077  32.214  27.184  1.00  0.00     0.261 C 
BRANCH  28  29
ATOM     29  O   UNL A   1      33.423  32.390  27.646  1.00  0.00    -0.460 OA
BRANCH  29  30
ATOM     30  C   UNL A   1      33.663  33.569  28.274  1.00  0.00     0.338 C 
ATOM     31  O   UNL A   1      33.016  34.597  28.186  1.00  0.00    -0.246 OA
BRANCH  30  32
ATOM     32  C   UNL A   1      34.738  33.383  29.265  1.00  0.00     0.060 A 
ATOM     33  C   UNL A   1      35.999  33.927  28.981  1.00  0.00     0.016 A 
ATOM     34  C   UNL A   1      34.527  32.647  30.432  1.00  0.00     0.016 A 
ATOM     35  C   UNL A   1      37.061  33.718  29.857  1.00  0.00     0.010 A 
ATOM     36  C   UNL A   1      35.603  32.414  31.296  1.00  0.00     0.010 A 
ATOM     37  C   UNL A   1      36.878  32.927  30.998  1.00  0.00    -0.014 A 
BRANCH  37  38
ATOM     38  C   UNL A   1      38.061  32.481  31.770  1.00  0.00     0.031 A 
ATOM     39  C   UNL A   1      38.909  31.375  31.203  1.00  0.00     0.074 A 
ATOM     40  C   UNL A   1      38.405  33.075  32.927  1.00  0.00     0.049 A 
ATOM     41  N   UNL A   1      39.977  30.813  31.704  1.00  0.00    -0.248 NA
ATOM     42  C   UNL A   1      38.504  30.839  29.891  1.00  0.00     0.031 C 
ATOM     43  C   UNL A   1      37.705  34.202  33.544  1.00  0.00     0.029 A 
ATOM     44  N   UNL A   1      39.440  32.809  33.788  1.00  0.00    -0.354 N 
ATOM     45  C   UNL A   1      40.381  29.871  30.766  1.00  0.00     0.074 A 
ATOM     46  C   UNL A   1      39.428  29.913  29.680  1.00  0.00     0.031 C 
ATOM     47  C   UNL A   1      38.333  34.530  34.688  1.00  0.00     0.029 A 
ATOM     48  C   UNL A   1      39.457  33.618  34.900  1.00  0.00     0.049 A 
ATOM     49  H   UNL A   1      40.109  32.106  33.623  1.00  0.00     0.167 HD
ATOM     50  C   UNL A   1      41.455  29.049  30.800  1.00  0.00     0.031 A 
ATOM     51  C   UNL A   1      40.274  33.608  35.972  1.00  0.00     0.031 A 
ATOM     52  C   UNL A   1      42.385  28.981  31.893  1.00  0.00     0.049 A 
ATOM     53  C   UNL A   1      41.388  32.592  36.045  1.00  0.00     0.074 A 
ATOM     54  C   UNL A   1      43.489  28.157  32.030  1.00  0.00     0.029 A 
ATOM     55  N   UNL A   1      42.322  29.761  33.036  1.00  0.00    -0.354 N 
ATOM     56  N   UNL A   1      41.752  31.701  35.153  1.00  0.00    -0.248 NA
ATOM     57  C   UNL A   1      42.199  32.579  37.271  1.00  0.00     0.031 C 
ATOM     58  C   UNL A   1      44.064  28.405  33.280  1.00  0.00     0.029 A 
ATOM     59  C   UNL A   1      43.352  29.422  33.895  1.00  0.00     0.049 A 
ATOM     60  H   UNL A   1      41.644  30.453  33.210  1.00  0.00     0.167 HD
ATOM     61  C   UNL A   1      42.851  31.043  35.701  1.00  0.00     0.074 A 
ATOM     62  C   UNL A   1      43.098  31.644  36.994  1.00  0.00     0.031 C 
ATOM     63  C   UNL A   1      43.588  30.033  35.179  1.00  0.00     0.031 A 
BRANCH  50  64
ATOM     64  C   UNL A   1      41.674  28.139  29.624  1.00  0.00    -0.014 A 
ATOM     65  C   UNL A   1      40.946  26.944  29.495  1.00  0.00     0.010 A 
ATOM     66  C   UNL A   1      42.567  28.516  28.604  1.00  0.00     0.010 A 
ATOM     67  C   UNL A   1      41.117  26.132  28.372  1.00  0.00     0.020 A 
ATOM     68  C   UNL A   1      42.725  27.715  27.469  1.00  0.00     0.020 A 
ATOM     69  C   UNL A   1      42.003  26.525  27.365  1.00  0.00     0.054 A 
BRANCH  69  70
ATOM     70  S   UNL A   1      42.165  25.474  25.894  1.00  0.00     0.124 S 
ATOM     71  O   UNL A   1      43.568  25.669  25.538  1.00  0.00    -0.237 OA
ATOM     72  O   UNL A   1      41.825  24.151  26.410  1.00  0.00    -0.237 OA
ATOM     73  O   UNL A   1      41.200  26.041  24.955  1.00  0.00    -0.744 OA
ENDBRANCH  69  70
ENDBRANCH  50  64
BRANCH  51  74
ATOM     74  C   UNL A   1      40.068  34.573  37.085  1.00  0.00    -0.014 A 
ATOM     75  C   UNL A   1      39.162  34.286  38.123  1.00  0.00     0.010 A 
ATOM     76  C   UNL A   1      40.751  35.804  37.097  1.00  0.00     0.010 A 
ATOM     77  C   UNL A   1      38.926  35.219  39.137  1.00  0.00     0.020 A 
ATOM     78  C   UNL A   1      40.537  36.729  38.124  1.00  0.00     0.020 A 
ATOM     79  C   UNL A   1      39.616  36.436  39.130  1.00  0.00     0.054 A 
BRANCH  79  80
ATOM     80  S   UNL A   1      39.312  37.621  40.471  1.00  0.00     0.124 S 
ATOM     81  O   UNL A   1      38.186  38.388  39.948  1.00  0.00    -0.237 OA
ATOM     82  O   UNL A   1      39.012  36.745  41.601  1.00  0.00    -0.237 OA
ATOM     83  O   UNL A   1      40.573  38.350  40.575  1.00  0.00    -0.744 OA
ENDBRANCH  79  80
ENDBRANCH  51  74
BRANCH  63  84
ATOM     84  C   UNL A   1      44.753  29.522  35.984  1.00  0.00    -0.014 A 
ATOM     85  C   UNL A   1      44.605  28.445  36.872  1.00  0.00     0.010 A 
ATOM     86  C   UNL A   1      46.033  30.072  35.779  1.00  0.00     0.010 A 
ATOM     87  C   UNL A   1      45.713  27.936  37.556  1.00  0.00     0.020 A 
ATOM     88  C   UNL A   1      47.148  29.548  36.441  1.00  0.00     0.020 A 
ATOM     89  C   UNL A   1      46.978  28.488  37.333  1.00  0.00     0.054 A 
BRANCH  89  90
ATOM     90  S   UNL A   1      48.407  27.764  38.184  1.00  0.00     0.124 S 
ATOM     91  O   UNL A   1      49.173  27.207  37.073  1.00  0.00    -0.237 OA
ATOM     92  O   UNL A   1      49.007  28.921  38.843  1.00  0.00    -0.237 OA
ATOM     93  O   UNL A   1      47.812  26.780  39.086  1.00  0.00    -0.744 OA
ENDBRANCH  89  90
ENDBRANCH  63  84
ENDBRANCH  37  38
ENDBRANCH  30  32
ENDBRANCH  29  30
ENDBRANCH  28  29
ENDBRANCH  27  28
ENDBRANCH  26  27
ENDBRANCH   1  26
TORSDOF 21
ENDMDL
MODEL 3
REMARK VINA RESULT:      -9.6      5.452     11.331
REMARK SMILES Cc1cc2c(c(C)c1Cl)C=C(C(=O)OCCOCCOCCOC(=O)c1ccc(-c3c4nc(c(-c5ccc(S(=O)(=O)[O-])cc5)c5ccc([nH]5)c(-c5ccc(S(=O)(=O)[O-])cc5)c5nc(c(-c6ccc(S(=O)(=O)[O-])cc6)c6ccc3[nH]6)C=C5)C=C4)cc1)[C@@H](C(F)(F)F)O2
REMARK SMILES IDX 19 1 18 2 17 3 16 4 15 5 14 6 12 7 13 8 11 9 1 10 2 11 3 12
REMARK SMILES IDX 8 13 4 14 6 15 9 16 5 17 91 18 7 19 10 20 86 21 87 22 88 23
REMARK SMILES IDX 89 24 90 25 20 26 21 27 22 28 23 29 24 30 25 31 26 32 27 33
REMARK SMILES IDX 85 34 28 35 84 36 29 37 30 38 31 39 78 40 32 41 83 42 77 43
REMARK SMILES IDX 79 44 33 45 82 46 76 47 75 48 34 50 64 51 45 52 63 53 46 54
REMARK SMILES IDX 49 55 62 56 80 57 47 58 48 59 61 61 81 62 50 63 35 64 36 65
REMARK SMILES IDX 44 66 37 67 43 68 38 69 39 70 40 71 41 72 42 73 65 74 66 75
REMARK SMILES IDX 74 76 67 77 73 78 68 79 69 80 70 81 71 82 72 83 51 84 52 85
REMARK SMILES IDX 60 86 53 87 59 88 54 89 55 90 56 91 57 92 58 93
REMARK H PARENT 79 49 49 60
REMARK Flexibility Score: inf
ROOT
ATOM      1  C   UNL A   1      44.898  27.534  25.295  1.00  0.00     0.188 C 
ENDROOT
BRANCH   1   2
ATOM      2  C   UNL A   1      46.243  27.808  24.590  1.00  0.00     0.188 C 
BRANCH   2   3
ATOM      3  O   UNL A   1      47.023  26.743  24.090  1.00  0.00    -0.376 OA
BRANCH   3   4
ATOM      4  C   UNL A   1      48.378  26.564  24.460  1.00  0.00     0.202 C 
BRANCH   4   5
ATOM      5  C   UNL A   1      48.827  25.976  25.803  1.00  0.00     0.261 C 
BRANCH   5   6
ATOM      6  O   UNL A   1      48.051  26.364  26.939  1.00  0.00    -0.460 OA
BRANCH   6   7
ATOM      7  C   UNL A   1      48.185  25.557  28.019  1.00  0.00     0.338 C 
ATOM      8  O   UNL A   1      49.185  25.409  28.704  1.00  0.00    -0.246 OA
BRANCH   7   9
ATOM      9  C   UNL A   1      46.887  24.939  28.335  1.00  0.00     0.087 C 
ATOM     10  C   UNL A   1      40.969  22.336  28.250  1.00  0.00     0.046 C 
ATOM     11  C   UNL A   1      42.422  22.666  28.039  1.00  0.00    -0.028 A 
ATOM     12  C   UNL A   1      43.050  23.510  28.962  1.00  0.00     0.052 A 
ATOM     13  C   UNL A   1      43.181  22.134  26.978  1.00  0.00     0.047 A 
ATOM     14  C   UNL A   1      44.373  23.906  28.783  1.00  0.00     0.128 A 
ATOM     15  C   UNL A   1      44.532  22.512  26.788  1.00  0.00    -0.021 A 
ATOM     16  Cl  UNL A   1      42.419  21.008  25.898  1.00  0.00    -0.084 Cl
ATOM     17  C   UNL A   1      45.106  23.454  27.680  1.00  0.00     0.022 A 
ATOM     18  O   UNL A   1      44.853  24.748  29.746  1.00  0.00    -0.475 OA
ATOM     19  C   UNL A   1      45.365  21.950  25.656  1.00  0.00     0.047 C 
ATOM     20  C   UNL A   1      46.429  24.034  27.461  1.00  0.00     0.027 C 
ATOM     21  C   UNL A   1      46.159  25.353  29.579  1.00  0.00     0.316 C 
BRANCH  21  22
ATOM     22  C   UNL A   1      45.996  26.875  29.697  1.00  0.00     0.430 C 
ATOM     23  F   UNL A   1      47.200  27.490  29.809  1.00  0.00    -0.167 F 
ATOM     24  F   UNL A   1      45.396  27.408  28.605  1.00  0.00    -0.167 F 
ATOM     25  F   UNL A   1      45.261  27.229  30.775  1.00  0.00    -0.167 F 
ENDBRANCH  21  22
ENDBRANCH   7   9
ENDBRANCH   6   7
ENDBRANCH   5   6
ENDBRANCH   4   5
ENDBRANCH   3   4
ENDBRANCH   2   3
ENDBRANCH   1   2
BRANCH   1  26
ATOM     26  O   UNL A   1      44.569  26.238  25.760  1.00  0.00    -0.376 OA
BRANCH  26  27
ATOM     27  C   UNL A   1      43.720  25.418  24.971  1.00  0.00     0.202 C 
BRANCH  27  28
ATOM     28  C   UNL A   1      42.242  25.239  25.336  1.00  0.00     0.261 C 
BRANCH  28  29
ATOM     29  O   UNL A   1      41.874  25.813  26.598  1.00  0.00    -0.460 OA
BRANCH  29  30
ATOM     30  C   UNL A   1      40.540  25.844  26.845  1.00  0.00     0.338 C 
ATOM     31  O   UNL A   1      39.684  25.117  26.371  1.00  0.00    -0.246 OA
BRANCH  30  32
ATOM     32  C   UNL A   1      40.271  26.782  27.949  1.00  0.00     0.060 A 
ATOM     33  C   UNL A   1      40.946  28.011  27.951  1.00  0.00     0.016 A 
ATOM     34  C   UNL A   1      39.407  26.443  28.992  1.00  0.00     0.016 A 
ATOM     35  C   UNL A   1      40.773  28.900  29.009  1.00  0.00     0.010 A 
ATOM     36  C   UNL A   1      39.259  27.324  30.068  1.00  0.00     0.010 A 
ATOM     37  C   UNL A   1      39.961  28.543  30.092  1.00  0.00    -0.014 A 
BRANCH  37  38
ATOM     38  C   UNL A   1      39.999  29.359  31.329  1.00  0.00     0.031 A 
ATOM     39  C   UNL A   1      41.133  29.140  32.293  1.00  0.00     0.074 A 
ATOM     40  C   UNL A   1      39.075  30.306  31.570  1.00  0.00     0.049 A 
ATOM     41  N   UNL A   1      41.366  29.722  33.439  1.00  0.00    -0.248 NA
ATOM     42  C   UNL A   1      42.145  28.140  31.907  1.00  0.00     0.031 C 
ATOM     43  C   UNL A   1      37.968  30.659  30.681  1.00  0.00     0.029 A 
ATOM     44  N   UNL A   1      38.927  31.148  32.644  1.00  0.00    -0.354 N 
ATOM     45  C   UNL A   1      42.555  29.173  33.905  1.00  0.00     0.074 A 
ATOM     46  C   UNL A   1      42.980  28.190  32.934  1.00  0.00     0.031 C 
ATOM     47  C   UNL A   1      37.254  31.648  31.249  1.00  0.00     0.029 A 
ATOM     48  C   UNL A   1      37.831  31.973  32.553  1.00  0.00     0.049 A 
ATOM     49  H   UNL A   1      39.549  31.160  33.407  1.00  0.00     0.167 HD
ATOM     50  C   UNL A   1      43.238  29.467  35.035  1.00  0.00     0.031 A 
ATOM     51  C   UNL A   1      37.343  32.873  33.430  1.00  0.00     0.031 A 
ATOM     52  C   UNL A   1      42.801  30.420  36.018  1.00  0.00     0.049 A 
ATOM     53  C   UNL A   1      38.054  33.088  34.744  1.00  0.00     0.074 A 
ATOM     54  C   UNL A   1      43.413  30.764  37.211  1.00  0.00     0.029 A 
ATOM     55  N   UNL A   1      41.645  31.178  35.926  1.00  0.00    -0.354 N 
ATOM     56  N   UNL A   1      39.173  32.554  35.173  1.00  0.00    -0.248 NA
ATOM     57  C   UNL A   1      37.433  34.025  35.692  1.00  0.00     0.031 C 
ATOM     58  C   UNL A   1      42.599  31.695  37.864  1.00  0.00     0.029 A 
ATOM     59  C   UNL A   1      41.511  31.971  37.051  1.00  0.00     0.049 A 
ATOM     60  H   UNL A   1      41.013  31.154  35.172  1.00  0.00     0.167 HD
ATOM     61  C   UNL A   1      39.402  33.113  36.429  1.00  0.00     0.074 A 
ATOM     62  C   UNL A   1      38.314  34.032  36.684  1.00  0.00     0.031 C 
ATOM     63  C   UNL A   1      40.423  32.885  37.290  1.00  0.00     0.031 A 
BRANCH  50  64
ATOM     64  C   UNL A   1      44.527  28.734  35.281  1.00  0.00    -0.014 A 
ATOM     65  C   UNL A   1      45.755  29.287  34.879  1.00  0.00     0.010 A 
ATOM     66  C   UNL A   1      44.516  27.513  35.978  1.00  0.00     0.010 A 
ATOM     67  C   UNL A   1      46.951  28.625  35.158  1.00  0.00     0.020 A 
ATOM     68  C   UNL A   1      45.714  26.857  36.278  1.00  0.00     0.020 A 
ATOM     69  C   UNL A   1      46.923  27.415  35.859  1.00  0.00     0.054 A 
BRANCH  69  70
ATOM     70  S   UNL A   1      48.499  26.605  36.253  1.00  0.00     0.124 S 
ATOM     71  O   UNL A   1      48.331  25.299  35.620  1.00  0.00    -0.237 OA
ATOM     72  O   UNL A   1      49.476  27.487  35.623  1.00  0.00    -0.237 OA
ATOM     73  O   UNL A   1      48.526  26.590  37.713  1.00  0.00    -0.744 OA
ENDBRANCH  69  70
ENDBRANCH  50  64
BRANCH  51  74
ATOM     74  C   UNL A   1      36.101  33.632  33.118  1.00  0.00    -0.014 A 
ATOM     75  C   UNL A   1      36.168  34.884  32.482  1.00  0.00     0.010 A 
ATOM     76  C   UNL A   1      34.843  33.121  33.488  1.00  0.00     0.010 A 
ATOM     77  C   UNL A   1      35.004  35.622  32.243  1.00  0.00     0.020 A 
ATOM     78  C   UNL A   1      33.674  33.843  33.228  1.00  0.00     0.020 A 
ATOM     79  C   UNL A   1      33.764  35.095  32.619  1.00  0.00     0.054 A 
BRANCH  79  80
ATOM     80  S   UNL A   1      32.265  36.060  32.275  1.00  0.00     0.124 S 
ATOM     81  O   UNL A   1      32.355  37.125  33.269  1.00  0.00    -0.237 OA
ATOM     82  O   UNL A   1      32.467  36.469  30.887  1.00  0.00    -0.237 OA
ATOM     83  O   UNL A   1      31.186  35.098  32.483  1.00  0.00    -0.744 OA
ENDBRANCH  79  80
ENDBRANCH  51  74
BRANCH  63  84
ATOM     84  C   UNL A   1      40.439  33.657  38.583  1.00  0.00    -0.014 A 
ATOM     85  C   UNL A   1      39.754  33.189  39.716  1.00  0.00     0.010 A 
ATOM     86  C   UNL A   1      41.226  34.820  38.688  1.00  0.00     0.010 A 
ATOM     87  C   UNL A   1      39.840  33.879  40.929  1.00  0.00     0.020 A 
ATOM     88  C   UNL A   1      41.336  35.498  39.906  1.00  0.00     0.020 A 
ATOM     89  C   UNL A   1      40.634  35.027  41.017  1.00  0.00     0.054 A 
BRANCH  89  90
ATOM     90  S   UNL A   1      40.779  35.865  42.620  1.00  0.00     0.124 S 
ATOM     91  O   UNL A   1      40.093  34.934  43.512  1.00  0.00    -0.237 OA
ATOM     92  O   UNL A   1      42.225  35.959  42.802  1.00  0.00    -0.237 OA
ATOM     93  O   UNL A   1      40.099  37.140  42.408  1.00  0.00    -0.744 OA
ENDBRANCH  89  90
ENDBRANCH  63  84
ENDBRANCH  37  38
ENDBRANCH  30  32
ENDBRANCH  29  30
ENDBRANCH  28  29
ENDBRANCH  27  28
ENDBRANCH  26  27
ENDBRANCH   1  26
TORSDOF 21
ENDMDL
