MODEL 1
REMARK VINA RESULT:      -9.9      0.000      0.000
REMARK SMILES O=C(C[N@@H+]1CCC[C@@H]1C(=O)OCCOCCOCCOC(=O)c1ccc(-c2c3nc(c(-c4ccc(S(=O)(=O)[O-])cc4)c4ccc([nH]4)c(-c4ccc(S(=O)(=O)[O-])cc4)c4nc(c(-c5ccc(S(=O)(=O)[O-])cc5)c5ccc2[nH]5)C=C4)C=C3)cc1)NCc1ccc(Cl)cc1
REMARK SMILES IDX 15 1 14 2 13 3 12 4 11 5 9 6 10 7 8 8 4 9 5 10 6 12 7 13
REMARK SMILES IDX 3 14 2 15 1 16 83 17 84 19 85 20 86 21 91 22 87 23 90 24
REMARK SMILES IDX 88 25 89 26 16 27 17 28 18 29 19 30 20 31 21 32 22 33 23 34
REMARK SMILES IDX 24 35 82 36 25 37 81 38 26 39 27 40 28 41 75 42 29 43 80 44
REMARK SMILES IDX 74 45 76 46 30 47 79 48 73 49 72 50 31 52 61 53 42 54 60 55
REMARK SMILES IDX 43 56 46 57 59 58 77 59 44 60 45 61 58 63 78 64 47 65 32 66
REMARK SMILES IDX 33 67 41 68 34 69 40 70 35 71 36 72 37 73 38 74 39 75 62 76
REMARK SMILES IDX 63 77 71 78 64 79 70 80 65 81 66 82 67 83 68 84 69 85 48 86
REMARK SMILES IDX 49 87 57 88 50 89 56 90 51 91 52 92 53 93 54 94 55 95
REMARK H PARENT 4 11 83 18 76 51 46 62
REMARK Flexibility Score: inf
ROOT
ATOM      1  C   UNL A   1      39.336  22.113  26.420  1.00  0.00     0.188 C 
ENDROOT
BRANCH   1   2
ATOM      2  O   UNL A   1      38.185  21.840  25.633  1.00  0.00    -0.376 OA
BRANCH   2   3
ATOM      3  C   UNL A   1      37.047  22.689  25.742  1.00  0.00     0.202 C 
BRANCH   3   4
ATOM      4  C   UNL A   1      36.638  23.566  24.548  1.00  0.00     0.261 C 
BRANCH   4   5
ATOM      5  O   UNL A   1      35.809  22.907  23.571  1.00  0.00    -0.459 OA
BRANCH   5   6
ATOM      6  C   UNL A   1      34.477  23.197  23.580  1.00  0.00     0.365 C 
ATOM      7  O   UNL A   1      34.019  24.327  23.455  1.00  0.00    -0.245 OA
BRANCH   6   8
ATOM      8  C   UNL A   1      33.594  21.955  23.862  1.00  0.00     0.295 C 
ATOM      9  N   UNL A   1      32.505  22.217  24.866  1.00  0.00    -0.315 N 
ATOM     10  C   UNL A   1      32.077  20.855  25.222  1.00  0.00     0.263 C 
ATOM     11  H   UNL A   1      31.694  22.749  24.548  1.00  0.00     0.349 HD
ATOM     12  C   UNL A   1      33.352  20.072  25.406  1.00  0.00     0.068 C 
ATOM     13  C   UNL A   1      34.251  20.640  24.326  1.00  0.00     0.083 C 
BRANCH   9  14
ATOM     14  C   UNL A   1      33.025  23.090  25.954  1.00  0.00     0.364 C 
BRANCH  14  15
ATOM     15  C   UNL A   1      32.077  24.136  26.499  1.00  0.00     0.275 C 
ATOM     16  O   UNL A   1      31.305  23.902  27.424  1.00  0.00    -0.268 OA
ATOM     17  N   UNL A   1      32.203  25.357  25.898  1.00  0.00    -0.347 N 
ATOM     18  H   UNL A   1      32.821  25.452  25.139  1.00  0.00     0.164 HD
BRANCH  17  19
ATOM     19  C   UNL A   1      31.463  26.502  26.337  1.00  0.00     0.151 C 
BRANCH  19  20
ATOM     20  C   UNL A   1      30.969  27.329  25.177  1.00  0.00    -0.029 A 
ATOM     21  C   UNL A   1      31.404  28.656  25.075  1.00  0.00     0.007 A 
ATOM     22  C   UNL A   1      30.069  26.834  24.217  1.00  0.00     0.007 A 
ATOM     23  C   UNL A   1      30.946  29.473  24.041  1.00  0.00     0.021 A 
ATOM     24  C   UNL A   1      29.610  27.649  23.184  1.00  0.00     0.021 A 
ATOM     25  C   UNL A   1      30.048  28.966  23.104  1.00  0.00     0.041 A 
ATOM     26  Cl  UNL A   1      29.473  29.980  21.839  1.00  0.00    -0.084 Cl
ENDBRANCH  19  20
ENDBRANCH  17  19
ENDBRANCH  14  15
ENDBRANCH   9  14
ENDBRANCH   6   8
ENDBRANCH   5   6
ENDBRANCH   4   5
ENDBRANCH   3   4
ENDBRANCH   2   3
ENDBRANCH   1   2
BRANCH   1  27
ATOM     27  C   UNL A   1      40.514  21.135  26.356  1.00  0.00     0.188 C 
BRANCH  27  28
ATOM     28  O   UNL A   1      41.763  21.678  26.712  1.00  0.00    -0.376 OA
BRANCH  28  29
ATOM     29  C   UNL A   1      42.545  22.285  25.695  1.00  0.00     0.202 C 
BRANCH  29  30
ATOM     30  C   UNL A   1      42.731  23.815  25.643  1.00  0.00     0.261 C 
BRANCH  30  31
ATOM     31  O   UNL A   1      41.713  24.630  26.246  1.00  0.00    -0.460 OA
BRANCH  31  32
ATOM     32  C   UNL A   1      41.764  25.967  26.036  1.00  0.00     0.338 C 
ATOM     33  O   UNL A   1      41.638  26.541  24.967  1.00  0.00    -0.246 OA
BRANCH  32  34
ATOM     34  C   UNL A   1      41.708  26.622  27.369  1.00  0.00     0.060 A 
ATOM     35  C   UNL A   1      40.786  26.157  28.322  1.00  0.00     0.016 A 
ATOM     36  C   UNL A   1      42.602  27.642  27.701  1.00  0.00     0.016 A 
ATOM     37  C   UNL A   1      40.742  26.726  29.598  1.00  0.00     0.010 A 
ATOM     38  C   UNL A   1      42.536  28.231  28.967  1.00  0.00     0.010 A 
ATOM     39  C   UNL A   1      41.587  27.797  29.911  1.00  0.00    -0.014 A 
BRANCH  39  40
ATOM     40  C   UNL A   1      41.337  28.616  31.124  1.00  0.00     0.031 A 
ATOM     41  C   UNL A   1      40.210  29.612  31.080  1.00  0.00     0.074 A 
ATOM     42  C   UNL A   1      42.082  28.492  32.238  1.00  0.00     0.049 A 
ATOM     43  N   UNL A   1      39.835  30.488  31.976  1.00  0.00    -0.248 NA
ATOM     44  C   UNL A   1      39.402  29.623  29.850  1.00  0.00     0.031 C 
ATOM     45  C   UNL A   1      43.156  27.523  32.438  1.00  0.00     0.029 A 
ATOM     46  N   UNL A   1      42.040  29.200  33.414  1.00  0.00    -0.354 N 
ATOM     47  C   UNL A   1      38.759  31.164  31.412  1.00  0.00     0.074 A 
ATOM     48  C   UNL A   1      38.565  30.620  30.086  1.00  0.00     0.031 C 
ATOM     49  C   UNL A   1      43.675  27.698  33.667  1.00  0.00     0.029 A 
ATOM     50  C   UNL A   1      42.998  28.818  34.322  1.00  0.00     0.049 A 
ATOM     51  H   UNL A   1      41.386  29.915  33.589  1.00  0.00     0.167 HD
ATOM     52  C   UNL A   1      37.999  32.150  31.947  1.00  0.00     0.031 A 
ATOM     53  C   UNL A   1      43.304  29.327  35.533  1.00  0.00     0.031 A 
ATOM     54  C   UNL A   1      38.217  32.715  33.252  1.00  0.00     0.049 A 
ATOM     55  C   UNL A   1      42.518  30.497  36.068  1.00  0.00     0.074 A 
ATOM     56  C   UNL A   1      37.502  33.713  33.889  1.00  0.00     0.029 A 
ATOM     57  N   UNL A   1      39.239  32.343  34.114  1.00  0.00    -0.354 N 
ATOM     58  N   UNL A   1      41.493  31.118  35.533  1.00  0.00    -0.248 NA
ATOM     59  C   UNL A   1      42.930  31.032  37.374  1.00  0.00     0.031 C 
ATOM     60  C   UNL A   1      38.133  33.993  35.105  1.00  0.00     0.029 A 
ATOM     61  C   UNL A   1      39.196  33.117  35.262  1.00  0.00     0.049 A 
ATOM     62  H   UNL A   1      39.898  31.635  33.935  1.00  0.00     0.167 HD
ATOM     63  C   UNL A   1      41.117  32.094  36.452  1.00  0.00     0.074 A 
ATOM     64  C   UNL A   1      42.020  31.975  37.579  1.00  0.00     0.031 C 
ATOM     65  C   UNL A   1      40.107  32.998  36.375  1.00  0.00     0.031 A 
BRANCH  52  66
ATOM     66  C   UNL A   1      36.902  32.713  31.078  1.00  0.00    -0.014 A 
ATOM     67  C   UNL A   1      37.189  33.524  29.965  1.00  0.00     0.010 A 
ATOM     68  C   UNL A   1      35.559  32.449  31.402  1.00  0.00     0.010 A 
ATOM     69  C   UNL A   1      36.155  34.123  29.239  1.00  0.00     0.020 A 
ATOM     70  C   UNL A   1      34.521  33.015  30.657  1.00  0.00     0.020 A 
ATOM     71  C   UNL A   1      34.827  33.873  29.598  1.00  0.00     0.054 A 
BRANCH  71  72
ATOM     72  S   UNL A   1      33.505  34.690  28.664  1.00  0.00     0.124 S 
ATOM     73  O   UNL A   1      34.194  35.865  28.135  1.00  0.00    -0.237 OA
ATOM     74  O   UNL A   1      33.139  33.680  27.676  1.00  0.00    -0.237 OA
ATOM     75  O   UNL A   1      32.487  34.969  29.674  1.00  0.00    -0.744 OA
ENDBRANCH  71  72
ENDBRANCH  52  66
BRANCH  53  76
ATOM     76  C   UNL A   1      44.403  28.719  36.334  1.00  0.00    -0.014 A 
ATOM     77  C   UNL A   1      44.158  27.579  37.122  1.00  0.00     0.010 A 
ATOM     78  C   UNL A   1      45.704  29.254  36.295  1.00  0.00     0.010 A 
ATOM     79  C   UNL A   1      45.193  26.983  37.848  1.00  0.00     0.020 A 
ATOM     80  C   UNL A   1      46.748  28.644  36.999  1.00  0.00     0.020 A 
ATOM     81  C   UNL A   1      46.484  27.513  37.773  1.00  0.00     0.054 A 
BRANCH  81  82
ATOM     82  S   UNL A   1      47.825  26.665  38.654  1.00  0.00     0.124 S 
ATOM     83  O   UNL A   1      47.460  25.262  38.489  1.00  0.00    -0.237 OA
ATOM     84  O   UNL A   1      49.009  27.101  37.917  1.00  0.00    -0.237 OA
ATOM     85  O   UNL A   1      47.722  27.183  40.017  1.00  0.00    -0.744 OA
ENDBRANCH  81  82
ENDBRANCH  53  76
BRANCH  65  86
ATOM     86  C   UNL A   1      39.893  33.913  37.555  1.00  0.00    -0.014 A 
ATOM     87  C   UNL A   1      39.328  33.448  38.755  1.00  0.00     0.010 A 
ATOM     88  C   UNL A   1      40.321  35.252  37.477  1.00  0.00     0.010 A 
ATOM     89  C   UNL A   1      39.168  34.311  39.845  1.00  0.00     0.020 A 
ATOM     90  C   UNL A   1      40.193  36.109  38.574  1.00  0.00     0.020 A 
ATOM     91  C   UNL A   1      39.604  35.637  39.747  1.00  0.00     0.054 A 
BRANCH  91  92
ATOM     92  S   UNL A   1      39.428  36.723  41.190  1.00  0.00     0.124 S 
ATOM     93  O   UNL A   1      40.803  36.813  41.673  1.00  0.00    -0.237 OA
ATOM     94  O   UNL A   1      38.887  37.947  40.604  1.00  0.00    -0.237 OA
ATOM     95  O   UNL A   1      38.508  35.997  42.062  1.00  0.00    -0.744 OA
ENDBRANCH  91  92
ENDBRANCH  65  86
ENDBRANCH  39  40
ENDBRANCH  32  34
ENDBRANCH  31  32
ENDBRANCH  30  31
ENDBRANCH  29  30
ENDBRANCH  28  29
ENDBRANCH  27  28
ENDBRANCH   1  27
TORSDOF 24
ENDMDL
MODEL 2
REMARK VINA RESULT:      -9.3      2.905      9.575
REMARK SMILES O=C(C[N@@H+]1CCC[C@@H]1C(=O)OCCOCCOCCOC(=O)c1ccc(-c2c3nc(c(-c4ccc(S(=O)(=O)[O-])cc4)c4ccc([nH]4)c(-c4ccc(S(=O)(=O)[O-])cc4)c4nc(c(-c5ccc(S(=O)(=O)[O-])cc5)c5ccc2[nH]5)C=C4)C=C3)cc1)NCc1ccc(Cl)cc1
REMARK SMILES IDX 15 1 14 2 13 3 12 4 11 5 9 6 10 7 8 8 4 9 5 10 6 12 7 13
REMARK SMILES IDX 3 14 2 15 1 16 83 17 84 19 85 20 86 21 91 22 87 23 90 24
REMARK SMILES IDX 88 25 89 26 16 27 17 28 18 29 19 30 20 31 21 32 22 33 23 34
REMARK SMILES IDX 24 35 82 36 25 37 81 38 26 39 27 40 28 41 75 42 29 43 80 44
REMARK SMILES IDX 74 45 76 46 30 47 79 48 73 49 72 50 31 52 61 53 42 54 60 55
REMARK SMILES IDX 43 56 46 57 59 58 77 59 44 60 45 61 58 63 78 64 47 65 32 66
REMARK SMILES IDX 33 67 41 68 34 69 40 70 35 71 36 72 37 73 38 74 39 75 62 76
REMARK SMILES IDX 63 77 71 78 64 79 70 80 65 81 66 82 67 83 68 84 69 85 48 86
REMARK SMILES IDX 49 87 57 88 50 89 56 90 51 91 52 92 53 93 54 94 55 95
REMARK H PARENT 4 11 83 18 76 51 46 62
REMARK Flexibility Score: inf
ROOT
ATOM      1  C   UNL A   1      34.278  31.284  27.583  1.00  0.00     0.188 C 
ENDROOT
BRANCH   1   2
ATOM      2  O   UNL A   1      33.019  31.654  27.037  1.00  0.00    -0.376 OA
BRANCH   2   3
ATOM      3  C   UNL A   1      31.994  30.673  26.918  1.00  0.00     0.202 C 
BRANCH   3   4
ATOM      4  C   UNL A   1      31.882  29.846  25.627  1.00  0.00     0.261 C 
BRANCH   4   5
ATOM      5  O   UNL A   1      32.231  28.455  25.769  1.00  0.00    -0.459 OA
BRANCH   5   6
ATOM      6  C   UNL A   1      31.265  27.608  26.223  1.00  0.00     0.365 C 
ATOM      7  O   UNL A   1      30.901  27.546  27.391  1.00  0.00    -0.245 OA
BRANCH   6   8
ATOM      8  C   UNL A   1      30.736  26.655  25.122  1.00  0.00     0.295 C 
ATOM      9  N   UNL A   1      30.741  25.209  25.536  1.00  0.00    -0.315 N 
ATOM     10  C   UNL A   1      30.564  24.517  24.249  1.00  0.00     0.263 C 
ATOM     11  H   UNL A   1      30.012  24.904  26.181  1.00  0.00     0.349 HD
ATOM     12  C   UNL A   1      31.489  25.220  23.288  1.00  0.00     0.068 C 
ATOM     13  C   UNL A   1      31.385  26.669  23.723  1.00  0.00     0.083 C 
BRANCH   9  14
ATOM     14  C   UNL A   1      31.972  24.916  26.320  1.00  0.00     0.364 C 
BRANCH  14  15
ATOM     15  C   UNL A   1      32.109  23.515  26.873  1.00  0.00     0.275 C 
ATOM     16  O   UNL A   1      31.317  23.052  27.689  1.00  0.00    -0.268 OA
ATOM     17  N   UNL A   1      33.158  22.816  26.344  1.00  0.00    -0.347 N 
ATOM     18  H   UNL A   1      33.768  23.272  25.721  1.00  0.00     0.164 HD
BRANCH  17  19
ATOM     19  C   UNL A   1      33.398  21.442  26.667  1.00  0.00     0.151 C 
BRANCH  19  20
ATOM     20  C   UNL A   1      33.098  20.530  25.505  1.00  0.00    -0.029 A 
ATOM     21  C   UNL A   1      32.793  21.110  24.267  1.00  0.00     0.007 A 
ATOM     22  C   UNL A   1      33.081  19.129  25.621  1.00  0.00     0.007 A 
ATOM     23  C   UNL A   1      32.472  20.309  23.171  1.00  0.00     0.021 A 
ATOM     24  C   UNL A   1      32.761  18.328  24.527  1.00  0.00     0.021 A 
ATOM     25  C   UNL A   1      32.454  18.923  23.308  1.00  0.00     0.041 A 
ATOM     26  Cl  UNL A   1      32.042  17.938  21.959  1.00  0.00    -0.084 Cl
ENDBRANCH  19  20
ENDBRANCH  17  19
ENDBRANCH  14  15
ENDBRANCH   9  14
ENDBRANCH   6   8
ENDBRANCH   5   6
ENDBRANCH   4   5
ENDBRANCH   3   4
ENDBRANCH   2   3
ENDBRANCH   1   2
BRANCH   1  27
ATOM     27  C   UNL A   1      35.116  32.359  28.283  1.00  0.00     0.188 C 
BRANCH  27  28
ATOM     28  O   UNL A   1      35.236  33.574  27.583  1.00  0.00    -0.376 OA
BRANCH  28  29
ATOM     29  C   UNL A   1      34.955  34.779  28.277  1.00  0.00     0.202 C 
BRANCH  29  30
ATOM     30  C   UNL A   1      33.508  35.168  28.639  1.00  0.00     0.261 C 
BRANCH  30  31
ATOM     31  O   UNL A   1      32.898  34.502  29.755  1.00  0.00    -0.460 OA
BRANCH  31  32
ATOM     32  C   UNL A   1      33.019  35.071  30.978  1.00  0.00     0.338 C 
ATOM     33  O   UNL A   1      32.198  35.782  31.535  1.00  0.00    -0.246 OA
BRANCH  32  34
ATOM     34  C   UNL A   1      34.193  34.445  31.639  1.00  0.00     0.060 A 
ATOM     35  C   UNL A   1      35.197  35.270  32.176  1.00  0.00     0.016 A 
ATOM     36  C   UNL A   1      34.274  33.059  31.788  1.00  0.00     0.016 A 
ATOM     37  C   UNL A   1      36.291  34.708  32.841  1.00  0.00     0.010 A 
ATOM     38  C   UNL A   1      35.384  32.498  32.426  1.00  0.00     0.010 A 
ATOM     39  C   UNL A   1      36.411  33.317  32.929  1.00  0.00    -0.014 A 
BRANCH  39  40
ATOM     40  C   UNL A   1      37.702  32.703  33.333  1.00  0.00     0.031 A 
ATOM     41  C   UNL A   1      38.183  32.940  34.739  1.00  0.00     0.074 A 
ATOM     42  C   UNL A   1      38.437  31.959  32.487  1.00  0.00     0.049 A 
ATOM     43  N   UNL A   1      39.301  32.575  35.311  1.00  0.00    -0.248 NA
ATOM     44  C   UNL A   1      37.277  33.701  35.615  1.00  0.00     0.031 C 
ATOM     45  C   UNL A   1      38.057  31.596  31.125  1.00  0.00     0.029 A 
ATOM     46  N   UNL A   1      39.669  31.377  32.662  1.00  0.00    -0.354 N 
ATOM     47  C   UNL A   1      39.240  33.075  36.606  1.00  0.00     0.074 A 
ATOM     48  C   UNL A   1      37.991  33.796  36.724  1.00  0.00     0.031 C 
ATOM     49  C   UNL A   1      39.039  30.852  30.584  1.00  0.00     0.029 A 
ATOM     50  C   UNL A   1      40.133  30.722  31.547  1.00  0.00     0.049 A 
ATOM     51  H   UNL A   1      40.172  31.425  33.507  1.00  0.00     0.167 HD
ATOM     52  C   UNL A   1      40.140  32.947  37.612  1.00  0.00     0.031 A 
ATOM     53  C   UNL A   1      41.312  30.106  31.324  1.00  0.00     0.031 A 
ATOM     54  C   UNL A   1      41.397  32.260  37.481  1.00  0.00     0.049 A 
ATOM     55  C   UNL A   1      42.348  30.068  32.419  1.00  0.00     0.074 A 
ATOM     56  C   UNL A   1      42.378  32.070  38.439  1.00  0.00     0.029 A 
ATOM     57  N   UNL A   1      41.857  31.667  36.315  1.00  0.00    -0.354 N 
ATOM     58  N   UNL A   1      42.274  30.530  33.645  1.00  0.00    -0.248 NA
ATOM     59  C   UNL A   1      43.629  29.421  32.097  1.00  0.00     0.031 C 
ATOM     60  C   UNL A   1      43.460  31.424  37.832  1.00  0.00     0.029 A 
ATOM     61  C   UNL A   1      43.123  31.141  36.517  1.00  0.00     0.049 A 
ATOM     62  H   UNL A   1      41.358  31.626  35.468  1.00  0.00     0.167 HD
ATOM     63  C   UNL A   1      43.483  30.199  34.251  1.00  0.00     0.074 A 
ATOM     64  C   UNL A   1      44.267  29.492  33.258  1.00  0.00     0.031 C 
ATOM     65  C   UNL A   1      43.900  30.447  35.518  1.00  0.00     0.031 A 
BRANCH  52  66
ATOM     66  C   UNL A   1      39.806  33.625  38.916  1.00  0.00    -0.014 A 
ATOM     67  C   UNL A   1      40.204  34.949  39.181  1.00  0.00     0.010 A 
ATOM     68  C   UNL A   1      39.109  32.913  39.908  1.00  0.00     0.010 A 
ATOM     69  C   UNL A   1      39.979  35.520  40.436  1.00  0.00     0.020 A 
ATOM     70  C   UNL A   1      38.847  33.492  41.153  1.00  0.00     0.020 A 
ATOM     71  C   UNL A   1      39.311  34.782  41.418  1.00  0.00     0.054 A 
BRANCH  71  72
ATOM     72  S   UNL A   1      39.063  35.532  43.051  1.00  0.00     0.124 S 
ATOM     73  O   UNL A   1      37.619  35.398  43.225  1.00  0.00    -0.237 OA
ATOM     74  O   UNL A   1      39.881  34.689  43.918  1.00  0.00    -0.237 OA
ATOM     75  O   UNL A   1      39.544  36.901  42.881  1.00  0.00    -0.744 OA
ENDBRANCH  71  72
ENDBRANCH  52  66
BRANCH  53  76
ATOM     76  C   UNL A   1      41.571  29.459  30.008  1.00  0.00    -0.014 A 
ATOM     77  C   UNL A   1      41.250  28.104  29.809  1.00  0.00     0.010 A 
ATOM     78  C   UNL A   1      42.113  30.195  28.937  1.00  0.00     0.010 A 
ATOM     79  C   UNL A   1      41.458  27.500  28.566  1.00  0.00     0.020 A 
ATOM     80  C   UNL A   1      42.297  29.601  27.684  1.00  0.00     0.020 A 
ATOM     81  C   UNL A   1      41.970  28.256  27.508  1.00  0.00     0.054 A 
BRANCH  81  82
ATOM     82  S   UNL A   1      42.144  27.469  25.882  1.00  0.00     0.124 S 
ATOM     83  O   UNL A   1      40.940  26.649  25.809  1.00  0.00    -0.237 OA
ATOM     84  O   UNL A   1      42.182  28.619  24.981  1.00  0.00    -0.237 OA
ATOM     85  O   UNL A   1      43.400  26.730  25.991  1.00  0.00    -0.744 OA
ENDBRANCH  81  82
ENDBRANCH  53  76
BRANCH  65  86
ATOM     86  C   UNL A   1      45.254  29.922  35.927  1.00  0.00    -0.014 A 
ATOM     87  C   UNL A   1      46.421  30.690  35.772  1.00  0.00     0.010 A 
ATOM     88  C   UNL A   1      45.348  28.655  36.534  1.00  0.00     0.010 A 
ATOM     89  C   UNL A   1      47.660  30.190  36.188  1.00  0.00     0.020 A 
ATOM     90  C   UNL A   1      46.579  28.165  36.981  1.00  0.00     0.020 A 
ATOM     91  C   UNL A   1      47.730  28.931  36.792  1.00  0.00     0.054 A 
BRANCH  91  92
ATOM     92  S   UNL A   1      49.342  28.324  37.365  1.00  0.00     0.124 S 
ATOM     93  O   UNL A   1      49.160  26.876  37.307  1.00  0.00    -0.237 OA
ATOM     94  O   UNL A   1      50.263  28.883  36.379  1.00  0.00    -0.237 OA
ATOM     95  O   UNL A   1      49.465  28.882  38.710  1.00  0.00    -0.744 OA
ENDBRANCH  91  92
ENDBRANCH  65  86
ENDBRANCH  39  40
ENDBRANCH  32  34
ENDBRANCH  31  32
ENDBRANCH  30  31
ENDBRANCH  29  30
ENDBRANCH  28  29
ENDBRANCH  27  28
ENDBRANCH   1  27
TORSDOF 24
ENDMDL
MODEL 3
REMARK VINA RESULT:      -9.0      6.155     11.876
REMARK SMILES O=C(C[N@@H+]1CCC[C@@H]1C(=O)OCCOCCOCCOC(=O)c1ccc(-c2c3nc(c(-c4ccc(S(=O)(=O)[O-])cc4)c4ccc([nH]4)c(-c4ccc(S(=O)(=O)[O-])cc4)c4nc(c(-c5ccc(S(=O)(=O)[O-])cc5)c5ccc2[nH]5)C=C4)C=C3)cc1)NCc1ccc(Cl)cc1
REMARK SMILES IDX 15 1 14 2 13 3 12 4 11 5 9 6 10 7 8 8 4 9 5 10 6 12 7 13
REMARK SMILES IDX 3 14 2 15 1 16 83 17 84 19 85 20 86 21 91 22 87 23 90 24
REMARK SMILES IDX 88 25 89 26 16 27 17 28 18 29 19 30 20 31 21 32 22 33 23 34
REMARK SMILES IDX 24 35 82 36 25 37 81 38 26 39 27 40 28 41 75 42 29 43 80 44
REMARK SMILES IDX 74 45 76 46 30 47 79 48 73 49 72 50 31 52 61 53 42 54 60 55
REMARK SMILES IDX 43 56 46 57 59 58 77 59 44 60 45 61 58 63 78 64 47 65 32 66
REMARK SMILES IDX 33 67 41 68 34 69 40 70 35 71 36 72 37 73 38 74 39 75 62 76
REMARK SMILES IDX 63 77 71 78 64 79 70 80 65 81 66 82 67 83 68 84 69 85 48 86
REMARK SMILES IDX 49 87 57 88 50 89 56 90 51 91 52 92 53 93 54 94 55 95
REMARK H PARENT 4 11 83 18 76 51 46 62
REMARK Flexibility Score: inf
ROOT
ATOM      1  C   UNL A   1      33.169  30.748  27.317  1.00  0.00     0.188 C 
ENDROOT
BRANCH   1   2
ATOM      2  O   UNL A   1      33.259  30.136  26.038  1.00  0.00    -0.376 OA
BRANCH   2   3
ATOM      3  C   UNL A   1      32.273  29.185  25.648  1.00  0.00     0.202 C 
BRANCH   3   4
ATOM      4  C   UNL A   1      31.162  29.602  24.669  1.00  0.00     0.261 C 
BRANCH   4   5
ATOM      5  O   UNL A   1      31.452  29.342  23.282  1.00  0.00    -0.459 OA
BRANCH   5   6
ATOM      6  C   UNL A   1      30.780  28.319  22.681  1.00  0.00     0.365 C 
ATOM      7  O   UNL A   1      29.571  28.315  22.485  1.00  0.00    -0.245 OA
BRANCH   6   8
ATOM      8  C   UNL A   1      31.693  27.111  22.354  1.00  0.00     0.295 C 
ATOM      9  N   UNL A   1      31.173  25.810  22.899  1.00  0.00    -0.315 N 
ATOM     10  C   UNL A   1      32.350  24.933  22.789  1.00  0.00     0.263 C 
ATOM     11  H   UNL A   1      30.389  25.378  22.410  1.00  0.00     0.349 HD
ATOM     12  C   UNL A   1      33.510  25.759  23.283  1.00  0.00     0.068 C 
ATOM     13  C   UNL A   1      33.180  27.144  22.762  1.00  0.00     0.083 C 
BRANCH   9  14
ATOM     14  C   UNL A   1      30.593  26.028  24.253  1.00  0.00     0.364 C 
BRANCH  14  15
ATOM     15  C   UNL A   1      30.921  24.996  25.309  1.00  0.00     0.275 C 
ATOM     16  O   UNL A   1      31.322  25.306  26.427  1.00  0.00    -0.268 OA
ATOM     17  N   UNL A   1      30.682  23.710  24.912  1.00  0.00    -0.347 N 
ATOM     18  H   UNL A   1      30.395  23.544  23.985  1.00  0.00     0.164 HD
BRANCH  17  19
ATOM     19  C   UNL A   1      30.839  22.597  25.799  1.00  0.00     0.151 C 
BRANCH  19  20
ATOM     20  C   UNL A   1      32.173  21.919  25.620  1.00  0.00    -0.029 A 
ATOM     21  C   UNL A   1      33.328  22.616  25.994  1.00  0.00     0.007 A 
ATOM     22  C   UNL A   1      32.306  20.633  25.065  1.00  0.00     0.007 A 
ATOM     23  C   UNL A   1      34.588  22.046  25.813  1.00  0.00     0.021 A 
ATOM     24  C   UNL A   1      33.564  20.062  24.884  1.00  0.00     0.021 A 
ATOM     25  C   UNL A   1      34.700  20.774  25.255  1.00  0.00     0.041 A 
ATOM     26  Cl  UNL A   1      36.255  20.080  25.018  1.00  0.00    -0.084 Cl
ENDBRANCH  19  20
ENDBRANCH  17  19
ENDBRANCH  14  15
ENDBRANCH   9  14
ENDBRANCH   6   8
ENDBRANCH   5   6
ENDBRANCH   4   5
ENDBRANCH   3   4
ENDBRANCH   2   3
ENDBRANCH   1   2
BRANCH   1  27
ATOM     27  C   UNL A   1      34.362  31.568  27.820  1.00  0.00     0.188 C 
BRANCH  27  28
ATOM     28  O   UNL A   1      34.287  31.968  29.168  1.00  0.00    -0.376 OA
BRANCH  28  29
ATOM     29  C   UNL A   1      35.478  31.956  29.938  1.00  0.00     0.202 C 
BRANCH  29  30
ATOM     30  C   UNL A   1      35.684  30.923  31.064  1.00  0.00     0.261 C 
BRANCH  30  31
ATOM     31  O   UNL A   1      36.693  31.204  32.048  1.00  0.00    -0.460 OA
BRANCH  31  32
ATOM     32  C   UNL A   1      37.645  32.116  31.739  1.00  0.00     0.338 C 
ATOM     33  O   UNL A   1      37.679  33.282  32.098  1.00  0.00    -0.246 OA
BRANCH  32  34
ATOM     34  C   UNL A   1      38.781  31.376  31.132  1.00  0.00     0.060 A 
ATOM     35  C   UNL A   1      39.625  30.618  31.961  1.00  0.00     0.016 A 
ATOM     36  C   UNL A   1      38.975  31.375  29.749  1.00  0.00     0.016 A 
ATOM     37  C   UNL A   1      40.675  29.877  31.411  1.00  0.00     0.010 A 
ATOM     38  C   UNL A   1      40.044  30.657  29.204  1.00  0.00     0.010 A 
ATOM     39  C   UNL A   1      40.917  29.930  30.034  1.00  0.00    -0.014 A 
BRANCH  39  40
ATOM     40  C   UNL A   1      42.199  29.424  29.480  1.00  0.00     0.031 A 
ATOM     41  C   UNL A   1      43.364  30.373  29.425  1.00  0.00     0.074 A 
ATOM     42  C   UNL A   1      42.336  28.163  29.032  1.00  0.00     0.049 A 
ATOM     43  N   UNL A   1      44.561  30.198  28.928  1.00  0.00    -0.248 NA
ATOM     44  C   UNL A   1      43.143  31.707  30.008  1.00  0.00     0.031 C 
ATOM     45  C   UNL A   1      41.312  27.124  29.088  1.00  0.00     0.029 A 
ATOM     46  N   UNL A   1      43.410  27.549  28.435  1.00  0.00    -0.354 N 
ATOM     47  C   UNL A   1      45.228  31.401  29.123  1.00  0.00     0.074 A 
ATOM     48  C   UNL A   1      44.293  32.307  29.752  1.00  0.00     0.031 C 
ATOM     49  C   UNL A   1      41.806  25.997  28.545  1.00  0.00     0.029 A 
ATOM     50  C   UNL A   1      43.166  26.248  28.065  1.00  0.00     0.049 A 
ATOM     51  H   UNL A   1      44.272  27.998  28.285  1.00  0.00     0.167 HD
ATOM     52  C   UNL A   1      46.506  31.727  28.807  1.00  0.00     0.031 A 
ATOM     53  C   UNL A   1      43.942  25.369  27.399  1.00  0.00     0.031 A 
ATOM     54  C   UNL A   1      47.423  30.836  28.148  1.00  0.00     0.049 A 
ATOM     55  C   UNL A   1      45.323  25.785  26.958  1.00  0.00     0.074 A 
ATOM     56  C   UNL A   1      48.738  31.067  27.787  1.00  0.00     0.029 A 
ATOM     57  N   UNL A   1      47.114  29.549  27.732  1.00  0.00    -0.354 N 
ATOM     58  N   UNL A   1      45.950  26.920  27.161  1.00  0.00    -0.248 NA
ATOM     59  C   UNL A   1      46.102  24.795  26.199  1.00  0.00     0.031 C 
ATOM     60  C   UNL A   1      49.202  29.945  27.092  1.00  0.00     0.029 A 
ATOM     61  C   UNL A   1      48.202  28.985  27.087  1.00  0.00     0.049 A 
ATOM     62  H   UNL A   1      46.248  29.103  27.875  1.00  0.00     0.167 HD
ATOM     63  C   UNL A   1      47.208  26.769  26.585  1.00  0.00     0.074 A 
ATOM     64  C   UNL A   1      47.255  25.430  26.032  1.00  0.00     0.031 C 
ATOM     65  C   UNL A   1      48.235  27.654  26.530  1.00  0.00     0.031 A 
BRANCH  52  66
ATOM     66  C   UNL A   1      46.948  33.134  29.122  1.00  0.00    -0.014 A 
ATOM     67  C   UNL A   1      46.789  34.181  28.196  1.00  0.00     0.010 A 
ATOM     68  C   UNL A   1      47.564  33.405  30.358  1.00  0.00     0.010 A 
ATOM     69  C   UNL A   1      47.304  35.452  28.466  1.00  0.00     0.020 A 
ATOM     70  C   UNL A   1      48.047  34.683  30.649  1.00  0.00     0.020 A 
ATOM     71  C   UNL A   1      47.940  35.691  29.688  1.00  0.00     0.054 A 
BRANCH  71  72
ATOM     72  S   UNL A   1      48.632  37.338  30.000  1.00  0.00     0.124 S 
ATOM     73  O   UNL A   1      47.605  37.938  30.848  1.00  0.00    -0.237 OA
ATOM     74  O   UNL A   1      49.896  37.034  30.664  1.00  0.00    -0.237 OA
ATOM     75  O   UNL A   1      48.755  37.921  28.666  1.00  0.00    -0.744 OA
ENDBRANCH  71  72
ENDBRANCH  52  66
BRANCH  53  76
ATOM     76  C   UNL A   1      43.436  23.996  27.122  1.00  0.00    -0.014 A 
ATOM     77  C   UNL A   1      43.480  23.009  28.124  1.00  0.00     0.010 A 
ATOM     78  C   UNL A   1      42.883  23.672  25.869  1.00  0.00     0.010 A 
ATOM     79  C   UNL A   1      42.973  21.729  27.881  1.00  0.00     0.020 A 
ATOM     80  C   UNL A   1      42.351  22.400  25.632  1.00  0.00     0.020 A 
ATOM     81  C   UNL A   1      42.402  21.436  26.640  1.00  0.00     0.054 A 
BRANCH  81  82
ATOM     82  S   UNL A   1      41.672  19.794  26.385  1.00  0.00     0.124 S 
ATOM     83  O   UNL A   1      40.268  20.117  26.152  1.00  0.00    -0.237 OA
ATOM     84  O   UNL A   1      42.409  19.301  25.223  1.00  0.00    -0.237 OA
ATOM     85  O   UNL A   1      41.955  19.094  27.636  1.00  0.00    -0.744 OA
ENDBRANCH  81  82
ENDBRANCH  53  76
BRANCH  65  86
ATOM     86  C   UNL A   1      49.520  27.200  25.882  1.00  0.00    -0.014 A 
ATOM     87  C   UNL A   1      49.936  27.705  24.637  1.00  0.00     0.010 A 
ATOM     88  C   UNL A   1      50.355  26.294  26.563  1.00  0.00     0.010 A 
ATOM     89  C   UNL A   1      51.147  27.289  24.072  1.00  0.00     0.020 A 
ATOM     90  C   UNL A   1      51.580  25.901  26.018  1.00  0.00     0.020 A 
ATOM     91  C   UNL A   1      51.962  26.391  24.768  1.00  0.00     0.054 A 
BRANCH  91  92
ATOM     92  S   UNL A   1      53.550  25.904  24.036  1.00  0.00     0.124 S 
ATOM     93  O   UNL A   1      53.218  25.824  22.616  1.00  0.00    -0.237 OA
ATOM     94  O   UNL A   1      54.429  27.007  24.415  1.00  0.00    -0.237 OA
ATOM     95  O   UNL A   1      53.851  24.626  24.677  1.00  0.00    -0.744 OA
ENDBRANCH  91  92
ENDBRANCH  65  86
ENDBRANCH  39  40
ENDBRANCH  32  34
ENDBRANCH  31  32
ENDBRANCH  30  31
ENDBRANCH  29  30
ENDBRANCH  28  29
ENDBRANCH  27  28
ENDBRANCH   1  27
TORSDOF 24
ENDMDL
