MODEL 1
REMARK VINA RESULT:      -8.9      0.000      0.000
REMARK SMILES CCCCN(c1ccccc1C(=O)OCCOCCOCCOC(=O)c1ccc(-c2c3nc(c(-c4ccc(S(=O)(=O)[O-])cc4)c4ccc([nH]4)c(-c4ccc(S(=O)(=O)[O-])cc4)c4nc(c(-c5ccc(S(=O)(=O)[O-])cc5)c5ccc2[nH]5)C=C4)C=C3)cc1)S(=O)(=O)c1ccc2c(c1)oc(=O)n2C
REMARK SMILES IDX 18 1 17 2 16 3 15 4 14 5 12 6 13 7 11 8 6 9 7 10 8 11 10 12
REMARK SMILES IDX 9 13 5 14 4 15 3 16 2 17 1 18 86 19 87 20 88 21 89 22 90 23
REMARK SMILES IDX 94 24 91 25 93 26 92 27 95 28 98 29 96 30 99 31 97 32 19 33
REMARK SMILES IDX 20 34 21 35 22 36 23 37 24 38 25 39 26 40 27 41 85 42 28 43
REMARK SMILES IDX 84 44 29 45 30 46 31 47 78 48 32 49 83 50 77 51 79 52 33 53
REMARK SMILES IDX 82 54 76 55 75 56 34 58 64 59 45 60 63 61 46 62 49 63 62 64
REMARK SMILES IDX 80 65 47 66 48 67 61 69 81 70 50 71 35 72 36 73 44 74 37 75
REMARK SMILES IDX 43 76 38 77 39 78 40 79 41 80 42 81 65 82 66 83 74 84 67 85
REMARK SMILES IDX 73 86 68 87 69 88 70 89 71 90 72 91 51 92 52 93 60 94 53 95
REMARK SMILES IDX 59 96 54 97 55 98 56 99 57 100 58 101
REMARK H PARENT 79 57 49 68
REMARK Flexibility Score: inf
ROOT
ATOM      1  C   UNL A   1      40.451  20.824  26.075  1.00  0.00     0.188 C 
ENDROOT
BRANCH   1   2
ATOM      2  O   UNL A   1      39.600  19.709  25.845  1.00  0.00    -0.376 OA
BRANCH   2   3
ATOM      3  C   UNL A   1      38.443  19.889  25.029  1.00  0.00     0.202 C 
BRANCH   3   4
ATOM      4  C   UNL A   1      37.692  21.228  25.088  1.00  0.00     0.261 C 
BRANCH   4   5
ATOM      5  O   UNL A   1      36.389  21.176  24.474  1.00  0.00    -0.460 OA
BRANCH   5   6
ATOM      6  C   UNL A   1      35.329  21.080  25.305  1.00  0.00     0.340 C 
ATOM      7  O   UNL A   1      35.274  21.507  26.448  1.00  0.00    -0.246 OA
BRANCH   6   8
ATOM      8  C   UNL A   1      34.142  20.494  24.634  1.00  0.00     0.084 A 
ATOM      9  C   UNL A   1      33.090  21.185  23.983  1.00  0.00     0.066 A 
ATOM     10  C   UNL A   1      32.242  20.405  23.171  1.00  0.00     0.028 A 
ATOM     11  C   UNL A   1      32.285  19.005  23.164  1.00  0.00     0.002 A 
ATOM     12  C   UNL A   1      34.187  19.079  24.609  1.00  0.00     0.018 A 
ATOM     13  C   UNL A   1      33.239  18.338  23.915  1.00  0.00     0.001 A 
BRANCH   9  14
ATOM     14  N   UNL A   1      32.803  22.619  24.039  1.00  0.00    -0.265 N 
BRANCH  14  15
ATOM     15  C   UNL A   1      31.429  23.081  24.399  1.00  0.00     0.136 C 
BRANCH  15  16
ATOM     16  C   UNL A   1      31.251  23.692  25.786  1.00  0.00     0.022 C 
BRANCH  16  17
ATOM     17  C   UNL A   1      32.464  23.754  26.717  1.00  0.00    -0.002 C 
ATOM     18  C   UNL A   1      32.598  22.607  27.706  1.00  0.00     0.004 C 
ENDBRANCH  16  17
ENDBRANCH  15  16
ENDBRANCH  14  15
BRANCH  14  19
ATOM     19  S   UNL A   1      33.717  23.748  23.091  1.00  0.00     0.264 S 
ATOM     20  O   UNL A   1      35.015  23.936  23.702  1.00  0.00    -0.201 OA
ATOM     21  O   UNL A   1      33.617  23.281  21.719  1.00  0.00    -0.201 OA
BRANCH  19  22
ATOM     22  C   UNL A   1      32.962  25.364  23.097  1.00  0.00     0.091 A 
ATOM     23  C   UNL A   1      31.991  25.688  22.117  1.00  0.00     0.025 A 
ATOM     24  C   UNL A   1      33.341  26.295  24.066  1.00  0.00     0.071 A 
ATOM     25  C   UNL A   1      31.310  26.909  22.165  1.00  0.00     0.032 A 
ATOM     26  C   UNL A   1      32.613  27.463  24.124  1.00  0.00     0.157 A 
ATOM     27  C   UNL A   1      31.616  27.754  23.210  1.00  0.00     0.090 A 
ATOM     28  O   UNL A   1      32.727  28.420  25.119  1.00  0.00    -0.408 OA
ATOM     29  N   UNL A   1      31.065  28.941  23.625  1.00  0.00    -0.277 N 
ATOM     30  C   UNL A   1      31.699  29.314  24.793  1.00  0.00     0.419 A 
ATOM     31  C   UNL A   1      29.940  29.619  23.053  1.00  0.00     0.157 C 
ATOM     32  O   UNL A   1      31.402  30.273  25.498  1.00  0.00    -0.223 OA
ENDBRANCH  19  22
ENDBRANCH  14  19
ENDBRANCH   9  14
ENDBRANCH   6   8
ENDBRANCH   5   6
ENDBRANCH   4   5
ENDBRANCH   3   4
ENDBRANCH   2   3
ENDBRANCH   1   2
BRANCH   1  33
ATOM     33  C   UNL A   1      41.821  20.577  26.736  1.00  0.00     0.188 C 
BRANCH  33  34
ATOM     34  O   UNL A   1      42.685  21.689  26.725  1.00  0.00    -0.376 OA
BRANCH  34  35
ATOM     35  C   UNL A   1      42.604  22.618  25.658  1.00  0.00     0.202 C 
BRANCH  35  36
ATOM     36  C   UNL A   1      43.628  22.693  24.505  1.00  0.00     0.261 C 
BRANCH  36  37
ATOM     37  O   UNL A   1      44.387  23.896  24.344  1.00  0.00    -0.460 OA
BRANCH  37  38
ATOM     38  C   UNL A   1      45.725  23.820  24.548  1.00  0.00     0.338 C 
ATOM     39  O   UNL A   1      46.571  23.508  23.733  1.00  0.00    -0.246 OA
BRANCH  38  40
ATOM     40  C   UNL A   1      45.994  24.416  25.877  1.00  0.00     0.060 A 
ATOM     41  C   UNL A   1      45.865  23.625  27.030  1.00  0.00     0.016 A 
ATOM     42  C   UNL A   1      46.418  25.742  25.974  1.00  0.00     0.016 A 
ATOM     43  C   UNL A   1      46.145  24.168  28.288  1.00  0.00     0.010 A 
ATOM     44  C   UNL A   1      46.665  26.291  27.233  1.00  0.00     0.010 A 
ATOM     45  C   UNL A   1      46.504  25.516  28.396  1.00  0.00    -0.014 A 
BRANCH  45  46
ATOM     46  C   UNL A   1      46.484  26.207  29.709  1.00  0.00     0.031 A 
ATOM     47  C   UNL A   1      47.695  26.054  30.590  1.00  0.00     0.074 A 
ATOM     48  C   UNL A   1      45.415  26.899  30.138  1.00  0.00     0.049 A 
ATOM     49  N   UNL A   1      47.861  26.393  31.841  1.00  0.00    -0.248 NA
ATOM     50  C   UNL A   1      48.870  25.413  29.976  1.00  0.00     0.031 C 
ATOM     51  C   UNL A   1      44.208  27.170  29.361  1.00  0.00     0.029 A 
ATOM     52  N   UNL A   1      45.168  27.483  31.358  1.00  0.00    -0.354 N 
ATOM     53  C   UNL A   1      49.147  25.984  32.170  1.00  0.00     0.074 A 
ATOM     54  C   UNL A   1      49.710  25.353  30.998  1.00  0.00     0.031 C 
ATOM     55  C   UNL A   1      43.336  27.846  30.131  1.00  0.00     0.029 A 
ATOM     56  C   UNL A   1      43.904  28.011  31.470  1.00  0.00     0.049 A 
ATOM     57  H   UNL A   1      45.834  27.518  32.083  1.00  0.00     0.167 HD
ATOM     58  C   UNL A   1      49.800  26.116  33.348  1.00  0.00     0.031 A 
ATOM     59  C   UNL A   1      43.267  28.530  32.539  1.00  0.00     0.031 A 
ATOM     60  C   UNL A   1      49.229  26.728  34.516  1.00  0.00     0.049 A 
ATOM     61  C   UNL A   1      43.983  28.595  33.867  1.00  0.00     0.074 A 
ATOM     62  C   UNL A   1      49.808  26.919  35.758  1.00  0.00     0.029 A 
ATOM     63  N   UNL A   1      47.942  27.241  34.590  1.00  0.00    -0.354 N 
ATOM     64  N   UNL A   1      45.202  28.210  34.168  1.00  0.00    -0.248 NA
ATOM     65  C   UNL A   1      43.239  29.166  35.001  1.00  0.00     0.031 C 
ATOM     66  C   UNL A   1      48.851  27.490  36.600  1.00  0.00     0.029 A 
ATOM     67  C   UNL A   1      47.702  27.728  35.863  1.00  0.00     0.049 A 
ATOM     68  H   UNL A   1      47.295  27.255  33.848  1.00  0.00     0.167 HD
ATOM     69  C   UNL A   1      45.384  28.536  35.511  1.00  0.00     0.074 A 
ATOM     70  C   UNL A   1      44.152  29.148  35.963  1.00  0.00     0.031 C 
ATOM     71  C   UNL A   1      46.476  28.354  36.294  1.00  0.00     0.031 A 
BRANCH  58  72
ATOM     72  C   UNL A   1      51.192  25.546  33.441  1.00  0.00    -0.014 A 
ATOM     73  C   UNL A   1      52.295  26.208  32.873  1.00  0.00     0.010 A 
ATOM     74  C   UNL A   1      51.401  24.340  34.134  1.00  0.00     0.010 A 
ATOM     75  C   UNL A   1      53.575  25.656  32.965  1.00  0.00     0.020 A 
ATOM     76  C   UNL A   1      52.684  23.800  34.256  1.00  0.00     0.020 A 
ATOM     77  C   UNL A   1      53.761  24.454  33.656  1.00  0.00     0.054 A 
BRANCH  77  78
ATOM     78  S   UNL A   1      55.438  23.776  33.783  1.00  0.00     0.124 S 
ATOM     79  O   UNL A   1      56.137  24.833  34.509  1.00  0.00    -0.237 OA
ATOM     80  O   UNL A   1      55.226  22.537  34.526  1.00  0.00    -0.237 OA
ATOM     81  O   UNL A   1      55.849  23.602  32.392  1.00  0.00    -0.744 OA
ENDBRANCH  77  78
ENDBRANCH  58  72
BRANCH  59  82
ATOM     82  C   UNL A   1      41.861  29.012  32.414  1.00  0.00    -0.014 A 
ATOM     83  C   UNL A   1      41.586  30.289  31.892  1.00  0.00     0.010 A 
ATOM     84  C   UNL A   1      40.788  28.201  32.827  1.00  0.00     0.010 A 
ATOM     85  C   UNL A   1      40.268  30.751  31.801  1.00  0.00     0.020 A 
ATOM     86  C   UNL A   1      39.467  28.646  32.709  1.00  0.00     0.020 A 
ATOM     87  C   UNL A   1      39.217  29.924  32.206  1.00  0.00     0.054 A 
BRANCH  87  88
ATOM     88  S   UNL A   1      37.514  30.527  32.031  1.00  0.00     0.124 S 
ATOM     89  O   UNL A   1      36.745  29.450  32.647  1.00  0.00    -0.237 OA
ATOM     90  O   UNL A   1      37.549  31.784  32.774  1.00  0.00    -0.237 OA
ATOM     91  O   UNL A   1      37.347  30.669  30.587  1.00  0.00    -0.744 OA
ENDBRANCH  87  88
ENDBRANCH  59  82
BRANCH  71  92
ATOM     92  C   UNL A   1      46.434  28.885  37.704  1.00  0.00    -0.014 A 
ATOM     93  C   UNL A   1      46.676  30.239  37.995  1.00  0.00     0.010 A 
ATOM     94  C   UNL A   1      46.052  28.020  38.748  1.00  0.00     0.010 A 
ATOM     95  C   UNL A   1      46.555  30.712  39.306  1.00  0.00     0.020 A 
ATOM     96  C   UNL A   1      45.900  28.495  40.053  1.00  0.00     0.020 A 
ATOM     97  C   UNL A   1      46.162  29.837  40.325  1.00  0.00     0.054 A 
BRANCH  97  98
ATOM     98  S   UNL A   1      45.947  30.491  42.004  1.00  0.00     0.124 S 
ATOM     99  O   UNL A   1      44.541  30.198  42.268  1.00  0.00    -0.237 OA
ATOM    100  O   UNL A   1      46.908  29.709  42.777  1.00  0.00    -0.237 OA
ATOM    101  O   UNL A   1      46.272  31.909  41.869  1.00  0.00    -0.744 OA
ENDBRANCH  97  98
ENDBRANCH  71  92
ENDBRANCH  45  46
ENDBRANCH  38  40
ENDBRANCH  37  38
ENDBRANCH  36  37
ENDBRANCH  35  36
ENDBRANCH  34  35
ENDBRANCH  33  34
ENDBRANCH   1  33
TORSDOF 26
ENDMDL
MODEL 2
REMARK VINA RESULT:      -8.5      5.926     12.857
REMARK SMILES CCCCN(c1ccccc1C(=O)OCCOCCOCCOC(=O)c1ccc(-c2c3nc(c(-c4ccc(S(=O)(=O)[O-])cc4)c4ccc([nH]4)c(-c4ccc(S(=O)(=O)[O-])cc4)c4nc(c(-c5ccc(S(=O)(=O)[O-])cc5)c5ccc2[nH]5)C=C4)C=C3)cc1)S(=O)(=O)c1ccc2c(c1)oc(=O)n2C
REMARK SMILES IDX 18 1 17 2 16 3 15 4 14 5 12 6 13 7 11 8 6 9 7 10 8 11 10 12
REMARK SMILES IDX 9 13 5 14 4 15 3 16 2 17 1 18 86 19 87 20 88 21 89 22 90 23
REMARK SMILES IDX 94 24 91 25 93 26 92 27 95 28 98 29 96 30 99 31 97 32 19 33
REMARK SMILES IDX 20 34 21 35 22 36 23 37 24 38 25 39 26 40 27 41 85 42 28 43
REMARK SMILES IDX 84 44 29 45 30 46 31 47 78 48 32 49 83 50 77 51 79 52 33 53
REMARK SMILES IDX 82 54 76 55 75 56 34 58 64 59 45 60 63 61 46 62 49 63 62 64
REMARK SMILES IDX 80 65 47 66 48 67 61 69 81 70 50 71 35 72 36 73 44 74 37 75
REMARK SMILES IDX 43 76 38 77 39 78 40 79 41 80 42 81 65 82 66 83 74 84 67 85
REMARK SMILES IDX 73 86 68 87 69 88 70 89 71 90 72 91 51 92 52 93 60 94 53 95
REMARK SMILES IDX 59 96 54 97 55 98 56 99 57 100 58 101
REMARK H PARENT 79 57 49 68
REMARK Flexibility Score: inf
ROOT
ATOM      1  C   UNL A   1      37.591  34.084  34.817  1.00  0.00     0.188 C 
ENDROOT
BRANCH   1   2
ATOM      2  O   UNL A   1      36.572  34.042  33.827  1.00  0.00    -0.376 OA
BRANCH   2   3
ATOM      3  C   UNL A   1      35.212  33.957  34.248  1.00  0.00     0.202 C 
BRANCH   3   4
ATOM      4  C   UNL A   1      34.191  33.268  33.331  1.00  0.00     0.261 C 
BRANCH   4   5
ATOM      5  O   UNL A   1      34.796  32.597  32.208  1.00  0.00    -0.460 OA
BRANCH   5   6
ATOM      6  C   UNL A   1      34.491  33.069  30.981  1.00  0.00     0.340 C 
ATOM      7  O   UNL A   1      33.894  34.108  30.741  1.00  0.00    -0.246 OA
BRANCH   6   8
ATOM      8  C   UNL A   1      35.079  32.240  29.898  1.00  0.00     0.084 A 
ATOM      9  C   UNL A   1      36.257  31.457  29.955  1.00  0.00     0.066 A 
ATOM     10  C   UNL A   1      36.443  30.533  28.907  1.00  0.00     0.028 A 
ATOM     11  C   UNL A   1      35.637  30.524  27.761  1.00  0.00     0.002 A 
ATOM     12  C   UNL A   1      34.262  32.214  28.743  1.00  0.00     0.018 A 
ATOM     13  C   UNL A   1      34.564  31.394  27.663  1.00  0.00     0.001 A 
BRANCH   9  14
ATOM     14  N   UNL A   1      37.289  31.482  30.994  1.00  0.00    -0.265 N 
BRANCH  14  15
ATOM     15  C   UNL A   1      38.255  32.621  31.044  1.00  0.00     0.136 C 
BRANCH  15  16
ATOM     16  C   UNL A   1      38.658  33.238  29.708  1.00  0.00     0.022 C 
BRANCH  16  17
ATOM     17  C   UNL A   1      39.545  34.485  29.717  1.00  0.00    -0.002 C 
ATOM     18  C   UNL A   1      40.426  34.661  30.944  1.00  0.00     0.004 C 
ENDBRANCH  16  17
ENDBRANCH  15  16
ENDBRANCH  14  15
BRANCH  14  19
ATOM     19  S   UNL A   1      37.872  30.012  31.706  1.00  0.00     0.264 S 
ATOM     20  O   UNL A   1      38.623  30.332  32.900  1.00  0.00    -0.201 OA
ATOM     21  O   UNL A   1      36.722  29.128  31.782  1.00  0.00    -0.201 OA
BRANCH  19  22
ATOM     22  C   UNL A   1      39.033  29.185  30.634  1.00  0.00     0.091 A 
ATOM     23  C   UNL A   1      40.292  29.780  30.373  1.00  0.00     0.025 A 
ATOM     24  C   UNL A   1      38.687  27.961  30.060  1.00  0.00     0.071 A 
ATOM     25  C   UNL A   1      41.260  29.102  29.622  1.00  0.00     0.032 A 
ATOM     26  C   UNL A   1      39.678  27.292  29.376  1.00  0.00     0.157 A 
ATOM     27  C   UNL A   1      40.932  27.841  29.177  1.00  0.00     0.090 A 
ATOM     28  O   UNL A   1      39.573  25.998  28.892  1.00  0.00    -0.408 OA
ATOM     29  N   UNL A   1      41.666  26.870  28.541  1.00  0.00    -0.277 N 
ATOM     30  C   UNL A   1      40.866  25.752  28.414  1.00  0.00     0.419 A 
ATOM     31  C   UNL A   1      43.054  26.926  28.191  1.00  0.00     0.157 C 
ATOM     32  O   UNL A   1      41.220  24.661  27.979  1.00  0.00    -0.223 OA
ENDBRANCH  19  22
ENDBRANCH  14  19
ENDBRANCH   9  14
ENDBRANCH   6   8
ENDBRANCH   5   6
ENDBRANCH   4   5
ENDBRANCH   3   4
ENDBRANCH   2   3
ENDBRANCH   1   2
BRANCH   1  33
ATOM     33  C   UNL A   1      39.048  34.301  34.364  1.00  0.00     0.188 C 
BRANCH  33  34
ATOM     34  O   UNL A   1      39.606  35.533  34.754  1.00  0.00    -0.376 OA
BRANCH  34  35
ATOM     35  C   UNL A   1      39.592  35.895  36.125  1.00  0.00     0.202 C 
BRANCH  35  36
ATOM     36  C   UNL A   1      40.302  35.090  37.234  1.00  0.00     0.261 C 
BRANCH  36  37
ATOM     37  O   UNL A   1      39.627  33.958  37.793  1.00  0.00    -0.460 OA
BRANCH  37  38
ATOM     38  C   UNL A   1      40.377  33.064  38.483  1.00  0.00     0.338 C 
ATOM     39  O   UNL A   1      40.250  32.752  39.651  1.00  0.00    -0.246 OA
BRANCH  38  40
ATOM     40  C   UNL A   1      41.228  32.360  37.496  1.00  0.00     0.060 A 
ATOM     41  C   UNL A   1      42.620  32.328  37.679  1.00  0.00     0.016 A 
ATOM     42  C   UNL A   1      40.643  31.695  36.418  1.00  0.00     0.016 A 
ATOM     43  C   UNL A   1      43.431  31.642  36.771  1.00  0.00     0.010 A 
ATOM     44  C   UNL A   1      41.458  31.038  35.495  1.00  0.00     0.010 A 
ATOM     45  C   UNL A   1      42.856  31.032  35.651  1.00  0.00    -0.014 A 
BRANCH  45  46
ATOM     46  C   UNL A   1      43.693  30.589  34.509  1.00  0.00     0.031 A 
ATOM     47  C   UNL A   1      43.842  31.537  33.351  1.00  0.00     0.074 A 
ATOM     48  C   UNL A   1      44.259  29.370  34.466  1.00  0.00     0.049 A 
ATOM     49  N   UNL A   1      44.356  31.330  32.168  1.00  0.00    -0.248 NA
ATOM     50  C   UNL A   1      43.320  32.900  33.554  1.00  0.00     0.031 C 
ATOM     51  C   UNL A   1      44.239  28.383  35.545  1.00  0.00     0.029 A 
ATOM     52  N   UNL A   1      44.944  28.746  33.452  1.00  0.00    -0.354 N 
ATOM     53  C   UNL A   1      44.196  32.525  31.477  1.00  0.00     0.074 A 
ATOM     54  C   UNL A   1      43.520  33.445  32.364  1.00  0.00     0.031 C 
ATOM     55  C   UNL A   1      44.862  27.267  35.124  1.00  0.00     0.029 A 
ATOM     56  C   UNL A   1      45.279  27.443  33.733  1.00  0.00     0.049 A 
ATOM     57  H   UNL A   1      45.172  29.191  32.603  1.00  0.00     0.167 HD
ATOM     58  C   UNL A   1      44.574  32.829  30.214  1.00  0.00     0.031 A 
ATOM     59  C   UNL A   1      45.821  26.492  32.945  1.00  0.00     0.031 A 
ATOM     60  C   UNL A   1      45.231  31.904  29.331  1.00  0.00     0.049 A 
ATOM     61  C   UNL A   1      46.162  26.825  31.512  1.00  0.00     0.074 A 
ATOM     62  C   UNL A   1      45.663  32.113  28.034  1.00  0.00     0.029 A 
ATOM     63  N   UNL A   1      45.542  30.591  29.651  1.00  0.00    -0.354 N 
ATOM     64  N   UNL A   1      46.012  27.960  30.869  1.00  0.00    -0.248 NA
ATOM     65  C   UNL A   1      46.747  25.749  30.697  1.00  0.00     0.031 C 
ATOM     66  C   UNL A   1      46.179  30.909  27.548  1.00  0.00     0.029 A 
ATOM     67  C   UNL A   1      46.141  29.971  28.569  1.00  0.00     0.049 A 
ATOM     68  H   UNL A   1      45.362  30.162  30.520  1.00  0.00     0.167 HD
ATOM     69  C   UNL A   1      46.527  27.746  29.592  1.00  0.00     0.074 A 
ATOM     70  C   UNL A   1      46.991  26.375  29.553  1.00  0.00     0.031 C 
ATOM     71  C   UNL A   1      46.616  28.610  28.551  1.00  0.00     0.031 A 
BRANCH  58  72
ATOM     72  C   UNL A   1      44.244  34.206  29.700  1.00  0.00    -0.014 A 
ATOM     73  C   UNL A   1      44.995  35.332  30.083  1.00  0.00     0.010 A 
ATOM     74  C   UNL A   1      43.181  34.369  28.794  1.00  0.00     0.010 A 
ATOM     75  C   UNL A   1      44.665  36.600  29.599  1.00  0.00     0.020 A 
ATOM     76  C   UNL A   1      42.866  35.631  28.282  1.00  0.00     0.020 A 
ATOM     77  C   UNL A   1      43.602  36.742  28.701  1.00  0.00     0.054 A 
BRANCH  77  78
ATOM     78  S   UNL A   1      43.213  38.396  28.068  1.00  0.00     0.124 S 
ATOM     79  O   UNL A   1      41.900  38.188  27.464  1.00  0.00    -0.237 OA
ATOM     80  O   UNL A   1      43.227  39.212  29.278  1.00  0.00    -0.237 OA
ATOM     81  O   UNL A   1      44.294  38.669  27.123  1.00  0.00    -0.744 OA
ENDBRANCH  77  78
ENDBRANCH  58  72
BRANCH  59  82
ATOM     82  C   UNL A   1      46.059  25.121  33.480  1.00  0.00    -0.014 A 
ATOM     83  C   UNL A   1      45.060  24.135  33.395  1.00  0.00     0.010 A 
ATOM     84  C   UNL A   1      47.286  24.794  34.089  1.00  0.00     0.010 A 
ATOM     85  C   UNL A   1      45.274  22.857  33.923  1.00  0.00     0.020 A 
ATOM     86  C   UNL A   1      47.516  23.508  34.589  1.00  0.00     0.020 A 
ATOM     87  C   UNL A   1      46.504  22.551  34.512  1.00  0.00     0.054 A 
BRANCH  87  88
ATOM     88  S   UNL A   1      46.776  20.871  35.144  1.00  0.00     0.124 S 
ATOM     89  O   UNL A   1      45.447  20.510  35.629  1.00  0.00    -0.237 OA
ATOM     90  O   UNL A   1      47.230  20.158  33.953  1.00  0.00    -0.237 OA
ATOM     91  O   UNL A   1      47.791  21.053  36.178  1.00  0.00    -0.744 OA
ENDBRANCH  87  88
ENDBRANCH  59  82
BRANCH  71  92
ATOM     92  C   UNL A   1      47.306  28.139  27.296  1.00  0.00    -0.014 A 
ATOM     93  C   UNL A   1      46.647  27.350  26.337  1.00  0.00     0.010 A 
ATOM     94  C   UNL A   1      48.618  28.579  27.032  1.00  0.00     0.010 A 
ATOM     95  C   UNL A   1      47.294  26.994  25.149  1.00  0.00     0.020 A 
ATOM     96  C   UNL A   1      49.257  28.253  25.834  1.00  0.00     0.020 A 
ATOM     97  C   UNL A   1      48.593  27.453  24.903  1.00  0.00     0.054 A 
BRANCH  97  98
ATOM     98  S   UNL A   1      49.384  27.033  23.326  1.00  0.00     0.124 S 
ATOM     99  O   UNL A   1      50.648  26.448  23.763  1.00  0.00    -0.237 OA
ATOM    100  O   UNL A   1      48.432  26.099  22.730  1.00  0.00    -0.237 OA
ATOM    101  O   UNL A   1      49.498  28.319  22.641  1.00  0.00    -0.744 OA
ENDBRANCH  97  98
ENDBRANCH  71  92
ENDBRANCH  45  46
ENDBRANCH  38  40
ENDBRANCH  37  38
ENDBRANCH  36  37
ENDBRANCH  35  36
ENDBRANCH  34  35
ENDBRANCH  33  34
ENDBRANCH   1  33
TORSDOF 26
ENDMDL
MODEL 3
REMARK VINA RESULT:      -8.2      6.083     10.207
REMARK SMILES CCCCN(c1ccccc1C(=O)OCCOCCOCCOC(=O)c1ccc(-c2c3nc(c(-c4ccc(S(=O)(=O)[O-])cc4)c4ccc([nH]4)c(-c4ccc(S(=O)(=O)[O-])cc4)c4nc(c(-c5ccc(S(=O)(=O)[O-])cc5)c5ccc2[nH]5)C=C4)C=C3)cc1)S(=O)(=O)c1ccc2c(c1)oc(=O)n2C
REMARK SMILES IDX 18 1 17 2 16 3 15 4 14 5 12 6 13 7 11 8 6 9 7 10 8 11 10 12
REMARK SMILES IDX 9 13 5 14 4 15 3 16 2 17 1 18 86 19 87 20 88 21 89 22 90 23
REMARK SMILES IDX 94 24 91 25 93 26 92 27 95 28 98 29 96 30 99 31 97 32 19 33
REMARK SMILES IDX 20 34 21 35 22 36 23 37 24 38 25 39 26 40 27 41 85 42 28 43
REMARK SMILES IDX 84 44 29 45 30 46 31 47 78 48 32 49 83 50 77 51 79 52 33 53
REMARK SMILES IDX 82 54 76 55 75 56 34 58 64 59 45 60 63 61 46 62 49 63 62 64
REMARK SMILES IDX 80 65 47 66 48 67 61 69 81 70 50 71 35 72 36 73 44 74 37 75
REMARK SMILES IDX 43 76 38 77 39 78 40 79 41 80 42 81 65 82 66 83 74 84 67 85
REMARK SMILES IDX 73 86 68 87 69 88 70 89 71 90 72 91 51 92 52 93 60 94 53 95
REMARK SMILES IDX 59 96 54 97 55 98 56 99 57 100 58 101
REMARK H PARENT 79 57 49 68
REMARK Flexibility Score: inf
ROOT
ATOM      1  C   UNL A   1      40.164  23.134  26.465  1.00  0.00     0.188 C 
ENDROOT
BRANCH   1   2
ATOM      2  O   UNL A   1      39.289  22.062  26.140  1.00  0.00    -0.376 OA
BRANCH   2   3
ATOM      3  C   UNL A   1      38.058  22.359  25.483  1.00  0.00     0.202 C 
BRANCH   3   4
ATOM      4  C   UNL A   1      36.749  22.282  26.284  1.00  0.00     0.261 C 
BRANCH   4   5
ATOM      5  O   UNL A   1      35.647  21.750  25.522  1.00  0.00    -0.460 OA
BRANCH   5   6
ATOM      6  C   UNL A   1      35.797  20.504  25.026  1.00  0.00     0.340 C 
ATOM      7  O   UNL A   1      36.844  19.878  24.965  1.00  0.00    -0.246 OA
BRANCH   6   8
ATOM      8  C   UNL A   1      34.498  19.887  24.656  1.00  0.00     0.084 A 
ATOM      9  C   UNL A   1      33.306  20.550  24.275  1.00  0.00     0.066 A 
ATOM     10  C   UNL A   1      32.307  19.747  23.688  1.00  0.00     0.028 A 
ATOM     11  C   UNL A   1      32.380  18.348  23.670  1.00  0.00     0.002 A 
ATOM     12  C   UNL A   1      34.569  18.474  24.621  1.00  0.00     0.018 A 
ATOM     13  C   UNL A   1      33.500  17.707  24.173  1.00  0.00     0.001 A 
BRANCH   9  14
ATOM     14  N   UNL A   1      33.008  21.978  24.397  1.00  0.00    -0.265 N 
BRANCH  14  15
ATOM     15  C   UNL A   1      33.958  22.980  23.827  1.00  0.00     0.136 C 
BRANCH  15  16
ATOM     16  C   UNL A   1      33.736  23.384  22.371  1.00  0.00     0.022 C 
BRANCH  16  17
ATOM     17  C   UNL A   1      32.584  24.338  22.046  1.00  0.00    -0.002 C 
ATOM     18  C   UNL A   1      32.986  25.693  21.485  1.00  0.00     0.004 C 
ENDBRANCH  16  17
ENDBRANCH  15  16
ENDBRANCH  14  15
BRANCH  14  19
ATOM     19  S   UNL A   1      32.028  22.575  25.698  1.00  0.00     0.264 S 
ATOM     20  O   UNL A   1      30.753  21.892  25.679  1.00  0.00    -0.201 OA
ATOM     21  O   UNL A   1      32.868  22.519  26.882  1.00  0.00    -0.201 OA
BRANCH  19  22
ATOM     22  C   UNL A   1      31.634  24.300  25.478  1.00  0.00     0.091 A 
ATOM     23  C   UNL A   1      32.459  25.289  26.070  1.00  0.00     0.025 A 
ATOM     24  C   UNL A   1      30.513  24.658  24.727  1.00  0.00     0.071 A 
ATOM     25  C   UNL A   1      32.232  26.648  25.824  1.00  0.00     0.032 A 
ATOM     26  C   UNL A   1      30.350  25.999  24.455  1.00  0.00     0.157 A 
ATOM     27  C   UNL A   1      31.194  26.963  24.975  1.00  0.00     0.090 A 
ATOM     28  O   UNL A   1      29.403  26.522  23.589  1.00  0.00    -0.408 OA
ATOM     29  N   UNL A   1      30.781  28.153  24.430  1.00  0.00    -0.277 N 
ATOM     30  C   UNL A   1      29.740  27.882  23.564  1.00  0.00     0.419 A 
ATOM     31  C   UNL A   1      31.391  29.439  24.596  1.00  0.00     0.157 C 
ATOM     32  O   UNL A   1      29.186  28.692  22.829  1.00  0.00    -0.223 OA
ENDBRANCH  19  22
ENDBRANCH  14  19
ENDBRANCH   9  14
ENDBRANCH   6   8
ENDBRANCH   5   6
ENDBRANCH   4   5
ENDBRANCH   3   4
ENDBRANCH   2   3
ENDBRANCH   1   2
BRANCH   1  33
ATOM     33  C   UNL A   1      41.557  22.798  27.032  1.00  0.00     0.188 C 
BRANCH  33  34
ATOM     34  O   UNL A   1      42.568  23.714  26.683  1.00  0.00    -0.376 OA
BRANCH  34  35
ATOM     35  C   UNL A   1      42.854  23.939  25.313  1.00  0.00     0.202 C 
BRANCH  35  36
ATOM     36  C   UNL A   1      44.171  23.512  24.628  1.00  0.00     0.261 C 
BRANCH  36  37
ATOM     37  O   UNL A   1      45.274  24.422  24.645  1.00  0.00    -0.460 OA
BRANCH  37  38
ATOM     38  C   UNL A   1      46.003  24.497  25.786  1.00  0.00     0.338 C 
ATOM     39  O   UNL A   1      46.832  23.699  26.177  1.00  0.00    -0.246 OA
BRANCH  38  40
ATOM     40  C   UNL A   1      45.780  25.847  26.354  1.00  0.00     0.060 A 
ATOM     41  C   UNL A   1      45.083  26.808  25.604  1.00  0.00     0.016 A 
ATOM     42  C   UNL A   1      46.221  26.142  27.645  1.00  0.00     0.016 A 
ATOM     43  C   UNL A   1      44.840  28.075  26.142  1.00  0.00     0.010 A 
ATOM     44  C   UNL A   1      46.005  27.418  28.167  1.00  0.00     0.010 A 
ATOM     45  C   UNL A   1      45.340  28.399  27.408  1.00  0.00    -0.014 A 
BRANCH  45  46
ATOM     46  C   UNL A   1      45.395  29.808  27.869  1.00  0.00     0.031 A 
ATOM     47  C   UNL A   1      44.181  30.355  28.571  1.00  0.00     0.074 A 
ATOM     48  C   UNL A   1      46.454  30.599  27.630  1.00  0.00     0.049 A 
ATOM     49  N   UNL A   1      43.899  31.586  28.906  1.00  0.00    -0.248 NA
ATOM     50  C   UNL A   1      43.138  29.377  28.926  1.00  0.00     0.031 C 
ATOM     51  C   UNL A   1      47.710  30.176  27.013  1.00  0.00     0.029 A 
ATOM     52  N   UNL A   1      46.627  31.942  27.858  1.00  0.00    -0.354 N 
ATOM     53  C   UNL A   1      42.637  31.534  29.485  1.00  0.00     0.074 A 
ATOM     54  C   UNL A   1      42.199  30.157  29.438  1.00  0.00     0.031 C 
ATOM     55  C   UNL A   1      48.517  31.246  26.889  1.00  0.00     0.029 A 
ATOM     56  C   UNL A   1      47.815  32.436  27.371  1.00  0.00     0.049 A 
ATOM     57  H   UNL A   1      45.963  32.499  28.326  1.00  0.00     0.167 HD
ATOM     58  C   UNL A   1      41.904  32.545  30.005  1.00  0.00     0.031 A 
ATOM     59  C   UNL A   1      48.263  33.706  27.289  1.00  0.00     0.031 A 
ATOM     60  C   UNL A   1      42.337  33.916  30.033  1.00  0.00     0.049 A 
ATOM     61  C   UNL A   1      47.396  34.832  27.800  1.00  0.00     0.074 A 
ATOM     62  C   UNL A   1      41.674  35.017  30.544  1.00  0.00     0.029 A 
ATOM     63  N   UNL A   1      43.541  34.375  29.520  1.00  0.00    -0.354 N 
ATOM     64  N   UNL A   1      46.206  34.773  28.351  1.00  0.00    -0.248 NA
ATOM     65  C   UNL A   1      47.933  36.196  27.681  1.00  0.00     0.031 C 
ATOM     66  C   UNL A   1      42.449  36.150  30.284  1.00  0.00     0.029 A 
ATOM     67  C   UNL A   1      43.631  35.746  29.683  1.00  0.00     0.049 A 
ATOM     68  H   UNL A   1      44.230  33.809  29.102  1.00  0.00     0.167 HD
ATOM     69  C   UNL A   1      45.875  36.084  28.685  1.00  0.00     0.074 A 
ATOM     70  C   UNL A   1      46.988  36.914  28.274  1.00  0.00     0.031 C 
ATOM     71  C   UNL A   1      44.755  36.556  29.286  1.00  0.00     0.031 A 
BRANCH  58  72
ATOM     72  C   UNL A   1      40.538  32.210  30.545  1.00  0.00    -0.014 A 
ATOM     73  C   UNL A   1      40.344  31.883  31.899  1.00  0.00     0.010 A 
ATOM     74  C   UNL A   1      39.425  32.252  29.685  1.00  0.00     0.010 A 
ATOM     75  C   UNL A   1      39.068  31.568  32.375  1.00  0.00     0.020 A 
ATOM     76  C   UNL A   1      38.143  31.969  30.164  1.00  0.00     0.020 A 
ATOM     77  C   UNL A   1      37.976  31.612  31.503  1.00  0.00     0.054 A 
BRANCH  77  78
ATOM     78  S   UNL A   1      36.328  31.225  32.155  1.00  0.00     0.124 S 
ATOM     79  O   UNL A   1      35.479  31.470  30.992  1.00  0.00    -0.237 OA
ATOM     80  O   UNL A   1      36.463  29.827  32.553  1.00  0.00    -0.237 OA
ATOM     81  O   UNL A   1      36.159  32.171  33.256  1.00  0.00    -0.744 OA
ENDBRANCH  77  78
ENDBRANCH  58  72
BRANCH  59  82
ATOM     82  C   UNL A   1      49.592  33.993  26.676  1.00  0.00    -0.014 A 
ATOM     83  C   UNL A   1      49.692  34.367  25.324  1.00  0.00     0.010 A 
ATOM     84  C   UNL A   1      50.770  33.884  27.440  1.00  0.00     0.010 A 
ATOM     85  C   UNL A   1      50.942  34.609  24.744  1.00  0.00     0.020 A 
ATOM     86  C   UNL A   1      52.018  34.156  26.872  1.00  0.00     0.020 A 
ATOM     87  C   UNL A   1      52.097  34.506  25.524  1.00  0.00     0.054 A 
BRANCH  87  88
ATOM     88  S   UNL A   1      53.702  34.874  24.760  1.00  0.00     0.124 S 
ATOM     89  O   UNL A   1      53.780  33.861  23.712  1.00  0.00    -0.237 OA
ATOM     90  O   UNL A   1      53.522  36.248  24.300  1.00  0.00    -0.237 OA
ATOM     91  O   UNL A   1      54.651  34.712  25.859  1.00  0.00    -0.744 OA
ENDBRANCH  87  88
ENDBRANCH  59  82
BRANCH  71  92
ATOM     92  C   UNL A   1      44.692  38.027  29.614  1.00  0.00    -0.014 A 
ATOM     93  C   UNL A   1      45.406  38.578  30.693  1.00  0.00     0.010 A 
ATOM     94  C   UNL A   1      43.972  38.886  28.761  1.00  0.00     0.010 A 
ATOM     95  C   UNL A   1      45.384  39.958  30.923  1.00  0.00     0.020 A 
ATOM     96  C   UNL A   1      43.974  40.267  28.968  1.00  0.00     0.020 A 
ATOM     97  C   UNL A   1      44.672  40.794  30.054  1.00  0.00     0.054 A 
BRANCH  97  98
ATOM     98  S   UNL A   1      44.715  42.585  30.335  1.00  0.00     0.124 S 
ATOM     99  O   UNL A   1      43.416  42.829  30.954  1.00  0.00    -0.237 OA
ATOM    100  O   UNL A   1      45.870  42.743  31.216  1.00  0.00    -0.237 OA
ATOM    101  O   UNL A   1      44.880  43.144  28.996  1.00  0.00    -0.744 OA
ENDBRANCH  97  98
ENDBRANCH  71  92
ENDBRANCH  45  46
ENDBRANCH  38  40
ENDBRANCH  37  38
ENDBRANCH  36  37
ENDBRANCH  35  36
ENDBRANCH  34  35
ENDBRANCH  33  34
ENDBRANCH   1  33
TORSDOF 26
ENDMDL
