MODEL 1
REMARK VINA RESULT:     -10.8      0.000      0.000
REMARK SMILES C[N@@H+]1CCN(C(=O)c2ccc3[nH]c4c(c3c2)CSCC4)C[C@H]1C(=O)OCCOCCOCCOC(=O)c1ccc(-c2c3nc(c(-c4ccc(S(=O)(=O)[O-])cc4)c4ccc([nH]4)c(-c4ccc(S(=O)(=O)[O-])cc4)c4nc(c(-c5ccc(S(=O)(=O)[O-])cc5)c5ccc2[nH]5)C=C4)C=C3)cc1
REMARK SMILES IDX 30 1 29 2 28 3 27 4 26 5 25 6 23 7 24 8 22 9 1 10 2 11 3 12
REMARK SMILES IDX 4 14 21 15 5 16 6 17 7 18 8 19 9 20 16 21 10 22 15 23 11 24
REMARK SMILES IDX 14 25 12 26 13 27 17 28 20 30 18 31 19 32 31 33 32 34 33 35
REMARK SMILES IDX 34 36 35 37 36 38 37 39 38 40 96 41 39 42 95 43 40 44 41 45
REMARK SMILES IDX 42 46 89 47 43 48 94 49 88 50 90 51 44 52 93 53 87 54 86 55
REMARK SMILES IDX 45 57 75 58 56 59 74 60 57 61 60 62 73 63 91 64 58 65 59 66
REMARK SMILES IDX 72 68 92 69 61 70 46 71 47 72 55 73 48 74 54 75 49 76 50 77
REMARK SMILES IDX 51 78 52 79 53 80 76 81 77 82 85 83 78 84 84 85 79 86 80 87
REMARK SMILES IDX 81 88 82 89 83 90 62 91 63 92 71 93 64 94 70 95 65 96 66 97
REMARK SMILES IDX 67 98 68 99 69 100
REMARK H PARENT 2 13 12 29 90 56 60 67
REMARK Flexibility Score: inf
ROOT
ATOM      1  C   UNL A   1      37.640  22.359  25.223  1.00  0.00     0.188 C 
ENDROOT
BRANCH   1   2
ATOM      2  C   UNL A   1      37.014  22.980  23.983  1.00  0.00     0.188 C 
BRANCH   2   3
ATOM      3  O   UNL A   1      35.883  22.347  23.461  1.00  0.00    -0.376 OA
BRANCH   3   4
ATOM      4  C   UNL A   1      34.836  23.176  22.966  1.00  0.00     0.202 C 
BRANCH   4   5
ATOM      5  C   UNL A   1      34.379  24.473  23.710  1.00  0.00     0.261 C 
BRANCH   5   6
ATOM      6  O   UNL A   1      34.269  25.813  23.013  1.00  0.00    -0.459 OA
BRANCH   6   7
ATOM      7  C   UNL A   1      33.115  25.939  22.318  1.00  0.00     0.366 C 
ATOM      8  O   UNL A   1      33.249  25.787  21.101  1.00  0.00    -0.245 OA
BRANCH   7   9
ATOM      9  C   UNL A   1      31.649  26.265  22.825  1.00  0.00     0.314 C 
ATOM     10  C   UNL A   1      31.357  28.623  22.216  1.00  0.00     0.333 C 
ATOM     11  N   UNL A   1      30.697  27.328  22.416  1.00  0.00    -0.323 N 
ATOM     12  C   UNL A   1      29.619  27.441  23.570  1.00  0.00     0.284 C 
ATOM     13  H   UNL A   1      30.274  27.085  21.521  1.00  0.00     0.348 HD
ATOM     14  C   UNL A   1      29.171  26.156  24.611  1.00  0.00     0.181 C 
ATOM     15  C   UNL A   1      30.746  25.095  23.279  1.00  0.00     0.197 C 
ATOM     16  N   UNL A   1      30.247  25.140  24.791  1.00  0.00    -0.326 N 
BRANCH  16  17
ATOM     17  C   UNL A   1      30.450  24.230  26.261  1.00  0.00     0.254 C 
ATOM     18  O   UNL A   1      29.418  24.305  26.959  1.00  0.00    -0.269 OA
BRANCH  17  19
ATOM     19  C   UNL A   1      31.863  23.143  27.050  1.00  0.00     0.040 A 
ATOM     20  C   UNL A   1      33.307  23.223  27.215  1.00  0.00     0.016 A 
ATOM     21  C   UNL A   1      31.832  21.912  26.466  1.00  0.00     0.024 A 
ATOM     22  C   UNL A   1      34.416  22.363  26.601  1.00  0.00     0.027 A 
ATOM     23  C   UNL A   1      32.822  20.924  25.663  1.00  0.00     0.004 A 
ATOM     24  C   UNL A   1      34.140  21.161  25.923  1.00  0.00     0.046 A 
ATOM     25  C   UNL A   1      32.874  19.917  24.498  1.00  0.00    -0.009 A 
ATOM     26  N   UNL A   1      34.829  20.029  25.513  1.00  0.00    -0.358 N 
ATOM     27  C   UNL A   1      34.026  19.197  24.749  1.00  0.00     0.021 A 
ATOM     28  C   UNL A   1      31.958  19.513  23.335  1.00  0.00     0.107 C 
ATOM     29  H   UNL A   1      35.769  19.841  25.738  1.00  0.00     0.166 HD
ATOM     30  C   UNL A   1      34.382  17.826  24.213  1.00  0.00     0.065 C 
ATOM     31  S   UNL A   1      32.663  18.329  22.125  1.00  0.00    -0.157 SA
ATOM     32  C   UNL A   1      33.282  17.163  23.354  1.00  0.00     0.076 C 
ENDBRANCH  17  19
ENDBRANCH  16  17
ENDBRANCH   7   9
ENDBRANCH   6   7
ENDBRANCH   5   6
ENDBRANCH   4   5
ENDBRANCH   3   4
ENDBRANCH   2   3
ENDBRANCH   1   2
BRANCH   1  33
ATOM     33  O   UNL A   1      38.515  21.256  25.236  1.00  0.00    -0.376 OA
BRANCH  33  34
ATOM     34  C   UNL A   1      39.574  21.355  26.175  1.00  0.00     0.202 C 
BRANCH  34  35
ATOM     35  C   UNL A   1      40.618  20.196  26.297  1.00  0.00     0.261 C 
BRANCH  35  36
ATOM     36  O   UNL A   1      41.894  20.523  26.910  1.00  0.00    -0.460 OA
BRANCH  36  37
ATOM     37  C   UNL A   1      42.687  21.418  26.257  1.00  0.00     0.338 C 
ATOM     38  O   UNL A   1      43.038  21.301  25.081  1.00  0.00    -0.246 OA
BRANCH  37  39
ATOM     39  C   UNL A   1      42.732  22.734  26.997  1.00  0.00     0.060 A 
ATOM     40  C   UNL A   1      42.338  23.999  26.508  1.00  0.00     0.016 A 
ATOM     41  C   UNL A   1      43.569  22.724  28.092  1.00  0.00     0.016 A 
ATOM     42  C   UNL A   1      43.037  25.199  26.897  1.00  0.00     0.010 A 
ATOM     43  C   UNL A   1      44.227  23.902  28.439  1.00  0.00     0.010 A 
ATOM     44  C   UNL A   1      44.153  25.143  27.747  1.00  0.00    -0.014 A 
BRANCH  44  45
ATOM     45  C   UNL A   1      44.930  26.371  28.385  1.00  0.00     0.031 A 
ATOM     46  C   UNL A   1      46.012  26.386  26.887  1.00  0.00     0.074 A 
ATOM     47  C   UNL A   1      44.836  27.355  29.659  1.00  0.00     0.049 A 
ATOM     48  N   UNL A   1      47.242  25.924  26.701  1.00  0.00    -0.248 NA
ATOM     49  C   UNL A   1      45.494  26.873  25.568  1.00  0.00     0.031 C 
ATOM     50  C   UNL A   1      44.231  27.879  31.076  1.00  0.00     0.029 A 
ATOM     51  N   UNL A   1      45.585  28.555  29.808  1.00  0.00    -0.354 N 
ATOM     52  C   UNL A   1      47.672  26.251  25.382  1.00  0.00     0.074 A 
ATOM     53  C   UNL A   1      46.489  26.678  24.698  1.00  0.00     0.031 C 
ATOM     54  C   UNL A   1      44.517  29.304  31.315  1.00  0.00     0.029 A 
ATOM     55  C   UNL A   1      45.473  29.874  30.253  1.00  0.00     0.049 A 
ATOM     56  H   UNL A   1      46.504  28.402  29.488  1.00  0.00     0.167 HD
ATOM     57  C   UNL A   1      48.973  26.360  24.940  1.00  0.00     0.031 A 
ATOM     58  C   UNL A   1      46.437  31.035  29.941  1.00  0.00     0.031 A 
ATOM     59  C   UNL A   1      49.910  26.331  26.021  1.00  0.00     0.049 A 
ATOM     60  C   UNL A   1      48.281  31.122  29.355  1.00  0.00     0.074 A 
ATOM     61  C   UNL A   1      50.761  25.422  26.588  1.00  0.00     0.029 A 
ATOM     62  N   UNL A   1      50.150  27.568  26.584  1.00  0.00    -0.354 N 
ATOM     63  N   UNL A   1      49.421  30.530  29.891  1.00  0.00    -0.248 NA
ATOM     64  C   UNL A   1      48.600  31.245  27.885  1.00  0.00     0.031 C 
ATOM     65  C   UNL A   1      51.494  26.161  27.568  1.00  0.00     0.029 A 
ATOM     66  C   UNL A   1      50.887  27.436  27.722  1.00  0.00     0.049 A 
ATOM     67  H   UNL A   1      49.833  28.425  26.215  1.00  0.00     0.167 HD
ATOM     68  C   UNL A   1      50.104  29.659  28.879  1.00  0.00     0.074 A 
ATOM     69  C   UNL A   1      49.662  30.413  27.669  1.00  0.00     0.031 C 
ATOM     70  C   UNL A   1      50.628  28.270  28.952  1.00  0.00     0.031 A 
BRANCH  57  71
ATOM     71  C   UNL A   1      49.628  26.854  23.616  1.00  0.00    -0.014 A 
ATOM     72  C   UNL A   1      50.966  27.232  23.440  1.00  0.00     0.010 A 
ATOM     73  C   UNL A   1      48.891  26.659  22.403  1.00  0.00     0.010 A 
ATOM     74  C   UNL A   1      51.552  27.306  22.150  1.00  0.00     0.020 A 
ATOM     75  C   UNL A   1      49.469  26.689  21.123  1.00  0.00     0.020 A 
ATOM     76  C   UNL A   1      50.813  26.995  21.003  1.00  0.00     0.054 A 
BRANCH  76  77
ATOM     77  S   UNL A   1      51.639  26.869  19.386  1.00  0.00     0.124 S 
ATOM     78  O   UNL A   1      52.762  25.983  19.680  1.00  0.00    -0.237 OA
ATOM     79  O   UNL A   1      50.595  26.303  18.536  1.00  0.00    -0.237 OA
ATOM     80  O   UNL A   1      52.007  28.249  19.070  1.00  0.00    -0.744 OA
ENDBRANCH  76  77
ENDBRANCH  57  71
BRANCH  58  81
ATOM     81  C   UNL A   1      45.794  32.361  29.549  1.00  0.00    -0.014 A 
ATOM     82  C   UNL A   1      45.021  32.435  28.379  1.00  0.00     0.010 A 
ATOM     83  C   UNL A   1      46.180  33.580  30.147  1.00  0.00     0.010 A 
ATOM     84  C   UNL A   1      44.738  33.660  27.760  1.00  0.00     0.020 A 
ATOM     85  C   UNL A   1      45.886  34.817  29.543  1.00  0.00     0.020 A 
ATOM     86  C   UNL A   1      45.211  34.844  28.324  1.00  0.00     0.054 A 
BRANCH  86  87
ATOM     87  S   UNL A   1      44.996  36.397  27.405  1.00  0.00     0.124 S 
ATOM     88  O   UNL A   1      46.091  36.334  26.443  1.00  0.00    -0.237 OA
ATOM     89  O   UNL A   1      43.656  36.252  26.838  1.00  0.00    -0.237 OA
ATOM     90  O   UNL A   1      45.122  37.426  28.434  1.00  0.00    -0.744 OA
ENDBRANCH  86  87
ENDBRANCH  58  81
BRANCH  70  91
ATOM     91  C   UNL A   1      50.723  27.101  30.173  1.00  0.00    -0.014 A 
ATOM     92  C   UNL A   1      49.753  26.200  30.615  1.00  0.00     0.010 A 
ATOM     93  C   UNL A   1      51.862  27.125  31.091  1.00  0.00     0.010 A 
ATOM     94  C   UNL A   1      50.035  25.217  31.644  1.00  0.00     0.020 A 
ATOM     95  C   UNL A   1      52.174  26.158  32.087  1.00  0.00     0.020 A 
ATOM     96  C   UNL A   1      51.287  25.127  32.274  1.00  0.00     0.054 A 
BRANCH  96  97
ATOM     97  S   UNL A   1      51.879  23.599  33.102  1.00  0.00     0.124 S 
ATOM     98  O   UNL A   1      50.953  22.572  32.637  1.00  0.00    -0.237 OA
ATOM     99  O   UNL A   1      53.253  23.469  32.623  1.00  0.00    -0.237 OA
ATOM    100  O   UNL A   1      51.765  23.947  34.518  1.00  0.00    -0.744 OA
ENDBRANCH  96  97
ENDBRANCH  70  91
ENDBRANCH  44  45
ENDBRANCH  37  39
ENDBRANCH  36  37
ENDBRANCH  35  36
ENDBRANCH  34  35
ENDBRANCH  33  34
ENDBRANCH   1  33
TORSDOF 22
ENDMDL
MODEL 2
REMARK VINA RESULT:     -10.7      4.956      7.917
REMARK SMILES C[N@@H+]1CCN(C(=O)c2ccc3[nH]c4c(c3c2)CSCC4)C[C@H]1C(=O)OCCOCCOCCOC(=O)c1ccc(-c2c3nc(c(-c4ccc(S(=O)(=O)[O-])cc4)c4ccc([nH]4)c(-c4ccc(S(=O)(=O)[O-])cc4)c4nc(c(-c5ccc(S(=O)(=O)[O-])cc5)c5ccc2[nH]5)C=C4)C=C3)cc1
REMARK SMILES IDX 30 1 29 2 28 3 27 4 26 5 25 6 23 7 24 8 22 9 1 10 2 11 3 12
REMARK SMILES IDX 4 14 21 15 5 16 6 17 7 18 8 19 9 20 16 21 10 22 15 23 11 24
REMARK SMILES IDX 14 25 12 26 13 27 17 28 20 30 18 31 19 32 31 33 32 34 33 35
REMARK SMILES IDX 34 36 35 37 36 38 37 39 38 40 96 41 39 42 95 43 40 44 41 45
REMARK SMILES IDX 42 46 89 47 43 48 94 49 88 50 90 51 44 52 93 53 87 54 86 55
REMARK SMILES IDX 45 57 75 58 56 59 74 60 57 61 60 62 73 63 91 64 58 65 59 66
REMARK SMILES IDX 72 68 92 69 61 70 46 71 47 72 55 73 48 74 54 75 49 76 50 77
REMARK SMILES IDX 51 78 52 79 53 80 76 81 77 82 85 83 78 84 84 85 79 86 80 87
REMARK SMILES IDX 81 88 82 89 83 90 62 91 63 92 71 93 64 94 70 95 65 96 66 97
REMARK SMILES IDX 67 98 68 99 69 100
REMARK H PARENT 2 13 12 29 90 56 60 67
REMARK Flexibility Score: inf
ROOT
ATOM      1  C   UNL A   1      37.293  21.408  25.110  1.00  0.00     0.188 C 
ENDROOT
BRANCH   1   2
ATOM      2  C   UNL A   1      37.017  22.176  23.826  1.00  0.00     0.188 C 
BRANCH   2   3
ATOM      3  O   UNL A   1      35.874  22.979  23.803  1.00  0.00    -0.376 OA
BRANCH   3   4
ATOM      4  C   UNL A   1      35.613  23.782  24.950  1.00  0.00     0.202 C 
BRANCH   4   5
ATOM      5  C   UNL A   1      35.600  23.189  26.396  1.00  0.00     0.261 C 
BRANCH   5   6
ATOM      6  O   UNL A   1      34.351  23.160  27.251  1.00  0.00    -0.459 OA
BRANCH   6   7
ATOM      7  C   UNL A   1      33.545  22.115  26.951  1.00  0.00     0.366 C 
ATOM      8  O   UNL A   1      33.306  21.380  27.911  1.00  0.00    -0.245 OA
BRANCH   7   9
ATOM      9  C   UNL A   1      32.892  21.694  25.568  1.00  0.00     0.314 C 
ATOM     10  C   UNL A   1      34.205  19.731  24.904  1.00  0.00     0.333 C 
ATOM     11  N   UNL A   1      32.897  20.394  24.852  1.00  0.00    -0.323 N 
ATOM     12  C   UNL A   1      32.504  20.703  23.349  1.00  0.00     0.284 C 
ATOM     13  H   UNL A   1      32.238  19.755  25.295  1.00  0.00     0.348 HD
ATOM     14  C   UNL A   1      31.537  22.025  22.849  1.00  0.00     0.181 C 
ATOM     15  C   UNL A   1      31.564  22.362  25.144  1.00  0.00     0.197 C 
ATOM     16  N   UNL A   1      31.598  23.187  23.782  1.00  0.00    -0.326 N 
BRANCH  16  17
ATOM     17  C   UNL A   1      31.432  24.836  23.250  1.00  0.00     0.254 C 
ATOM     18  O   UNL A   1      32.119  25.027  22.224  1.00  0.00    -0.269 OA
BRANCH  17  19
ATOM     19  C   UNL A   1      30.450  26.409  23.850  1.00  0.00     0.040 A 
ATOM     20  C   UNL A   1      29.979  27.660  23.274  1.00  0.00     0.016 A 
ATOM     21  C   UNL A   1      31.124  26.956  24.902  1.00  0.00     0.024 A 
ATOM     22  C   UNL A   1      30.410  29.100  23.563  1.00  0.00     0.027 A 
ATOM     23  C   UNL A   1      31.774  28.371  25.323  1.00  0.00     0.004 A 
ATOM     24  C   UNL A   1      31.224  29.430  24.663  1.00  0.00     0.046 A 
ATOM     25  C   UNL A   1      32.978  29.003  26.049  1.00  0.00    -0.009 A 
ATOM     26  N   UNL A   1      31.567  30.563  25.386  1.00  0.00    -0.358 N 
ATOM     27  C   UNL A   1      32.547  30.285  26.326  1.00  0.00     0.021 A 
ATOM     28  C   UNL A   1      34.336  28.521  26.576  1.00  0.00     0.107 C 
ATOM     29  H   UNL A   1      31.164  31.451  25.249  1.00  0.00     0.166 HD
ATOM     30  C   UNL A   1      33.102  31.230  27.371  1.00  0.00     0.065 C 
ATOM     31  S   UNL A   1      35.459  29.821  27.219  1.00  0.00    -0.157 SA
ATOM     32  C   UNL A   1      34.224  30.633  28.250  1.00  0.00     0.076 C 
ENDBRANCH  17  19
ENDBRANCH  16  17
ENDBRANCH   7   9
ENDBRANCH   6   7
ENDBRANCH   5   6
ENDBRANCH   4   5
ENDBRANCH   3   4
ENDBRANCH   2   3
ENDBRANCH   1   2
BRANCH   1  33
ATOM     33  O   UNL A   1      37.996  20.191  25.205  1.00  0.00    -0.376 OA
BRANCH  33  34
ATOM     34  C   UNL A   1      39.279  20.297  25.800  1.00  0.00     0.202 C 
BRANCH  34  35
ATOM     35  C   UNL A   1      39.795  21.689  26.297  1.00  0.00     0.261 C 
BRANCH  35  36
ATOM     36  O   UNL A   1      40.914  22.270  25.578  1.00  0.00    -0.460 OA
BRANCH  36  37
ATOM     37  C   UNL A   1      41.677  23.181  26.244  1.00  0.00     0.338 C 
ATOM     38  O   UNL A   1      42.816  23.509  25.907  1.00  0.00    -0.246 OA
BRANCH  37  39
ATOM     39  C   UNL A   1      40.825  24.020  27.167  1.00  0.00     0.060 A 
ATOM     40  C   UNL A   1      39.702  24.800  26.814  1.00  0.00     0.016 A 
ATOM     41  C   UNL A   1      41.436  24.318  28.365  1.00  0.00     0.016 A 
ATOM     42  C   UNL A   1      39.423  26.050  27.479  1.00  0.00     0.010 A 
ATOM     43  C   UNL A   1      41.142  25.533  28.980  1.00  0.00     0.010 A 
ATOM     44  C   UNL A   1      40.280  26.545  28.475  1.00  0.00    -0.014 A 
BRANCH  44  45
ATOM     45  C   UNL A   1      40.036  27.811  29.400  1.00  0.00     0.031 A 
ATOM     46  C   UNL A   1      41.473  28.621  28.567  1.00  0.00     0.074 A 
ATOM     47  C   UNL A   1      38.976  28.351  30.489  1.00  0.00     0.049 A 
ATOM     48  N   UNL A   1      42.728  28.783  28.966  1.00  0.00    -0.248 NA
ATOM     49  C   UNL A   1      41.366  29.118  27.157  1.00  0.00     0.031 C 
ATOM     50  C   UNL A   1      37.682  28.236  31.471  1.00  0.00     0.029 A 
ATOM     51  N   UNL A   1      38.921  29.689  30.967  1.00  0.00    -0.354 N 
ATOM     52  C   UNL A   1      43.436  29.547  27.993  1.00  0.00     0.074 A 
ATOM     53  C   UNL A   1      42.584  29.567  26.842  1.00  0.00     0.031 C 
ATOM     54  C   UNL A   1      37.122  29.554  31.815  1.00  0.00     0.029 A 
ATOM     55  C   UNL A   1      38.019  30.698  31.312  1.00  0.00     0.049 A 
ATOM     56  H   UNL A   1      39.839  30.019  31.105  1.00  0.00     0.167 HD
ATOM     57  C   UNL A   1      44.574  30.297  28.198  1.00  0.00     0.031 A 
ATOM     58  C   UNL A   1      38.336  32.197  31.479  1.00  0.00     0.031 A 
ATOM     59  C   UNL A   1      44.883  30.432  29.588  1.00  0.00     0.049 A 
ATOM     60  C   UNL A   1      39.965  33.193  31.805  1.00  0.00     0.074 A 
ATOM     61  C   UNL A   1      45.755  29.874  30.482  1.00  0.00     0.029 A 
ATOM     62  N   UNL A   1      44.247  31.493  30.199  1.00  0.00    -0.354 N 
ATOM     63  N   UNL A   1      40.922  33.042  32.805  1.00  0.00    -0.248 NA
ATOM     64  C   UNL A   1      40.745  33.763  30.647  1.00  0.00     0.031 C 
ATOM     65  C   UNL A   1      45.576  30.617  31.690  1.00  0.00     0.029 A 
ATOM     66  C   UNL A   1      44.427  31.440  31.549  1.00  0.00     0.049 A 
ATOM     67  H   UNL A   1      43.736  32.190  29.727  1.00  0.00     0.167 HD
ATOM     68  C   UNL A   1      42.280  32.796  32.219  1.00  0.00     0.074 A 
ATOM     69  C   UNL A   1      42.060  33.536  30.942  1.00  0.00     0.031 C 
ATOM     70  C   UNL A   1      43.329  31.786  32.523  1.00  0.00     0.031 A 
BRANCH  57  71
ATOM     71  C   UNL A   1      45.378  31.304  27.323  1.00  0.00    -0.014 A 
ATOM     72  C   UNL A   1      44.869  32.443  26.685  1.00  0.00     0.010 A 
ATOM     73  C   UNL A   1      46.808  31.232  27.381  1.00  0.00     0.010 A 
ATOM     74  C   UNL A   1      45.723  33.484  26.234  1.00  0.00     0.020 A 
ATOM     75  C   UNL A   1      47.661  32.271  26.975  1.00  0.00     0.020 A 
ATOM     76  C   UNL A   1      47.108  33.411  26.418  1.00  0.00     0.054 A 
BRANCH  76  77
ATOM     77  S   UNL A   1      48.159  34.849  26.045  1.00  0.00     0.124 S 
ATOM     78  O   UNL A   1      48.875  35.043  27.304  1.00  0.00    -0.237 OA
ATOM     79  O   UNL A   1      48.969  34.374  24.927  1.00  0.00    -0.237 OA
ATOM     80  O   UNL A   1      47.206  35.905  25.707  1.00  0.00    -0.744 OA
ENDBRANCH  76  77
ENDBRANCH  57  71
BRANCH  58  81
ATOM     81  C   UNL A   1      37.354  33.171  30.837  1.00  0.00    -0.014 A 
ATOM     82  C   UNL A   1      36.331  33.735  31.617  1.00  0.00     0.010 A 
ATOM     83  C   UNL A   1      37.245  33.303  29.436  1.00  0.00     0.010 A 
ATOM     84  C   UNL A   1      35.191  34.305  31.035  1.00  0.00     0.020 A 
ATOM     85  C   UNL A   1      36.113  33.890  28.841  1.00  0.00     0.020 A 
ATOM     86  C   UNL A   1      35.068  34.340  29.647  1.00  0.00     0.054 A 
BRANCH  86  87
ATOM     87  S   UNL A   1      33.502  34.908  28.922  1.00  0.00     0.124 S 
ATOM     88  O   UNL A   1      32.643  35.010  30.097  1.00  0.00    -0.237 OA
ATOM     89  O   UNL A   1      33.875  36.180  28.307  1.00  0.00    -0.237 OA
ATOM     90  O   UNL A   1      33.155  33.847  27.980  1.00  0.00    -0.744 OA
ENDBRANCH  86  87
ENDBRANCH  58  81
BRANCH  70  91
ATOM     91  C   UNL A   1      43.475  30.532  33.651  1.00  0.00    -0.014 A 
ATOM     92  C   UNL A   1      43.003  29.220  33.583  1.00  0.00     0.010 A 
ATOM     93  C   UNL A   1      43.947  30.842  35.000  1.00  0.00     0.010 A 
ATOM     94  C   UNL A   1      43.279  28.253  34.629  1.00  0.00     0.020 A 
ATOM     95  C   UNL A   1      44.250  29.910  36.032  1.00  0.00     0.020 A 
ATOM     96  C   UNL A   1      44.013  28.581  35.780  1.00  0.00     0.054 A 
BRANCH  96  97
ATOM     97  S   UNL A   1      44.880  27.326  36.801  1.00  0.00     0.124 S 
ATOM     98  O   UNL A   1      44.507  26.059  36.183  1.00  0.00    -0.237 OA
ATOM     99  O   UNL A   1      46.286  27.700  36.670  1.00  0.00    -0.237 OA
ATOM    100  O   UNL A   1      44.316  27.562  38.130  1.00  0.00    -0.744 OA
ENDBRANCH  96  97
ENDBRANCH  70  91
ENDBRANCH  44  45
ENDBRANCH  37  39
ENDBRANCH  36  37
ENDBRANCH  35  36
ENDBRANCH  34  35
ENDBRANCH  33  34
ENDBRANCH   1  33
TORSDOF 22
ENDMDL
MODEL 3
REMARK VINA RESULT:     -10.3      2.303      4.522
REMARK SMILES C[N@@H+]1CCN(C(=O)c2ccc3[nH]c4c(c3c2)CSCC4)C[C@H]1C(=O)OCCOCCOCCOC(=O)c1ccc(-c2c3nc(c(-c4ccc(S(=O)(=O)[O-])cc4)c4ccc([nH]4)c(-c4ccc(S(=O)(=O)[O-])cc4)c4nc(c(-c5ccc(S(=O)(=O)[O-])cc5)c5ccc2[nH]5)C=C4)C=C3)cc1
REMARK SMILES IDX 30 1 29 2 28 3 27 4 26 5 25 6 23 7 24 8 22 9 1 10 2 11 3 12
REMARK SMILES IDX 4 14 21 15 5 16 6 17 7 18 8 19 9 20 16 21 10 22 15 23 11 24
REMARK SMILES IDX 14 25 12 26 13 27 17 28 20 30 18 31 19 32 31 33 32 34 33 35
REMARK SMILES IDX 34 36 35 37 36 38 37 39 38 40 96 41 39 42 95 43 40 44 41 45
REMARK SMILES IDX 42 46 89 47 43 48 94 49 88 50 90 51 44 52 93 53 87 54 86 55
REMARK SMILES IDX 45 57 75 58 56 59 74 60 57 61 60 62 73 63 91 64 58 65 59 66
REMARK SMILES IDX 72 68 92 69 61 70 46 71 47 72 55 73 48 74 54 75 49 76 50 77
REMARK SMILES IDX 51 78 52 79 53 80 76 81 77 82 85 83 78 84 84 85 79 86 80 87
REMARK SMILES IDX 81 88 82 89 83 90 62 91 63 92 71 93 64 94 70 95 65 96 66 97
REMARK SMILES IDX 67 98 68 99 69 100
REMARK H PARENT 2 13 12 29 90 56 60 67
REMARK Flexibility Score: inf
ROOT
ATOM      1  C   UNL A   1      36.413  21.749  24.423  1.00  0.00     0.188 C 
ENDROOT
BRANCH   1   2
ATOM      2  C   UNL A   1      35.682  22.756  23.547  1.00  0.00     0.188 C 
BRANCH   2   3
ATOM      3  O   UNL A   1      34.914  23.722  24.201  1.00  0.00    -0.376 OA
BRANCH   3   4
ATOM      4  C   UNL A   1      35.417  24.239  25.430  1.00  0.00     0.202 C 
BRANCH   4   5
ATOM      5  C   UNL A   1      35.222  23.494  26.789  1.00  0.00     0.261 C 
BRANCH   5   6
ATOM      6  O   UNL A   1      33.856  23.100  27.311  1.00  0.00    -0.459 OA
BRANCH   6   7
ATOM      7  C   UNL A   1      33.456  21.893  26.848  1.00  0.00     0.366 C 
ATOM      8  O   UNL A   1      33.683  20.962  27.624  1.00  0.00    -0.245 OA
BRANCH   7   9
ATOM      9  C   UNL A   1      32.770  21.505  25.472  1.00  0.00     0.314 C 
ATOM     10  C   UNL A   1      33.983  19.484  24.792  1.00  0.00     0.333 C 
ATOM     11  N   UNL A   1      32.707  20.207  24.754  1.00  0.00    -0.323 N 
ATOM     12  C   UNL A   1      32.313  20.536  23.256  1.00  0.00     0.284 C 
ATOM     13  H   UNL A   1      32.023  19.598  25.204  1.00  0.00     0.348 HD
ATOM     14  C   UNL A   1      31.404  21.902  22.767  1.00  0.00     0.181 C 
ATOM     15  C   UNL A   1      31.470  22.234  25.062  1.00  0.00     0.197 C 
ATOM     16  N   UNL A   1      31.528  23.058  23.700  1.00  0.00    -0.326 N 
BRANCH  16  17
ATOM     17  C   UNL A   1      31.434  24.714  23.171  1.00  0.00     0.254 C 
ATOM     18  O   UNL A   1      32.228  24.909  22.227  1.00  0.00    -0.269 OA
BRANCH  17  19
ATOM     19  C   UNL A   1      30.406  26.290  23.680  1.00  0.00     0.040 A 
ATOM     20  C   UNL A   1      29.943  27.516  23.046  1.00  0.00     0.016 A 
ATOM     21  C   UNL A   1      31.025  26.878  24.742  1.00  0.00     0.024 A 
ATOM     22  C   UNL A   1      30.343  28.970  23.308  1.00  0.00     0.027 A 
ATOM     23  C   UNL A   1      31.639  28.315  25.147  1.00  0.00     0.004 A 
ATOM     24  C   UNL A   1      31.103  29.345  24.431  1.00  0.00     0.046 A 
ATOM     25  C   UNL A   1      32.801  28.985  25.904  1.00  0.00    -0.009 A 
ATOM     26  N   UNL A   1      31.400  30.504  25.133  1.00  0.00    -0.358 N 
ATOM     27  C   UNL A   1      32.342  30.269  26.123  1.00  0.00     0.021 A 
ATOM     28  C   UNL A   1      34.141  28.539  26.504  1.00  0.00     0.107 C 
ATOM     29  H   UNL A   1      30.991  31.381  24.952  1.00  0.00     0.166 HD
ATOM     30  C   UNL A   1      32.837  31.253  27.162  1.00  0.00     0.065 C 
ATOM     31  S   UNL A   1      35.218  29.874  27.155  1.00  0.00    -0.157 SA
ATOM     32  C   UNL A   1      33.928  30.699  28.106  1.00  0.00     0.076 C 
ENDBRANCH  17  19
ENDBRANCH  16  17
ENDBRANCH   7   9
ENDBRANCH   6   7
ENDBRANCH   5   6
ENDBRANCH   4   5
ENDBRANCH   3   4
ENDBRANCH   2   3
ENDBRANCH   1   2
BRANCH   1  33
ATOM     33  O   UNL A   1      37.776  21.408  24.321  1.00  0.00    -0.376 OA
BRANCH  33  34
ATOM     34  C   UNL A   1      38.496  21.492  25.540  1.00  0.00     0.202 C 
BRANCH  34  35
ATOM     35  C   UNL A   1      39.587  20.421  25.875  1.00  0.00     0.261 C 
BRANCH  35  36
ATOM     36  O   UNL A   1      40.478  20.715  26.984  1.00  0.00    -0.460 OA
BRANCH  36  37
ATOM     37  C   UNL A   1      41.611  21.417  26.703  1.00  0.00     0.338 C 
ATOM     38  O   UNL A   1      42.288  21.260  25.685  1.00  0.00    -0.246 OA
BRANCH  37  39
ATOM     39  C   UNL A   1      41.697  22.659  27.559  1.00  0.00     0.060 A 
ATOM     40  C   UNL A   1      41.069  23.902  27.320  1.00  0.00     0.016 A 
ATOM     41  C   UNL A   1      42.768  22.661  28.425  1.00  0.00     0.016 A 
ATOM     42  C   UNL A   1      41.714  25.143  27.673  1.00  0.00     0.010 A 
ATOM     43  C   UNL A   1      43.365  23.879  28.745  1.00  0.00     0.010 A 
ATOM     44  C   UNL A   1      43.002  25.155  28.234  1.00  0.00    -0.014 A 
BRANCH  44  45
ATOM     45  C   UNL A   1      43.778  26.411  28.814  1.00  0.00     0.031 A 
ATOM     46  C   UNL A   1      44.900  26.317  27.349  1.00  0.00     0.074 A 
ATOM     47  C   UNL A   1      43.664  27.477  30.019  1.00  0.00     0.049 A 
ATOM     48  N   UNL A   1      46.128  25.828  27.227  1.00  0.00    -0.248 NA
ATOM     49  C   UNL A   1      44.425  26.724  25.987  1.00  0.00     0.031 C 
ATOM     50  C   UNL A   1      43.028  28.098  31.382  1.00  0.00     0.029 A 
ATOM     51  N   UNL A   1      44.426  28.674  30.112  1.00  0.00    -0.354 N 
ATOM     52  C   UNL A   1      46.598  26.064  25.903  1.00  0.00     0.074 A 
ATOM     53  C   UNL A   1      45.441  26.462  25.160  1.00  0.00     0.031 C 
ATOM     54  C   UNL A   1      43.328  29.532  31.537  1.00  0.00     0.029 A 
ATOM     55  C   UNL A   1      44.321  30.020  30.469  1.00  0.00     0.049 A 
ATOM     56  H   UNL A   1      45.351  28.489  29.828  1.00  0.00     0.167 HD
ATOM     57  C   UNL A   1      47.912  26.128  25.491  1.00  0.00     0.031 A 
ATOM     58  C   UNL A   1      45.310  31.146  30.110  1.00  0.00     0.031 A 
ATOM     59  C   UNL A   1      48.819  26.157  26.596  1.00  0.00     0.049 A 
ATOM     60  C   UNL A   1      47.170  31.173  29.571  1.00  0.00     0.074 A 
ATOM     61  C   UNL A   1      49.641  25.276  27.244  1.00  0.00     0.029 A 
ATOM     62  N   UNL A   1      49.062  27.424  27.086  1.00  0.00    -0.354 N 
ATOM     63  N   UNL A   1      48.287  30.602  30.176  1.00  0.00    -0.248 NA
ATOM     64  C   UNL A   1      47.530  31.196  28.106  1.00  0.00     0.031 C 
ATOM     65  C   UNL A   1      50.358  26.066  28.195  1.00  0.00     0.029 A 
ATOM     66  C   UNL A   1      49.766  27.356  28.250  1.00  0.00     0.049 A 
ATOM     67  H   UNL A   1      48.767  28.259  26.655  1.00  0.00     0.167 HD
ATOM     68  C   UNL A   1      48.984  29.659  29.241  1.00  0.00     0.074 A 
ATOM     69  C   UNL A   1      48.586  30.339  27.973  1.00  0.00     0.031 C 
ATOM     70  C   UNL A   1      49.486  28.270  29.417  1.00  0.00     0.031 A 
BRANCH  57  71
ATOM     71  C   UNL A   1      48.610  26.528  24.156  1.00  0.00    -0.014 A 
ATOM     72  C   UNL A   1      47.997  27.110  23.039  1.00  0.00     0.010 A 
ATOM     73  C   UNL A   1      50.042  26.562  24.146  1.00  0.00     0.010 A 
ATOM     74  C   UNL A   1      48.756  27.771  22.037  1.00  0.00     0.020 A 
ATOM     75  C   UNL A   1      50.802  27.246  23.183  1.00  0.00     0.020 A 
ATOM     76  C   UNL A   1      50.148  27.871  22.136  1.00  0.00     0.054 A 
BRANCH  76  77
ATOM     77  S   UNL A   1      51.077  28.916  20.971  1.00  0.00     0.124 S 
ATOM     78  O   UNL A   1      52.390  28.996  21.607  1.00  0.00    -0.237 OA
ATOM     79  O   UNL A   1      51.023  28.143  19.733  1.00  0.00    -0.237 OA
ATOM     80  O   UNL A   1      50.325  30.170  20.946  1.00  0.00    -0.744 OA
ENDBRANCH  76  77
ENDBRANCH  57  71
BRANCH  58  81
ATOM     81  C   UNL A   1      44.697  32.452  29.617  1.00  0.00    -0.014 A 
ATOM     82  C   UNL A   1      44.169  32.520  28.318  1.00  0.00     0.010 A 
ATOM     83  C   UNL A   1      44.900  33.673  30.296  1.00  0.00     0.010 A 
ATOM     84  C   UNL A   1      43.959  33.746  27.672  1.00  0.00     0.020 A 
ATOM     85  C   UNL A   1      44.675  34.910  29.664  1.00  0.00     0.020 A 
ATOM     86  C   UNL A   1      44.254  34.936  28.335  1.00  0.00     0.054 A 
BRANCH  86  87
ATOM     87  S   UNL A   1      44.155  36.499  27.413  1.00  0.00     0.124 S 
ATOM     88  O   UNL A   1      43.850  37.456  28.471  1.00  0.00    -0.237 OA
ATOM     89  O   UNL A   1      45.492  36.614  26.832  1.00  0.00    -0.237 OA
ATOM     90  O   UNL A   1      43.083  36.262  26.450  1.00  0.00    -0.744 OA
ENDBRANCH  86  87
ENDBRANCH  58  81
BRANCH  70  91
ATOM     91  C   UNL A   1      49.531  27.182  30.713  1.00  0.00    -0.014 A 
ATOM     92  C   UNL A   1      48.477  26.571  31.395  1.00  0.00     0.010 A 
ATOM     93  C   UNL A   1      50.794  26.974  31.422  1.00  0.00     0.010 A 
ATOM     94  C   UNL A   1      48.708  25.605  32.452  1.00  0.00     0.020 A 
ATOM     95  C   UNL A   1      51.051  26.016  32.441  1.00  0.00     0.020 A 
ATOM     96  C   UNL A   1      50.000  25.245  32.871  1.00  0.00     0.054 A 
BRANCH  96  97
ATOM     97  S   UNL A   1      50.363  23.666  33.733  1.00  0.00     0.124 S 
ATOM     98  O   UNL A   1      50.910  22.815  32.681  1.00  0.00    -0.237 OA
ATOM     99  O   UNL A   1      51.307  24.062  34.775  1.00  0.00    -0.237 OA
ATOM    100  O   UNL A   1      49.046  23.272  34.232  1.00  0.00    -0.744 OA
ENDBRANCH  96  97
ENDBRANCH  70  91
ENDBRANCH  44  45
ENDBRANCH  37  39
ENDBRANCH  36  37
ENDBRANCH  35  36
ENDBRANCH  34  35
ENDBRANCH  33  34
ENDBRANCH   1  33
TORSDOF 22
ENDMDL
