MODEL 1
REMARK VINA RESULT:      -9.8      0.000      0.000
REMARK SMILES COc1ccc(Nc2c(C(=O)OCCOCCOCCOC(=O)c3ccc(-c4c5nc(c(-c6ccc(S(=O)(=O)[O-])cc6)c6ccc([nH]6)c(-c6ccc(S(=O)(=O)[O-])cc6)c6nc(c(-c7ccc(S(=O)(=O)[O-])cc7)c7ccc4[nH]7)C=C6)C=C5)cc3)[nH]c(=O)[nH]c2=O)cc1
REMARK SMILES IDX 16 1 15 2 14 3 13 4 12 5 10 6 11 7 9 8 8 9 88 10 84 11 87 12
REMARK SMILES IDX 89 13 85 14 86 17 7 18 6 20 3 21 4 22 91 23 5 24 90 25 2 26
REMARK SMILES IDX 1 27 17 28 18 29 19 30 20 31 21 32 22 33 23 34 24 35 25 36
REMARK SMILES IDX 83 37 26 38 82 39 27 40 28 41 29 42 76 43 30 44 81 45 75 46
REMARK SMILES IDX 77 47 31 48 80 49 74 50 73 51 32 53 62 54 43 55 61 56 44 57
REMARK SMILES IDX 47 58 60 59 78 60 45 61 46 62 59 64 79 65 48 66 33 67 34 68
REMARK SMILES IDX 42 69 35 70 41 71 36 72 37 73 38 74 39 75 40 76 63 77 64 78
REMARK SMILES IDX 72 79 65 80 71 81 66 82 67 83 68 84 69 85 70 86 49 87 50 88
REMARK SMILES IDX 58 89 51 90 57 91 52 92 53 93 54 94 55 95 56 96
REMARK H PARENT 84 15 87 16 7 19 77 52 47 63
REMARK Flexibility Score: inf
ROOT
ATOM      1  C   UNL A   1      41.786  19.971  25.879  1.00  0.00     0.188 C 
ENDROOT
BRANCH   1   2
ATOM      2  O   UNL A   1      40.396  20.134  26.128  1.00  0.00    -0.376 OA
BRANCH   2   3
ATOM      3  C   UNL A   1      39.834  21.429  26.279  1.00  0.00     0.202 C 
BRANCH   3   4
ATOM      4  C   UNL A   1      38.586  21.831  25.475  1.00  0.00     0.261 C 
BRANCH   4   5
ATOM      5  O   UNL A   1      37.328  21.564  26.119  1.00  0.00    -0.459 OA
BRANCH   5   6
ATOM      6  C   UNL A   1      36.341  22.467  25.879  1.00  0.00     0.357 C 
ATOM      7  O   UNL A   1      36.490  23.675  25.754  1.00  0.00    -0.244 OA
BRANCH   6   8
ATOM      8  C   UNL A   1      35.030  21.813  25.570  1.00  0.00     0.158 A 
ATOM      9  C   UNL A   1      33.824  22.345  25.869  1.00  0.00     0.136 A 
ATOM     10  C   UNL A   1      32.651  21.555  25.318  1.00  0.00     0.278 A 
ATOM     11  N   UNL A   1      35.154  20.547  25.037  1.00  0.00    -0.299 N 
ATOM     12  N   UNL A   1      32.882  20.247  24.999  1.00  0.00    -0.272 N 
ATOM     13  O   UNL A   1      31.542  22.047  25.125  1.00  0.00    -0.267 OA
ATOM     14  C   UNL A   1      34.113  19.704  24.820  1.00  0.00     0.326 A 
ATOM     15  H   UNL A   1      36.057  20.235  24.799  1.00  0.00     0.172 HD
ATOM     16  H   UNL A   1      32.102  19.657  24.890  1.00  0.00     0.175 HD
ATOM     17  O   UNL A   1      34.269  18.540  24.478  1.00  0.00    -0.248 OA
BRANCH   9  18
ATOM     18  N   UNL A   1      33.602  23.536  26.551  1.00  0.00    -0.349 N 
ATOM     19  H   UNL A   1      33.951  23.558  27.471  1.00  0.00     0.167 HD
BRANCH  18  20
ATOM     20  C   UNL A   1      32.954  24.718  26.131  1.00  0.00     0.039 A 
ATOM     21  C   UNL A   1      31.755  27.066  25.109  1.00  0.00     0.119 A 
ATOM     22  C   UNL A   1      31.080  26.277  26.035  1.00  0.00     0.048 A 
ATOM     23  C   UNL A   1      33.045  26.717  24.722  1.00  0.00     0.048 A 
ATOM     24  C   UNL A   1      31.672  25.110  26.533  1.00  0.00     0.030 A 
ATOM     25  C   UNL A   1      33.629  25.547  25.220  1.00  0.00     0.030 A 
BRANCH  21  26
ATOM     26  O   UNL A   1      31.107  28.189  24.673  1.00  0.00    -0.497 OA
ATOM     27  C   UNL A   1      31.969  29.122  24.028  1.00  0.00     0.278 C 
ENDBRANCH  21  26
ENDBRANCH  18  20
ENDBRANCH   9  18
ENDBRANCH   6   8
ENDBRANCH   5   6
ENDBRANCH   4   5
ENDBRANCH   3   4
ENDBRANCH   2   3
ENDBRANCH   1   2
BRANCH   1  28
ATOM     28  C   UNL A   1      42.755  21.145  26.134  1.00  0.00     0.188 C 
BRANCH  28  29
ATOM     29  O   UNL A   1      43.568  21.454  25.029  1.00  0.00    -0.376 OA
BRANCH  29  30
ATOM     30  C   UNL A   1      43.635  22.804  24.601  1.00  0.00     0.202 C 
BRANCH  30  31
ATOM     31  C   UNL A   1      44.208  23.947  25.470  1.00  0.00     0.261 C 
BRANCH  31  32
ATOM     32  O   UNL A   1      43.337  24.607  26.398  1.00  0.00    -0.460 OA
BRANCH  32  33
ATOM     33  C   UNL A   1      42.785  25.783  26.014  1.00  0.00     0.338 C 
ATOM     34  O   UNL A   1      42.509  26.126  24.876  1.00  0.00    -0.246 OA
BRANCH  33  35
ATOM     35  C   UNL A   1      42.403  26.525  27.234  1.00  0.00     0.060 A 
ATOM     36  C   UNL A   1      43.103  27.689  27.583  1.00  0.00     0.016 A 
ATOM     37  C   UNL A   1      41.335  26.086  28.018  1.00  0.00     0.016 A 
ATOM     38  C   UNL A   1      42.721  28.428  28.708  1.00  0.00     0.010 A 
ATOM     39  C   UNL A   1      40.973  26.811  29.157  1.00  0.00     0.010 A 
ATOM     40  C   UNL A   1      41.665  27.984  29.514  1.00  0.00    -0.014 A 
BRANCH  40  41
ATOM     41  C   UNL A   1      41.321  28.675  30.782  1.00  0.00     0.031 A 
ATOM     42  C   UNL A   1      40.176  29.648  30.797  1.00  0.00     0.074 A 
ATOM     43  C   UNL A   1      42.050  28.476  31.896  1.00  0.00     0.049 A 
ATOM     44  N   UNL A   1      39.790  30.460  31.746  1.00  0.00    -0.248 NA
ATOM     45  C   UNL A   1      39.359  29.718  29.574  1.00  0.00     0.031 C 
ATOM     46  C   UNL A   1      43.153  27.525  32.027  1.00  0.00     0.029 A 
ATOM     47  N   UNL A   1      41.984  29.085  33.126  1.00  0.00    -0.354 N 
ATOM     48  C   UNL A   1      38.697  31.149  31.234  1.00  0.00     0.074 A 
ATOM     49  C   UNL A   1      38.494  30.673  29.882  1.00  0.00     0.031 C 
ATOM     50  C   UNL A   1      43.674  27.629  33.262  1.00  0.00     0.029 A 
ATOM     51  C   UNL A   1      42.976  28.687  33.992  1.00  0.00     0.049 A 
ATOM     52  H   UNL A   1      41.292  29.744  33.366  1.00  0.00     0.167 HD
ATOM     53  C   UNL A   1      37.936  32.095  31.834  1.00  0.00     0.031 A 
ATOM     54  C   UNL A   1      43.310  29.149  35.215  1.00  0.00     0.031 A 
ATOM     55  C   UNL A   1      38.158  32.580  33.171  1.00  0.00     0.049 A 
ATOM     56  C   UNL A   1      42.514  30.275  35.823  1.00  0.00     0.074 A 
ATOM     57  C   UNL A   1      37.427  33.522  33.876  1.00  0.00     0.029 A 
ATOM     58  N   UNL A   1      39.195  32.179  34.001  1.00  0.00    -0.354 N 
ATOM     59  N   UNL A   1      41.460  30.893  35.343  1.00  0.00    -0.248 NA
ATOM     60  C   UNL A   1      42.954  30.773  37.134  1.00  0.00     0.031 C 
ATOM     61  C   UNL A   1      38.065  33.742  35.101  1.00  0.00     0.029 A 
ATOM     62  C   UNL A   1      39.152  32.887  35.190  1.00  0.00     0.049 A 
ATOM     63  H   UNL A   1      39.864  31.491  33.776  1.00  0.00     0.167 HD
ATOM     64  C   UNL A   1      41.102  31.837  36.301  1.00  0.00     0.074 A 
ATOM     65  C   UNL A   1      42.038  31.696  37.397  1.00  0.00     0.031 C 
ATOM     66  C   UNL A   1      40.092  32.741  36.274  1.00  0.00     0.031 A 
BRANCH  53  67
ATOM     67  C   UNL A   1      36.815  32.705  31.033  1.00  0.00    -0.014 A 
ATOM     68  C   UNL A   1      35.479  32.309  31.225  1.00  0.00     0.010 A 
ATOM     69  C   UNL A   1      37.099  33.726  30.108  1.00  0.00     0.010 A 
ATOM     70  C   UNL A   1      34.453  32.898  30.480  1.00  0.00     0.020 A 
ATOM     71  C   UNL A   1      36.073  34.339  29.382  1.00  0.00     0.020 A 
ATOM     72  C   UNL A   1      34.757  33.910  29.563  1.00  0.00     0.054 A 
BRANCH  72  73
ATOM     73  S   UNL A   1      33.402  34.671  28.629  1.00  0.00     0.124 S 
ATOM     74  O   UNL A   1      32.484  35.066  29.695  1.00  0.00    -0.237 OA
ATOM     75  O   UNL A   1      34.071  35.771  27.937  1.00  0.00    -0.237 OA
ATOM     76  O   UNL A   1      32.926  33.594  27.766  1.00  0.00    -0.744 OA
ENDBRANCH  72  73
ENDBRANCH  53  67
BRANCH  54  77
ATOM     77  C   UNL A   1      44.484  28.576  35.933  1.00  0.00    -0.014 A 
ATOM     78  C   UNL A   1      44.326  27.502  36.825  1.00  0.00     0.010 A 
ATOM     79  C   UNL A   1      45.771  29.110  35.731  1.00  0.00     0.010 A 
ATOM     80  C   UNL A   1      45.430  26.978  37.508  1.00  0.00     0.020 A 
ATOM     81  C   UNL A   1      46.881  28.569  36.387  1.00  0.00     0.020 A 
ATOM     82  C   UNL A   1      46.702  27.512  37.280  1.00  0.00     0.054 A 
BRANCH  82  83
ATOM     83  S   UNL A   1      48.125  26.778  38.133  1.00  0.00     0.124 S 
ATOM     84  O   UNL A   1      49.240  27.229  37.307  1.00  0.00    -0.237 OA
ATOM     85  O   UNL A   1      48.039  27.379  39.462  1.00  0.00    -0.237 OA
ATOM     86  O   UNL A   1      47.852  25.344  38.086  1.00  0.00    -0.744 OA
ENDBRANCH  82  83
ENDBRANCH  54  77
BRANCH  66  87
ATOM     87  C   UNL A   1      39.924  33.648  37.466  1.00  0.00    -0.014 A 
ATOM     88  C   UNL A   1      40.362  34.984  37.428  1.00  0.00     0.010 A 
ATOM     89  C   UNL A   1      39.238  33.187  38.604  1.00  0.00     0.010 A 
ATOM     90  C   UNL A   1      40.125  35.838  38.509  1.00  0.00     0.020 A 
ATOM     91  C   UNL A   1      38.973  34.046  39.675  1.00  0.00     0.020 A 
ATOM     92  C   UNL A   1      39.424  35.366  39.623  1.00  0.00     0.054 A 
BRANCH  92  93
ATOM     93  S   UNL A   1      39.060  36.519  40.975  1.00  0.00     0.124 S 
ATOM     94  O   UNL A   1      38.048  35.790  41.735  1.00  0.00    -0.237 OA
ATOM     95  O   UNL A   1      40.357  36.660  41.631  1.00  0.00    -0.237 OA
ATOM     96  O   UNL A   1      38.580  37.718  40.291  1.00  0.00    -0.744 OA
ENDBRANCH  92  93
ENDBRANCH  66  87
ENDBRANCH  40  41
ENDBRANCH  33  35
ENDBRANCH  32  33
ENDBRANCH  31  32
ENDBRANCH  30  31
ENDBRANCH  29  30
ENDBRANCH  28  29
ENDBRANCH   1  28
TORSDOF 23
ENDMDL
MODEL 2
REMARK VINA RESULT:      -8.7      4.322     12.361
REMARK SMILES COc1ccc(Nc2c(C(=O)OCCOCCOCCOC(=O)c3ccc(-c4c5nc(c(-c6ccc(S(=O)(=O)[O-])cc6)c6ccc([nH]6)c(-c6ccc(S(=O)(=O)[O-])cc6)c6nc(c(-c7ccc(S(=O)(=O)[O-])cc7)c7ccc4[nH]7)C=C6)C=C5)cc3)[nH]c(=O)[nH]c2=O)cc1
REMARK SMILES IDX 16 1 15 2 14 3 13 4 12 5 10 6 11 7 9 8 8 9 88 10 84 11 87 12
REMARK SMILES IDX 89 13 85 14 86 17 7 18 6 20 3 21 4 22 91 23 5 24 90 25 2 26
REMARK SMILES IDX 1 27 17 28 18 29 19 30 20 31 21 32 22 33 23 34 24 35 25 36
REMARK SMILES IDX 83 37 26 38 82 39 27 40 28 41 29 42 76 43 30 44 81 45 75 46
REMARK SMILES IDX 77 47 31 48 80 49 74 50 73 51 32 53 62 54 43 55 61 56 44 57
REMARK SMILES IDX 47 58 60 59 78 60 45 61 46 62 59 64 79 65 48 66 33 67 34 68
REMARK SMILES IDX 42 69 35 70 41 71 36 72 37 73 38 74 39 75 40 76 63 77 64 78
REMARK SMILES IDX 72 79 65 80 71 81 66 82 67 83 68 84 69 85 70 86 49 87 50 88
REMARK SMILES IDX 58 89 51 90 57 91 52 92 53 93 54 94 55 95 56 96
REMARK H PARENT 84 15 87 16 7 19 77 52 47 63
REMARK Flexibility Score: inf
ROOT
ATOM      1  C   UNL A   1      44.158  24.138  30.744  1.00  0.00     0.188 C 
ENDROOT
BRANCH   1   2
ATOM      2  O   UNL A   1      43.892  23.691  32.067  1.00  0.00    -0.376 OA
BRANCH   2   3
ATOM      3  C   UNL A   1      44.955  23.433  32.972  1.00  0.00     0.202 C 
BRANCH   3   4
ATOM      4  C   UNL A   1      44.751  22.470  34.154  1.00  0.00     0.261 C 
BRANCH   4   5
ATOM      5  O   UNL A   1      45.851  21.583  34.421  1.00  0.00    -0.459 OA
BRANCH   5   6
ATOM      6  C   UNL A   1      46.654  21.937  35.458  1.00  0.00     0.357 C 
ATOM      7  O   UNL A   1      47.076  23.062  35.685  1.00  0.00    -0.244 OA
BRANCH   6   8
ATOM      8  C   UNL A   1      46.826  20.831  36.453  1.00  0.00     0.158 A 
ATOM      9  C   UNL A   1      47.971  20.583  37.126  1.00  0.00     0.136 A 
ATOM     10  C   UNL A   1      47.840  19.501  38.182  1.00  0.00     0.278 A 
ATOM     11  N   UNL A   1      45.729  20.001  36.553  1.00  0.00    -0.299 N 
ATOM     12  N   UNL A   1      46.796  18.631  38.050  1.00  0.00    -0.272 N 
ATOM     13  O   UNL A   1      48.600  19.405  39.143  1.00  0.00    -0.267 OA
ATOM     14  C   UNL A   1      45.706  18.849  37.270  1.00  0.00     0.326 A 
ATOM     15  H   UNL A   1      44.910  20.261  36.073  1.00  0.00     0.172 HD
ATOM     16  H   UNL A   1      46.835  17.787  38.555  1.00  0.00     0.175 HD
ATOM     17  O   UNL A   1      44.768  18.065  37.227  1.00  0.00    -0.248 OA
BRANCH   9  18
ATOM     18  N   UNL A   1      49.174  21.262  36.971  1.00  0.00    -0.349 N 
ATOM     19  H   UNL A   1      49.294  22.035  37.570  1.00  0.00     0.167 HD
BRANCH  18  20
ATOM     20  C   UNL A   1      50.251  21.017  36.092  1.00  0.00     0.039 A 
ATOM     21  C   UNL A   1      52.269  20.483  34.184  1.00  0.00     0.119 A 
ATOM     22  C   UNL A   1      52.483  21.417  35.192  1.00  0.00     0.048 A 
ATOM     23  C   UNL A   1      51.070  19.779  34.147  1.00  0.00     0.048 A 
ATOM     24  C   UNL A   1      51.479  21.687  36.131  1.00  0.00     0.030 A 
ATOM     25  C   UNL A   1      50.069  20.056  35.085  1.00  0.00     0.030 A 
BRANCH  21  26
ATOM     26  O   UNL A   1      53.299  20.279  33.309  1.00  0.00    -0.497 OA
ATOM     27  C   UNL A   1      53.788  18.941  33.316  1.00  0.00     0.278 C 
ENDBRANCH  21  26
ENDBRANCH  18  20
ENDBRANCH   9  18
ENDBRANCH   6   8
ENDBRANCH   5   6
ENDBRANCH   4   5
ENDBRANCH   3   4
ENDBRANCH   2   3
ENDBRANCH   1   2
BRANCH   1  28
ATOM     28  C   UNL A   1      43.991  23.167  29.555  1.00  0.00     0.188 C 
BRANCH  28  29
ATOM     29  O   UNL A   1      42.654  22.823  29.293  1.00  0.00    -0.376 OA
BRANCH  29  30
ATOM     30  C   UNL A   1      42.370  22.076  28.122  1.00  0.00     0.202 C 
BRANCH  30  31
ATOM     31  C   UNL A   1      42.327  22.692  26.705  1.00  0.00     0.261 C 
BRANCH  31  32
ATOM     32  O   UNL A   1      41.545  23.876  26.494  1.00  0.00    -0.460 OA
BRANCH  32  33
ATOM     33  C   UNL A   1      42.204  25.018  26.187  1.00  0.00     0.338 C 
ATOM     34  O   UNL A   1      42.732  25.296  25.122  1.00  0.00    -0.246 OA
BRANCH  33  35
ATOM     35  C   UNL A   1      42.028  25.962  27.311  1.00  0.00     0.060 A 
ATOM     36  C   UNL A   1      41.000  25.747  28.240  1.00  0.00     0.016 A 
ATOM     37  C   UNL A   1      42.898  27.043  27.462  1.00  0.00     0.016 A 
ATOM     38  C   UNL A   1      40.851  26.605  29.335  1.00  0.00     0.010 A 
ATOM     39  C   UNL A   1      42.730  27.915  28.543  1.00  0.00     0.010 A 
ATOM     40  C   UNL A   1      41.705  27.706  29.484  1.00  0.00    -0.014 A 
BRANCH  40  41
ATOM     41  C   UNL A   1      41.491  28.704  30.562  1.00  0.00     0.031 A 
ATOM     42  C   UNL A   1      42.325  28.621  31.810  1.00  0.00     0.074 A 
ATOM     43  C   UNL A   1      40.533  29.644  30.454  1.00  0.00     0.049 A 
ATOM     44  N   UNL A   1      42.216  29.294  32.926  1.00  0.00    -0.248 NA
ATOM     45  C   UNL A   1      43.426  27.644  31.799  1.00  0.00     0.031 C 
ATOM     46  C   UNL A   1      39.691  29.861  29.278  1.00  0.00     0.029 A 
ATOM     47  N   UNL A   1      40.093  30.578  31.360  1.00  0.00    -0.354 N 
ATOM     48  C   UNL A   1      43.222  28.814  33.757  1.00  0.00     0.074 A 
ATOM     49  C   UNL A   1      43.918  27.779  33.022  1.00  0.00     0.031 C 
ATOM     50  C   UNL A   1      38.821  30.851  29.543  1.00  0.00     0.029 A 
ATOM     51  C   UNL A   1      39.010  31.304  30.921  1.00  0.00     0.049 A 
ATOM     52  H   UNL A   1      40.513  30.715  32.241  1.00  0.00     0.167 HD
ATOM     53  C   UNL A   1      43.533  29.199  35.017  1.00  0.00     0.031 A 
ATOM     54  C   UNL A   1      38.234  32.199  31.567  1.00  0.00     0.031 A 
ATOM     55  C   UNL A   1      42.823  30.214  35.750  1.00  0.00     0.049 A 
ATOM     56  C   UNL A   1      38.535  32.536  33.005  1.00  0.00     0.074 A 
ATOM     57  C   UNL A   1      43.077  30.690  37.026  1.00  0.00     0.029 A 
ATOM     58  N   UNL A   1      41.710  30.898  35.284  1.00  0.00    -0.354 N 
ATOM     59  N   UNL A   1      39.511  32.102  33.768  1.00  0.00    -0.248 NA
ATOM     60  C   UNL A   1      37.626  33.478  33.674  1.00  0.00     0.031 C 
ATOM     61  C   UNL A   1      42.075  31.606  37.357  1.00  0.00     0.029 A 
ATOM     62  C   UNL A   1      41.237  31.756  36.263  1.00  0.00     0.049 A 
ATOM     63  H   UNL A   1      41.314  30.789  34.388  1.00  0.00     0.167 HD
ATOM     64  C   UNL A   1      39.343  32.732  34.998  1.00  0.00     0.074 A 
ATOM     65  C   UNL A   1      38.186  33.593  34.872  1.00  0.00     0.031 C 
ATOM     66  C   UNL A   1      40.080  32.607  36.129  1.00  0.00     0.031 A 
BRANCH  53  67
ATOM     67  C   UNL A   1      44.669  28.486  35.707  1.00  0.00    -0.014 A 
ATOM     68  C   UNL A   1      46.000  28.915  35.557  1.00  0.00     0.010 A 
ATOM     69  C   UNL A   1      44.391  27.401  36.558  1.00  0.00     0.010 A 
ATOM     70  C   UNL A   1      47.036  28.248  36.217  1.00  0.00     0.020 A 
ATOM     71  C   UNL A   1      45.421  26.749  37.244  1.00  0.00     0.020 A 
ATOM     72  C   UNL A   1      46.739  27.169  37.056  1.00  0.00     0.054 A 
BRANCH  72  73
ATOM     73  S   UNL A   1      48.102  26.338  37.918  1.00  0.00     0.124 S 
ATOM     74  O   UNL A   1      49.157  26.361  36.908  1.00  0.00    -0.237 OA
ATOM     75  O   UNL A   1      48.322  27.203  39.075  1.00  0.00    -0.237 OA
ATOM     76  O   UNL A   1      47.565  25.016  38.226  1.00  0.00    -0.744 OA
ENDBRANCH  72  73
ENDBRANCH  53  67
BRANCH  54  77
ATOM     77  C   UNL A   1      37.066  32.811  30.873  1.00  0.00    -0.014 A 
ATOM     78  C   UNL A   1      35.754  32.433  31.205  1.00  0.00     0.010 A 
ATOM     79  C   UNL A   1      37.262  33.778  29.867  1.00  0.00     0.010 A 
ATOM     80  C   UNL A   1      34.662  33.000  30.539  1.00  0.00     0.020 A 
ATOM     81  C   UNL A   1      36.173  34.370  29.222  1.00  0.00     0.020 A 
ATOM     82  C   UNL A   1      34.878  33.970  29.555  1.00  0.00     0.054 A 
BRANCH  82  83
ATOM     83  S   UNL A   1      33.444  34.732  28.747  1.00  0.00     0.124 S 
ATOM     84  O   UNL A   1      34.017  35.963  28.210  1.00  0.00    -0.237 OA
ATOM     85  O   UNL A   1      33.069  33.726  27.757  1.00  0.00    -0.237 OA
ATOM     86  O   UNL A   1      32.489  34.911  29.838  1.00  0.00    -0.744 OA
ENDBRANCH  82  83
ENDBRANCH  54  77
BRANCH  66  87
ATOM     87  C   UNL A   1      39.676  33.425  37.329  1.00  0.00    -0.014 A 
ATOM     88  C   UNL A   1      38.806  32.903  38.302  1.00  0.00     0.010 A 
ATOM     89  C   UNL A   1      40.246  34.695  37.533  1.00  0.00     0.010 A 
ATOM     90  C   UNL A   1      38.505  33.641  39.451  1.00  0.00     0.020 A 
ATOM     91  C   UNL A   1      39.972  35.423  38.694  1.00  0.00     0.020 A 
ATOM     92  C   UNL A   1      39.098  34.892  39.645  1.00  0.00     0.054 A 
BRANCH  92  93
ATOM     93  S   UNL A   1      38.754  35.790  41.184  1.00  0.00     0.124 S 
ATOM     94  O   UNL A   1      37.530  35.142  41.648  1.00  0.00    -0.237 OA
ATOM     95  O   UNL A   1      39.948  35.523  41.981  1.00  0.00    -0.237 OA
ATOM     96  O   UNL A   1      38.598  37.176  40.750  1.00  0.00    -0.744 OA
ENDBRANCH  92  93
ENDBRANCH  66  87
ENDBRANCH  40  41
ENDBRANCH  33  35
ENDBRANCH  32  33
ENDBRANCH  31  32
ENDBRANCH  30  31
ENDBRANCH  29  30
ENDBRANCH  28  29
ENDBRANCH   1  28
TORSDOF 23
ENDMDL
MODEL 3
REMARK VINA RESULT:      -8.4      5.490     11.261
REMARK SMILES COc1ccc(Nc2c(C(=O)OCCOCCOCCOC(=O)c3ccc(-c4c5nc(c(-c6ccc(S(=O)(=O)[O-])cc6)c6ccc([nH]6)c(-c6ccc(S(=O)(=O)[O-])cc6)c6nc(c(-c7ccc(S(=O)(=O)[O-])cc7)c7ccc4[nH]7)C=C6)C=C5)cc3)[nH]c(=O)[nH]c2=O)cc1
REMARK SMILES IDX 16 1 15 2 14 3 13 4 12 5 10 6 11 7 9 8 8 9 88 10 84 11 87 12
REMARK SMILES IDX 89 13 85 14 86 17 7 18 6 20 3 21 4 22 91 23 5 24 90 25 2 26
REMARK SMILES IDX 1 27 17 28 18 29 19 30 20 31 21 32 22 33 23 34 24 35 25 36
REMARK SMILES IDX 83 37 26 38 82 39 27 40 28 41 29 42 76 43 30 44 81 45 75 46
REMARK SMILES IDX 77 47 31 48 80 49 74 50 73 51 32 53 62 54 43 55 61 56 44 57
REMARK SMILES IDX 47 58 60 59 78 60 45 61 46 62 59 64 79 65 48 66 33 67 34 68
REMARK SMILES IDX 42 69 35 70 41 71 36 72 37 73 38 74 39 75 40 76 63 77 64 78
REMARK SMILES IDX 72 79 65 80 71 81 66 82 67 83 68 84 69 85 70 86 49 87 50 88
REMARK SMILES IDX 58 89 51 90 57 91 52 92 53 93 54 94 55 95 56 96
REMARK H PARENT 84 15 87 16 7 19 77 52 47 63
REMARK Flexibility Score: inf
ROOT
ATOM      1  C   UNL A   1      35.045  30.175  27.133  1.00  0.00     0.188 C 
ENDROOT
BRANCH   1   2
ATOM      2  O   UNL A   1      34.403  28.909  27.214  1.00  0.00    -0.376 OA
BRANCH   2   3
ATOM      3  C   UNL A   1      33.501  28.489  26.201  1.00  0.00     0.202 C 
BRANCH   3   4
ATOM      4  C   UNL A   1      34.017  27.719  24.973  1.00  0.00     0.261 C 
BRANCH   4   5
ATOM      5  O   UNL A   1      33.001  27.110  24.157  1.00  0.00    -0.459 OA
BRANCH   5   6
ATOM      6  C   UNL A   1      32.980  25.752  24.159  1.00  0.00     0.357 C 
ATOM      7  O   UNL A   1      33.839  25.021  23.686  1.00  0.00    -0.244 OA
BRANCH   6   8
ATOM      8  C   UNL A   1      31.870  25.198  24.999  1.00  0.00     0.158 A 
ATOM      9  C   UNL A   1      31.959  24.062  25.726  1.00  0.00     0.136 A 
ATOM     10  C   UNL A   1      30.749  23.800  26.604  1.00  0.00     0.278 A 
ATOM     11  N   UNL A   1      30.688  25.900  24.888  1.00  0.00    -0.299 N 
ATOM     12  N   UNL A   1      29.588  24.431  26.261  1.00  0.00    -0.272 N 
ATOM     13  O   UNL A   1      30.787  23.084  27.602  1.00  0.00    -0.267 OA
ATOM     14  C   UNL A   1      29.510  25.502  25.431  1.00  0.00     0.326 A 
ATOM     15  H   UNL A   1      30.701  26.745  24.381  1.00  0.00     0.172 HD
ATOM     16  H   UNL A   1      28.749  24.087  26.644  1.00  0.00     0.175 HD
ATOM     17  O   UNL A   1      28.452  26.071  25.197  1.00  0.00    -0.248 OA
BRANCH   9  18
ATOM     18  N   UNL A   1      33.051  23.203  25.771  1.00  0.00    -0.349 N 
ATOM     19  H   UNL A   1      33.849  23.571  26.215  1.00  0.00     0.167 HD
BRANCH  18  20
ATOM     20  C   UNL A   1      33.196  21.888  25.281  1.00  0.00     0.039 A 
ATOM     21  C   UNL A   1      33.406  19.318  24.119  1.00  0.00     0.119 A 
ATOM     22  C   UNL A   1      34.314  19.728  25.091  1.00  0.00     0.048 A 
ATOM     23  C   UNL A   1      32.365  20.165  23.754  1.00  0.00     0.048 A 
ATOM     24  C   UNL A   1      34.213  21.005  25.658  1.00  0.00     0.030 A 
ATOM     25  C   UNL A   1      32.272  21.441  24.322  1.00  0.00     0.030 A 
BRANCH  21  26
ATOM     26  O   UNL A   1      33.575  18.058  23.616  1.00  0.00    -0.497 OA
ATOM     27  C   UNL A   1      34.476  17.262  24.380  1.00  0.00     0.278 C 
ENDBRANCH  21  26
ENDBRANCH  18  20
ENDBRANCH   9  18
ENDBRANCH   6   8
ENDBRANCH   5   6
ENDBRANCH   4   5
ENDBRANCH   3   4
ENDBRANCH   2   3
ENDBRANCH   1   2
BRANCH   1  28
ATOM     28  C   UNL A   1      34.911  31.180  28.297  1.00  0.00     0.188 C 
BRANCH  28  29
ATOM     29  O   UNL A   1      34.994  32.524  27.893  1.00  0.00    -0.376 OA
BRANCH  29  30
ATOM     30  C   UNL A   1      34.230  33.486  28.600  1.00  0.00     0.202 C 
BRANCH  30  31
ATOM     31  C   UNL A   1      34.345  33.716  30.124  1.00  0.00     0.261 C 
BRANCH  31  32
ATOM     32  O   UNL A   1      35.649  33.733  30.720  1.00  0.00    -0.460 OA
BRANCH  32  33
ATOM     33  C   UNL A   1      35.945  32.759  31.612  1.00  0.00     0.338 C 
ATOM     34  O   UNL A   1      35.216  32.318  32.486  1.00  0.00    -0.246 OA
BRANCH  33  35
ATOM     35  C   UNL A   1      37.255  32.184  31.240  1.00  0.00     0.060 A 
ATOM     36  C   UNL A   1      37.936  31.363  32.150  1.00  0.00     0.016 A 
ATOM     37  C   UNL A   1      37.798  32.434  29.978  1.00  0.00     0.016 A 
ATOM     38  C   UNL A   1      39.153  30.774  31.793  1.00  0.00     0.010 A 
ATOM     39  C   UNL A   1      39.029  31.866  29.633  1.00  0.00     0.010 A 
ATOM     40  C   UNL A   1      39.717  31.037  30.538  1.00  0.00    -0.014 A 
BRANCH  40  41
ATOM     41  C   UNL A   1      41.066  30.531  30.180  1.00  0.00     0.031 A 
ATOM     42  C   UNL A   1      42.233  31.478  30.209  1.00  0.00     0.074 A 
ATOM     43  C   UNL A   1      41.244  29.256  29.787  1.00  0.00     0.049 A 
ATOM     44  N   UNL A   1      43.462  31.291  29.805  1.00  0.00    -0.248 NA
ATOM     45  C   UNL A   1      41.976  32.818  30.762  1.00  0.00     0.031 C 
ATOM     46  C   UNL A   1      40.206  28.226  29.762  1.00  0.00     0.029 A 
ATOM     47  N   UNL A   1      42.362  28.616  29.309  1.00  0.00    -0.354 N 
ATOM     48  C   UNL A   1      44.124  32.491  30.040  1.00  0.00     0.074 A 
ATOM     49  C   UNL A   1      43.153  33.405  30.603  1.00  0.00     0.031 C 
ATOM     50  C   UNL A   1      40.732  27.089  29.273  1.00  0.00     0.029 A 
ATOM     51  C   UNL A   1      42.128  27.323  28.905  1.00  0.00     0.049 A 
ATOM     52  H   UNL A   1      43.249  29.044  29.261  1.00  0.00     0.167 HD
ATOM     53  C   UNL A   1      45.420  32.802  29.803  1.00  0.00     0.031 A 
ATOM     54  C   UNL A   1      42.931  26.442  28.273  1.00  0.00     0.031 A 
ATOM     55  C   UNL A   1      46.375  31.895  29.222  1.00  0.00     0.049 A 
ATOM     56  C   UNL A   1      44.341  26.846  27.924  1.00  0.00     0.074 A 
ATOM     57  C   UNL A   1      47.718  32.110  28.964  1.00  0.00     0.029 A 
ATOM     58  N   UNL A   1      46.089  30.608  28.792  1.00  0.00    -0.354 N 
ATOM     59  N   UNL A   1      44.965  27.971  28.184  1.00  0.00    -0.248 NA
ATOM     60  C   UNL A   1      45.154  25.865  27.190  1.00  0.00     0.031 C 
ATOM     61  C   UNL A   1      48.224  30.982  28.311  1.00  0.00     0.029 A 
ATOM     62  C   UNL A   1      47.215  30.035  28.227  1.00  0.00     0.049 A 
ATOM     63  H   UNL A   1      45.211  30.166  28.876  1.00  0.00     0.167 HD
ATOM     64  C   UNL A   1      46.247  27.824  27.663  1.00  0.00     0.074 A 
ATOM     65  C   UNL A   1      46.318  26.496  27.091  1.00  0.00     0.031 C 
ATOM     66  C   UNL A   1      47.273  28.711  27.657  1.00  0.00     0.031 A 
BRANCH  53  67
ATOM     67  C   UNL A   1      45.877  34.201  30.132  1.00  0.00    -0.014 A 
ATOM     68  C   UNL A   1      45.781  35.241  29.191  1.00  0.00     0.010 A 
ATOM     69  C   UNL A   1      46.364  34.486  31.420  1.00  0.00     0.010 A 
ATOM     70  C   UNL A   1      46.197  36.534  29.521  1.00  0.00     0.020 A 
ATOM     71  C   UNL A   1      46.754  35.784  31.764  1.00  0.00     0.020 A 
ATOM     72  C   UNL A   1      46.681  36.797  30.807  1.00  0.00     0.054 A 
BRANCH  72  73
ATOM     73  S   UNL A   1      47.192  38.489  31.213  1.00  0.00     0.124 S 
ATOM     74  O   UNL A   1      48.392  38.259  32.014  1.00  0.00    -0.237 OA
ATOM     75  O   UNL A   1      47.421  39.078  29.895  1.00  0.00    -0.237 OA
ATOM     76  O   UNL A   1      46.051  39.031  31.945  1.00  0.00    -0.744 OA
ENDBRANCH  72  73
ENDBRANCH  53  67
BRANCH  54  77
ATOM     77  C   UNL A   1      42.408  25.101  27.886  1.00  0.00    -0.014 A 
ATOM     78  C   UNL A   1      41.945  24.859  26.582  1.00  0.00     0.010 A 
ATOM     79  C   UNL A   1      42.368  24.055  28.828  1.00  0.00     0.010 A 
ATOM     80  C   UNL A   1      41.441  23.602  26.228  1.00  0.00     0.020 A 
ATOM     81  C   UNL A   1      41.895  22.788  28.470  1.00  0.00     0.020 A 
ATOM     82  C   UNL A   1      41.425  22.573  27.174  1.00  0.00     0.054 A 
BRANCH  82  83
ATOM     83  S   UNL A   1      40.821  20.936  26.676  1.00  0.00     0.124 S 
ATOM     84  O   UNL A   1      40.703  20.252  27.960  1.00  0.00    -0.237 OA
ATOM     85  O   UNL A   1      39.560  21.255  26.012  1.00  0.00    -0.237 OA
ATOM     86  O   UNL A   1      41.873  20.435  25.795  1.00  0.00    -0.744 OA
ENDBRANCH  82  83
ENDBRANCH  54  77
BRANCH  66  87
ATOM     87  C   UNL A   1      48.573  28.283  27.024  1.00  0.00    -0.014 A 
ATOM     88  C   UNL A   1      48.675  28.090  25.635  1.00  0.00     0.010 A 
ATOM     89  C   UNL A   1      49.729  28.162  27.817  1.00  0.00     0.010 A 
ATOM     90  C   UNL A   1      49.906  27.774  25.053  1.00  0.00     0.020 A 
ATOM     91  C   UNL A   1      50.967  27.875  27.236  1.00  0.00     0.020 A 
ATOM     92  C   UNL A   1      51.047  27.678  25.856  1.00  0.00     0.054 A 
BRANCH  92  93
ATOM     93  S   UNL A   1      52.645  27.348  25.062  1.00  0.00     0.124 S 
ATOM     94  O   UNL A   1      53.091  28.692  24.704  1.00  0.00    -0.237 OA
ATOM     95  O   UNL A   1      53.402  26.698  26.128  1.00  0.00    -0.237 OA
ATOM     96  O   UNL A   1      52.301  26.486  23.934  1.00  0.00    -0.744 OA
ENDBRANCH  92  93
ENDBRANCH  66  87
ENDBRANCH  40  41
ENDBRANCH  33  35
ENDBRANCH  32  33
ENDBRANCH  31  32
ENDBRANCH  30  31
ENDBRANCH  29  30
ENDBRANCH  28  29
ENDBRANCH   1  28
TORSDOF 23
ENDMDL
