MODEL 1
REMARK VINA RESULT:     -10.3      0.000      0.000
REMARK SMILES COC(=O)c1ccccc1N(C)S(=O)(=O)c1c[nH]c(C(=O)OCCOCCOCCOC(=O)c2ccc(-c3c4nc(c(-c5ccc(S(=O)(=O)[O-])cc5)c5ccc([nH]5)c(-c5ccc(S(=O)(=O)[O-])cc5)c5nc(c(-c6ccc(S(=O)(=O)[O-])cc6)c6ccc3[nH]6)C=C5)C=C4)cc2)c1
REMARK SMILES IDX 26 1 25 2 24 3 23 4 22 5 20 6 21 7 19 8 16 9 17 10 94 11
REMARK SMILES IDX 18 12 13 14 14 15 15 16 11 17 12 18 10 19 5 20 6 21 7 22
REMARK SMILES IDX 9 23 8 24 3 25 4 26 2 27 1 28 27 29 28 30 29 31 30 32 31 33
REMARK SMILES IDX 32 34 33 35 34 36 35 37 93 38 36 39 92 40 37 41 38 42 39 43
REMARK SMILES IDX 86 44 40 45 91 46 85 47 87 48 41 49 90 50 84 51 83 52 42 54
REMARK SMILES IDX 72 55 53 56 71 57 54 58 57 59 70 60 88 61 55 62 56 63 69 65
REMARK SMILES IDX 89 66 58 67 43 68 44 69 52 70 45 71 51 72 46 73 47 74 48 75
REMARK SMILES IDX 49 76 50 77 73 78 74 79 82 80 75 81 81 82 76 83 77 84 78 85
REMARK SMILES IDX 79 86 80 87 59 88 60 89 68 90 61 91 67 92 62 93 63 94 64 95
REMARK SMILES IDX 65 96 66 97
REMARK H PARENT 18 13 87 53 57 64
REMARK Flexibility Score: inf
ROOT
ATOM      1  C   UNL A   1      31.948  32.268  26.865  1.00  0.00     0.188 C 
ENDROOT
BRANCH   1   2
ATOM      2  O   UNL A   1      31.432  31.259  26.004  1.00  0.00    -0.376 OA
BRANCH   2   3
ATOM      3  C   UNL A   1      32.188  30.103  25.682  1.00  0.00     0.202 C 
BRANCH   3   4
ATOM      4  C   UNL A   1      31.982  29.386  24.334  1.00  0.00     0.261 C 
BRANCH   4   5
ATOM      5  O   UNL A   1      30.688  28.822  24.097  1.00  0.00    -0.459 OA
BRANCH   5   6
ATOM      6  C   UNL A   1      30.490  28.280  22.871  1.00  0.00     0.354 C 
ATOM      7  O   UNL A   1      29.762  28.733  21.992  1.00  0.00    -0.244 OA
BRANCH   6   8
ATOM      8  C   UNL A   1      31.385  27.166  22.680  1.00  0.00     0.126 A 
ATOM      9  C   UNL A   1      32.518  25.206  22.749  1.00  0.00     0.106 A 
ATOM     10  C   UNL A   1      33.149  26.030  21.841  1.00  0.00     0.105 A 
ATOM     11  C   UNL A   1      31.474  25.959  23.350  1.00  0.00     0.057 A 
ATOM     12  N   UNL A   1      32.411  27.184  21.757  1.00  0.00    -0.354 N 
ATOM     13  H   UNL A   1      32.587  27.919  21.127  1.00  0.00     0.166 HD
BRANCH   9  14
ATOM     14  S   UNL A   1      32.849  23.548  23.140  1.00  0.00     0.265 S 
ATOM     15  O   UNL A   1      33.831  23.208  22.129  1.00  0.00    -0.201 OA
ATOM     16  O   UNL A   1      31.532  22.961  23.196  1.00  0.00    -0.201 OA
BRANCH  14  17
ATOM     17  N   UNL A   1      33.627  23.384  24.678  1.00  0.00    -0.268 N 
ATOM     18  C   UNL A   1      33.685  24.710  25.366  1.00  0.00     0.164 C 
BRANCH  17  19
ATOM     19  C   UNL A   1      34.837  22.505  24.739  1.00  0.00     0.066 A 
ATOM     20  C   UNL A   1      34.894  21.098  24.925  1.00  0.00     0.084 A 
ATOM     21  C   UNL A   1      36.131  20.410  25.015  1.00  0.00     0.018 A 
ATOM     22  C   UNL A   1      37.340  21.088  24.972  1.00  0.00     0.001 A 
ATOM     23  C   UNL A   1      36.099  23.149  24.810  1.00  0.00     0.028 A 
ATOM     24  C   UNL A   1      37.322  22.466  24.888  1.00  0.00     0.002 A 
BRANCH  20  25
ATOM     25  C   UNL A   1      33.767  20.174  25.142  1.00  0.00     0.340 C 
ATOM     26  O   UNL A   1      33.316  19.922  26.246  1.00  0.00    -0.246 OA
BRANCH  25  27
ATOM     27  O   UNL A   1      33.487  19.552  23.976  1.00  0.00    -0.465 OA
ATOM     28  C   UNL A   1      32.912  18.245  24.099  1.00  0.00     0.282 C 
ENDBRANCH  25  27
ENDBRANCH  20  25
ENDBRANCH  17  19
ENDBRANCH  14  17
ENDBRANCH   9  14
ENDBRANCH   6   8
ENDBRANCH   5   6
ENDBRANCH   4   5
ENDBRANCH   3   4
ENDBRANCH   2   3
ENDBRANCH   1   2
BRANCH   1  29
ATOM     29  C   UNL A   1      33.250  32.076  27.672  1.00  0.00     0.188 C 
BRANCH  29  30
ATOM     30  O   UNL A   1      34.261  33.025  27.391  1.00  0.00    -0.376 OA
BRANCH  30  31
ATOM     31  C   UNL A   1      34.297  34.224  28.151  1.00  0.00     0.202 C 
BRANCH  31  32
ATOM     32  C   UNL A   1      34.454  34.138  29.673  1.00  0.00     0.261 C 
BRANCH  32  33
ATOM     33  O   UNL A   1      35.573  33.403  30.148  1.00  0.00    -0.460 OA
BRANCH  33  34
ATOM     34  C   UNL A   1      35.217  32.321  30.863  1.00  0.00     0.338 C 
ATOM     35  O   UNL A   1      34.374  32.252  31.742  1.00  0.00    -0.246 OA
BRANCH  34  36
ATOM     36  C   UNL A   1      36.091  31.210  30.530  1.00  0.00     0.060 A 
ATOM     37  C   UNL A   1      36.601  30.483  31.608  1.00  0.00     0.016 A 
ATOM     38  C   UNL A   1      36.735  31.314  29.293  1.00  0.00     0.016 A 
ATOM     39  C   UNL A   1      37.896  30.034  31.514  1.00  0.00     0.010 A 
ATOM     40  C   UNL A   1      38.048  30.921  29.224  1.00  0.00     0.010 A 
ATOM     41  C   UNL A   1      38.626  30.326  30.352  1.00  0.00    -0.014 A 
BRANCH  41  42
ATOM     42  C   UNL A   1      39.970  29.765  30.247  1.00  0.00     0.031 A 
ATOM     43  C   UNL A   1      40.981  30.884  30.601  1.00  0.00     0.074 A 
ATOM     44  C   UNL A   1      40.032  28.462  29.814  1.00  0.00     0.049 A 
ATOM     45  N   UNL A   1      42.227  30.993  30.283  1.00  0.00    -0.248 NA
ATOM     46  C   UNL A   1      40.541  32.099  31.367  1.00  0.00     0.031 C 
ATOM     47  C   UNL A   1      38.865  27.561  29.589  1.00  0.00     0.029 A 
ATOM     48  N   UNL A   1      41.062  27.612  29.472  1.00  0.00    -0.354 N 
ATOM     49  C   UNL A   1      42.758  32.108  30.972  1.00  0.00     0.074 A 
ATOM     50  C   UNL A   1      41.656  32.811  31.538  1.00  0.00     0.031 C 
ATOM     51  C   UNL A   1      39.248  26.370  29.063  1.00  0.00     0.029 A 
ATOM     52  C   UNL A   1      40.690  26.347  28.917  1.00  0.00     0.049 A 
ATOM     53  H   UNL A   1      42.006  27.863  29.602  1.00  0.00     0.167 HD
ATOM     54  C   UNL A   1      44.098  32.286  31.143  1.00  0.00     0.031 A 
ATOM     55  C   UNL A   1      41.503  25.390  28.353  1.00  0.00     0.031 A 
ATOM     56  C   UNL A   1      44.800  31.291  30.406  1.00  0.00     0.049 A 
ATOM     57  C   UNL A   1      42.858  25.865  28.662  1.00  0.00     0.074 A 
ATOM     58  C   UNL A   1      44.948  31.111  29.055  1.00  0.00     0.029 A 
ATOM     59  N   UNL A   1      45.023  30.103  31.063  1.00  0.00    -0.354 N 
ATOM     60  N   UNL A   1      43.400  25.832  29.839  1.00  0.00    -0.248 NA
ATOM     61  C   UNL A   1      43.638  26.515  27.601  1.00  0.00     0.031 C 
ATOM     62  C   UNL A   1      44.701  29.732  28.910  1.00  0.00     0.029 A 
ATOM     63  C   UNL A   1      44.746  29.105  30.162  1.00  0.00     0.049 A 
ATOM     64  H   UNL A   1      45.321  29.990  31.994  1.00  0.00     0.167 HD
ATOM     65  C   UNL A   1      44.357  26.806  29.737  1.00  0.00     0.074 A 
ATOM     66  C   UNL A   1      44.676  26.921  28.327  1.00  0.00     0.031 C 
ATOM     67  C   UNL A   1      44.408  27.798  30.667  1.00  0.00     0.031 A 
BRANCH  54  68
ATOM     68  C   UNL A   1      44.890  33.121  32.103  1.00  0.00    -0.014 A 
ATOM     69  C   UNL A   1      45.917  33.917  31.536  1.00  0.00     0.010 A 
ATOM     70  C   UNL A   1      44.929  32.888  33.485  1.00  0.00     0.010 A 
ATOM     71  C   UNL A   1      47.020  34.327  32.279  1.00  0.00     0.020 A 
ATOM     72  C   UNL A   1      46.020  33.338  34.250  1.00  0.00     0.020 A 
ATOM     73  C   UNL A   1      47.081  34.006  33.630  1.00  0.00     0.054 A 
BRANCH  73  74
ATOM     74  S   UNL A   1      48.600  34.417  34.526  1.00  0.00     0.124 S 
ATOM     75  O   UNL A   1      49.396  33.205  34.360  1.00  0.00    -0.237 OA
ATOM     76  O   UNL A   1      49.086  35.587  33.797  1.00  0.00    -0.237 OA
ATOM     77  O   UNL A   1      48.137  34.688  35.884  1.00  0.00    -0.744 OA
ENDBRANCH  73  74
ENDBRANCH  54  68
BRANCH  55  78
ATOM     78  C   UNL A   1      41.469  24.128  27.496  1.00  0.00    -0.014 A 
ATOM     79  C   UNL A   1      42.423  23.695  26.568  1.00  0.00     0.010 A 
ATOM     80  C   UNL A   1      40.418  23.191  27.754  1.00  0.00     0.010 A 
ATOM     81  C   UNL A   1      42.413  22.354  26.079  1.00  0.00     0.020 A 
ATOM     82  C   UNL A   1      40.427  21.859  27.333  1.00  0.00     0.020 A 
ATOM     83  C   UNL A   1      41.454  21.429  26.519  1.00  0.00     0.054 A 
BRANCH  83  84
ATOM     84  S   UNL A   1      41.618  19.647  26.179  1.00  0.00     0.124 S 
ATOM     85  O   UNL A   1      42.038  19.111  27.470  1.00  0.00    -0.237 OA
ATOM     86  O   UNL A   1      40.272  19.278  25.748  1.00  0.00    -0.237 OA
ATOM     87  O   UNL A   1      42.630  19.588  25.123  1.00  0.00    -0.744 OA
ENDBRANCH  83  84
ENDBRANCH  55  78
BRANCH  67  88
ATOM     88  C   UNL A   1      43.759  27.491  32.017  1.00  0.00    -0.014 A 
ATOM     89  C   UNL A   1      42.668  28.269  32.450  1.00  0.00     0.010 A 
ATOM     90  C   UNL A   1      44.239  26.518  32.922  1.00  0.00     0.010 A 
ATOM     91  C   UNL A   1      42.085  28.096  33.716  1.00  0.00     0.020 A 
ATOM     92  C   UNL A   1      43.665  26.338  34.200  1.00  0.00     0.020 A 
ATOM     93  C   UNL A   1      42.585  27.128  34.587  1.00  0.00     0.054 A 
BRANCH  93  94
ATOM     94  S   UNL A   1      41.792  26.929  36.214  1.00  0.00     0.124 S 
ATOM     95  O   UNL A   1      42.930  26.732  37.110  1.00  0.00    -0.237 OA
ATOM     96  O   UNL A   1      41.083  28.195  36.377  1.00  0.00    -0.237 OA
ATOM     97  O   UNL A   1      40.933  25.756  36.047  1.00  0.00    -0.744 OA
ENDBRANCH  93  94
ENDBRANCH  67  88
ENDBRANCH  41  42
ENDBRANCH  34  36
ENDBRANCH  33  34
ENDBRANCH  32  33
ENDBRANCH  31  32
ENDBRANCH  30  31
ENDBRANCH  29  30
ENDBRANCH   1  29
TORSDOF 25
ENDMDL
MODEL 2
REMARK VINA RESULT:     -10.2      3.815      9.003
REMARK SMILES COC(=O)c1ccccc1N(C)S(=O)(=O)c1c[nH]c(C(=O)OCCOCCOCCOC(=O)c2ccc(-c3c4nc(c(-c5ccc(S(=O)(=O)[O-])cc5)c5ccc([nH]5)c(-c5ccc(S(=O)(=O)[O-])cc5)c5nc(c(-c6ccc(S(=O)(=O)[O-])cc6)c6ccc3[nH]6)C=C5)C=C4)cc2)c1
REMARK SMILES IDX 26 1 25 2 24 3 23 4 22 5 20 6 21 7 19 8 16 9 17 10 94 11
REMARK SMILES IDX 18 12 13 14 14 15 15 16 11 17 12 18 10 19 5 20 6 21 7 22
REMARK SMILES IDX 9 23 8 24 3 25 4 26 2 27 1 28 27 29 28 30 29 31 30 32 31 33
REMARK SMILES IDX 32 34 33 35 34 36 35 37 93 38 36 39 92 40 37 41 38 42 39 43
REMARK SMILES IDX 86 44 40 45 91 46 85 47 87 48 41 49 90 50 84 51 83 52 42 54
REMARK SMILES IDX 72 55 53 56 71 57 54 58 57 59 70 60 88 61 55 62 56 63 69 65
REMARK SMILES IDX 89 66 58 67 43 68 44 69 52 70 45 71 51 72 46 73 47 74 48 75
REMARK SMILES IDX 49 76 50 77 73 78 74 79 82 80 75 81 81 82 76 83 77 84 78 85
REMARK SMILES IDX 79 86 80 87 59 88 60 89 68 90 61 91 67 92 62 93 63 94 64 95
REMARK SMILES IDX 65 96 66 97
REMARK H PARENT 18 13 87 53 57 64
REMARK Flexibility Score: inf
ROOT
ATOM      1  C   UNL A   1      32.926  28.925  25.645  1.00  0.00     0.188 C 
ENDROOT
BRANCH   1   2
ATOM      2  O   UNL A   1      31.539  29.232  25.572  1.00  0.00    -0.376 OA
BRANCH   2   3
ATOM      3  C   UNL A   1      31.050  30.249  24.712  1.00  0.00     0.202 C 
BRANCH   3   4
ATOM      4  C   UNL A   1      30.002  29.920  23.632  1.00  0.00     0.261 C 
BRANCH   4   5
ATOM      5  O   UNL A   1      30.381  28.960  22.640  1.00  0.00    -0.459 OA
BRANCH   5   6
ATOM      6  C   UNL A   1      30.115  27.664  22.933  1.00  0.00     0.354 C 
ATOM      7  O   UNL A   1      29.007  27.193  23.173  1.00  0.00    -0.244 OA
BRANCH   6   8
ATOM      8  C   UNL A   1      31.309  26.872  22.770  1.00  0.00     0.126 A 
ATOM      9  C   UNL A   1      32.918  25.279  22.765  1.00  0.00     0.106 A 
ATOM     10  C   UNL A   1      33.444  26.417  22.188  1.00  0.00     0.105 A 
ATOM     11  C   UNL A   1      31.613  25.601  23.222  1.00  0.00     0.057 A 
ATOM     12  N   UNL A   1      32.437  27.347  22.132  1.00  0.00    -0.354 N 
ATOM     13  H   UNL A   1      32.508  28.228  21.699  1.00  0.00     0.166 HD
BRANCH   9  14
ATOM     14  S   UNL A   1      33.629  23.705  22.930  1.00  0.00     0.265 S 
ATOM     15  O   UNL A   1      34.969  24.042  23.368  1.00  0.00    -0.201 OA
ATOM     16  O   UNL A   1      33.342  23.086  21.657  1.00  0.00    -0.201 OA
BRANCH  14  17
ATOM     17  N   UNL A   1      32.895  22.788  24.202  1.00  0.00    -0.268 N 
ATOM     18  C   UNL A   1      32.980  23.542  25.490  1.00  0.00     0.164 C 
BRANCH  17  19
ATOM     19  C   UNL A   1      33.169  21.317  24.227  1.00  0.00     0.066 A 
ATOM     20  C   UNL A   1      34.297  20.641  24.763  1.00  0.00     0.084 A 
ATOM     21  C   UNL A   1      34.438  19.234  24.662  1.00  0.00     0.018 A 
ATOM     22  C   UNL A   1      33.501  18.460  23.994  1.00  0.00     0.001 A 
ATOM     23  C   UNL A   1      32.305  20.487  23.467  1.00  0.00     0.028 A 
ATOM     24  C   UNL A   1      32.440  19.093  23.377  1.00  0.00     0.002 A 
BRANCH  20  25
ATOM     25  C   UNL A   1      35.489  21.240  25.388  1.00  0.00     0.340 C 
ATOM     26  O   UNL A   1      35.476  21.754  26.493  1.00  0.00    -0.246 OA
BRANCH  25  27
ATOM     27  O   UNL A   1      36.483  21.282  24.473  1.00  0.00    -0.465 OA
ATOM     28  C   UNL A   1      37.802  21.456  25.004  1.00  0.00     0.282 C 
ENDBRANCH  25  27
ENDBRANCH  20  25
ENDBRANCH  17  19
ENDBRANCH  14  17
ENDBRANCH   9  14
ENDBRANCH   6   8
ENDBRANCH   5   6
ENDBRANCH   4   5
ENDBRANCH   3   4
ENDBRANCH   2   3
ENDBRANCH   1   2
BRANCH   1  29
ATOM     29  C   UNL A   1      33.866  29.589  26.675  1.00  0.00     0.188 C 
BRANCH  29  30
ATOM     30  O   UNL A   1      33.238  30.534  27.519  1.00  0.00    -0.376 OA
BRANCH  30  31
ATOM     31  C   UNL A   1      33.838  31.812  27.672  1.00  0.00     0.202 C 
BRANCH  31  32
ATOM     32  C   UNL A   1      32.959  33.065  27.576  1.00  0.00     0.261 C 
BRANCH  32  33
ATOM     33  O   UNL A   1      32.553  33.641  28.809  1.00  0.00    -0.460 OA
BRANCH  33  34
ATOM     34  C   UNL A   1      33.013  34.895  28.972  1.00  0.00     0.338 C 
ATOM     35  O   UNL A   1      32.591  35.917  28.457  1.00  0.00    -0.246 OA
BRANCH  34  36
ATOM     36  C   UNL A   1      34.215  34.869  29.785  1.00  0.00     0.060 A 
ATOM     37  C   UNL A   1      35.427  34.842  29.093  1.00  0.00     0.016 A 
ATOM     38  C   UNL A   1      34.047  34.348  31.073  1.00  0.00     0.016 A 
ATOM     39  C   UNL A   1      36.439  34.074  29.615  1.00  0.00     0.010 A 
ATOM     40  C   UNL A   1      35.035  33.531  31.562  1.00  0.00     0.010 A 
ATOM     41  C   UNL A   1      36.201  33.368  30.805  1.00  0.00    -0.014 A 
BRANCH  41  42
ATOM     42  C   UNL A   1      37.321  32.627  31.378  1.00  0.00     0.031 A 
ATOM     43  C   UNL A   1      37.493  31.320  30.565  1.00  0.00     0.074 A 
ATOM     44  C   UNL A   1      37.892  33.194  32.494  1.00  0.00     0.049 A 
ATOM     45  N   UNL A   1      38.053  30.209  30.908  1.00  0.00    -0.248 NA
ATOM     46  C   UNL A   1      36.906  31.193  29.188  1.00  0.00     0.031 C 
ATOM     47  C   UNL A   1      37.562  34.534  33.058  1.00  0.00     0.029 A 
ATOM     48  N   UNL A   1      38.860  32.787  33.388  1.00  0.00    -0.354 N 
ATOM     49  C   UNL A   1      38.097  29.372  29.769  1.00  0.00     0.074 A 
ATOM     50  C   UNL A   1      37.285  29.984  28.771  1.00  0.00     0.031 C 
ATOM     51  C   UNL A   1      38.223  34.763  34.220  1.00  0.00     0.029 A 
ATOM     52  C   UNL A   1      39.072  33.628  34.526  1.00  0.00     0.049 A 
ATOM     53  H   UNL A   1      39.377  31.960  33.251  1.00  0.00     0.167 HD
ATOM     54  C   UNL A   1      38.928  28.295  29.691  1.00  0.00     0.031 A 
ATOM     55  C   UNL A   1      39.849  33.383  35.635  1.00  0.00     0.031 A 
ATOM     56  C   UNL A   1      39.569  28.105  30.947  1.00  0.00     0.049 A 
ATOM     57  C   UNL A   1      40.589  32.166  35.274  1.00  0.00     0.074 A 
ATOM     58  C   UNL A   1      39.070  27.693  32.156  1.00  0.00     0.029 A 
ATOM     59  N   UNL A   1      40.736  28.807  31.139  1.00  0.00    -0.354 N 
ATOM     60  N   UNL A   1      41.556  32.120  34.413  1.00  0.00    -0.248 NA
ATOM     61  C   UNL A   1      40.158  30.883  35.843  1.00  0.00     0.031 C 
ATOM     62  C   UNL A   1      39.639  28.625  33.046  1.00  0.00     0.029 A 
ATOM     63  C   UNL A   1      40.676  29.320  32.410  1.00  0.00     0.049 A 
ATOM     64  H   UNL A   1      41.469  28.920  30.492  1.00  0.00     0.167 HD
ATOM     65  C   UNL A   1      41.544  30.802  34.043  1.00  0.00     0.074 A 
ATOM     66  C   UNL A   1      40.952  30.072  35.149  1.00  0.00     0.031 C 
ATOM     67  C   UNL A   1      41.480  30.474  32.725  1.00  0.00     0.031 A 
BRANCH  54  68
ATOM     68  C   UNL A   1      39.439  27.498  28.529  1.00  0.00    -0.014 A 
ATOM     69  C   UNL A   1      39.749  26.140  28.792  1.00  0.00     0.010 A 
ATOM     70  C   UNL A   1      39.959  28.074  27.362  1.00  0.00     0.010 A 
ATOM     71  C   UNL A   1      40.666  25.435  28.019  1.00  0.00     0.020 A 
ATOM     72  C   UNL A   1      40.852  27.351  26.551  1.00  0.00     0.020 A 
ATOM     73  C   UNL A   1      41.239  26.058  26.917  1.00  0.00     0.054 A 
BRANCH  73  74
ATOM     74  S   UNL A   1      42.543  25.167  26.029  1.00  0.00     0.124 S 
ATOM     75  O   UNL A   1      42.711  25.979  24.828  1.00  0.00    -0.237 OA
ATOM     76  O   UNL A   1      43.655  25.216  26.976  1.00  0.00    -0.237 OA
ATOM     77  O   UNL A   1      41.971  23.839  25.820  1.00  0.00    -0.744 OA
ENDBRANCH  73  74
ENDBRANCH  54  68
BRANCH  55  78
ATOM     78  C   UNL A   1      40.117  33.874  37.055  1.00  0.00    -0.014 A 
ATOM     79  C   UNL A   1      41.354  34.152  37.648  1.00  0.00     0.010 A 
ATOM     80  C   UNL A   1      38.981  34.233  37.847  1.00  0.00     0.010 A 
ATOM     81  C   UNL A   1      41.433  34.897  38.862  1.00  0.00     0.020 A 
ATOM     82  C   UNL A   1      39.040  35.015  39.004  1.00  0.00     0.020 A 
ATOM     83  C   UNL A   1      40.277  35.380  39.493  1.00  0.00     0.054 A 
BRANCH  83  84
ATOM     84  S   UNL A   1      40.362  36.605  40.839  1.00  0.00     0.124 S 
ATOM     85  O   UNL A   1      41.301  35.991  41.772  1.00  0.00    -0.237 OA
ATOM     86  O   UNL A   1      40.842  37.802  40.153  1.00  0.00    -0.237 OA
ATOM     87  O   UNL A   1      38.981  36.692  41.314  1.00  0.00    -0.744 OA
ENDBRANCH  83  84
ENDBRANCH  55  78
BRANCH  67  88
ATOM     88  C   UNL A   1      41.943  31.548  31.739  1.00  0.00    -0.014 A 
ATOM     89  C   UNL A   1      43.311  31.877  31.672  1.00  0.00     0.010 A 
ATOM     90  C   UNL A   1      41.070  32.313  30.935  1.00  0.00     0.010 A 
ATOM     91  C   UNL A   1      43.788  32.913  30.853  1.00  0.00     0.020 A 
ATOM     92  C   UNL A   1      41.536  33.362  30.111  1.00  0.00     0.020 A 
ATOM     93  C   UNL A   1      42.899  33.652  30.073  1.00  0.00     0.054 A 
BRANCH  93  94
ATOM     94  S   UNL A   1      43.561  34.979  29.016  1.00  0.00     0.124 S 
ATOM     95  O   UNL A   1      42.843  36.161  29.488  1.00  0.00    -0.237 OA
ATOM     96  O   UNL A   1      44.987  34.950  29.332  1.00  0.00    -0.237 OA
ATOM     97  O   UNL A   1      43.219  34.554  27.659  1.00  0.00    -0.744 OA
ENDBRANCH  93  94
ENDBRANCH  67  88
ENDBRANCH  41  42
ENDBRANCH  34  36
ENDBRANCH  33  34
ENDBRANCH  32  33
ENDBRANCH  31  32
ENDBRANCH  30  31
ENDBRANCH  29  30
ENDBRANCH   1  29
TORSDOF 25
ENDMDL
MODEL 3
REMARK VINA RESULT:     -10.2      3.728      9.864
REMARK SMILES COC(=O)c1ccccc1N(C)S(=O)(=O)c1c[nH]c(C(=O)OCCOCCOCCOC(=O)c2ccc(-c3c4nc(c(-c5ccc(S(=O)(=O)[O-])cc5)c5ccc([nH]5)c(-c5ccc(S(=O)(=O)[O-])cc5)c5nc(c(-c6ccc(S(=O)(=O)[O-])cc6)c6ccc3[nH]6)C=C5)C=C4)cc2)c1
REMARK SMILES IDX 26 1 25 2 24 3 23 4 22 5 20 6 21 7 19 8 16 9 17 10 94 11
REMARK SMILES IDX 18 12 13 14 14 15 15 16 11 17 12 18 10 19 5 20 6 21 7 22
REMARK SMILES IDX 9 23 8 24 3 25 4 26 2 27 1 28 27 29 28 30 29 31 30 32 31 33
REMARK SMILES IDX 32 34 33 35 34 36 35 37 93 38 36 39 92 40 37 41 38 42 39 43
REMARK SMILES IDX 86 44 40 45 91 46 85 47 87 48 41 49 90 50 84 51 83 52 42 54
REMARK SMILES IDX 72 55 53 56 71 57 54 58 57 59 70 60 88 61 55 62 56 63 69 65
REMARK SMILES IDX 89 66 58 67 43 68 44 69 52 70 45 71 51 72 46 73 47 74 48 75
REMARK SMILES IDX 49 76 50 77 73 78 74 79 82 80 75 81 81 82 76 83 77 84 78 85
REMARK SMILES IDX 79 86 80 87 59 88 60 89 68 90 61 91 67 92 62 93 63 94 64 95
REMARK SMILES IDX 65 96 66 97
REMARK H PARENT 18 13 87 53 57 64
REMARK Flexibility Score: inf
ROOT
ATOM      1  C   UNL A   1      40.636  21.974  27.152  1.00  0.00     0.188 C 
ENDROOT
BRANCH   1   2
ATOM      2  O   UNL A   1      39.432  22.267  26.453  1.00  0.00    -0.376 OA
BRANCH   2   3
ATOM      3  C   UNL A   1      38.934  23.591  26.357  1.00  0.00     0.202 C 
BRANCH   3   4
ATOM      4  C   UNL A   1      37.422  23.848  26.204  1.00  0.00     0.261 C 
BRANCH   4   5
ATOM      5  O   UNL A   1      36.836  23.504  24.944  1.00  0.00    -0.459 OA
BRANCH   5   6
ATOM      6  C   UNL A   1      35.670  22.816  24.998  1.00  0.00     0.354 C 
ATOM      7  O   UNL A   1      35.448  21.831  25.695  1.00  0.00    -0.244 OA
BRANCH   6   8
ATOM      8  C   UNL A   1      34.663  23.503  24.230  1.00  0.00     0.126 A 
ATOM      9  C   UNL A   1      33.307  24.997  23.200  1.00  0.00     0.106 A 
ATOM     10  C   UNL A   1      32.824  23.731  22.936  1.00  0.00     0.105 A 
ATOM     11  C   UNL A   1      34.399  24.854  24.097  1.00  0.00     0.057 A 
ATOM     12  N   UNL A   1      33.696  22.837  23.505  1.00  0.00    -0.354 N 
ATOM     13  H   UNL A   1      33.639  21.859  23.409  1.00  0.00     0.166 HD
BRANCH   9  14
ATOM     14  S   UNL A   1      32.765  26.527  22.587  1.00  0.00     0.265 S 
ATOM     15  O   UNL A   1      32.355  26.167  21.244  1.00  0.00    -0.201 OA
ATOM     16  O   UNL A   1      33.879  27.400  22.869  1.00  0.00    -0.201 OA
BRANCH  14  17
ATOM     17  N   UNL A   1      31.354  27.097  23.413  1.00  0.00    -0.268 N 
ATOM     18  C   UNL A   1      30.443  27.789  22.451  1.00  0.00     0.164 C 
BRANCH  17  19
ATOM     19  C   UNL A   1      31.556  27.715  24.761  1.00  0.00     0.066 A 
ATOM     20  C   UNL A   1      31.416  27.108  26.037  1.00  0.00     0.084 A 
ATOM     21  C   UNL A   1      31.591  27.847  27.234  1.00  0.00     0.018 A 
ATOM     22  C   UNL A   1      31.863  29.207  27.212  1.00  0.00     0.001 A 
ATOM     23  C   UNL A   1      31.727  29.123  24.806  1.00  0.00     0.028 A 
ATOM     24  C   UNL A   1      31.911  29.850  25.991  1.00  0.00     0.002 A 
BRANCH  20  25
ATOM     25  C   UNL A   1      30.997  25.727  26.334  1.00  0.00     0.340 C 
ATOM     26  O   UNL A   1      29.851  25.426  26.620  1.00  0.00    -0.246 OA
BRANCH  25  27
ATOM     27  O   UNL A   1      32.099  24.949  26.418  1.00  0.00    -0.465 OA
ATOM     28  C   UNL A   1      31.876  23.618  26.899  1.00  0.00     0.282 C 
ENDBRANCH  25  27
ENDBRANCH  20  25
ENDBRANCH  17  19
ENDBRANCH  14  17
ENDBRANCH   9  14
ENDBRANCH   6   8
ENDBRANCH   5   6
ENDBRANCH   4   5
ENDBRANCH   3   4
ENDBRANCH   2   3
ENDBRANCH   1   2
BRANCH   1  29
ATOM     29  C   UNL A   1      41.902  21.460  26.434  1.00  0.00     0.188 C 
BRANCH  29  30
ATOM     30  O   UNL A   1      41.730  20.240  25.740  1.00  0.00    -0.376 OA
BRANCH  30  31
ATOM     31  C   UNL A   1      42.624  19.171  26.013  1.00  0.00     0.202 C 
BRANCH  31  32
ATOM     32  C   UNL A   1      43.676  18.793  24.964  1.00  0.00     0.261 C 
BRANCH  32  33
ATOM     33  O   UNL A   1      44.917  19.480  25.045  1.00  0.00    -0.460 OA
BRANCH  33  34
ATOM     34  C   UNL A   1      44.973  20.550  24.233  1.00  0.00     0.338 C 
ATOM     35  O   UNL A   1      44.592  20.629  23.077  1.00  0.00    -0.246 OA
BRANCH  34  36
ATOM     36  C   UNL A   1      45.691  21.625  24.893  1.00  0.00     0.060 A 
ATOM     37  C   UNL A   1      45.603  21.660  26.286  1.00  0.00     0.016 A 
ATOM     38  C   UNL A   1      45.921  22.757  24.104  1.00  0.00     0.016 A 
ATOM     39  C   UNL A   1      45.519  22.893  26.886  1.00  0.00     0.010 A 
ATOM     40  C   UNL A   1      45.773  23.986  24.696  1.00  0.00     0.010 A 
ATOM     41  C   UNL A   1      45.529  24.037  26.073  1.00  0.00    -0.014 A 
BRANCH  41  42
ATOM     42  C   UNL A   1      45.522  25.334  26.744  1.00  0.00     0.031 A 
ATOM     43  C   UNL A   1      44.076  25.886  26.697  1.00  0.00     0.074 A 
ATOM     44  C   UNL A   1      46.749  25.779  27.180  1.00  0.00     0.049 A 
ATOM     45  N   UNL A   1      43.660  27.104  26.793  1.00  0.00    -0.248 NA
ATOM     46  C   UNL A   1      42.914  24.968  26.443  1.00  0.00     0.031 C 
ATOM     47  C   UNL A   1      48.020  24.999  27.150  1.00  0.00     0.029 A 
ATOM     48  N   UNL A   1      47.200  26.956  27.736  1.00  0.00    -0.354 N 
ATOM     49  C   UNL A   1      42.247  27.080  26.848  1.00  0.00     0.074 A 
ATOM     50  C   UNL A   1      41.840  25.755  26.522  1.00  0.00     0.031 C 
ATOM     51  C   UNL A   1      49.075  25.750  27.554  1.00  0.00     0.029 A 
ATOM     52  C   UNL A   1      48.615  27.075  27.919  1.00  0.00     0.049 A 
ATOM     53  H   UNL A   1      46.582  27.679  27.993  1.00  0.00     0.167 HD
ATOM     54  C   UNL A   1      41.520  28.139  27.304  1.00  0.00     0.031 A 
ATOM     55  C   UNL A   1      49.336  28.185  28.298  1.00  0.00     0.031 A 
ATOM     56  C   UNL A   1      42.391  29.239  27.539  1.00  0.00     0.049 A 
ATOM     57  C   UNL A   1      48.300  29.149  28.694  1.00  0.00     0.074 A 
ATOM     58  C   UNL A   1      43.090  30.034  26.667  1.00  0.00     0.029 A 
ATOM     59  N   UNL A   1      42.973  29.290  28.785  1.00  0.00    -0.354 N 
ATOM     60  N   UNL A   1      47.592  29.066  29.776  1.00  0.00    -0.248 NA
ATOM     61  C   UNL A   1      47.957  30.237  27.770  1.00  0.00     0.031 C 
ATOM     62  C   UNL A   1      44.364  30.084  27.265  1.00  0.00     0.029 A 
ATOM     63  C   UNL A   1      44.290  29.618  28.584  1.00  0.00     0.049 A 
ATOM     64  H   UNL A   1      42.532  29.123  29.649  1.00  0.00     0.167 HD
ATOM     65  C   UNL A   1      46.488  29.807  29.450  1.00  0.00     0.074 A 
ATOM     66  C   UNL A   1      46.910  30.737  28.419  1.00  0.00     0.031 C 
ATOM     67  C   UNL A   1      45.248  29.270  29.603  1.00  0.00     0.031 A 
BRANCH  54  68
ATOM     68  C   UNL A   1      40.113  28.253  27.808  1.00  0.00    -0.014 A 
ATOM     69  C   UNL A   1      39.322  29.274  27.222  1.00  0.00     0.010 A 
ATOM     70  C   UNL A   1      39.674  27.698  29.018  1.00  0.00     0.010 A 
ATOM     71  C   UNL A   1      38.235  29.831  27.888  1.00  0.00     0.020 A 
ATOM     72  C   UNL A   1      38.549  28.227  29.675  1.00  0.00     0.020 A 
ATOM     73  C   UNL A   1      37.873  29.324  29.131  1.00  0.00     0.054 A 
BRANCH  73  74
ATOM     74  S   UNL A   1      36.555  30.175  30.036  1.00  0.00     0.124 S 
ATOM     75  O   UNL A   1      35.479  30.218  29.050  1.00  0.00    -0.237 OA
ATOM     76  O   UNL A   1      36.327  29.281  31.170  1.00  0.00    -0.237 OA
ATOM     77  O   UNL A   1      37.150  31.464  30.379  1.00  0.00    -0.744 OA
ENDBRANCH  73  74
ENDBRANCH  54  68
BRANCH  55  78
ATOM     78  C   UNL A   1      50.755  28.741  28.357  1.00  0.00    -0.014 A 
ATOM     79  C   UNL A   1      51.762  28.630  27.392  1.00  0.00     0.010 A 
ATOM     80  C   UNL A   1      51.074  29.600  29.456  1.00  0.00     0.010 A 
ATOM     81  C   UNL A   1      52.922  29.460  27.444  1.00  0.00     0.020 A 
ATOM     82  C   UNL A   1      52.173  30.463  29.491  1.00  0.00     0.020 A 
ATOM     83  C   UNL A   1      53.083  30.417  28.456  1.00  0.00     0.054 A 
BRANCH  83  84
ATOM     84  S   UNL A   1      54.368  31.705  28.359  1.00  0.00     0.124 S 
ATOM     85  O   UNL A   1      53.980  32.627  29.421  1.00  0.00    -0.237 OA
ATOM     86  O   UNL A   1      55.597  30.950  28.594  1.00  0.00    -0.237 OA
ATOM     87  O   UNL A   1      54.230  32.229  27.000  1.00  0.00    -0.744 OA
ENDBRANCH  83  84
ENDBRANCH  55  78
BRANCH  67  88
ATOM     88  C   UNL A   1      45.134  28.109  30.592  1.00  0.00    -0.014 A 
ATOM     89  C   UNL A   1      45.030  26.793  30.101  1.00  0.00     0.010 A 
ATOM     90  C   UNL A   1      45.035  28.270  31.992  1.00  0.00     0.010 A 
ATOM     91  C   UNL A   1      44.834  25.694  30.953  1.00  0.00     0.020 A 
ATOM     92  C   UNL A   1      44.831  27.173  32.859  1.00  0.00     0.020 A 
ATOM     93  C   UNL A   1      44.737  25.888  32.331  1.00  0.00     0.054 A 
BRANCH  93  94
ATOM     94  S   UNL A   1      44.495  24.433  33.399  1.00  0.00     0.124 S 
ATOM     95  O   UNL A   1      43.460  24.880  34.329  1.00  0.00    -0.237 OA
ATOM     96  O   UNL A   1      44.075  23.409  32.447  1.00  0.00    -0.237 OA
ATOM     97  O   UNL A   1      45.809  24.216  34.003  1.00  0.00    -0.744 OA
ENDBRANCH  93  94
ENDBRANCH  67  88
ENDBRANCH  41  42
ENDBRANCH  34  36
ENDBRANCH  33  34
ENDBRANCH  32  33
ENDBRANCH  31  32
ENDBRANCH  30  31
ENDBRANCH  29  30
ENDBRANCH   1  29
TORSDOF 25
ENDMDL
