MODEL 1
REMARK VINA RESULT:      -8.4      0.000      0.000
REMARK SMILES CC(C)(C)OC(=O)[C@]1(C(=O)OCCOCCOCCOC(=O)c2ccc(-c3c4nc(c(-c5ccc(S(=O)(=O)[O-])cc5)c5ccc([nH]5)c(-c5ccc(S(=O)(=O)[O-])cc5)c5nc(c(-c6ccc(S(=O)(=O)[O-])cc6)c6ccc3[nH]6)C=C5)C=C4)cc2)CC=CC[C@@H]1[NH3+]
REMARK SMILES IDX 15 1 14 2 13 3 12 4 11 5 9 6 10 7 8 8 83 9 87 10 84 11 86 12
REMARK SMILES IDX 85 13 6 14 7 15 5 16 2 17 1 18 3 19 4 20 88 21 16 25 17 26
REMARK SMILES IDX 18 27 19 28 20 29 21 30 22 31 23 32 24 33 82 34 25 35 81 36
REMARK SMILES IDX 26 37 27 38 28 39 75 40 29 41 80 42 74 43 76 44 30 45 79 46
REMARK SMILES IDX 73 47 72 48 31 50 61 51 42 52 60 53 43 54 46 55 59 56 77 57
REMARK SMILES IDX 44 58 45 59 58 61 78 62 47 63 32 64 33 65 41 66 34 67 40 68
REMARK SMILES IDX 35 69 36 70 37 71 38 72 39 73 62 74 63 75 71 76 64 77 70 78
REMARK SMILES IDX 65 79 66 80 67 81 68 82 69 83 48 84 49 85 57 86 50 87 56 88
REMARK SMILES IDX 51 89 52 90 53 91 54 92 55 93
REMARK H PARENT 88 22 88 23 88 24 76 49 46 60
REMARK Flexibility Score: inf
ROOT
ATOM      1  C   UNL A   1      39.902  23.673  26.783  1.00  0.00     0.188 C 
ENDROOT
BRANCH   1   2
ATOM      2  O   UNL A   1      38.526  23.922  27.043  1.00  0.00    -0.376 OA
BRANCH   2   3
ATOM      3  C   UNL A   1      37.592  23.765  25.991  1.00  0.00     0.202 C 
BRANCH   3   4
ATOM      4  C   UNL A   1      37.586  22.411  25.290  1.00  0.00     0.261 C 
BRANCH   4   5
ATOM      5  O   UNL A   1      36.282  21.801  25.271  1.00  0.00    -0.462 OA
BRANCH   5   6
ATOM      6  C   UNL A   1      35.372  22.312  24.393  1.00  0.00     0.330 C 
ATOM      7  O   UNL A   1      35.707  22.872  23.357  1.00  0.00    -0.251 OA
BRANCH   6   8
ATOM      8  C   UNL A   1      33.900  22.086  24.825  1.00  0.00     0.219 C 
ATOM      9  C   UNL A   1      33.014  21.835  23.552  1.00  0.00     0.064 C 
ATOM     10  C   UNL A   1      33.982  20.846  25.814  1.00  0.00     0.214 C 
ATOM     11  C   UNL A   1      32.464  20.466  23.330  1.00  0.00    -0.029 C 
ATOM     12  C   UNL A   1      32.972  19.699  25.632  1.00  0.00     0.093 C 
ATOM     13  C   UNL A   1      32.448  19.508  24.255  1.00  0.00    -0.025 C 
BRANCH   8  14
ATOM     14  C   UNL A   1      33.441  23.349  25.588  1.00  0.00     0.330 C 
ATOM     15  O   UNL A   1      34.097  23.888  26.471  1.00  0.00    -0.251 OA
BRANCH  14  16
ATOM     16  O   UNL A   1      32.211  23.781  25.208  1.00  0.00    -0.459 OA
BRANCH  16  17
ATOM     17  C   UNL A   1      31.910  25.093  24.643  1.00  0.00     0.104 C 
ATOM     18  C   UNL A   1      30.640  24.883  23.806  1.00  0.00     0.056 C 
ATOM     19  C   UNL A   1      32.967  25.696  23.721  1.00  0.00     0.056 C 
ATOM     20  C   UNL A   1      31.624  26.041  25.806  1.00  0.00     0.056 C 
ENDBRANCH  16  17
ENDBRANCH  14  16
ENDBRANCH   8  14
BRANCH  10  21
ATOM     21  N   UNL A   1      34.027  21.139  27.262  1.00  0.00    -0.353 N 
ATOM     22  H   UNL A   1      34.987  21.059  27.596  1.00  0.00     0.344 HD
ATOM     23  H   UNL A   1      33.437  20.474  27.762  1.00  0.00     0.344 HD
ATOM     24  H   UNL A   1      33.687  22.086  27.427  1.00  0.00     0.344 HD
ENDBRANCH  10  21
ENDBRANCH   6   8
ENDBRANCH   5   6
ENDBRANCH   4   5
ENDBRANCH   3   4
ENDBRANCH   2   3
ENDBRANCH   1   2
BRANCH   1  25
ATOM     25  C   UNL A   1      40.626  22.571  27.587  1.00  0.00     0.188 C 
BRANCH  25  26
ATOM     26  O   UNL A   1      40.281  21.212  27.348  1.00  0.00    -0.376 OA
BRANCH  26  27
ATOM     27  C   UNL A   1      41.282  20.236  27.619  1.00  0.00     0.202 C 
BRANCH  27  28
ATOM     28  C   UNL A   1      41.899  19.581  26.382  1.00  0.00     0.261 C 
BRANCH  28  29
ATOM     29  O   UNL A   1      42.250  20.576  25.400  1.00  0.00    -0.460 OA
BRANCH  29  30
ATOM     30  C   UNL A   1      43.537  20.569  24.988  1.00  0.00     0.338 C 
ATOM     31  O   UNL A   1      44.098  19.696  24.338  1.00  0.00    -0.246 OA
BRANCH  30  32
ATOM     32  C   UNL A   1      44.184  21.841  25.352  1.00  0.00     0.060 A 
ATOM     33  C   UNL A   1      44.826  21.945  26.587  1.00  0.00     0.016 A 
ATOM     34  C   UNL A   1      44.051  22.964  24.542  1.00  0.00     0.016 A 
ATOM     35  C   UNL A   1      45.287  23.175  27.054  1.00  0.00     0.010 A 
ATOM     36  C   UNL A   1      44.545  24.195  24.992  1.00  0.00     0.010 A 
ATOM     37  C   UNL A   1      45.140  24.316  26.264  1.00  0.00    -0.014 A 
BRANCH  37  38
ATOM     38  C   UNL A   1      45.537  25.648  26.783  1.00  0.00     0.031 A 
ATOM     39  C   UNL A   1      44.493  26.543  27.391  1.00  0.00     0.074 A 
ATOM     40  C   UNL A   1      46.816  26.061  26.716  1.00  0.00     0.049 A 
ATOM     41  N   UNL A   1      44.565  27.813  27.691  1.00  0.00    -0.248 NA
ATOM     42  C   UNL A   1      43.197  25.920  27.709  1.00  0.00     0.031 C 
ATOM     43  C   UNL A   1      47.948  25.254  26.259  1.00  0.00     0.029 A 
ATOM     44  N   UNL A   1      47.374  27.279  27.017  1.00  0.00    -0.354 N 
ATOM     45  C   UNL A   1      43.314  28.155  28.191  1.00  0.00     0.074 A 
ATOM     46  C   UNL A   1      42.505  26.955  28.164  1.00  0.00     0.031 C 
ATOM     47  C   UNL A   1      49.061  26.005  26.289  1.00  0.00     0.029 A 
ATOM     48  C   UNL A   1      48.707  27.363  26.691  1.00  0.00     0.049 A 
ATOM     49  H   UNL A   1      46.870  28.020  27.425  1.00  0.00     0.167 HD
ATOM     50  C   UNL A   1      42.880  29.364  28.619  1.00  0.00     0.031 A 
ATOM     51  C   UNL A   1      49.535  28.427  26.655  1.00  0.00     0.031 A 
ATOM     52  C   UNL A   1      43.696  30.549  28.647  1.00  0.00     0.049 A 
ATOM     53  C   UNL A   1      48.998  29.787  27.013  1.00  0.00     0.074 A 
ATOM     54  C   UNL A   1      43.348  31.824  29.056  1.00  0.00     0.029 A 
ATOM     55  N   UNL A   1      45.022  30.604  28.247  1.00  0.00    -0.354 N 
ATOM     56  N   UNL A   1      47.799  30.116  27.433  1.00  0.00    -0.248 NA
ATOM     57  C   UNL A   1      49.919  30.923  26.869  1.00  0.00     0.031 C 
ATOM     58  C   UNL A   1      44.449  32.664  28.850  1.00  0.00     0.029 A 
ATOM     59  C   UNL A   1      45.499  31.899  28.365  1.00  0.00     0.049 A 
ATOM     60  H   UNL A   1      45.548  29.837  27.927  1.00  0.00     0.167 HD
ATOM     61  C   UNL A   1      47.826  31.494  27.613  1.00  0.00     0.074 A 
ATOM     62  C   UNL A   1      49.164  31.935  27.275  1.00  0.00     0.031 C 
ATOM     63  C   UNL A   1      46.830  32.322  28.017  1.00  0.00     0.031 A 
BRANCH  50  64
ATOM     64  C   UNL A   1      41.437  29.482  29.026  1.00  0.00    -0.014 A 
ATOM     65  C   UNL A   1      40.419  29.693  28.081  1.00  0.00     0.010 A 
ATOM     66  C   UNL A   1      41.094  29.335  30.384  1.00  0.00     0.010 A 
ATOM     67  C   UNL A   1      39.086  29.788  28.491  1.00  0.00     0.020 A 
ATOM     68  C   UNL A   1      39.760  29.408  30.794  1.00  0.00     0.020 A 
ATOM     69  C   UNL A   1      38.766  29.649  29.846  1.00  0.00     0.054 A 
BRANCH  69  70
ATOM     70  S   UNL A   1      37.025  29.756  30.349  1.00  0.00     0.124 S 
ATOM     71  O   UNL A   1      36.870  31.188  30.590  1.00  0.00    -0.237 OA
ATOM     72  O   UNL A   1      36.320  29.236  29.180  1.00  0.00    -0.237 OA
ATOM     73  O   UNL A   1      36.956  28.913  31.540  1.00  0.00    -0.744 OA
ENDBRANCH  69  70
ENDBRANCH  50  64
BRANCH  51  74
ATOM     74  C   UNL A   1      50.933  28.263  26.170  1.00  0.00    -0.014 A 
ATOM     75  C   UNL A   1      51.983  28.014  27.069  1.00  0.00     0.010 A 
ATOM     76  C   UNL A   1      51.219  28.362  24.795  1.00  0.00     0.010 A 
ATOM     77  C   UNL A   1      53.296  27.880  26.604  1.00  0.00     0.020 A 
ATOM     78  C   UNL A   1      52.525  28.201  24.323  1.00  0.00     0.020 A 
ATOM     79  C   UNL A   1      53.557  27.973  25.233  1.00  0.00     0.054 A 
BRANCH  79  80
ATOM     80  S   UNL A   1      55.260  27.752  24.646  1.00  0.00     0.124 S 
ATOM     81  O   UNL A   1      56.009  27.706  25.897  1.00  0.00    -0.237 OA
ATOM     82  O   UNL A   1      55.183  26.494  23.908  1.00  0.00    -0.237 OA
ATOM     83  O   UNL A   1      55.493  28.936  23.821  1.00  0.00    -0.744 OA
ENDBRANCH  79  80
ENDBRANCH  51  74
BRANCH  63  84
ATOM     84  C   UNL A   1      47.151  33.788  28.131  1.00  0.00    -0.014 A 
ATOM     85  C   UNL A   1      47.689  34.320  29.315  1.00  0.00     0.010 A 
ATOM     86  C   UNL A   1      46.976  34.629  27.018  1.00  0.00     0.010 A 
ATOM     87  C   UNL A   1      48.028  35.674  29.392  1.00  0.00     0.020 A 
ATOM     88  C   UNL A   1      47.336  35.978  27.081  1.00  0.00     0.020 A 
ATOM     89  C   UNL A   1      47.850  36.494  28.272  1.00  0.00     0.054 A 
BRANCH  89  90
ATOM     90  S   UNL A   1      48.353  38.234  28.376  1.00  0.00     0.124 S 
ATOM     91  O   UNL A   1      48.397  38.623  26.970  1.00  0.00    -0.237 OA
ATOM     92  O   UNL A   1      47.276  38.834  29.161  1.00  0.00    -0.237 OA
ATOM     93  O   UNL A   1      49.649  38.181  29.049  1.00  0.00    -0.744 OA
ENDBRANCH  89  90
ENDBRANCH  63  84
ENDBRANCH  37  38
ENDBRANCH  30  32
ENDBRANCH  29  30
ENDBRANCH  28  29
ENDBRANCH  27  28
ENDBRANCH  26  27
ENDBRANCH  25  26
ENDBRANCH   1  25
TORSDOF 24
ENDMDL
MODEL 2
REMARK VINA RESULT:      -8.4      1.532      8.448
REMARK SMILES CC(C)(C)OC(=O)[C@]1(C(=O)OCCOCCOCCOC(=O)c2ccc(-c3c4nc(c(-c5ccc(S(=O)(=O)[O-])cc5)c5ccc([nH]5)c(-c5ccc(S(=O)(=O)[O-])cc5)c5nc(c(-c6ccc(S(=O)(=O)[O-])cc6)c6ccc3[nH]6)C=C5)C=C4)cc2)CC=CC[C@@H]1[NH3+]
REMARK SMILES IDX 15 1 14 2 13 3 12 4 11 5 9 6 10 7 8 8 83 9 87 10 84 11 86 12
REMARK SMILES IDX 85 13 6 14 7 15 5 16 2 17 1 18 3 19 4 20 88 21 16 25 17 26
REMARK SMILES IDX 18 27 19 28 20 29 21 30 22 31 23 32 24 33 82 34 25 35 81 36
REMARK SMILES IDX 26 37 27 38 28 39 75 40 29 41 80 42 74 43 76 44 30 45 79 46
REMARK SMILES IDX 73 47 72 48 31 50 61 51 42 52 60 53 43 54 46 55 59 56 77 57
REMARK SMILES IDX 44 58 45 59 58 61 78 62 47 63 32 64 33 65 41 66 34 67 40 68
REMARK SMILES IDX 35 69 36 70 37 71 38 72 39 73 62 74 63 75 71 76 64 77 70 78
REMARK SMILES IDX 65 79 66 80 67 81 68 82 69 83 48 84 49 85 57 86 50 87 56 88
REMARK SMILES IDX 51 89 52 90 53 91 54 92 55 93
REMARK H PARENT 88 22 88 23 88 24 76 49 46 60
REMARK Flexibility Score: inf
ROOT
ATOM      1  C   UNL A   1      39.656  22.967  26.716  1.00  0.00     0.188 C 
ENDROOT
BRANCH   1   2
ATOM      2  O   UNL A   1      38.524  23.066  25.861  1.00  0.00    -0.376 OA
BRANCH   2   3
ATOM      3  C   UNL A   1      37.966  21.880  25.326  1.00  0.00     0.202 C 
BRANCH   3   4
ATOM      4  C   UNL A   1      36.478  21.922  24.999  1.00  0.00     0.261 C 
BRANCH   4   5
ATOM      5  O   UNL A   1      35.975  23.266  24.870  1.00  0.00    -0.462 OA
BRANCH   5   6
ATOM      6  C   UNL A   1      35.276  23.559  23.737  1.00  0.00     0.330 C 
ATOM      7  O   UNL A   1      35.700  23.291  22.620  1.00  0.00    -0.251 OA
BRANCH   6   8
ATOM      8  C   UNL A   1      33.903  24.226  24.012  1.00  0.00     0.219 C 
ATOM      9  C   UNL A   1      33.868  24.763  25.487  1.00  0.00     0.064 C 
ATOM     10  C   UNL A   1      33.806  25.360  22.904  1.00  0.00     0.214 C 
ATOM     11  C   UNL A   1      33.883  26.239  25.705  1.00  0.00    -0.029 C 
ATOM     12  C   UNL A   1      33.362  26.769  23.339  1.00  0.00     0.093 C 
ATOM     13  C   UNL A   1      33.661  27.137  24.747  1.00  0.00    -0.025 C 
BRANCH   8  14
ATOM     14  C   UNL A   1      32.813  23.155  23.777  1.00  0.00     0.330 C 
ATOM     15  O   UNL A   1      31.704  23.400  23.318  1.00  0.00    -0.251 OA
BRANCH  14  16
ATOM     16  O   UNL A   1      33.195  21.913  24.174  1.00  0.00    -0.459 OA
BRANCH  16  17
ATOM     17  C   UNL A   1      32.578  21.138  25.246  1.00  0.00     0.104 C 
ATOM     18  C   UNL A   1      33.604  21.152  26.387  1.00  0.00     0.056 C 
ATOM     19  C   UNL A   1      32.264  19.676  24.935  1.00  0.00     0.056 C 
ATOM     20  C   UNL A   1      31.306  21.871  25.670  1.00  0.00     0.056 C 
ENDBRANCH  16  17
ENDBRANCH  14  16
ENDBRANCH   8  14
BRANCH  10  21
ATOM     21  N   UNL A   1      33.047  25.042  21.677  1.00  0.00    -0.353 N 
ATOM     22  H   UNL A   1      33.698  24.864  20.911  1.00  0.00     0.344 HD
ATOM     23  H   UNL A   1      32.445  25.829  21.435  1.00  0.00     0.344 HD
ATOM     24  H   UNL A   1      32.474  24.214  21.836  1.00  0.00     0.344 HD
ENDBRANCH  10  21
ENDBRANCH   6   8
ENDBRANCH   5   6
ENDBRANCH   4   5
ENDBRANCH   3   4
ENDBRANCH   2   3
ENDBRANCH   1   2
BRANCH   1  25
ATOM     25  C   UNL A   1      40.229  21.569  27.037  1.00  0.00     0.188 C 
BRANCH  25  26
ATOM     26  O   UNL A   1      41.090  20.949  26.090  1.00  0.00    -0.376 OA
BRANCH  26  27
ATOM     27  C   UNL A   1      41.109  19.525  26.071  1.00  0.00     0.202 C 
BRANCH  27  28
ATOM     28  C   UNL A   1      42.502  18.897  26.008  1.00  0.00     0.261 C 
BRANCH  28  29
ATOM     29  O   UNL A   1      43.120  19.154  24.733  1.00  0.00    -0.460 OA
BRANCH  29  30
ATOM     30  C   UNL A   1      44.378  19.645  24.776  1.00  0.00     0.338 C 
ATOM     31  O   UNL A   1      45.412  19.048  24.505  1.00  0.00    -0.246 OA
BRANCH  30  32
ATOM     32  C   UNL A   1      44.343  21.078  25.113  1.00  0.00     0.060 A 
ATOM     33  C   UNL A   1      44.267  22.015  24.081  1.00  0.00     0.016 A 
ATOM     34  C   UNL A   1      44.516  21.505  26.426  1.00  0.00     0.016 A 
ATOM     35  C   UNL A   1      44.420  23.376  24.336  1.00  0.00     0.010 A 
ATOM     36  C   UNL A   1      44.634  22.875  26.690  1.00  0.00     0.010 A 
ATOM     37  C   UNL A   1      44.617  23.819  25.644  1.00  0.00    -0.014 A 
BRANCH  37  38
ATOM     38  C   UNL A   1      44.877  25.253  25.924  1.00  0.00     0.031 A 
ATOM     39  C   UNL A   1      46.272  25.792  25.768  1.00  0.00     0.074 A 
ATOM     40  C   UNL A   1      43.882  26.071  26.313  1.00  0.00     0.049 A 
ATOM     41  N   UNL A   1      46.768  26.932  26.173  1.00  0.00    -0.248 NA
ATOM     42  C   UNL A   1      47.233  24.934  25.056  1.00  0.00     0.031 C 
ATOM     43  C   UNL A   1      42.466  25.711  26.393  1.00  0.00     0.029 A 
ATOM     44  N   UNL A   1      43.919  27.378  26.735  1.00  0.00    -0.354 N 
ATOM     45  C   UNL A   1      48.108  26.913  25.805  1.00  0.00     0.074 A 
ATOM     46  C   UNL A   1      48.346  25.651  25.136  1.00  0.00     0.031 C 
ATOM     47  C   UNL A   1      41.773  26.764  26.857  1.00  0.00     0.029 A 
ATOM     48  C   UNL A   1      42.703  27.841  27.180  1.00  0.00     0.049 A 
ATOM     49  H   UNL A   1      44.735  27.928  26.720  1.00  0.00     0.167 HD
ATOM     50  C   UNL A   1      49.054  27.857  26.022  1.00  0.00     0.031 A 
ATOM     51  C   UNL A   1      42.385  28.976  27.835  1.00  0.00     0.031 A 
ATOM     52  C   UNL A   1      48.805  29.110  26.683  1.00  0.00     0.049 A 
ATOM     53  C   UNL A   1      43.475  29.955  28.179  1.00  0.00     0.074 A 
ATOM     54  C   UNL A   1      49.698  30.131  26.958  1.00  0.00     0.029 A 
ATOM     55  N   UNL A   1      47.573  29.511  27.176  1.00  0.00    -0.354 N 
ATOM     56  N   UNL A   1      44.751  29.908  27.878  1.00  0.00    -0.248 NA
ATOM     57  C   UNL A   1      43.086  31.130  28.972  1.00  0.00     0.031 C 
ATOM     58  C   UNL A   1      49.017  31.126  27.667  1.00  0.00     0.029 A 
ATOM     59  C   UNL A   1      47.688  30.749  27.786  1.00  0.00     0.049 A 
ATOM     60  H   UNL A   1      46.739  28.993  27.104  1.00  0.00     0.167 HD
ATOM     61  C   UNL A   1      45.315  31.050  28.436  1.00  0.00     0.074 A 
ATOM     62  C   UNL A   1      44.238  31.778  29.076  1.00  0.00     0.031 C 
ATOM     63  C   UNL A   1      46.608  31.457  28.424  1.00  0.00     0.031 A 
BRANCH  50  64
ATOM     64  C   UNL A   1      50.463  27.540  25.600  1.00  0.00    -0.014 A 
ATOM     65  C   UNL A   1      50.981  27.983  24.372  1.00  0.00     0.010 A 
ATOM     66  C   UNL A   1      51.295  26.818  26.476  1.00  0.00     0.010 A 
ATOM     67  C   UNL A   1      52.299  27.680  24.013  1.00  0.00     0.020 A 
ATOM     68  C   UNL A   1      52.618  26.533  26.130  1.00  0.00     0.020 A 
ATOM     69  C   UNL A   1      53.107  26.953  24.894  1.00  0.00     0.054 A 
BRANCH  69  70
ATOM     70  S   UNL A   1      54.820  26.593  24.413  1.00  0.00     0.124 S 
ATOM     71  O   UNL A   1      54.761  26.741  22.960  1.00  0.00    -0.237 OA
ATOM     72  O   UNL A   1      55.576  27.623  25.118  1.00  0.00    -0.237 OA
ATOM     73  O   UNL A   1      55.035  25.229  24.891  1.00  0.00    -0.744 OA
ENDBRANCH  69  70
ENDBRANCH  50  64
BRANCH  51  74
ATOM     74  C   UNL A   1      40.987  29.199  28.295  1.00  0.00    -0.014 A 
ATOM     75  C   UNL A   1      39.958  29.459  27.373  1.00  0.00     0.010 A 
ATOM     76  C   UNL A   1      40.680  29.156  29.668  1.00  0.00     0.010 A 
ATOM     77  C   UNL A   1      38.651  29.686  27.819  1.00  0.00     0.020 A 
ATOM     78  C   UNL A   1      39.370  29.354  30.114  1.00  0.00     0.020 A 
ATOM     79  C   UNL A   1      38.366  29.631  29.187  1.00  0.00     0.054 A 
BRANCH  79  80
ATOM     80  S   UNL A   1      36.656  29.883  29.740  1.00  0.00     0.124 S 
ATOM     81  O   UNL A   1      36.615  29.098  30.968  1.00  0.00    -0.237 OA
ATOM     82  O   UNL A   1      36.587  31.332  29.912  1.00  0.00    -0.237 OA
ATOM     83  O   UNL A   1      35.859  29.357  28.634  1.00  0.00    -0.744 OA
ENDBRANCH  79  80
ENDBRANCH  51  74
BRANCH  63  84
ATOM     84  C   UNL A   1      46.932  32.756  29.111  1.00  0.00    -0.014 A 
ATOM     85  C   UNL A   1      47.368  32.779  30.447  1.00  0.00     0.010 A 
ATOM     86  C   UNL A   1      46.864  33.962  28.390  1.00  0.00     0.010 A 
ATOM     87  C   UNL A   1      47.712  33.988  31.058  1.00  0.00     0.020 A 
ATOM     88  C   UNL A   1      47.230  35.170  28.989  1.00  0.00     0.020 A 
ATOM     89  C   UNL A   1      47.643  35.177  30.323  1.00  0.00     0.054 A 
BRANCH  89  90
ATOM     90  S   UNL A   1      48.150  36.726  31.119  1.00  0.00     0.124 S 
ATOM     91  O   UNL A   1      47.426  37.722  30.336  1.00  0.00    -0.237 OA
ATOM     92  O   UNL A   1      47.688  36.548  32.493  1.00  0.00    -0.237 OA
ATOM     93  O   UNL A   1      49.603  36.739  30.955  1.00  0.00    -0.744 OA
ENDBRANCH  89  90
ENDBRANCH  63  84
ENDBRANCH  37  38
ENDBRANCH  30  32
ENDBRANCH  29  30
ENDBRANCH  28  29
ENDBRANCH  27  28
ENDBRANCH  26  27
ENDBRANCH  25  26
ENDBRANCH   1  25
TORSDOF 24
ENDMDL
MODEL 3
REMARK VINA RESULT:      -7.7      7.903     15.920
REMARK SMILES CC(C)(C)OC(=O)[C@]1(C(=O)OCCOCCOCCOC(=O)c2ccc(-c3c4nc(c(-c5ccc(S(=O)(=O)[O-])cc5)c5ccc([nH]5)c(-c5ccc(S(=O)(=O)[O-])cc5)c5nc(c(-c6ccc(S(=O)(=O)[O-])cc6)c6ccc3[nH]6)C=C5)C=C4)cc2)CC=CC[C@@H]1[NH3+]
REMARK SMILES IDX 15 1 14 2 13 3 12 4 11 5 9 6 10 7 8 8 83 9 87 10 84 11 86 12
REMARK SMILES IDX 85 13 6 14 7 15 5 16 2 17 1 18 3 19 4 20 88 21 16 25 17 26
REMARK SMILES IDX 18 27 19 28 20 29 21 30 22 31 23 32 24 33 82 34 25 35 81 36
REMARK SMILES IDX 26 37 27 38 28 39 75 40 29 41 80 42 74 43 76 44 30 45 79 46
REMARK SMILES IDX 73 47 72 48 31 50 61 51 42 52 60 53 43 54 46 55 59 56 77 57
REMARK SMILES IDX 44 58 45 59 58 61 78 62 47 63 32 64 33 65 41 66 34 67 40 68
REMARK SMILES IDX 35 69 36 70 37 71 38 72 39 73 62 74 63 75 71 76 64 77 70 78
REMARK SMILES IDX 65 79 66 80 67 81 68 82 69 83 48 84 49 85 57 86 50 87 56 88
REMARK SMILES IDX 51 89 52 90 53 91 54 92 55 93
REMARK H PARENT 88 22 88 23 88 24 76 49 46 60
REMARK Flexibility Score: inf
ROOT
ATOM      1  C   UNL A   1      43.202  42.790  24.136  1.00  0.00     0.188 C 
ENDROOT
BRANCH   1   2
ATOM      2  O   UNL A   1      44.102  43.861  24.390  1.00  0.00    -0.376 OA
BRANCH   2   3
ATOM      3  C   UNL A   1      45.043  44.214  23.393  1.00  0.00     0.202 C 
BRANCH   3   4
ATOM      4  C   UNL A   1      44.487  44.451  21.994  1.00  0.00     0.261 C 
BRANCH   4   5
ATOM      5  O   UNL A   1      45.157  45.523  21.304  1.00  0.00    -0.462 OA
BRANCH   5   6
ATOM      6  C   UNL A   1      45.424  45.335  19.980  1.00  0.00     0.330 C 
ATOM      7  O   UNL A   1      45.777  44.251  19.531  1.00  0.00    -0.251 OA
BRANCH   6   8
ATOM      8  C   UNL A   1      45.210  46.607  19.118  1.00  0.00     0.219 C 
ATOM      9  C   UNL A   1      45.152  47.868  20.052  1.00  0.00     0.064 C 
ATOM     10  C   UNL A   1      46.441  46.596  18.115  1.00  0.00     0.214 C 
ATOM     11  C   UNL A   1      46.288  48.836  20.008  1.00  0.00    -0.029 C 
ATOM     12  C   UNL A   1      47.228  47.903  17.912  1.00  0.00     0.093 C 
ATOM     13  C   UNL A   1      47.219  48.851  19.055  1.00  0.00    -0.025 C 
BRANCH   8  14
ATOM     14  C   UNL A   1      43.886  46.422  18.342  1.00  0.00     0.330 C 
ATOM     15  O   UNL A   1      43.538  47.134  17.408  1.00  0.00    -0.251 OA
BRANCH  14  16
ATOM     16  O   UNL A   1      43.122  45.410  18.830  1.00  0.00    -0.459 OA
BRANCH  16  17
ATOM     17  C   UNL A   1      42.517  44.345  18.035  1.00  0.00     0.104 C 
ATOM     18  C   UNL A   1      42.421  43.146  18.989  1.00  0.00     0.056 C 
ATOM     19  C   UNL A   1      43.298  43.886  16.805  1.00  0.00     0.056 C 
ATOM     20  C   UNL A   1      41.120  44.810  17.629  1.00  0.00     0.056 C 
ENDBRANCH  16  17
ENDBRANCH  14  16
ENDBRANCH   8  14
BRANCH  10  21
ATOM     21  N   UNL A   1      46.210  46.032  16.769  1.00  0.00    -0.353 N 
ATOM     22  H   UNL A   1      46.408  46.742  16.063  1.00  0.00     0.344 HD
ATOM     23  H   UNL A   1      45.238  45.734  16.687  1.00  0.00     0.344 HD
ATOM     24  H   UNL A   1      46.824  45.231  16.627  1.00  0.00     0.344 HD
ENDBRANCH  10  21
ENDBRANCH   6   8
ENDBRANCH   5   6
ENDBRANCH   4   5
ENDBRANCH   3   4
ENDBRANCH   2   3
ENDBRANCH   1   2
BRANCH   1  25
ATOM     25  C   UNL A   1      42.982  41.725  25.233  1.00  0.00     0.188 C 
BRANCH  25  26
ATOM     26  O   UNL A   1      41.785  40.957  25.210  1.00  0.00    -0.376 OA
BRANCH  26  27
ATOM     27  C   UNL A   1      41.032  40.901  26.418  1.00  0.00     0.202 C 
BRANCH  27  28
ATOM     28  C   UNL A   1      41.599  39.972  27.492  1.00  0.00     0.261 C 
BRANCH  28  29
ATOM     29  O   UNL A   1      41.868  38.666  26.947  1.00  0.00    -0.460 OA
BRANCH  29  30
ATOM     30  C   UNL A   1      43.093  38.159  27.210  1.00  0.00     0.338 C 
ATOM     31  O   UNL A   1      44.174  38.688  26.984  1.00  0.00    -0.246 OA
BRANCH  30  32
ATOM     32  C   UNL A   1      42.960  36.876  27.920  1.00  0.00     0.060 A 
ATOM     33  C   UNL A   1      43.992  36.457  28.760  1.00  0.00     0.016 A 
ATOM     34  C   UNL A   1      41.887  36.028  27.661  1.00  0.00     0.016 A 
ATOM     35  C   UNL A   1      43.998  35.173  29.303  1.00  0.00     0.010 A 
ATOM     36  C   UNL A   1      41.872  34.750  28.234  1.00  0.00     0.010 A 
ATOM     37  C   UNL A   1      42.941  34.302  29.036  1.00  0.00    -0.014 A 
BRANCH  37  38
ATOM     38  C   UNL A   1      42.976  32.902  29.525  1.00  0.00     0.031 A 
ATOM     39  C   UNL A   1      42.262  32.548  30.800  1.00  0.00     0.074 A 
ATOM     40  C   UNL A   1      43.637  31.949  28.841  1.00  0.00     0.049 A 
ATOM     41  N   UNL A   1      42.350  31.463  31.523  1.00  0.00    -0.248 NA
ATOM     42  C   UNL A   1      41.320  33.550  31.325  1.00  0.00     0.031 C 
ATOM     43  C   UNL A   1      44.273  32.125  27.535  1.00  0.00     0.029 A 
ATOM     44  N   UNL A   1      43.898  30.641  29.166  1.00  0.00    -0.354 N 
ATOM     45  C   UNL A   1      41.510  31.666  32.612  1.00  0.00     0.074 A 
ATOM     46  C   UNL A   1      40.913  32.975  32.449  1.00  0.00     0.031 C 
ATOM     47  C   UNL A   1      44.869  30.975  27.181  1.00  0.00     0.029 A 
ATOM     48  C   UNL A   1      44.724  30.010  28.266  1.00  0.00     0.049 A 
ATOM     49  H   UNL A   1      43.530  30.197  29.965  1.00  0.00     0.167 HD
ATOM     50  C   UNL A   1      41.273  30.840  33.658  1.00  0.00     0.031 A 
ATOM     51  C   UNL A   1      45.349  28.817  28.337  1.00  0.00     0.031 A 
ATOM     52  C   UNL A   1      41.867  29.538  33.806  1.00  0.00     0.049 A 
ATOM     53  C   UNL A   1      45.172  27.968  29.567  1.00  0.00     0.074 A 
ATOM     54  C   UNL A   1      41.696  28.626  34.833  1.00  0.00     0.029 A 
ATOM     55  N   UNL A   1      42.749  28.965  32.903  1.00  0.00    -0.354 N 
ATOM     56  N   UNL A   1      44.420  28.188  30.620  1.00  0.00    -0.248 NA
ATOM     57  C   UNL A   1      45.947  26.720  29.630  1.00  0.00     0.031 C 
ATOM     58  C   UNL A   1      42.519  27.523  34.578  1.00  0.00     0.029 A 
ATOM     59  C   UNL A   1      43.160  27.725  33.366  1.00  0.00     0.049 A 
ATOM     60  H   UNL A   1      43.040  29.376  32.059  1.00  0.00     0.167 HD
ATOM     61  C   UNL A   1      44.624  27.102  31.464  1.00  0.00     0.074 A 
ATOM     62  C   UNL A   1      45.554  26.218  30.793  1.00  0.00     0.031 C 
ATOM     63  C   UNL A   1      44.092  26.861  32.688  1.00  0.00     0.031 A 
BRANCH  50  64
ATOM     64  C   UNL A   1      40.383  31.348  34.759  1.00  0.00    -0.014 A 
ATOM     65  C   UNL A   1      38.993  31.144  34.737  1.00  0.00     0.010 A 
ATOM     66  C   UNL A   1      40.962  32.008  35.859  1.00  0.00     0.010 A 
ATOM     67  C   UNL A   1      38.194  31.621  35.781  1.00  0.00     0.020 A 
ATOM     68  C   UNL A   1      40.170  32.466  36.914  1.00  0.00     0.020 A 
ATOM     69  C   UNL A   1      38.788  32.283  36.861  1.00  0.00     0.054 A 
BRANCH  69  70
ATOM     70  S   UNL A   1      37.731  32.872  38.213  1.00  0.00     0.124 S 
ATOM     71  O   UNL A   1      38.333  34.167  38.522  1.00  0.00    -0.237 OA
ATOM     72  O   UNL A   1      36.411  32.926  37.590  1.00  0.00    -0.237 OA
ATOM     73  O   UNL A   1      37.888  31.851  39.247  1.00  0.00    -0.744 OA
ENDBRANCH  69  70
ENDBRANCH  50  64
BRANCH  51  74
ATOM     74  C   UNL A   1      46.278  28.400  27.251  1.00  0.00    -0.014 A 
ATOM     75  C   UNL A   1      47.642  28.732  27.304  1.00  0.00     0.010 A 
ATOM     76  C   UNL A   1      45.794  27.668  26.150  1.00  0.00     0.010 A 
ATOM     77  C   UNL A   1      48.503  28.351  26.268  1.00  0.00     0.020 A 
ATOM     78  C   UNL A   1      46.656  27.261  25.128  1.00  0.00     0.020 A 
ATOM     79  C   UNL A   1      48.003  27.616  25.187  1.00  0.00     0.054 A 
BRANCH  79  80
ATOM     80  S   UNL A   1      49.145  27.093  23.877  1.00  0.00     0.124 S 
ATOM     81  O   UNL A   1      48.227  26.651  22.833  1.00  0.00    -0.237 OA
ATOM     82  O   UNL A   1      49.885  28.319  23.591  1.00  0.00    -0.237 OA
ATOM     83  O   UNL A   1      49.929  26.035  24.510  1.00  0.00    -0.744 OA
ENDBRANCH  79  80
ENDBRANCH  51  74
BRANCH  63  84
ATOM     84  C   UNL A   1      44.491  25.584  33.378  1.00  0.00    -0.014 A 
ATOM     85  C   UNL A   1      43.922  24.354  33.005  1.00  0.00     0.010 A 
ATOM     86  C   UNL A   1      45.494  25.607  34.362  1.00  0.00     0.010 A 
ATOM     87  C   UNL A   1      44.336  23.169  33.620  1.00  0.00     0.020 A 
ATOM     88  C   UNL A   1      45.929  24.423  34.963  1.00  0.00     0.020 A 
ATOM     89  C   UNL A   1      45.340  23.212  34.595  1.00  0.00     0.054 A 
BRANCH  89  90
ATOM     90  S   UNL A   1      45.902  21.655  35.337  1.00  0.00     0.124 S 
ATOM     91  O   UNL A   1      47.240  21.513  34.770  1.00  0.00    -0.237 OA
ATOM     92  O   UNL A   1      45.853  21.943  36.768  1.00  0.00    -0.237 OA
ATOM     93  O   UNL A   1      44.921  20.676  34.872  1.00  0.00    -0.744 OA
ENDBRANCH  89  90
ENDBRANCH  63  84
ENDBRANCH  37  38
ENDBRANCH  30  32
ENDBRANCH  29  30
ENDBRANCH  28  29
ENDBRANCH  27  28
ENDBRANCH  26  27
ENDBRANCH  25  26
ENDBRANCH   1  25
TORSDOF 24
ENDMDL
