MODEL 1
REMARK VINA RESULT:      -7.9      0.000      0.000
REMARK SMILES CC(C)N1C[C@@H](C(=O)N2CCC(C(=O)OCCOCCOCCOC(=O)c3ccc(-c4c5nc(c(-c6ccc(S(=O)(=O)[O-])cc6)c6ccc([nH]6)c(-c6ccc(S(=O)(=O)[O-])cc6)c6nc(c(-c7ccc(S(=O)(=O)[O-])cc7)c7ccc4[nH]7)C=C6)C=C5)cc3)CC2)CC1=O
REMARK SMILES IDX 20 1 19 2 18 3 17 4 16 5 15 6 13 7 14 8 12 9 7 10 8 11 9 12
REMARK SMILES IDX 10 13 88 14 11 15 87 16 6 17 4 18 5 19 90 20 89 21 91 22
REMARK SMILES IDX 2 23 1 24 3 25 21 26 22 27 23 28 24 29 25 30 26 31 27 32
REMARK SMILES IDX 28 33 86 34 29 35 85 36 30 37 31 38 32 39 79 40 33 41 84 42
REMARK SMILES IDX 78 43 80 44 34 45 83 46 77 47 76 48 35 50 65 51 46 52 64 53
REMARK SMILES IDX 47 54 50 55 63 56 81 57 48 58 49 59 62 61 82 62 51 63 36 64
REMARK SMILES IDX 37 65 45 66 38 67 44 68 39 69 40 70 41 71 42 72 43 73 66 74
REMARK SMILES IDX 67 75 75 76 68 77 74 78 69 79 70 80 71 81 72 82 73 83 52 84
REMARK SMILES IDX 53 85 61 86 54 87 60 88 55 89 56 90 57 91 58 92 59 93
REMARK H PARENT 80 49 50 60
REMARK Flexibility Score: inf
ROOT
ATOM      1  C   UNL A   1      43.042  18.256  26.047  1.00  0.00     0.188 C 
ENDROOT
BRANCH   1   2
ATOM      2  C   UNL A   1      44.550  18.274  25.807  1.00  0.00     0.188 C 
BRANCH   2   3
ATOM      3  O   UNL A   1      44.989  18.981  24.653  1.00  0.00    -0.376 OA
BRANCH   3   4
ATOM      4  C   UNL A   1      45.870  20.083  24.861  1.00  0.00     0.202 C 
BRANCH   4   5
ATOM      5  C   UNL A   1      45.227  21.461  25.090  1.00  0.00     0.261 C 
BRANCH   5   6
ATOM      6  O   UNL A   1      45.785  22.221  26.183  1.00  0.00    -0.463 OA
BRANCH   6   7
ATOM      7  C   UNL A   1      45.016  23.248  26.630  1.00  0.00     0.309 C 
ATOM      8  O   UNL A   1      44.183  23.151  27.525  1.00  0.00    -0.252 OA
BRANCH   7   9
ATOM      9  C   UNL A   1      45.310  24.587  25.971  1.00  0.00     0.103 C 
ATOM     10  C   UNL A   1      44.939  28.498  26.813  1.00  0.00     0.227 C 
ATOM     11  O   UNL A   1      43.727  28.578  27.041  1.00  0.00    -0.274 OA
ATOM     12  N   UNL A   1      45.444  27.472  26.034  1.00  0.00    -0.342 N 
ATOM     13  C   UNL A   1      44.557  26.827  25.070  1.00  0.00     0.120 C 
ATOM     14  C   UNL A   1      46.641  26.701  26.335  1.00  0.00     0.120 C 
ATOM     15  C   UNL A   1      44.109  25.445  25.548  1.00  0.00     0.037 C 
ATOM     16  C   UNL A   1      46.227  25.361  26.929  1.00  0.00     0.037 C 
BRANCH  10  17
ATOM     17  C   UNL A   1      45.823  29.674  27.209  1.00  0.00     0.107 C 
ATOM     18  N   UNL A   1      45.789  32.014  27.328  1.00  0.00    -0.339 N 
ATOM     19  C   UNL A   1      44.952  30.868  27.562  1.00  0.00     0.133 C 
ATOM     20  C   UNL A   1      46.949  31.694  26.646  1.00  0.00     0.223 C 
ATOM     21  C   UNL A   1      46.920  30.222  26.308  1.00  0.00     0.115 C 
ATOM     22  O   UNL A   1      47.852  32.455  26.334  1.00  0.00    -0.275 OA
BRANCH  18  23
ATOM     23  C   UNL A   1      45.411  33.335  27.829  1.00  0.00     0.078 C 
ATOM     24  C   UNL A   1      43.952  33.352  28.274  1.00  0.00     0.031 C 
ATOM     25  C   UNL A   1      46.344  33.829  28.933  1.00  0.00     0.031 C 
ENDBRANCH  18  23
ENDBRANCH  10  17
ENDBRANCH   7   9
ENDBRANCH   6   7
ENDBRANCH   5   6
ENDBRANCH   4   5
ENDBRANCH   3   4
ENDBRANCH   2   3
ENDBRANCH   1   2
BRANCH   1  26
ATOM     26  O   UNL A   1      42.296  19.261  25.383  1.00  0.00    -0.376 OA
BRANCH  26  27
ATOM     27  C   UNL A   1      41.592  20.203  26.195  1.00  0.00     0.202 C 
BRANCH  27  28
ATOM     28  C   UNL A   1      40.133  20.572  25.827  1.00  0.00     0.261 C 
BRANCH  28  29
ATOM     29  O   UNL A   1      39.452  21.536  26.662  1.00  0.00    -0.460 OA
BRANCH  29  30
ATOM     30  C   UNL A   1      38.865  22.602  26.060  1.00  0.00     0.338 C 
ATOM     31  O   UNL A   1      37.972  22.551  25.239  1.00  0.00    -0.246 OA
BRANCH  30  32
ATOM     32  C   UNL A   1      39.276  23.852  26.779  1.00  0.00     0.060 A 
ATOM     33  C   UNL A   1      40.117  24.748  26.100  1.00  0.00     0.016 A 
ATOM     34  C   UNL A   1      38.799  24.193  28.048  1.00  0.00     0.016 A 
ATOM     35  C   UNL A   1      40.518  25.951  26.698  1.00  0.00     0.010 A 
ATOM     36  C   UNL A   1      39.219  25.388  28.656  1.00  0.00     0.010 A 
ATOM     37  C   UNL A   1      40.111  26.260  28.001  1.00  0.00    -0.014 A 
BRANCH  37  38
ATOM     38  C   UNL A   1      40.782  27.360  28.754  1.00  0.00     0.031 A 
ATOM     39  C   UNL A   1      40.000  28.629  29.000  1.00  0.00     0.074 A 
ATOM     40  C   UNL A   1      42.032  27.254  29.246  1.00  0.00     0.049 A 
ATOM     41  N   UNL A   1      40.375  29.744  29.572  1.00  0.00    -0.248 NA
ATOM     42  C   UNL A   1      38.601  28.633  28.537  1.00  0.00     0.031 C 
ATOM     43  C   UNL A   1      42.888  26.073  29.150  1.00  0.00     0.029 A 
ATOM     44  N   UNL A   1      42.802  28.170  29.927  1.00  0.00    -0.354 N 
ATOM     45  C   UNL A   1      39.267  30.584  29.531  1.00  0.00     0.074 A 
ATOM     46  C   UNL A   1      38.216  29.861  28.849  1.00  0.00     0.031 C 
ATOM     47  C   UNL A   1      44.069  26.340  29.739  1.00  0.00     0.029 A 
ATOM     48  C   UNL A   1      44.072  27.723  30.219  1.00  0.00     0.049 A 
ATOM     49  H   UNL A   1      42.476  29.063  30.181  1.00  0.00     0.167 HD
ATOM     50  C   UNL A   1      39.126  31.838  30.021  1.00  0.00     0.031 A 
ATOM     51  C   UNL A   1      45.121  28.359  30.785  1.00  0.00     0.031 A 
ATOM     52  C   UNL A   1      40.170  32.574  30.683  1.00  0.00     0.049 A 
ATOM     53  C   UNL A   1      44.975  29.799  31.224  1.00  0.00     0.074 A 
ATOM     54  C   UNL A   1      40.120  33.856  31.205  1.00  0.00     0.029 A 
ATOM     55  N   UNL A   1      41.452  32.101  30.912  1.00  0.00    -0.354 N 
ATOM     56  N   UNL A   1      43.918  30.574  31.184  1.00  0.00    -0.248 NA
ATOM     57  C   UNL A   1      46.169  30.447  31.792  1.00  0.00     0.031 C 
ATOM     58  C   UNL A   1      41.389  34.180  31.693  1.00  0.00     0.029 A 
ATOM     59  C   UNL A   1      42.209  33.074  31.544  1.00  0.00     0.049 A 
ATOM     60  H   UNL A   1      41.777  31.206  30.661  1.00  0.00     0.167 HD
ATOM     61  C   UNL A   1      44.310  31.784  31.754  1.00  0.00     0.074 A 
ATOM     62  C   UNL A   1      45.695  31.634  32.144  1.00  0.00     0.031 C 
ATOM     63  C   UNL A   1      43.586  32.916  31.941  1.00  0.00     0.031 A 
BRANCH  50  64
ATOM     64  C   UNL A   1      37.790  32.511  29.833  1.00  0.00    -0.014 A 
ATOM     65  C   UNL A   1      36.894  32.663  30.907  1.00  0.00     0.010 A 
ATOM     66  C   UNL A   1      37.444  33.033  28.573  1.00  0.00     0.010 A 
ATOM     67  C   UNL A   1      35.661  33.291  30.714  1.00  0.00     0.020 A 
ATOM     68  C   UNL A   1      36.225  33.692  28.384  1.00  0.00     0.020 A 
ATOM     69  C   UNL A   1      35.334  33.801  29.454  1.00  0.00     0.054 A 
BRANCH  69  70
ATOM     70  S   UNL A   1      33.736  34.633  29.243  1.00  0.00     0.124 S 
ATOM     71  O   UNL A   1      34.148  35.988  28.888  1.00  0.00    -0.237 OA
ATOM     72  O   UNL A   1      33.117  33.864  28.167  1.00  0.00    -0.237 OA
ATOM     73  O   UNL A   1      33.098  34.499  30.550  1.00  0.00    -0.744 OA
ENDBRANCH  69  70
ENDBRANCH  50  64
BRANCH  51  74
ATOM     74  C   UNL A   1      46.432  27.662  30.948  1.00  0.00    -0.014 A 
ATOM     75  C   UNL A   1      46.723  26.937  32.118  1.00  0.00     0.010 A 
ATOM     76  C   UNL A   1      47.419  27.762  29.950  1.00  0.00     0.010 A 
ATOM     77  C   UNL A   1      47.981  26.351  32.299  1.00  0.00     0.020 A 
ATOM     78  C   UNL A   1      48.665  27.149  30.110  1.00  0.00     0.020 A 
ATOM     79  C   UNL A   1      48.944  26.459  31.292  1.00  0.00     0.054 A 
BRANCH  79  80
ATOM     80  S   UNL A   1      50.557  25.664  31.535  1.00  0.00     0.124 S 
ATOM     81  O   UNL A   1      50.175  24.312  31.928  1.00  0.00    -0.237 OA
ATOM     82  O   UNL A   1      51.171  25.791  30.215  1.00  0.00    -0.237 OA
ATOM     83  O   UNL A   1      51.180  26.468  32.584  1.00  0.00    -0.744 OA
ENDBRANCH  79  80
ENDBRANCH  51  74
BRANCH  63  84
ATOM     84  C   UNL A   1      44.250  34.073  32.648  1.00  0.00    -0.014 A 
ATOM     85  C   UNL A   1      44.229  34.193  34.048  1.00  0.00     0.010 A 
ATOM     86  C   UNL A   1      44.962  35.026  31.894  1.00  0.00     0.010 A 
ATOM     87  C   UNL A   1      44.877  35.262  34.678  1.00  0.00     0.020 A 
ATOM     88  C   UNL A   1      45.638  36.077  32.520  1.00  0.00     0.020 A 
ATOM     89  C   UNL A   1      45.579  36.197  33.910  1.00  0.00     0.054 A 
BRANCH  89  90
ATOM     90  S   UNL A   1      46.448  37.547  34.754  1.00  0.00     0.124 S 
ATOM     91  O   UNL A   1      46.268  37.193  36.159  1.00  0.00    -0.237 OA
ATOM     92  O   UNL A   1      47.810  37.420  34.242  1.00  0.00    -0.237 OA
ATOM     93  O   UNL A   1      45.734  38.746  34.319  1.00  0.00    -0.744 OA
ENDBRANCH  89  90
ENDBRANCH  63  84
ENDBRANCH  37  38
ENDBRANCH  30  32
ENDBRANCH  29  30
ENDBRANCH  28  29
ENDBRANCH  27  28
ENDBRANCH  26  27
ENDBRANCH   1  26
TORSDOF 22
ENDMDL
MODEL 2
REMARK VINA RESULT:      -7.4      3.989      5.063
REMARK SMILES CC(C)N1C[C@@H](C(=O)N2CCC(C(=O)OCCOCCOCCOC(=O)c3ccc(-c4c5nc(c(-c6ccc(S(=O)(=O)[O-])cc6)c6ccc([nH]6)c(-c6ccc(S(=O)(=O)[O-])cc6)c6nc(c(-c7ccc(S(=O)(=O)[O-])cc7)c7ccc4[nH]7)C=C6)C=C5)cc3)CC2)CC1=O
REMARK SMILES IDX 20 1 19 2 18 3 17 4 16 5 15 6 13 7 14 8 12 9 7 10 8 11 9 12
REMARK SMILES IDX 10 13 88 14 11 15 87 16 6 17 4 18 5 19 90 20 89 21 91 22
REMARK SMILES IDX 2 23 1 24 3 25 21 26 22 27 23 28 24 29 25 30 26 31 27 32
REMARK SMILES IDX 28 33 86 34 29 35 85 36 30 37 31 38 32 39 79 40 33 41 84 42
REMARK SMILES IDX 78 43 80 44 34 45 83 46 77 47 76 48 35 50 65 51 46 52 64 53
REMARK SMILES IDX 47 54 50 55 63 56 81 57 48 58 49 59 62 61 82 62 51 63 36 64
REMARK SMILES IDX 37 65 45 66 38 67 44 68 39 69 40 70 41 71 42 72 43 73 66 74
REMARK SMILES IDX 67 75 75 76 68 77 74 78 69 79 70 80 71 81 72 82 73 83 52 84
REMARK SMILES IDX 53 85 61 86 54 87 60 88 55 89 56 90 57 91 58 92 59 93
REMARK H PARENT 80 49 50 60
REMARK Flexibility Score: inf
ROOT
ATOM      1  C   UNL A   1      40.600  21.788  27.442  1.00  0.00     0.188 C 
ENDROOT
BRANCH   1   2
ATOM      2  C   UNL A   1      41.664  20.705  27.276  1.00  0.00     0.188 C 
BRANCH   2   3
ATOM      3  O   UNL A   1      41.913  20.275  25.943  1.00  0.00    -0.376 OA
BRANCH   3   4
ATOM      4  C   UNL A   1      42.675  19.081  25.777  1.00  0.00     0.202 C 
BRANCH   4   5
ATOM      5  C   UNL A   1      44.087  19.228  25.186  1.00  0.00     0.261 C 
BRANCH   5   6
ATOM      6  O   UNL A   1      44.314  20.446  24.445  1.00  0.00    -0.463 OA
BRANCH   6   7
ATOM      7  C   UNL A   1      45.307  21.240  24.923  1.00  0.00     0.309 C 
ATOM      8  O   UNL A   1      46.491  20.922  24.962  1.00  0.00    -0.252 OA
BRANCH   7   9
ATOM      9  C   UNL A   1      44.849  22.623  25.362  1.00  0.00     0.103 C 
ATOM     10  C   UNL A   1      46.339  25.807  27.307  1.00  0.00     0.227 C 
ATOM     11  O   UNL A   1      46.683  25.293  28.378  1.00  0.00    -0.274 OA
ATOM     12  N   UNL A   1      45.364  25.218  26.523  1.00  0.00    -0.342 N 
ATOM     13  C   UNL A   1      44.390  24.339  27.163  1.00  0.00     0.120 C 
ATOM     14  C   UNL A   1      45.429  25.064  25.077  1.00  0.00     0.120 C 
ATOM     15  C   UNL A   1      44.677  22.865  26.869  1.00  0.00     0.037 C 
ATOM     16  C   UNL A   1      45.834  23.631  24.754  1.00  0.00     0.037 C 
BRANCH  10  17
ATOM     17  C   UNL A   1      46.839  27.211  26.992  1.00  0.00     0.107 C 
ATOM     18  N   UNL A   1      46.538  29.439  27.654  1.00  0.00    -0.339 N 
ATOM     19  C   UNL A   1      46.621  28.111  28.198  1.00  0.00     0.133 C 
ATOM     20  C   UNL A   1      46.420  29.442  26.276  1.00  0.00     0.223 C 
ATOM     21  C   UNL A   1      46.352  28.012  25.794  1.00  0.00     0.115 C 
ATOM     22  O   UNL A   1      46.356  30.419  25.546  1.00  0.00    -0.275 OA
BRANCH  18  23
ATOM     23  C   UNL A   1      46.622  30.613  28.523  1.00  0.00     0.078 C 
ATOM     24  C   UNL A   1      46.191  30.271  29.945  1.00  0.00     0.031 C 
ATOM     25  C   UNL A   1      48.004  31.262  28.492  1.00  0.00     0.031 C 
ENDBRANCH  18  23
ENDBRANCH  10  17
ENDBRANCH   7   9
ENDBRANCH   6   7
ENDBRANCH   5   6
ENDBRANCH   4   5
ENDBRANCH   3   4
ENDBRANCH   2   3
ENDBRANCH   1   2
BRANCH   1  26
ATOM     26  O   UNL A   1      41.056  23.126  27.349  1.00  0.00    -0.376 OA
BRANCH  26  27
ATOM     27  C   UNL A   1      40.619  23.894  26.226  1.00  0.00     0.202 C 
BRANCH  27  28
ATOM     28  C   UNL A   1      41.640  24.793  25.485  1.00  0.00     0.261 C 
BRANCH  28  29
ATOM     29  O   UNL A   1      41.284  26.177  25.264  1.00  0.00    -0.460 OA
BRANCH  29  30
ATOM     30  C   UNL A   1      42.254  27.116  25.392  1.00  0.00     0.338 C 
ATOM     31  O   UNL A   1      42.894  27.605  24.483  1.00  0.00    -0.246 OA
BRANCH  30  32
ATOM     32  C   UNL A   1      42.212  27.672  26.783  1.00  0.00     0.060 A 
ATOM     33  C   UNL A   1      41.412  27.009  27.728  1.00  0.00     0.016 A 
ATOM     34  C   UNL A   1      42.987  28.761  27.192  1.00  0.00     0.016 A 
ATOM     35  C   UNL A   1      41.347  27.454  29.054  1.00  0.00     0.010 A 
ATOM     36  C   UNL A   1      42.904  29.222  28.518  1.00  0.00     0.010 A 
ATOM     37  C   UNL A   1      42.056  28.595  29.451  1.00  0.00    -0.014 A 
BRANCH  37  38
ATOM     38  C   UNL A   1      41.745  29.255  30.752  1.00  0.00     0.031 A 
ATOM     39  C   UNL A   1      40.545  30.171  30.812  1.00  0.00     0.074 A 
ATOM     40  C   UNL A   1      42.465  29.043  31.871  1.00  0.00     0.049 A 
ATOM     41  N   UNL A   1      40.102  30.904  31.801  1.00  0.00    -0.248 NA
ATOM     42  C   UNL A   1      39.735  30.265  29.585  1.00  0.00     0.031 C 
ATOM     43  C   UNL A   1      43.607  28.140  31.991  1.00  0.00     0.029 A 
ATOM     44  N   UNL A   1      42.337  29.588  33.130  1.00  0.00    -0.354 N 
ATOM     45  C   UNL A   1      38.971  31.553  31.316  1.00  0.00     0.074 A 
ATOM     46  C   UNL A   1      38.815  31.151  29.935  1.00  0.00     0.031 C 
ATOM     47  C   UNL A   1      44.083  28.201  33.249  1.00  0.00     0.029 A 
ATOM     48  C   UNL A   1      43.307  29.177  34.016  1.00  0.00     0.049 A 
ATOM     49  H   UNL A   1      41.619  30.215  33.373  1.00  0.00     0.167 HD
ATOM     50  C   UNL A   1      38.129  32.398  31.956  1.00  0.00     0.031 A 
ATOM     51  C   UNL A   1      43.557  29.558  35.288  1.00  0.00     0.031 A 
ATOM     52  C   UNL A   1      38.286  32.820  33.323  1.00  0.00     0.049 A 
ATOM     53  C   UNL A   1      42.670  30.590  35.948  1.00  0.00     0.074 A 
ATOM     54  C   UNL A   1      37.486  33.684  34.053  1.00  0.00     0.029 A 
ATOM     55  N   UNL A   1      39.310  32.418  34.165  1.00  0.00    -0.354 N 
ATOM     56  N   UNL A   1      41.601  31.187  35.476  1.00  0.00    -0.248 NA
ATOM     57  C   UNL A   1      43.023  30.995  37.319  1.00  0.00     0.031 C 
ATOM     58  C   UNL A   1      38.061  33.851  35.316  1.00  0.00     0.029 A 
ATOM     59  C   UNL A   1      39.176  33.034  35.398  1.00  0.00     0.049 A 
ATOM     60  H   UNL A   1      40.026  31.788  33.922  1.00  0.00     0.167 HD
ATOM     61  C   UNL A   1      41.136  32.005  36.505  1.00  0.00     0.074 A 
ATOM     62  C   UNL A   1      42.029  31.817  37.627  1.00  0.00     0.031 C 
ATOM     63  C   UNL A   1      40.063  32.835  36.518  1.00  0.00     0.031 A 
BRANCH  50  64
ATOM     64  C   UNL A   1      36.969  32.951  31.169  1.00  0.00    -0.014 A 
ATOM     65  C   UNL A   1      35.657  32.491  31.387  1.00  0.00     0.010 A 
ATOM     66  C   UNL A   1      37.187  33.972  30.227  1.00  0.00     0.010 A 
ATOM     67  C   UNL A   1      34.592  33.015  30.650  1.00  0.00     0.020 A 
ATOM     68  C   UNL A   1      36.121  34.523  29.510  1.00  0.00     0.020 A 
ATOM     69  C   UNL A   1      34.831  34.028  29.716  1.00  0.00     0.054 A 
BRANCH  69  70
ATOM     70  S   UNL A   1      33.425  34.705  28.792  1.00  0.00     0.124 S 
ATOM     71  O   UNL A   1      32.490  35.032  29.867  1.00  0.00    -0.237 OA
ATOM     72  O   UNL A   1      34.017  35.851  28.107  1.00  0.00    -0.237 OA
ATOM     73  O   UNL A   1      33.015  33.604  27.925  1.00  0.00    -0.744 OA
ENDBRANCH  69  70
ENDBRANCH  50  64
BRANCH  51  74
ATOM     74  C   UNL A   1      44.722  28.995  36.034  1.00  0.00    -0.014 A 
ATOM     75  C   UNL A   1      44.579  27.848  36.835  1.00  0.00     0.010 A 
ATOM     76  C   UNL A   1      45.974  29.635  35.985  1.00  0.00     0.010 A 
ATOM     77  C   UNL A   1      45.654  27.369  37.593  1.00  0.00     0.020 A 
ATOM     78  C   UNL A   1      47.061  29.140  36.712  1.00  0.00     0.020 A 
ATOM     79  C   UNL A   1      46.890  28.017  37.525  1.00  0.00     0.054 A 
BRANCH  79  80
ATOM     80  S   UNL A   1      48.278  27.360  38.491  1.00  0.00     0.124 S 
ATOM     81  O   UNL A   1      49.429  27.909  37.783  1.00  0.00    -0.237 OA
ATOM     82  O   UNL A   1      48.026  27.915  39.819  1.00  0.00    -0.237 OA
ATOM     83  O   UNL A   1      48.112  25.912  38.387  1.00  0.00    -0.744 OA
ENDBRANCH  79  80
ENDBRANCH  51  74
BRANCH  63  84
ATOM     84  C   UNL A   1      39.750  33.567  37.801  1.00  0.00    -0.014 A 
ATOM     85  C   UNL A   1      38.792  33.087  38.710  1.00  0.00     0.010 A 
ATOM     86  C   UNL A   1      40.477  34.729  38.128  1.00  0.00     0.010 A 
ATOM     87  C   UNL A   1      38.542  33.772  39.905  1.00  0.00     0.020 A 
ATOM     88  C   UNL A   1      40.254  35.398  39.334  1.00  0.00     0.020 A 
ATOM     89  C   UNL A   1      39.276  34.923  40.210  1.00  0.00     0.054 A 
BRANCH  89  90
ATOM     90  S   UNL A   1      38.964  35.767  41.786  1.00  0.00     0.124 S 
ATOM     91  O   UNL A   1      39.144  37.169  41.420  1.00  0.00    -0.237 OA
ATOM     92  O   UNL A   1      37.593  35.368  42.096  1.00  0.00    -0.237 OA
ATOM     93  O   UNL A   1      39.983  35.221  42.680  1.00  0.00    -0.744 OA
ENDBRANCH  89  90
ENDBRANCH  63  84
ENDBRANCH  37  38
ENDBRANCH  30  32
ENDBRANCH  29  30
ENDBRANCH  28  29
ENDBRANCH  27  28
ENDBRANCH  26  27
ENDBRANCH   1  26
TORSDOF 22
ENDMDL
MODEL 3
REMARK VINA RESULT:      -7.3      5.099      7.957
REMARK SMILES CC(C)N1C[C@@H](C(=O)N2CCC(C(=O)OCCOCCOCCOC(=O)c3ccc(-c4c5nc(c(-c6ccc(S(=O)(=O)[O-])cc6)c6ccc([nH]6)c(-c6ccc(S(=O)(=O)[O-])cc6)c6nc(c(-c7ccc(S(=O)(=O)[O-])cc7)c7ccc4[nH]7)C=C6)C=C5)cc3)CC2)CC1=O
REMARK SMILES IDX 20 1 19 2 18 3 17 4 16 5 15 6 13 7 14 8 12 9 7 10 8 11 9 12
REMARK SMILES IDX 10 13 88 14 11 15 87 16 6 17 4 18 5 19 90 20 89 21 91 22
REMARK SMILES IDX 2 23 1 24 3 25 21 26 22 27 23 28 24 29 25 30 26 31 27 32
REMARK SMILES IDX 28 33 86 34 29 35 85 36 30 37 31 38 32 39 79 40 33 41 84 42
REMARK SMILES IDX 78 43 80 44 34 45 83 46 77 47 76 48 35 50 65 51 46 52 64 53
REMARK SMILES IDX 47 54 50 55 63 56 81 57 48 58 49 59 62 61 82 62 51 63 36 64
REMARK SMILES IDX 37 65 45 66 38 67 44 68 39 69 40 70 41 71 42 72 43 73 66 74
REMARK SMILES IDX 67 75 75 76 68 77 74 78 69 79 70 80 71 81 72 82 73 83 52 84
REMARK SMILES IDX 53 85 61 86 54 87 60 88 55 89 56 90 57 91 58 92 59 93
REMARK H PARENT 80 49 50 60
REMARK Flexibility Score: inf
ROOT
ATOM      1  C   UNL A   1      37.149  21.256  25.456  1.00  0.00     0.188 C 
ENDROOT
BRANCH   1   2
ATOM      2  C   UNL A   1      36.012  20.323  25.044  1.00  0.00     0.188 C 
BRANCH   2   3
ATOM      3  O   UNL A   1      34.787  20.953  24.688  1.00  0.00    -0.376 OA
BRANCH   3   4
ATOM      4  C   UNL A   1      33.985  21.462  25.752  1.00  0.00     0.202 C 
BRANCH   4   5
ATOM      5  C   UNL A   1      32.779  22.334  25.365  1.00  0.00     0.261 C 
BRANCH   5   6
ATOM      6  O   UNL A   1      31.905  22.687  26.458  1.00  0.00    -0.463 OA
BRANCH   6   7
ATOM      7  C   UNL A   1      31.275  23.884  26.336  1.00  0.00     0.309 C 
ATOM      8  O   UNL A   1      30.153  24.125  26.770  1.00  0.00    -0.252 OA
BRANCH   7   9
ATOM      9  C   UNL A   1      32.105  24.966  25.660  1.00  0.00     0.103 C 
ATOM     10  C   UNL A   1      32.175  28.974  25.391  1.00  0.00     0.227 C 
ATOM     11  O   UNL A   1      31.040  29.203  24.956  1.00  0.00    -0.274 OA
ATOM     12  N   UNL A   1      32.768  27.739  25.198  1.00  0.00    -0.342 N 
ATOM     13  C   UNL A   1      32.327  26.922  24.071  1.00  0.00     0.120 C 
ATOM     14  C   UNL A   1      33.504  26.995  26.208  1.00  0.00     0.120 C 
ATOM     15  C   UNL A   1      31.440  25.761  24.526  1.00  0.00     0.037 C 
ATOM     16  C   UNL A   1      32.601  25.903  26.770  1.00  0.00     0.037 C 
BRANCH  10  17
ATOM     17  C   UNL A   1      32.986  30.145  25.931  1.00  0.00     0.107 C 
ATOM     18  N   UNL A   1      34.590  30.644  27.566  1.00  0.00    -0.339 N 
ATOM     19  C   UNL A   1      34.237  29.622  26.618  1.00  0.00     0.133 C 
ATOM     20  C   UNL A   1      33.590  31.588  27.725  1.00  0.00     0.223 C 
ATOM     21  C   UNL A   1      32.407  31.184  26.878  1.00  0.00     0.115 C 
ATOM     22  O   UNL A   1      33.621  32.577  28.440  1.00  0.00    -0.275 OA
BRANCH  18  23
ATOM     23  C   UNL A   1      35.900  30.647  28.216  1.00  0.00     0.078 C 
ATOM     24  C   UNL A   1      36.846  29.661  27.539  1.00  0.00     0.031 C 
ATOM     25  C   UNL A   1      36.507  32.045  28.299  1.00  0.00     0.031 C 
ENDBRANCH  18  23
ENDBRANCH  10  17
ENDBRANCH   7   9
ENDBRANCH   6   7
ENDBRANCH   5   6
ENDBRANCH   4   5
ENDBRANCH   3   4
ENDBRANCH   2   3
ENDBRANCH   1   2
BRANCH   1  26
ATOM     26  O   UNL A   1      37.168  22.526  24.828  1.00  0.00    -0.376 OA
BRANCH  26  27
ATOM     27  C   UNL A   1      37.369  23.669  25.661  1.00  0.00     0.202 C 
BRANCH  27  28
ATOM     28  C   UNL A   1      38.752  23.885  26.325  1.00  0.00     0.261 C 
BRANCH  28  29
ATOM     29  O   UNL A   1      38.855  24.893  27.355  1.00  0.00    -0.460 OA
BRANCH  29  30
ATOM     30  C   UNL A   1      39.842  25.818  27.250  1.00  0.00     0.338 C 
ATOM     31  O   UNL A   1      40.486  26.059  26.249  1.00  0.00    -0.246 OA
BRANCH  30  32
ATOM     32  C   UNL A   1      39.815  26.697  28.464  1.00  0.00     0.060 A 
ATOM     33  C   UNL A   1      40.643  27.831  28.467  1.00  0.00     0.016 A 
ATOM     34  C   UNL A   1      38.954  26.480  29.544  1.00  0.00     0.016 A 
ATOM     35  C   UNL A   1      40.649  28.714  29.555  1.00  0.00     0.010 A 
ATOM     36  C   UNL A   1      38.976  27.353  30.644  1.00  0.00     0.010 A 
ATOM     37  C   UNL A   1      39.850  28.458  30.675  1.00  0.00    -0.014 A 
BRANCH  37  38
ATOM     38  C   UNL A   1      40.085  29.199  31.949  1.00  0.00     0.031 A 
ATOM     39  C   UNL A   1      39.142  30.326  32.297  1.00  0.00     0.074 A 
ATOM     40  C   UNL A   1      41.075  28.884  32.807  1.00  0.00     0.049 A 
ATOM     41  N   UNL A   1      39.168  31.155  33.309  1.00  0.00    -0.248 NA
ATOM     42  C   UNL A   1      38.013  30.541  31.374  1.00  0.00     0.031 C 
ATOM     43  C   UNL A   1      42.024  27.784  32.646  1.00  0.00     0.029 A 
ATOM     44  N   UNL A   1      41.449  29.475  33.993  1.00  0.00    -0.354 N 
ATOM     45  C   UNL A   1      38.070  31.993  33.141  1.00  0.00     0.074 A 
ATOM     46  C   UNL A   1      37.418  31.593  31.913  1.00  0.00     0.031 C 
ATOM     47  C   UNL A   1      42.877  27.787  33.688  1.00  0.00     0.029 A 
ATOM     48  C   UNL A   1      42.564  28.911  34.571  1.00  0.00     0.049 A 
ATOM     49  H   UNL A   1      40.963  30.232  34.392  1.00  0.00     0.167 HD
ATOM     50  C   UNL A   1      37.632  32.999  33.935  1.00  0.00     0.031 A 
ATOM     51  C   UNL A   1      43.265  29.271  35.668  1.00  0.00     0.031 A 
ATOM     52  C   UNL A   1      38.284  33.419  35.147  1.00  0.00     0.049 A 
ATOM     53  C   UNL A   1      42.824  30.469  36.479  1.00  0.00     0.074 A 
ATOM     54  C   UNL A   1      37.917  34.436  36.012  1.00  0.00     0.029 A 
ATOM     55  N   UNL A   1      39.437  32.853  35.666  1.00  0.00    -0.354 N 
ATOM     56  N   UNL A   1      41.779  31.244  36.310  1.00  0.00    -0.248 NA
ATOM     57  C   UNL A   1      43.657  30.835  37.637  1.00  0.00     0.031 C 
ATOM     58  C   UNL A   1      38.882  34.525  37.019  1.00  0.00     0.029 A 
ATOM     59  C   UNL A   1      39.809  33.514  36.824  1.00  0.00     0.049 A 
ATOM     60  H   UNL A   1      39.921  32.092  35.269  1.00  0.00     0.167 HD
ATOM     61  C   UNL A   1      41.812  32.162  37.359  1.00  0.00     0.074 A 
ATOM     62  C   UNL A   1      42.968  31.837  38.164  1.00  0.00     0.031 C 
ATOM     63  C   UNL A   1      40.957  33.180  37.631  1.00  0.00     0.031 A 
BRANCH  50  64
ATOM     64  C   UNL A   1      36.395  33.740  33.499  1.00  0.00    -0.014 A 
ATOM     65  C   UNL A   1      36.469  34.801  32.577  1.00  0.00     0.010 A 
ATOM     66  C   UNL A   1      35.136  33.345  33.987  1.00  0.00     0.010 A 
ATOM     67  C   UNL A   1      35.312  35.476  32.182  1.00  0.00     0.020 A 
ATOM     68  C   UNL A   1      33.972  33.997  33.569  1.00  0.00     0.020 A 
ATOM     69  C   UNL A   1      34.070  35.070  32.680  1.00  0.00     0.054 A 
BRANCH  69  70
ATOM     70  S   UNL A   1      32.584  35.950  32.129  1.00  0.00     0.124 S 
ATOM     71  O   UNL A   1      32.673  37.195  32.890  1.00  0.00    -0.237 OA
ATOM     72  O   UNL A   1      32.804  36.078  30.691  1.00  0.00    -0.237 OA
ATOM     73  O   UNL A   1      31.490  35.063  32.515  1.00  0.00    -0.744 OA
ENDBRANCH  69  70
ENDBRANCH  50  64
BRANCH  51  74
ATOM     74  C   UNL A   1      44.492  28.517  36.065  1.00  0.00    -0.014 A 
ATOM     75  C   UNL A   1      44.419  27.452  36.980  1.00  0.00     0.010 A 
ATOM     76  C   UNL A   1      45.751  28.895  35.565  1.00  0.00     0.010 A 
ATOM     77  C   UNL A   1      45.580  26.799  37.409  1.00  0.00     0.020 A 
ATOM     78  C   UNL A   1      46.912  28.223  35.962  1.00  0.00     0.020 A 
ATOM     79  C   UNL A   1      46.820  27.188  36.895  1.00  0.00     0.054 A 
BRANCH  79  80
ATOM     80  S   UNL A   1      48.310  26.306  37.440  1.00  0.00     0.124 S 
ATOM     81  O   UNL A   1      47.908  25.809  38.751  1.00  0.00    -0.237 OA
ATOM     82  O   UNL A   1      48.472  25.292  36.400  1.00  0.00    -0.237 OA
ATOM     83  O   UNL A   1      49.337  27.345  37.452  1.00  0.00    -0.744 OA
ENDBRANCH  79  80
ENDBRANCH  51  74
BRANCH  63  84
ATOM     84  C   UNL A   1      41.197  33.991  38.881  1.00  0.00    -0.014 A 
ATOM     85  C   UNL A   1      40.580  33.666  40.102  1.00  0.00     0.010 A 
ATOM     86  C   UNL A   1      42.108  35.065  38.843  1.00  0.00     0.010 A 
ATOM     87  C   UNL A   1      40.843  34.419  41.252  1.00  0.00     0.020 A 
ATOM     88  C   UNL A   1      42.398  35.800  39.996  1.00  0.00     0.020 A 
ATOM     89  C   UNL A   1      41.752  35.481  41.192  1.00  0.00     0.054 A 
BRANCH  89  90
ATOM     90  S   UNL A   1      42.109  36.413  42.707  1.00  0.00     0.124 S 
ATOM     91  O   UNL A   1      43.454  36.917  42.445  1.00  0.00    -0.237 OA
ATOM     92  O   UNL A   1      41.051  37.421  42.719  1.00  0.00    -0.237 OA
ATOM     93  O   UNL A   1      42.015  35.408  43.764  1.00  0.00    -0.744 OA
ENDBRANCH  89  90
ENDBRANCH  63  84
ENDBRANCH  37  38
ENDBRANCH  30  32
ENDBRANCH  29  30
ENDBRANCH  28  29
ENDBRANCH  27  28
ENDBRANCH  26  27
ENDBRANCH   1  26
TORSDOF 22
ENDMDL
