MODEL 1
REMARK VINA RESULT:      -9.5      0.000      0.000
REMARK SMILES O=C(OCCOCCOCCOC(=O)[C@@H]1CN(c2nccc(N3CCC(O)CC3)n2)CC[NH2+]1)c1ccc(-c2c3nc(c(-c4ccc(S(=O)(=O)[O-])cc4)c4ccc([nH]4)c(-c4ccc(S(=O)(=O)[O-])cc4)c4nc(c(-c5ccc(S(=O)(=O)[O-])cc5)c5ccc2[nH]5)C=C4)C=C3)cc1
REMARK SMILES IDX 7 1 6 2 5 3 4 4 3 5 2 6 1 7 34 8 35 9 93 10 36 11 92 12
REMARK SMILES IDX 37 13 38 14 39 15 86 16 40 17 91 18 85 19 87 20 41 21 90 22
REMARK SMILES IDX 84 23 83 24 42 26 72 27 53 28 71 29 54 30 57 31 70 32 88 33
REMARK SMILES IDX 55 34 56 35 69 37 89 38 58 39 43 40 44 41 52 42 45 43 51 44
REMARK SMILES IDX 46 45 47 46 48 47 49 48 50 49 73 50 74 51 82 52 75 53 81 54
REMARK SMILES IDX 76 55 77 56 78 57 79 58 80 59 59 60 60 61 68 62 61 63 67 64
REMARK SMILES IDX 62 65 63 66 64 67 65 68 66 69 8 70 9 71 10 72 11 73 12 74
REMARK SMILES IDX 13 75 14 76 15 77 16 78 33 79 17 80 32 81 31 84 18 85 19 86
REMARK SMILES IDX 30 87 20 88 22 89 21 90 23 91 24 92 29 93 25 94 28 95 26 96
REMARK SMILES IDX 27 97
REMARK H PARENT 87 25 57 36 33 82 33 83 27 98
REMARK Flexibility Score: inf
ROOT
ATOM      1  C   UNL A   1      34.026  34.906  31.351  1.00  0.00     0.188 C 
ENDROOT
BRANCH   1   2
ATOM      2  O   UNL A   1      35.152  35.027  32.233  1.00  0.00    -0.376 OA
BRANCH   2   3
ATOM      3  C   UNL A   1      36.130  33.999  32.061  1.00  0.00     0.202 C 
BRANCH   3   4
ATOM      4  C   UNL A   1      35.648  32.578  32.378  1.00  0.00     0.261 C 
BRANCH   4   5
ATOM      5  O   UNL A   1      36.591  31.572  31.987  1.00  0.00    -0.460 OA
BRANCH   5   6
ATOM      6  C   UNL A   1      37.810  31.304  32.520  1.00  0.00     0.338 C 
ATOM      7  O   UNL A   1      37.980  31.582  33.709  1.00  0.00    -0.246 OA
BRANCH   6   8
ATOM      8  C   UNL A   1      38.957  30.681  31.775  1.00  0.00     0.060 A 
ATOM      9  C   UNL A   1      39.975  29.892  32.321  1.00  0.00     0.016 A 
ATOM     10  C   UNL A   1      38.993  30.906  30.386  1.00  0.00     0.016 A 
ATOM     11  C   UNL A   1      41.054  29.449  31.555  1.00  0.00     0.010 A 
ATOM     12  C   UNL A   1      40.043  30.422  29.600  1.00  0.00     0.010 A 
ATOM     13  C   UNL A   1      41.106  29.730  30.196  1.00  0.00    -0.014 A 
BRANCH  13  14
ATOM     14  C   UNL A   1      42.337  29.447  29.430  1.00  0.00     0.031 A 
ATOM     15  C   UNL A   1      42.559  28.042  28.960  1.00  0.00     0.074 A 
ATOM     16  C   UNL A   1      43.211  30.420  29.118  1.00  0.00     0.049 A 
ATOM     17  N   UNL A   1      43.589  27.537  28.341  1.00  0.00    -0.248 NA
ATOM     18  C   UNL A   1      41.454  27.092  29.176  1.00  0.00     0.031 C 
ATOM     19  C   UNL A   1      43.015  31.845  29.363  1.00  0.00     0.029 A 
ATOM     20  N   UNL A   1      44.463  30.354  28.565  1.00  0.00    -0.354 N 
ATOM     21  C   UNL A   1      43.241  26.225  28.054  1.00  0.00     0.074 A 
ATOM     22  C   UNL A   1      41.935  25.989  28.625  1.00  0.00     0.031 C 
ATOM     23  C   UNL A   1      44.154  32.505  29.088  1.00  0.00     0.029 A 
ATOM     24  C   UNL A   1      45.152  31.544  28.655  1.00  0.00     0.049 A 
ATOM     25  H   UNL A   1      44.833  29.542  28.149  1.00  0.00     0.167 HD
ATOM     26  C   UNL A   1      43.941  25.312  27.345  1.00  0.00     0.031 A 
ATOM     27  C   UNL A   1      46.456  31.806  28.463  1.00  0.00     0.031 A 
ATOM     28  C   UNL A   1      45.262  25.555  26.840  1.00  0.00     0.049 A 
ATOM     29  C   UNL A   1      47.319  30.704  27.926  1.00  0.00     0.074 A 
ATOM     30  C   UNL A   1      46.085  24.712  26.119  1.00  0.00     0.029 A 
ATOM     31  N   UNL A   1      45.967  26.737  27.039  1.00  0.00    -0.354 N 
ATOM     32  N   UNL A   1      46.978  29.471  27.638  1.00  0.00    -0.248 NA
ATOM     33  C   UNL A   1      48.718  31.036  27.638  1.00  0.00     0.031 C 
ATOM     34  C   UNL A   1      47.312  25.362  25.936  1.00  0.00     0.029 A 
ATOM     35  C   UNL A   1      47.231  26.631  26.493  1.00  0.00     0.049 A 
ATOM     36  H   UNL A   1      45.616  27.532  27.500  1.00  0.00     0.167 HD
ATOM     37  C   UNL A   1      48.102  28.895  27.065  1.00  0.00     0.074 A 
ATOM     38  C   UNL A   1      49.144  29.906  27.086  1.00  0.00     0.031 C 
ATOM     39  C   UNL A   1      48.244  27.657  26.532  1.00  0.00     0.031 A 
BRANCH  26  40
ATOM     40  C   UNL A   1      43.287  23.975  27.141  1.00  0.00    -0.014 A 
ATOM     41  C   UNL A   1      43.242  23.024  28.179  1.00  0.00     0.010 A 
ATOM     42  C   UNL A   1      42.778  23.636  25.877  1.00  0.00     0.010 A 
ATOM     43  C   UNL A   1      42.764  21.735  27.935  1.00  0.00     0.020 A 
ATOM     44  C   UNL A   1      42.275  22.354  25.636  1.00  0.00     0.020 A 
ATOM     45  C   UNL A   1      42.299  21.403  26.659  1.00  0.00     0.054 A 
BRANCH  45  46
ATOM     46  S   UNL A   1      41.736  19.707  26.350  1.00  0.00     0.124 S 
ATOM     47  O   UNL A   1      40.292  19.891  26.221  1.00  0.00    -0.237 OA
ATOM     48  O   UNL A   1      42.436  19.354  25.117  1.00  0.00    -0.237 OA
ATOM     49  O   UNL A   1      42.167  18.976  27.539  1.00  0.00    -0.744 OA
ENDBRANCH  45  46
ENDBRANCH  26  40
BRANCH  27  50
ATOM     50  C   UNL A   1      47.027  33.130  28.830  1.00  0.00    -0.014 A 
ATOM     51  C   UNL A   1      47.519  33.383  30.120  1.00  0.00     0.010 A 
ATOM     52  C   UNL A   1      47.057  34.163  27.873  1.00  0.00     0.010 A 
ATOM     53  C   UNL A   1      47.999  34.655  30.457  1.00  0.00     0.020 A 
ATOM     54  C   UNL A   1      47.541  35.433  28.203  1.00  0.00     0.020 A 
ATOM     55  C   UNL A   1      47.997  35.676  29.500  1.00  0.00     0.054 A 
BRANCH  55  56
ATOM     56  S   UNL A   1      48.623  37.315  29.970  1.00  0.00     0.124 S 
ATOM     57  O   UNL A   1      47.505  38.187  29.622  1.00  0.00    -0.237 OA
ATOM     58  O   UNL A   1      48.881  37.154  31.399  1.00  0.00    -0.237 OA
ATOM     59  O   UNL A   1      49.824  37.477  29.156  1.00  0.00    -0.744 OA
ENDBRANCH  55  56
ENDBRANCH  27  50
BRANCH  39  60
ATOM     60  C   UNL A   1      49.552  27.353  25.866  1.00  0.00    -0.014 A 
ATOM     61  C   UNL A   1      49.793  27.710  24.530  1.00  0.00     0.010 A 
ATOM     62  C   UNL A   1      50.579  26.767  26.628  1.00  0.00     0.010 A 
ATOM     63  C   UNL A   1      51.047  27.479  23.962  1.00  0.00     0.020 A 
ATOM     64  C   UNL A   1      51.840  26.559  26.071  1.00  0.00     0.020 A 
ATOM     65  C   UNL A   1      52.064  26.913  24.739  1.00  0.00     0.054 A 
BRANCH  65  66
ATOM     66  S   UNL A   1      53.710  26.708  24.008  1.00  0.00     0.124 S 
ATOM     67  O   UNL A   1      53.487  25.621  23.059  1.00  0.00    -0.237 OA
ATOM     68  O   UNL A   1      53.963  28.020  23.417  1.00  0.00    -0.237 OA
ATOM     69  O   UNL A   1      54.556  26.375  25.152  1.00  0.00    -0.744 OA
ENDBRANCH  65  66
ENDBRANCH  39  60
ENDBRANCH  13  14
ENDBRANCH   6   8
ENDBRANCH   5   6
ENDBRANCH   4   5
ENDBRANCH   3   4
ENDBRANCH   2   3
ENDBRANCH   1   2
BRANCH   1  70
ATOM     70  C   UNL A   1      34.441  34.499  29.936  1.00  0.00     0.188 C 
BRANCH  70  71
ATOM     71  O   UNL A   1      33.713  33.430  29.326  1.00  0.00    -0.376 OA
BRANCH  71  72
ATOM     72  C   UNL A   1      34.031  33.098  27.978  1.00  0.00     0.202 C 
BRANCH  72  73
ATOM     73  C   UNL A   1      34.958  31.901  27.722  1.00  0.00     0.261 C 
BRANCH  73  74
ATOM     74  O   UNL A   1      34.374  30.629  28.017  1.00  0.00    -0.459 OA
BRANCH  74  75
ATOM     75  C   UNL A   1      34.744  29.630  27.167  1.00  0.00     0.366 C 
ATOM     76  O   UNL A   1      35.886  29.187  27.079  1.00  0.00    -0.245 OA
BRANCH  75  77
ATOM     77  C   UNL A   1      33.587  29.068  26.349  1.00  0.00     0.313 C 
ATOM     78  C   UNL A   1      33.719  27.542  26.373  1.00  0.00     0.197 C 
ATOM     79  N   UNL A   1      33.473  29.607  24.950  1.00  0.00    -0.332 N 
ATOM     80  N   UNL A   1      32.526  27.001  25.750  1.00  0.00    -0.328 N 
ATOM     81  C   UNL A   1      32.328  28.937  24.273  1.00  0.00     0.283 C 
ATOM     82  H   UNL A   1      34.334  29.417  24.438  1.00  0.00     0.347 HD
ATOM     83  H   UNL A   1      33.321  30.615  24.977  1.00  0.00     0.347 HD
ATOM     84  C   UNL A   1      32.280  27.389  24.378  1.00  0.00     0.181 C 
BRANCH  80  85
ATOM     85  C   UNL A   1      32.282  25.693  26.075  1.00  0.00     0.227 A 
ATOM     86  N   UNL A   1      31.048  25.318  26.414  1.00  0.00    -0.221 NA
ATOM     87  N   UNL A   1      33.292  24.855  25.826  1.00  0.00    -0.196 NA
ATOM     88  C   UNL A   1      30.854  23.995  26.537  1.00  0.00     0.119 A 
ATOM     89  C   UNL A   1      33.061  23.539  25.890  1.00  0.00     0.134 A 
ATOM     90  C   UNL A   1      31.828  23.060  26.280  1.00  0.00     0.067 A 
BRANCH  89  91
ATOM     91  N   UNL A   1      34.097  22.684  25.516  1.00  0.00    -0.356 N 
ATOM     92  C   UNL A   1      34.418  22.620  24.093  1.00  0.00     0.121 C 
ATOM     93  C   UNL A   1      35.214  22.567  26.456  1.00  0.00     0.121 C 
ATOM     94  C   UNL A   1      35.499  23.648  23.746  1.00  0.00     0.053 C 
ATOM     95  C   UNL A   1      36.322  23.572  26.138  1.00  0.00     0.053 C 
ATOM     96  C   UNL A   1      36.716  23.530  24.663  1.00  0.00     0.118 C 
BRANCH  96  97
ATOM     97  O   UNL A   1      37.450  22.337  24.369  1.00  0.00    -0.393 OA
ATOM     98  H   UNL A   1      37.466  22.196  23.410  1.00  0.00     0.210 HD
ENDBRANCH  96  97
ENDBRANCH  89  91
ENDBRANCH  80  85
ENDBRANCH  75  77
ENDBRANCH  74  75
ENDBRANCH  73  74
ENDBRANCH  72  73
ENDBRANCH  71  72
ENDBRANCH  70  71
ENDBRANCH   1  70
TORSDOF 23
ENDMDL
MODEL 2
REMARK VINA RESULT:      -8.8      4.035     10.477
REMARK SMILES O=C(OCCOCCOCCOC(=O)[C@@H]1CN(c2nccc(N3CCC(O)CC3)n2)CC[NH2+]1)c1ccc(-c2c3nc(c(-c4ccc(S(=O)(=O)[O-])cc4)c4ccc([nH]4)c(-c4ccc(S(=O)(=O)[O-])cc4)c4nc(c(-c5ccc(S(=O)(=O)[O-])cc5)c5ccc2[nH]5)C=C4)C=C3)cc1
REMARK SMILES IDX 7 1 6 2 5 3 4 4 3 5 2 6 1 7 34 8 35 9 93 10 36 11 92 12
REMARK SMILES IDX 37 13 38 14 39 15 86 16 40 17 91 18 85 19 87 20 41 21 90 22
REMARK SMILES IDX 84 23 83 24 42 26 72 27 53 28 71 29 54 30 57 31 70 32 88 33
REMARK SMILES IDX 55 34 56 35 69 37 89 38 58 39 43 40 44 41 52 42 45 43 51 44
REMARK SMILES IDX 46 45 47 46 48 47 49 48 50 49 73 50 74 51 82 52 75 53 81 54
REMARK SMILES IDX 76 55 77 56 78 57 79 58 80 59 59 60 60 61 68 62 61 63 67 64
REMARK SMILES IDX 62 65 63 66 64 67 65 68 66 69 8 70 9 71 10 72 11 73 12 74
REMARK SMILES IDX 13 75 14 76 15 77 16 78 33 79 17 80 32 81 31 84 18 85 19 86
REMARK SMILES IDX 30 87 20 88 22 89 21 90 23 91 24 92 29 93 25 94 28 95 26 96
REMARK SMILES IDX 27 97
REMARK H PARENT 87 25 57 36 33 82 33 83 27 98
REMARK Flexibility Score: inf
ROOT
ATOM      1  C   UNL A   1      38.635  31.326  31.694  1.00  0.00     0.188 C 
ENDROOT
BRANCH   1   2
ATOM      2  O   UNL A   1      38.252  30.217  32.520  1.00  0.00    -0.376 OA
BRANCH   2   3
ATOM      3  C   UNL A   1      37.113  29.504  32.033  1.00  0.00     0.202 C 
BRANCH   3   4
ATOM      4  C   UNL A   1      36.291  30.234  30.963  1.00  0.00     0.261 C 
BRANCH   4   5
ATOM      5  O   UNL A   1      36.215  29.509  29.730  1.00  0.00    -0.460 OA
BRANCH   5   6
ATOM      6  C   UNL A   1      36.973  29.660  28.613  1.00  0.00     0.338 C 
ATOM      7  O   UNL A   1      36.464  30.255  27.662  1.00  0.00    -0.246 OA
BRANCH   6   8
ATOM      8  C   UNL A   1      38.386  29.169  28.459  1.00  0.00     0.060 A 
ATOM      9  C   UNL A   1      39.187  28.612  29.461  1.00  0.00     0.016 A 
ATOM     10  C   UNL A   1      38.943  29.269  27.171  1.00  0.00     0.016 A 
ATOM     11  C   UNL A   1      40.524  28.284  29.236  1.00  0.00     0.010 A 
ATOM     12  C   UNL A   1      40.267  28.894  26.922  1.00  0.00     0.010 A 
ATOM     13  C   UNL A   1      41.079  28.444  27.972  1.00  0.00    -0.014 A 
BRANCH  13  14
ATOM     14  C   UNL A   1      42.536  28.298  27.781  1.00  0.00     0.031 A 
ATOM     15  C   UNL A   1      43.384  29.525  27.910  1.00  0.00     0.074 A 
ATOM     16  C   UNL A   1      43.097  27.099  27.546  1.00  0.00     0.049 A 
ATOM     17  N   UNL A   1      44.666  29.661  27.713  1.00  0.00    -0.248 NA
ATOM     18  C   UNL A   1      42.706  30.751  28.366  1.00  0.00     0.031 C 
ATOM     19  C   UNL A   1      42.401  25.817  27.576  1.00  0.00     0.029 A 
ATOM     20  N   UNL A   1      44.378  26.765  27.189  1.00  0.00    -0.354 N 
ATOM     21  C   UNL A   1      44.957  30.972  28.063  1.00  0.00     0.074 A 
ATOM     22  C   UNL A   1      43.710  31.612  28.417  1.00  0.00     0.031 C 
ATOM     23  C   UNL A   1      43.221  24.853  27.125  1.00  0.00     0.029 A 
ATOM     24  C   UNL A   1      44.494  25.457  26.772  1.00  0.00     0.049 A 
ATOM     25  H   UNL A   1      45.135  27.393  27.226  1.00  0.00     0.167 HD
ATOM     26  C   UNL A   1      46.166  31.574  28.114  1.00  0.00     0.031 A 
ATOM     27  C   UNL A   1      45.498  24.839  26.125  1.00  0.00     0.031 A 
ATOM     28  C   UNL A   1      47.380  30.932  27.699  1.00  0.00     0.049 A 
ATOM     29  C   UNL A   1      46.774  25.601  25.928  1.00  0.00     0.074 A 
ATOM     30  C   UNL A   1      48.667  31.433  27.688  1.00  0.00     0.029 A 
ATOM     31  N   UNL A   1      47.443  29.641  27.187  1.00  0.00    -0.354 N 
ATOM     32  N   UNL A   1      47.048  26.834  26.280  1.00  0.00    -0.248 NA
ATOM     33  C   UNL A   1      47.887  24.881  25.302  1.00  0.00     0.031 C 
ATOM     34  C   UNL A   1      49.499  30.467  27.110  1.00  0.00     0.029 A 
ATOM     35  C   UNL A   1      48.739  29.343  26.815  1.00  0.00     0.049 A 
ATOM     36  H   UNL A   1      46.676  29.030  27.102  1.00  0.00     0.167 HD
ATOM     37  C   UNL A   1      48.390  27.019  25.984  1.00  0.00     0.074 A 
ATOM     38  C   UNL A   1      48.859  25.781  25.387  1.00  0.00     0.031 C 
ATOM     39  C   UNL A   1      49.171  28.100  26.224  1.00  0.00     0.031 A 
BRANCH  26  40
ATOM     40  C   UNL A   1      46.186  33.000  28.588  1.00  0.00    -0.014 A 
ATOM     41  C   UNL A   1      46.058  34.067  27.679  1.00  0.00     0.010 A 
ATOM     42  C   UNL A   1      46.411  33.277  29.947  1.00  0.00     0.010 A 
ATOM     43  C   UNL A   1      46.224  35.386  28.111  1.00  0.00     0.020 A 
ATOM     44  C   UNL A   1      46.554  34.596  30.386  1.00  0.00     0.020 A 
ATOM     45  C   UNL A   1      46.489  35.640  29.459  1.00  0.00     0.054 A 
BRANCH  45  46
ATOM     46  S   UNL A   1      46.759  37.354  29.987  1.00  0.00     0.124 S 
ATOM     47  O   UNL A   1      45.605  37.586  30.853  1.00  0.00    -0.237 OA
ATOM     48  O   UNL A   1      48.050  37.282  30.668  1.00  0.00    -0.237 OA
ATOM     49  O   UNL A   1      46.759  38.106  28.735  1.00  0.00    -0.744 OA
ENDBRANCH  45  46
ENDBRANCH  26  40
BRANCH  27  50
ATOM     50  C   UNL A   1      45.318  23.469  25.575  1.00  0.00    -0.014 A 
ATOM     51  C   UNL A   1      45.625  22.329  26.334  1.00  0.00     0.010 A 
ATOM     52  C   UNL A   1      44.851  23.306  24.256  1.00  0.00     0.010 A 
ATOM     53  C   UNL A   1      45.502  21.052  25.773  1.00  0.00     0.020 A 
ATOM     54  C   UNL A   1      44.720  22.032  23.694  1.00  0.00     0.020 A 
ATOM     55  C   UNL A   1      45.061  20.911  24.452  1.00  0.00     0.054 A 
BRANCH  55  56
ATOM     56  S   UNL A   1      44.915  19.241  23.754  1.00  0.00     0.124 S 
ATOM     57  O   UNL A   1      44.329  19.502  22.442  1.00  0.00    -0.237 OA
ATOM     58  O   UNL A   1      46.301  18.780  23.749  1.00  0.00    -0.237 OA
ATOM     59  O   UNL A   1      44.051  18.540  24.700  1.00  0.00    -0.744 OA
ENDBRANCH  55  56
ENDBRANCH  27  50
BRANCH  39  60
ATOM     60  C   UNL A   1      50.630  27.966  25.905  1.00  0.00    -0.014 A 
ATOM     61  C   UNL A   1      51.535  27.423  26.831  1.00  0.00     0.010 A 
ATOM     62  C   UNL A   1      51.077  28.322  24.619  1.00  0.00     0.010 A 
ATOM     63  C   UNL A   1      52.872  27.242  26.475  1.00  0.00     0.020 A 
ATOM     64  C   UNL A   1      52.407  28.119  24.253  1.00  0.00     0.020 A 
ATOM     65  C   UNL A   1      53.297  27.584  25.186  1.00  0.00     0.054 A 
BRANCH  65  66
ATOM     66  S   UNL A   1      55.016  27.255  24.718  1.00  0.00     0.124 S 
ATOM     67  O   UNL A   1      55.070  25.797  24.769  1.00  0.00    -0.237 OA
ATOM     68  O   UNL A   1      55.102  27.843  23.383  1.00  0.00    -0.237 OA
ATOM     69  O   UNL A   1      55.793  27.946  25.745  1.00  0.00    -0.744 OA
ENDBRANCH  65  66
ENDBRANCH  39  60
ENDBRANCH  13  14
ENDBRANCH   6   8
ENDBRANCH   5   6
ENDBRANCH   4   5
ENDBRANCH   3   4
ENDBRANCH   2   3
ENDBRANCH   1   2
BRANCH   1  70
ATOM     70  C   UNL A   1      40.151  31.532  31.668  1.00  0.00     0.188 C 
BRANCH  70  71
ATOM     71  O   UNL A   1      40.938  30.681  32.506  1.00  0.00    -0.376 OA
BRANCH  71  72
ATOM     72  C   UNL A   1      41.982  31.283  33.265  1.00  0.00     0.202 C 
BRANCH  72  73
ATOM     73  C   UNL A   1      42.287  30.716  34.660  1.00  0.00     0.261 C 
BRANCH  73  74
ATOM     74  O   UNL A   1      41.464  31.245  35.703  1.00  0.00    -0.459 OA
BRANCH  74  75
ATOM     75  C   UNL A   1      40.359  30.498  35.980  1.00  0.00     0.366 C 
ATOM     76  O   UNL A   1      40.368  29.278  36.119  1.00  0.00    -0.245 OA
BRANCH  75  77
ATOM     77  C   UNL A   1      39.092  31.326  36.151  1.00  0.00     0.313 C 
ATOM     78  C   UNL A   1      39.135  32.436  35.096  1.00  0.00     0.197 C 
ATOM     79  N   UNL A   1      38.863  31.867  37.535  1.00  0.00    -0.332 N 
ATOM     80  N   UNL A   1      37.853  33.114  35.137  1.00  0.00    -0.328 N 
ATOM     81  C   UNL A   1      37.616  32.681  37.530  1.00  0.00     0.283 C 
ATOM     82  H   UNL A   1      39.653  32.451  37.810  1.00  0.00     0.347 HD
ATOM     83  H   UNL A   1      38.774  31.097  38.199  1.00  0.00     0.347 HD
ATOM     84  C   UNL A   1      37.488  33.732  36.395  1.00  0.00     0.181 C 
BRANCH  80  85
ATOM     85  C   UNL A   1      37.568  33.820  33.997  1.00  0.00     0.227 A 
ATOM     86  N   UNL A   1      38.558  34.170  33.176  1.00  0.00    -0.221 NA
ATOM     87  N   UNL A   1      36.268  33.924  33.712  1.00  0.00    -0.196 NA
ATOM     88  C   UNL A   1      38.180  34.692  31.998  1.00  0.00     0.119 A 
ATOM     89  C   UNL A   1      35.912  34.385  32.508  1.00  0.00     0.134 A 
ATOM     90  C   UNL A   1      36.867  34.816  31.611  1.00  0.00     0.067 A 
BRANCH  89  91
ATOM     91  N   UNL A   1      34.555  34.378  32.190  1.00  0.00    -0.356 N 
ATOM     92  C   UNL A   1      33.662  35.101  33.090  1.00  0.00     0.121 C 
ATOM     93  C   UNL A   1      34.222  34.401  30.763  1.00  0.00     0.121 C 
ATOM     94  C   UNL A   1      33.491  36.549  32.620  1.00  0.00     0.053 C 
ATOM     95  C   UNL A   1      34.034  35.830  30.255  1.00  0.00     0.053 C 
ATOM     96  C   UNL A   1      33.086  36.627  31.148  1.00  0.00     0.118 C 
BRANCH  96  97
ATOM     97  O   UNL A   1      31.736  36.184  30.977  1.00  0.00    -0.393 OA
ATOM     98  H   UNL A   1      31.733  35.241  30.749  1.00  0.00     0.210 HD
ENDBRANCH  96  97
ENDBRANCH  89  91
ENDBRANCH  80  85
ENDBRANCH  75  77
ENDBRANCH  74  75
ENDBRANCH  73  74
ENDBRANCH  72  73
ENDBRANCH  71  72
ENDBRANCH  70  71
ENDBRANCH   1  70
TORSDOF 23
ENDMDL
MODEL 3
REMARK VINA RESULT:      -8.7      3.717     10.124
REMARK SMILES O=C(OCCOCCOCCOC(=O)[C@@H]1CN(c2nccc(N3CCC(O)CC3)n2)CC[NH2+]1)c1ccc(-c2c3nc(c(-c4ccc(S(=O)(=O)[O-])cc4)c4ccc([nH]4)c(-c4ccc(S(=O)(=O)[O-])cc4)c4nc(c(-c5ccc(S(=O)(=O)[O-])cc5)c5ccc2[nH]5)C=C4)C=C3)cc1
REMARK SMILES IDX 7 1 6 2 5 3 4 4 3 5 2 6 1 7 34 8 35 9 93 10 36 11 92 12
REMARK SMILES IDX 37 13 38 14 39 15 86 16 40 17 91 18 85 19 87 20 41 21 90 22
REMARK SMILES IDX 84 23 83 24 42 26 72 27 53 28 71 29 54 30 57 31 70 32 88 33
REMARK SMILES IDX 55 34 56 35 69 37 89 38 58 39 43 40 44 41 52 42 45 43 51 44
REMARK SMILES IDX 46 45 47 46 48 47 49 48 50 49 73 50 74 51 82 52 75 53 81 54
REMARK SMILES IDX 76 55 77 56 78 57 79 58 80 59 59 60 60 61 68 62 61 63 67 64
REMARK SMILES IDX 62 65 63 66 64 67 65 68 66 69 8 70 9 71 10 72 11 73 12 74
REMARK SMILES IDX 13 75 14 76 15 77 16 78 33 79 17 80 32 81 31 84 18 85 19 86
REMARK SMILES IDX 30 87 20 88 22 89 21 90 23 91 24 92 29 93 25 94 28 95 26 96
REMARK SMILES IDX 27 97
REMARK H PARENT 87 25 57 36 33 82 33 83 27 98
REMARK Flexibility Score: inf
ROOT
ATOM      1  C   UNL A   1      37.250  34.341  29.121  1.00  0.00     0.188 C 
ENDROOT
BRANCH   1   2
ATOM      2  O   UNL A   1      36.528  33.109  29.254  1.00  0.00    -0.376 OA
BRANCH   2   3
ATOM      3  C   UNL A   1      35.838  32.716  28.064  1.00  0.00     0.202 C 
BRANCH   3   4
ATOM      4  C   UNL A   1      34.765  31.637  28.257  1.00  0.00     0.261 C 
BRANCH   4   5
ATOM      5  O   UNL A   1      35.320  30.331  28.458  1.00  0.00    -0.460 OA
BRANCH   5   6
ATOM      6  C   UNL A   1      36.305  29.955  29.314  1.00  0.00     0.338 C 
ATOM      7  O   UNL A   1      35.985  29.741  30.484  1.00  0.00    -0.246 OA
BRANCH   6   8
ATOM      8  C   UNL A   1      37.748  29.768  28.935  1.00  0.00     0.060 A 
ATOM      9  C   UNL A   1      38.240  29.438  27.668  1.00  0.00     0.016 A 
ATOM     10  C   UNL A   1      38.691  29.962  29.961  1.00  0.00     0.016 A 
ATOM     11  C   UNL A   1      39.595  29.185  27.449  1.00  0.00     0.010 A 
ATOM     12  C   UNL A   1      40.057  29.762  29.738  1.00  0.00     0.010 A 
ATOM     13  C   UNL A   1      40.508  29.323  28.486  1.00  0.00    -0.014 A 
BRANCH  13  14
ATOM     14  C   UNL A   1      41.899  28.858  28.313  1.00  0.00     0.031 A 
ATOM     15  C   UNL A   1      42.972  29.895  28.194  1.00  0.00     0.074 A 
ATOM     16  C   UNL A   1      42.207  27.549  28.310  1.00  0.00     0.049 A 
ATOM     17  N   UNL A   1      44.245  29.735  27.963  1.00  0.00    -0.248 NA
ATOM     18  C   UNL A   1      42.564  31.294  28.410  1.00  0.00     0.031 C 
ATOM     19  C   UNL A   1      41.280  26.459  28.594  1.00  0.00     0.029 A 
ATOM     20  N   UNL A   1      43.381  26.907  28.013  1.00  0.00    -0.354 N 
ATOM     21  C   UNL A   1      44.799  31.004  28.050  1.00  0.00     0.074 A 
ATOM     22  C   UNL A   1      43.716  31.933  28.285  1.00  0.00     0.031 C 
ATOM     23  C   UNL A   1      41.877  25.284  28.331  1.00  0.00     0.029 A 
ATOM     24  C   UNL A   1      43.224  25.548  27.856  1.00  0.00     0.049 A 
ATOM     25  H   UNL A   1      44.246  27.369  27.921  1.00  0.00     0.167 HD
ATOM     26  C   UNL A   1      46.102  31.354  27.972  1.00  0.00     0.031 A 
ATOM     27  C   UNL A   1      44.059  24.634  27.332  1.00  0.00     0.031 A 
ATOM     28  C   UNL A   1      47.149  30.418  27.678  1.00  0.00     0.049 A 
ATOM     29  C   UNL A   1      45.447  25.076  26.979  1.00  0.00     0.074 A 
ATOM     30  C   UNL A   1      48.507  30.644  27.558  1.00  0.00     0.029 A 
ATOM     31  N   UNL A   1      46.939  29.068  27.425  1.00  0.00    -0.354 N 
ATOM     32  N   UNL A   1      45.969  26.275  27.082  1.00  0.00    -0.248 NA
ATOM     33  C   UNL A   1      46.370  24.046  26.494  1.00  0.00     0.031 C 
ATOM     34  C   UNL A   1      49.109  29.441  27.171  1.00  0.00     0.029 A 
ATOM     35  C   UNL A   1      48.135  28.455  27.106  1.00  0.00     0.049 A 
ATOM     36  H   UNL A   1      46.066  28.616  27.467  1.00  0.00     0.167 HD
ATOM     37  C   UNL A   1      47.306  26.132  26.744  1.00  0.00     0.074 A 
ATOM     38  C   UNL A   1      47.500  24.736  26.394  1.00  0.00     0.031 C 
ATOM     39  C   UNL A   1      48.291  27.063  26.763  1.00  0.00     0.031 A 
BRANCH  26  40
ATOM     40  C   UNL A   1      46.418  32.811  28.161  1.00  0.00    -0.014 A 
ATOM     41  C   UNL A   1      46.673  33.646  27.056  1.00  0.00     0.010 A 
ATOM     42  C   UNL A   1      46.537  33.334  29.459  1.00  0.00     0.010 A 
ATOM     43  C   UNL A   1      47.108  34.960  27.250  1.00  0.00     0.020 A 
ATOM     44  C   UNL A   1      46.948  34.655  29.656  1.00  0.00     0.020 A 
ATOM     45  C   UNL A   1      47.260  35.450  28.550  1.00  0.00     0.054 A 
BRANCH  45  46
ATOM     46  S   UNL A   1      47.882  37.139  28.778  1.00  0.00     0.124 S 
ATOM     47  O   UNL A   1      48.112  37.179  30.221  1.00  0.00    -0.237 OA
ATOM     48  O   UNL A   1      49.085  37.153  27.950  1.00  0.00    -0.237 OA
ATOM     49  O   UNL A   1      46.787  37.978  28.298  1.00  0.00    -0.744 OA
ENDBRANCH  45  46
ENDBRANCH  26  40
BRANCH  27  50
ATOM     50  C   UNL A   1      43.594  23.247  27.059  1.00  0.00    -0.014 A 
ATOM     51  C   UNL A   1      43.337  22.343  28.101  1.00  0.00     0.010 A 
ATOM     52  C   UNL A   1      43.427  22.820  25.727  1.00  0.00     0.010 A 
ATOM     53  C   UNL A   1      42.954  21.025  27.815  1.00  0.00     0.020 A 
ATOM     54  C   UNL A   1      43.039  21.508  25.438  1.00  0.00     0.020 A 
ATOM     55  C   UNL A   1      42.820  20.612  26.485  1.00  0.00     0.054 A 
BRANCH  55  56
ATOM     56  S   UNL A   1      42.326  18.897  26.150  1.00  0.00     0.124 S 
ATOM     57  O   UNL A   1      43.259  18.504  25.098  1.00  0.00    -0.237 OA
ATOM     58  O   UNL A   1      42.525  18.254  27.447  1.00  0.00    -0.237 OA
ATOM     59  O   UNL A   1      40.928  19.009  25.742  1.00  0.00    -0.744 OA
ENDBRANCH  55  56
ENDBRANCH  27  50
BRANCH  39  60
ATOM     60  C   UNL A   1      49.680  26.585  26.462  1.00  0.00    -0.014 A 
ATOM     61  C   UNL A   1      50.432  25.877  27.413  1.00  0.00     0.010 A 
ATOM     62  C   UNL A   1      50.201  26.788  25.171  1.00  0.00     0.010 A 
ATOM     63  C   UNL A   1      51.692  25.382  27.076  1.00  0.00     0.020 A 
ATOM     64  C   UNL A   1      51.449  26.271  24.824  1.00  0.00     0.020 A 
ATOM     65  C   UNL A   1      52.189  25.575  25.782  1.00  0.00     0.054 A 
BRANCH  65  66
ATOM     66  S   UNL A   1      53.786  24.843  25.340  1.00  0.00     0.124 S 
ATOM     67  O   UNL A   1      54.198  25.673  24.212  1.00  0.00    -0.237 OA
ATOM     68  O   UNL A   1      54.566  25.012  26.564  1.00  0.00    -0.237 OA
ATOM     69  O   UNL A   1      53.453  23.460  25.010  1.00  0.00    -0.744 OA
ENDBRANCH  65  66
ENDBRANCH  39  60
ENDBRANCH  13  14
ENDBRANCH   6   8
ENDBRANCH   5   6
ENDBRANCH   4   5
ENDBRANCH   3   4
ENDBRANCH   2   3
ENDBRANCH   1   2
BRANCH   1  70
ATOM     70  C   UNL A   1      38.535  34.351  29.954  1.00  0.00     0.188 C 
BRANCH  70  71
ATOM     71  O   UNL A   1      38.511  35.089  31.179  1.00  0.00    -0.376 OA
BRANCH  71  72
ATOM     72  C   UNL A   1      38.365  34.354  32.390  1.00  0.00     0.202 C 
BRANCH  72  73
ATOM     73  C   UNL A   1      38.837  32.892  32.415  1.00  0.00     0.261 C 
BRANCH  73  74
ATOM     74  O   UNL A   1      39.165  32.401  33.718  1.00  0.00    -0.459 OA
BRANCH  74  75
ATOM     75  C   UNL A   1      38.240  31.552  34.247  1.00  0.00     0.366 C 
ATOM     76  O   UNL A   1      37.230  31.917  34.843  1.00  0.00    -0.245 OA
BRANCH  75  77
ATOM     77  C   UNL A   1      38.549  30.082  33.993  1.00  0.00     0.313 C 
ATOM     78  C   UNL A   1      39.953  30.015  33.386  1.00  0.00     0.197 C 
ATOM     79  N   UNL A   1      37.534  29.351  33.159  1.00  0.00    -0.332 N 
ATOM     80  N   UNL A   1      40.320  28.614  33.310  1.00  0.00    -0.328 N 
ATOM     81  C   UNL A   1      37.994  27.947  32.969  1.00  0.00     0.283 C 
ATOM     82  H   UNL A   1      37.442  29.808  32.252  1.00  0.00     0.347 HD
ATOM     83  H   UNL A   1      36.627  29.360  33.626  1.00  0.00     0.347 HD
ATOM     84  C   UNL A   1      39.465  27.765  32.508  1.00  0.00     0.181 C 
BRANCH  80  85
ATOM     85  C   UNL A   1      41.670  28.404  33.208  1.00  0.00     0.227 A 
ATOM     86  N   UNL A   1      42.444  29.349  32.675  1.00  0.00    -0.221 NA
ATOM     87  N   UNL A   1      42.120  27.322  33.849  1.00  0.00    -0.196 NA
ATOM     88  C   UNL A   1      43.767  29.146  32.778  1.00  0.00     0.119 A 
ATOM     89  C   UNL A   1      43.440  27.171  34.000  1.00  0.00     0.134 A 
ATOM     90  C   UNL A   1      44.319  28.074  33.439  1.00  0.00     0.067 A 
BRANCH  89  91
ATOM     91  N   UNL A   1      43.883  26.096  34.769  1.00  0.00    -0.356 N 
ATOM     92  C   UNL A   1      44.895  26.382  35.782  1.00  0.00     0.121 C 
ATOM     93  C   UNL A   1      42.883  25.077  35.097  1.00  0.00     0.121 C 
ATOM     94  C   UNL A   1      44.229  26.719  37.119  1.00  0.00     0.053 C 
ATOM     95  C   UNL A   1      42.199  25.373  36.433  1.00  0.00     0.053 C 
ATOM     96  C   UNL A   1      43.215  25.655  37.537  1.00  0.00     0.118 C 
BRANCH  96  97
ATOM     97  O   UNL A   1      43.885  24.452  37.927  1.00  0.00    -0.393 OA
ATOM     98  H   UNL A   1      43.543  24.156  38.786  1.00  0.00     0.210 HD
ENDBRANCH  96  97
ENDBRANCH  89  91
ENDBRANCH  80  85
ENDBRANCH  75  77
ENDBRANCH  74  75
ENDBRANCH  73  74
ENDBRANCH  72  73
ENDBRANCH  71  72
ENDBRANCH  70  71
ENDBRANCH   1  70
TORSDOF 23
ENDMDL
