MODEL 1
REMARK VINA RESULT:      -9.5      0.000      0.000
REMARK SMILES O=C(OCCOCCOCCOC(=O)[C@@H]1O[C@H](OC(=O)c2cccnc2)[C@@H](O)[C@H](O)[C@H]1O)c1ccc(-c2c3nc(c(-c4ccc(S(=O)(=O)[O-])cc4)c4ccc([nH]4)c(-c4ccc(S(=O)(=O)[O-])cc4)c4nc(c(-c5ccc(S(=O)(=O)[O-])cc5)c5ccc2[nH]5)C=C4)C=C3)cc1
REMARK SMILES IDX 7 1 6 2 5 3 4 4 3 5 2 6 1 7 33 8 34 9 92 10 35 11 91 12
REMARK SMILES IDX 36 13 37 14 38 15 85 16 39 17 90 18 84 19 86 20 40 21 89 22
REMARK SMILES IDX 83 23 82 24 41 26 71 27 52 28 70 29 53 30 56 31 69 32 87 33
REMARK SMILES IDX 54 34 55 35 68 37 88 38 57 39 42 40 43 41 51 42 44 43 50 44
REMARK SMILES IDX 45 45 46 46 47 47 48 48 49 49 72 50 73 51 81 52 74 53 80 54
REMARK SMILES IDX 75 55 76 56 77 57 78 58 79 59 58 60 59 61 67 62 60 63 66 64
REMARK SMILES IDX 61 65 62 66 63 67 64 68 65 69 8 70 9 71 10 72 11 73 12 74
REMARK SMILES IDX 13 75 14 76 15 77 16 78 31 79 17 80 29 81 27 82 32 83 18 85
REMARK SMILES IDX 19 86 20 87 21 88 22 89 26 90 23 91 25 92 24 93 30 94 28 96
REMARK H PARENT 86 25 56 36 32 84 30 95 28 97
REMARK Flexibility Score: inf
ROOT
ATOM      1  C   UNL A   1      35.480  32.557  27.786  1.00  0.00     0.188 C 
ENDROOT
BRANCH   1   2
ATOM      2  O   UNL A   1      35.055  33.888  28.100  1.00  0.00    -0.376 OA
BRANCH   2   3
ATOM      3  C   UNL A   1      33.684  33.977  28.497  1.00  0.00     0.202 C 
BRANCH   3   4
ATOM      4  C   UNL A   1      33.170  35.390  28.824  1.00  0.00     0.261 C 
BRANCH   4   5
ATOM      5  O   UNL A   1      33.377  35.794  30.184  1.00  0.00    -0.460 OA
BRANCH   5   6
ATOM      6  C   UNL A   1      33.459  35.029  31.301  1.00  0.00     0.338 C 
ATOM      7  O   UNL A   1      32.544  35.116  32.120  1.00  0.00    -0.246 OA
BRANCH   6   8
ATOM      8  C   UNL A   1      34.597  34.103  31.622  1.00  0.00     0.060 A 
ATOM      9  C   UNL A   1      34.492  32.788  32.084  1.00  0.00     0.016 A 
ATOM     10  C   UNL A   1      35.892  34.600  31.393  1.00  0.00     0.016 A 
ATOM     11  C   UNL A   1      35.607  32.011  32.389  1.00  0.00     0.010 A 
ATOM     12  C   UNL A   1      37.019  33.823  31.671  1.00  0.00     0.010 A 
ATOM     13  C   UNL A   1      36.877  32.536  32.215  1.00  0.00    -0.014 A 
BRANCH  13  14
ATOM     14  C   UNL A   1      38.047  31.864  32.813  1.00  0.00     0.031 A 
ATOM     15  C   UNL A   1      38.497  32.365  34.149  1.00  0.00     0.074 A 
ATOM     16  C   UNL A   1      38.679  30.839  32.215  1.00  0.00     0.049 A 
ATOM     17  N   UNL A   1      39.596  32.107  34.796  1.00  0.00    -0.248 NA
ATOM     18  C   UNL A   1      37.558  33.248  34.866  1.00  0.00     0.031 C 
ATOM     19  C   UNL A   1      38.201  30.094  31.052  1.00  0.00     0.029 A 
ATOM     20  N   UNL A   1      39.916  30.294  32.461  1.00  0.00    -0.354 N 
ATOM     21  C   UNL A   1      39.470  32.770  36.009  1.00  0.00     0.074 A 
ATOM     22  C   UNL A   1      38.229  33.508  35.975  1.00  0.00     0.031 C 
ATOM     23  C   UNL A   1      39.202  29.331  30.582  1.00  0.00     0.029 A 
ATOM     24  C   UNL A   1      40.377  29.548  31.398  1.00  0.00     0.049 A 
ATOM     25  H   UNL A   1      40.414  30.422  33.301  1.00  0.00     0.167 HD
ATOM     26  C   UNL A   1      40.307  32.727  37.067  1.00  0.00     0.031 A 
ATOM     27  C   UNL A   1      41.627  29.161  31.084  1.00  0.00     0.031 A 
ATOM     28  C   UNL A   1      41.553  32.016  37.031  1.00  0.00     0.049 A 
ATOM     29  C   UNL A   1      42.672  29.342  32.144  1.00  0.00     0.074 A 
ATOM     30  C   UNL A   1      42.509  31.886  38.017  1.00  0.00     0.029 A 
ATOM     31  N   UNL A   1      42.022  31.329  35.916  1.00  0.00    -0.354 N 
ATOM     32  N   UNL A   1      42.554  29.956  33.298  1.00  0.00    -0.248 NA
ATOM     33  C   UNL A   1      43.974  28.709  31.916  1.00  0.00     0.031 C 
ATOM     34  C   UNL A   1      43.590  31.184  37.473  1.00  0.00     0.029 A 
ATOM     35  C   UNL A   1      43.274  30.808  36.173  1.00  0.00     0.049 A 
ATOM     36  H   UNL A   1      41.533  31.229  35.068  1.00  0.00     0.167 HD
ATOM     37  C   UNL A   1      43.735  29.702  33.979  1.00  0.00     0.074 A 
ATOM     38  C   UNL A   1      44.571  28.926  33.081  1.00  0.00     0.031 C 
ATOM     39  C   UNL A   1      44.070  30.034  35.250  1.00  0.00     0.031 A 
BRANCH  26  40
ATOM     40  C   UNL A   1      39.908  33.520  38.280  1.00  0.00    -0.014 A 
ATOM     41  C   UNL A   1      40.420  34.812  38.514  1.00  0.00     0.010 A 
ATOM     42  C   UNL A   1      39.075  32.931  39.247  1.00  0.00     0.010 A 
ATOM     43  C   UNL A   1      40.173  35.464  39.725  1.00  0.00     0.020 A 
ATOM     44  C   UNL A   1      38.797  33.594  40.445  1.00  0.00     0.020 A 
ATOM     45  C   UNL A   1      39.374  34.843  40.689  1.00  0.00     0.054 A 
BRANCH  45  46
ATOM     46  S   UNL A   1      39.113  35.683  42.275  1.00  0.00     0.124 S 
ATOM     47  O   UNL A   1      37.724  35.340  42.571  1.00  0.00    -0.237 OA
ATOM     48  O   UNL A   1      40.112  35.057  43.137  1.00  0.00    -0.237 OA
ATOM     49  O   UNL A   1      39.354  37.091  41.965  1.00  0.00    -0.744 OA
ENDBRANCH  45  46
ENDBRANCH  26  40
BRANCH  27  50
ATOM     50  C   UNL A   1      41.963  28.667  29.718  1.00  0.00    -0.014 A 
ATOM     51  C   UNL A   1      42.258  29.528  28.649  1.00  0.00     0.010 A 
ATOM     52  C   UNL A   1      41.939  27.279  29.474  1.00  0.00     0.010 A 
ATOM     53  C   UNL A   1      42.463  29.017  27.356  1.00  0.00     0.020 A 
ATOM     54  C   UNL A   1      42.163  26.763  28.192  1.00  0.00     0.020 A 
ATOM     55  C   UNL A   1      42.404  27.636  27.131  1.00  0.00     0.054 A 
BRANCH  55  56
ATOM     56  S   UNL A   1      42.518  26.964  25.440  1.00  0.00     0.124 S 
ATOM     57  O   UNL A   1      41.318  26.139  25.329  1.00  0.00    -0.237 OA
ATOM     58  O   UNL A   1      42.514  28.168  24.616  1.00  0.00    -0.237 OA
ATOM     59  O   UNL A   1      43.780  26.232  25.465  1.00  0.00    -0.744 OA
ENDBRANCH  55  56
ENDBRANCH  27  50
BRANCH  39  60
ATOM     60  C   UNL A   1      45.361  29.489  35.780  1.00  0.00    -0.014 A 
ATOM     61  C   UNL A   1      45.435  28.214  36.363  1.00  0.00     0.010 A 
ATOM     62  C   UNL A   1      46.539  30.229  35.566  1.00  0.00     0.010 A 
ATOM     63  C   UNL A   1      46.676  27.683  36.714  1.00  0.00     0.020 A 
ATOM     64  C   UNL A   1      47.780  29.688  35.887  1.00  0.00     0.020 A 
ATOM     65  C   UNL A   1      47.841  28.416  36.459  1.00  0.00     0.054 A 
BRANCH  65  66
ATOM     66  S   UNL A   1      49.444  27.649  36.807  1.00  0.00     0.124 S 
ATOM     67  O   UNL A   1      50.374  28.612  36.226  1.00  0.00    -0.237 OA
ATOM     68  O   UNL A   1      49.447  27.569  38.266  1.00  0.00    -0.237 OA
ATOM     69  O   UNL A   1      49.369  26.362  36.119  1.00  0.00    -0.744 OA
ENDBRANCH  65  66
ENDBRANCH  39  60
ENDBRANCH  13  14
ENDBRANCH   6   8
ENDBRANCH   5   6
ENDBRANCH   4   5
ENDBRANCH   3   4
ENDBRANCH   2   3
ENDBRANCH   1   2
BRANCH   1  70
ATOM     70  C   UNL A   1      34.454  31.487  28.155  1.00  0.00     0.188 C 
BRANCH  70  71
ATOM     71  O   UNL A   1      33.898  30.723  27.087  1.00  0.00    -0.376 OA
BRANCH  71  72
ATOM     72  C   UNL A   1      33.861  29.311  27.243  1.00  0.00     0.202 C 
BRANCH  72  73
ATOM     73  C   UNL A   1      32.567  28.546  26.906  1.00  0.00     0.261 C 
BRANCH  73  74
ATOM     74  O   UNL A   1      32.709  27.367  26.103  1.00  0.00    -0.461 OA
BRANCH  74  75
ATOM     75  C   UNL A   1      31.774  26.410  26.360  1.00  0.00     0.338 C 
ATOM     76  O   UNL A   1      30.759  26.609  27.025  1.00  0.00    -0.249 OA
BRANCH  75  77
ATOM     77  C   UNL A   1      32.111  25.032  25.802  1.00  0.00     0.263 C 
ATOM     78  O   UNL A   1      31.916  25.234  24.406  1.00  0.00    -0.322 OA
ATOM     79  C   UNL A   1      31.321  23.827  26.318  1.00  0.00     0.186 C 
ATOM     80  C   UNL A   1      32.195  24.138  23.552  1.00  0.00     0.343 C 
ATOM     81  C   UNL A   1      31.760  22.602  25.503  1.00  0.00     0.181 C 
ATOM     82  C   UNL A   1      31.570  22.808  24.006  1.00  0.00     0.214 C 
BRANCH  79  83
ATOM     83  O   UNL A   1      31.612  23.539  27.692  1.00  0.00    -0.387 OA
ATOM     84  H   UNL A   1      31.897  22.615  27.775  1.00  0.00     0.211 HD
ENDBRANCH  79  83
BRANCH  80  85
ATOM     85  O   UNL A   1      31.776  24.480  22.218  1.00  0.00    -0.429 OA
BRANCH  85  86
ATOM     86  C   UNL A   1      32.605  25.291  21.511  1.00  0.00     0.342 C 
ATOM     87  O   UNL A   1      33.291  24.993  20.549  1.00  0.00    -0.246 OA
BRANCH  86  88
ATOM     88  C   UNL A   1      32.500  26.664  22.026  1.00  0.00     0.078 A 
ATOM     89  C   UNL A   1      33.617  27.396  22.400  1.00  0.00     0.019 A 
ATOM     90  C   UNL A   1      31.256  27.269  22.133  1.00  0.00     0.126 A 
ATOM     91  C   UNL A   1      33.465  28.703  22.849  1.00  0.00     0.021 A 
ATOM     92  N   UNL A   1      31.067  28.535  22.590  1.00  0.00    -0.264 NA
ATOM     93  C   UNL A   1      32.184  29.223  22.930  1.00  0.00     0.111 A 
ENDBRANCH  86  88
ENDBRANCH  85  86
ENDBRANCH  80  85
BRANCH  81  94
ATOM     94  O   UNL A   1      31.076  21.424  25.967  1.00  0.00    -0.387 OA
ATOM     95  H   UNL A   1      31.692  20.675  25.977  1.00  0.00     0.211 HD
ENDBRANCH  81  94
BRANCH  82  96
ATOM     96  O   UNL A   1      32.144  21.693  23.314  1.00  0.00    -0.384 OA
ATOM     97  H   UNL A   1      33.111  21.740  23.373  1.00  0.00     0.211 HD
ENDBRANCH  82  96
ENDBRANCH  75  77
ENDBRANCH  74  75
ENDBRANCH  73  74
ENDBRANCH  72  73
ENDBRANCH  71  72
ENDBRANCH  70  71
ENDBRANCH   1  70
TORSDOF 26
ENDMDL
MODEL 2
REMARK VINA RESULT:      -9.4      6.214     12.151
REMARK SMILES O=C(OCCOCCOCCOC(=O)[C@@H]1O[C@H](OC(=O)c2cccnc2)[C@@H](O)[C@H](O)[C@H]1O)c1ccc(-c2c3nc(c(-c4ccc(S(=O)(=O)[O-])cc4)c4ccc([nH]4)c(-c4ccc(S(=O)(=O)[O-])cc4)c4nc(c(-c5ccc(S(=O)(=O)[O-])cc5)c5ccc2[nH]5)C=C4)C=C3)cc1
REMARK SMILES IDX 7 1 6 2 5 3 4 4 3 5 2 6 1 7 33 8 34 9 92 10 35 11 91 12
REMARK SMILES IDX 36 13 37 14 38 15 85 16 39 17 90 18 84 19 86 20 40 21 89 22
REMARK SMILES IDX 83 23 82 24 41 26 71 27 52 28 70 29 53 30 56 31 69 32 87 33
REMARK SMILES IDX 54 34 55 35 68 37 88 38 57 39 42 40 43 41 51 42 44 43 50 44
REMARK SMILES IDX 45 45 46 46 47 47 48 48 49 49 72 50 73 51 81 52 74 53 80 54
REMARK SMILES IDX 75 55 76 56 77 57 78 58 79 59 58 60 59 61 67 62 60 63 66 64
REMARK SMILES IDX 61 65 62 66 63 67 64 68 65 69 8 70 9 71 10 72 11 73 12 74
REMARK SMILES IDX 13 75 14 76 15 77 16 78 31 79 17 80 29 81 27 82 32 83 18 85
REMARK SMILES IDX 19 86 20 87 21 88 22 89 26 90 23 91 25 92 24 93 30 94 28 96
REMARK H PARENT 86 25 56 36 32 84 30 95 28 97
REMARK Flexibility Score: inf
ROOT
ATOM      1  C   UNL A   1      39.010  20.918  25.741  1.00  0.00     0.188 C 
ENDROOT
BRANCH   1   2
ATOM      2  O   UNL A   1      40.379  20.829  26.154  1.00  0.00    -0.376 OA
BRANCH   2   3
ATOM      3  C   UNL A   1      40.892  19.494  26.168  1.00  0.00     0.202 C 
BRANCH   3   4
ATOM      4  C   UNL A   1      42.419  19.362  26.292  1.00  0.00     0.261 C 
BRANCH   4   5
ATOM      5  O   UNL A   1      43.130  19.554  25.061  1.00  0.00    -0.460 OA
BRANCH   5   6
ATOM      6  C   UNL A   1      44.144  20.410  24.783  1.00  0.00     0.338 C 
ATOM      7  O   UNL A   1      45.119  19.963  24.178  1.00  0.00    -0.246 OA
BRANCH   6   8
ATOM      8  C   UNL A   1      44.177  21.857  25.184  1.00  0.00     0.060 A 
ATOM      9  C   UNL A   1      43.774  22.943  24.403  1.00  0.00     0.016 A 
ATOM     10  C   UNL A   1      44.617  22.135  26.489  1.00  0.00     0.016 A 
ATOM     11  C   UNL A   1      43.871  24.260  24.846  1.00  0.00     0.010 A 
ATOM     12  C   UNL A   1      44.696  23.449  26.957  1.00  0.00     0.010 A 
ATOM     13  C   UNL A   1      44.364  24.523  26.114  1.00  0.00    -0.014 A 
BRANCH  13  14
ATOM     14  C   UNL A   1      44.764  25.894  26.487  1.00  0.00     0.031 A 
ATOM     15  C   UNL A   1      46.209  26.241  26.312  1.00  0.00     0.074 A 
ATOM     16  C   UNL A   1      43.888  26.807  26.943  1.00  0.00     0.049 A 
ATOM     17  N   UNL A   1      46.864  27.279  26.745  1.00  0.00    -0.248 NA
ATOM     18  C   UNL A   1      47.013  25.304  25.505  1.00  0.00     0.031 C 
ATOM     19  C   UNL A   1      42.432  26.687  26.922  1.00  0.00     0.029 A 
ATOM     20  N   UNL A   1      44.105  27.996  27.595  1.00  0.00    -0.354 N 
ATOM     21  C   UNL A   1      48.148  27.137  26.239  1.00  0.00     0.074 A 
ATOM     22  C   UNL A   1      48.204  25.875  25.539  1.00  0.00     0.031 C 
ATOM     23  C   UNL A   1      41.905  27.656  27.690  1.00  0.00     0.029 A 
ATOM     24  C   UNL A   1      42.981  28.441  28.256  1.00  0.00     0.049 A 
ATOM     25  H   UNL A   1      44.966  28.475  27.589  1.00  0.00     0.167 HD
ATOM     26  C   UNL A   1      49.173  28.011  26.326  1.00  0.00     0.031 A 
ATOM     27  C   UNL A   1      42.856  29.322  29.265  1.00  0.00     0.031 A 
ATOM     28  C   UNL A   1      49.079  29.232  27.076  1.00  0.00     0.049 A 
ATOM     29  C   UNL A   1      44.066  30.146  29.590  1.00  0.00     0.074 A 
ATOM     30  C   UNL A   1      50.031  30.212  27.263  1.00  0.00     0.029 A 
ATOM     31  N   UNL A   1      47.950  29.618  27.790  1.00  0.00    -0.354 N 
ATOM     32  N   UNL A   1      45.280  30.025  29.105  1.00  0.00    -0.248 NA
ATOM     33  C   UNL A   1      43.882  31.271  30.510  1.00  0.00     0.031 C 
ATOM     34  C   UNL A   1      49.502  31.154  28.152  1.00  0.00     0.029 A 
ATOM     35  C   UNL A   1      48.193  30.801  28.456  1.00  0.00     0.049 A 
ATOM     36  H   UNL A   1      47.101  29.120  27.817  1.00  0.00     0.167 HD
ATOM     37  C   UNL A   1      45.985  31.118  29.585  1.00  0.00     0.074 A 
ATOM     38  C   UNL A   1      45.073  31.854  30.442  1.00  0.00     0.031 C 
ATOM     39  C   UNL A   1      47.252  31.504  29.296  1.00  0.00     0.031 A 
BRANCH  26  40
ATOM     40  C   UNL A   1      50.458  27.619  25.651  1.00  0.00    -0.014 A 
ATOM     41  C   UNL A   1      51.555  27.130  26.388  1.00  0.00     0.010 A 
ATOM     42  C   UNL A   1      50.602  27.824  24.268  1.00  0.00     0.010 A 
ATOM     43  C   UNL A   1      52.792  26.931  25.770  1.00  0.00     0.020 A 
ATOM     44  C   UNL A   1      51.829  27.595  23.640  1.00  0.00     0.020 A 
ATOM     45  C   UNL A   1      52.924  27.180  24.401  1.00  0.00     0.054 A 
BRANCH  45  46
ATOM     46  S   UNL A   1      54.553  26.970  23.633  1.00  0.00     0.124 S 
ATOM     47  O   UNL A   1      55.183  28.259  23.907  1.00  0.00    -0.237 OA
ATOM     48  O   UNL A   1      55.107  25.833  24.363  1.00  0.00    -0.237 OA
ATOM     49  O   UNL A   1      54.244  26.715  22.228  1.00  0.00    -0.744 OA
ENDBRANCH  45  46
ENDBRANCH  26  40
BRANCH  27  50
ATOM     50  C   UNL A   1      41.605  29.401  30.072  1.00  0.00    -0.014 A 
ATOM     51  C   UNL A   1      41.425  28.687  31.267  1.00  0.00     0.010 A 
ATOM     52  C   UNL A   1      40.538  30.189  29.594  1.00  0.00     0.010 A 
ATOM     53  C   UNL A   1      40.188  28.711  31.934  1.00  0.00     0.020 A 
ATOM     54  C   UNL A   1      39.311  30.234  30.266  1.00  0.00     0.020 A 
ATOM     55  C   UNL A   1      39.132  29.477  31.424  1.00  0.00     0.054 A 
BRANCH  55  56
ATOM     56  S   UNL A   1      37.478  29.406  32.189  1.00  0.00     0.124 S 
ATOM     57  O   UNL A   1      37.564  28.234  33.057  1.00  0.00    -0.237 OA
ATOM     58  O   UNL A   1      37.393  30.683  32.887  1.00  0.00    -0.237 OA
ATOM     59  O   UNL A   1      36.593  29.267  31.036  1.00  0.00    -0.744 OA
ENDBRANCH  55  56
ENDBRANCH  27  50
BRANCH  39  60
ATOM     60  C   UNL A   1      47.704  32.824  29.842  1.00  0.00    -0.014 A 
ATOM     61  C   UNL A   1      47.452  34.025  29.161  1.00  0.00     0.010 A 
ATOM     62  C   UNL A   1      48.279  32.856  31.127  1.00  0.00     0.010 A 
ATOM     63  C   UNL A   1      47.760  35.244  29.766  1.00  0.00     0.020 A 
ATOM     64  C   UNL A   1      48.558  34.071  31.745  1.00  0.00     0.020 A 
ATOM     65  C   UNL A   1      48.296  35.259  31.060  1.00  0.00     0.054 A 
BRANCH  65  66
ATOM     66  S   UNL A   1      48.565  36.856  31.869  1.00  0.00     0.124 S 
ATOM     67  O   UNL A   1      49.491  37.510  30.950  1.00  0.00    -0.237 OA
ATOM     68  O   UNL A   1      47.217  37.420  31.914  1.00  0.00    -0.237 OA
ATOM     69  O   UNL A   1      49.126  36.496  33.170  1.00  0.00    -0.744 OA
ENDBRANCH  65  66
ENDBRANCH  39  60
ENDBRANCH  13  14
ENDBRANCH   6   8
ENDBRANCH   5   6
ENDBRANCH   4   5
ENDBRANCH   3   4
ENDBRANCH   2   3
ENDBRANCH   1   2
BRANCH   1  70
ATOM     70  C   UNL A   1      38.482  22.350  25.690  1.00  0.00     0.188 C 
BRANCH  70  71
ATOM     71  O   UNL A   1      37.137  22.532  25.252  1.00  0.00    -0.376 OA
BRANCH  71  72
ATOM     72  C   UNL A   1      36.555  23.815  25.440  1.00  0.00     0.202 C 
BRANCH  72  73
ATOM     73  C   UNL A   1      35.180  23.929  26.125  1.00  0.00     0.261 C 
BRANCH  73  74
ATOM     74  O   UNL A   1      34.332  25.000  25.688  1.00  0.00    -0.461 OA
BRANCH  74  75
ATOM     75  C   UNL A   1      33.004  24.708  25.743  1.00  0.00     0.338 C 
ATOM     76  O   UNL A   1      32.295  24.929  26.724  1.00  0.00    -0.249 OA
BRANCH  75  77
ATOM     77  C   UNL A   1      32.456  24.021  24.497  1.00  0.00     0.263 C 
ATOM     78  O   UNL A   1      32.369  22.668  24.933  1.00  0.00    -0.322 OA
ATOM     79  C   UNL A   1      33.245  24.148  23.192  1.00  0.00     0.186 C 
ATOM     80  C   UNL A   1      31.836  21.729  24.014  1.00  0.00     0.343 C 
ATOM     81  C   UNL A   1      32.554  23.262  22.145  1.00  0.00     0.181 C 
ATOM     82  C   UNL A   1      32.442  21.812  22.603  1.00  0.00     0.214 C 
BRANCH  79  83
ATOM     83  O   UNL A   1      33.227  25.487  22.678  1.00  0.00    -0.387 OA
ATOM     84  H   UNL A   1      33.161  26.115  23.415  1.00  0.00     0.211 HD
ENDBRANCH  79  83
BRANCH  80  85
ATOM     85  O   UNL A   1      31.991  20.410  24.568  1.00  0.00    -0.429 OA
BRANCH  85  86
ATOM     86  C   UNL A   1      33.264  19.970  24.740  1.00  0.00     0.342 C 
ATOM     87  O   UNL A   1      34.257  20.642  24.958  1.00  0.00    -0.246 OA
BRANCH  86  88
ATOM     88  C   UNL A   1      33.281  18.500  24.715  1.00  0.00     0.078 A 
ATOM     89  C   UNL A   1      33.863  17.789  23.677  1.00  0.00     0.019 A 
ATOM     90  C   UNL A   1      32.716  17.785  25.762  1.00  0.00     0.126 A 
ATOM     91  C   UNL A   1      33.881  16.400  23.719  1.00  0.00     0.021 A 
ATOM     92  N   UNL A   1      32.694  16.428  25.826  1.00  0.00    -0.264 NA
ATOM     93  C   UNL A   1      33.287  15.769  24.800  1.00  0.00     0.111 A 
ENDBRANCH  86  88
ENDBRANCH  85  86
ENDBRANCH  80  85
BRANCH  81  94
ATOM     94  O   UNL A   1      33.231  23.366  20.879  1.00  0.00    -0.387 OA
ATOM     95  H   UNL A   1      32.577  23.447  20.168  1.00  0.00     0.211 HD
ENDBRANCH  81  94
BRANCH  82  96
ATOM     96  O   UNL A   1      31.654  21.091  21.649  1.00  0.00    -0.384 OA
ATOM     97  H   UNL A   1      31.484  21.655  20.878  1.00  0.00     0.211 HD
ENDBRANCH  82  96
ENDBRANCH  75  77
ENDBRANCH  74  75
ENDBRANCH  73  74
ENDBRANCH  72  73
ENDBRANCH  71  72
ENDBRANCH  70  71
ENDBRANCH   1  70
TORSDOF 26
ENDMDL
MODEL 3
REMARK VINA RESULT:      -9.3      5.821     11.774
REMARK SMILES O=C(OCCOCCOCCOC(=O)[C@@H]1O[C@H](OC(=O)c2cccnc2)[C@@H](O)[C@H](O)[C@H]1O)c1ccc(-c2c3nc(c(-c4ccc(S(=O)(=O)[O-])cc4)c4ccc([nH]4)c(-c4ccc(S(=O)(=O)[O-])cc4)c4nc(c(-c5ccc(S(=O)(=O)[O-])cc5)c5ccc2[nH]5)C=C4)C=C3)cc1
REMARK SMILES IDX 7 1 6 2 5 3 4 4 3 5 2 6 1 7 33 8 34 9 92 10 35 11 91 12
REMARK SMILES IDX 36 13 37 14 38 15 85 16 39 17 90 18 84 19 86 20 40 21 89 22
REMARK SMILES IDX 83 23 82 24 41 26 71 27 52 28 70 29 53 30 56 31 69 32 87 33
REMARK SMILES IDX 54 34 55 35 68 37 88 38 57 39 42 40 43 41 51 42 44 43 50 44
REMARK SMILES IDX 45 45 46 46 47 47 48 48 49 49 72 50 73 51 81 52 74 53 80 54
REMARK SMILES IDX 75 55 76 56 77 57 78 58 79 59 58 60 59 61 67 62 60 63 66 64
REMARK SMILES IDX 61 65 62 66 63 67 64 68 65 69 8 70 9 71 10 72 11 73 12 74
REMARK SMILES IDX 13 75 14 76 15 77 16 78 31 79 17 80 29 81 27 82 32 83 18 85
REMARK SMILES IDX 19 86 20 87 21 88 22 89 26 90 23 91 25 92 24 93 30 94 28 96
REMARK H PARENT 86 25 56 36 32 84 30 95 28 97
REMARK Flexibility Score: inf
ROOT
ATOM      1  C   UNL A   1      38.584  21.523  25.711  1.00  0.00     0.188 C 
ENDROOT
BRANCH   1   2
ATOM      2  O   UNL A   1      39.894  21.163  26.163  1.00  0.00    -0.376 OA
BRANCH   2   3
ATOM      3  C   UNL A   1      40.191  19.771  26.024  1.00  0.00     0.202 C 
BRANCH   3   4
ATOM      4  C   UNL A   1      41.640  19.358  26.330  1.00  0.00     0.261 C 
BRANCH   4   5
ATOM      5  O   UNL A   1      42.540  19.491  25.221  1.00  0.00    -0.460 OA
BRANCH   5   6
ATOM      6  C   UNL A   1      43.647  20.266  25.106  1.00  0.00     0.338 C 
ATOM      7  O   UNL A   1      44.689  19.720  24.741  1.00  0.00    -0.246 OA
BRANCH   6   8
ATOM      8  C   UNL A   1      43.702  21.734  25.417  1.00  0.00     0.060 A 
ATOM      9  C   UNL A   1      43.453  22.780  24.525  1.00  0.00     0.016 A 
ATOM     10  C   UNL A   1      43.989  22.081  26.748  1.00  0.00     0.016 A 
ATOM     11  C   UNL A   1      43.560  24.119  24.894  1.00  0.00     0.010 A 
ATOM     12  C   UNL A   1      44.075  23.420  27.139  1.00  0.00     0.010 A 
ATOM     13  C   UNL A   1      43.904  24.446  26.195  1.00  0.00    -0.014 A 
BRANCH  13  14
ATOM     14  C   UNL A   1      44.322  25.822  26.530  1.00  0.00     0.031 A 
ATOM     15  C   UNL A   1      45.761  26.159  26.298  1.00  0.00     0.074 A 
ATOM     16  C   UNL A   1      43.467  26.746  27.002  1.00  0.00     0.049 A 
ATOM     17  N   UNL A   1      46.435  27.202  26.689  1.00  0.00    -0.248 NA
ATOM     18  C   UNL A   1      46.532  25.205  25.479  1.00  0.00     0.031 C 
ATOM     19  C   UNL A   1      42.010  26.632  27.036  1.00  0.00     0.029 A 
ATOM     20  N   UNL A   1      43.711  27.945  27.625  1.00  0.00    -0.354 N 
ATOM     21  C   UNL A   1      47.700  27.046  26.140  1.00  0.00     0.074 A 
ATOM     22  C   UNL A   1      47.726  25.772  25.461  1.00  0.00     0.031 C 
ATOM     23  C   UNL A   1      41.515  27.616  27.805  1.00  0.00     0.029 A 
ATOM     24  C   UNL A   1      42.613  28.406  28.319  1.00  0.00     0.049 A 
ATOM     25  H   UNL A   1      44.573  28.420  27.581  1.00  0.00     0.167 HD
ATOM     26  C   UNL A   1      48.730  27.917  26.176  1.00  0.00     0.031 A 
ATOM     27  C   UNL A   1      42.528  29.304  29.316  1.00  0.00     0.031 A 
ATOM     28  C   UNL A   1      48.668  29.150  26.908  1.00  0.00     0.049 A 
ATOM     29  C   UNL A   1      43.752  30.128  29.584  1.00  0.00     0.074 A 
ATOM     30  C   UNL A   1      49.629  30.129  27.044  1.00  0.00     0.029 A 
ATOM     31  N   UNL A   1      47.566  29.553  27.655  1.00  0.00    -0.354 N 
ATOM     32  N   UNL A   1      44.947  29.994  29.057  1.00  0.00    -0.248 NA
ATOM     33  C   UNL A   1      43.605  31.270  30.491  1.00  0.00     0.031 C 
ATOM     34  C   UNL A   1      49.136  31.089  27.936  1.00  0.00     0.029 A 
ATOM     35  C   UNL A   1      47.838  30.747  28.292  1.00  0.00     0.049 A 
ATOM     36  H   UNL A   1      46.717  29.059  27.721  1.00  0.00     0.167 HD
ATOM     37  C   UNL A   1      45.673  31.092  29.493  1.00  0.00     0.074 A 
ATOM     38  C   UNL A   1      44.795  31.847  30.370  1.00  0.00     0.031 C 
ATOM     39  C   UNL A   1      46.930  31.468  29.153  1.00  0.00     0.031 A 
BRANCH  26  40
ATOM     40  C   UNL A   1      49.988  27.508  25.462  1.00  0.00    -0.014 A 
ATOM     41  C   UNL A   1      50.996  26.769  26.114  1.00  0.00     0.010 A 
ATOM     42  C   UNL A   1      50.207  27.943  24.144  1.00  0.00     0.010 A 
ATOM     43  C   UNL A   1      52.226  26.544  25.492  1.00  0.00     0.020 A 
ATOM     44  C   UNL A   1      51.424  27.691  23.505  1.00  0.00     0.020 A 
ATOM     45  C   UNL A   1      52.437  27.021  24.195  1.00  0.00     0.054 A 
BRANCH  45  46
ATOM     46  S   UNL A   1      54.060  26.766  23.428  1.00  0.00     0.124 S 
ATOM     47  O   UNL A   1      54.545  28.138  23.289  1.00  0.00    -0.237 OA
ATOM     48  O   UNL A   1      54.758  25.952  24.419  1.00  0.00    -0.237 OA
ATOM     49  O   UNL A   1      53.749  26.086  22.173  1.00  0.00    -0.744 OA
ENDBRANCH  45  46
ENDBRANCH  26  40
BRANCH  27  50
ATOM     50  C   UNL A   1      41.307  29.402  30.167  1.00  0.00    -0.014 A 
ATOM     51  C   UNL A   1      40.393  30.462  30.067  1.00  0.00     0.010 A 
ATOM     52  C   UNL A   1      41.083  28.413  31.147  1.00  0.00     0.010 A 
ATOM     53  C   UNL A   1      39.316  30.564  30.965  1.00  0.00     0.020 A 
ATOM     54  C   UNL A   1      39.999  28.498  32.030  1.00  0.00     0.020 A 
ATOM     55  C   UNL A   1      39.130  29.586  31.950  1.00  0.00     0.054 A 
BRANCH  55  56
ATOM     56  S   UNL A   1      37.832  29.777  33.215  1.00  0.00     0.124 S 
ATOM     57  O   UNL A   1      38.581  30.176  34.403  1.00  0.00    -0.237 OA
ATOM     58  O   UNL A   1      36.981  30.816  32.647  1.00  0.00    -0.237 OA
ATOM     59  O   UNL A   1      37.234  28.446  33.271  1.00  0.00    -0.744 OA
ENDBRANCH  55  56
ENDBRANCH  27  50
BRANCH  39  60
ATOM     60  C   UNL A   1      47.407  32.795  29.660  1.00  0.00    -0.014 A 
ATOM     61  C   UNL A   1      47.144  33.984  28.962  1.00  0.00     0.010 A 
ATOM     62  C   UNL A   1      48.017  32.848  30.927  1.00  0.00     0.010 A 
ATOM     63  C   UNL A   1      47.477  35.212  29.534  1.00  0.00     0.020 A 
ATOM     64  C   UNL A   1      48.321  34.073  31.513  1.00  0.00     0.020 A 
ATOM     65  C   UNL A   1      48.048  35.248  30.812  1.00  0.00     0.054 A 
BRANCH  65  66
ATOM     66  S   UNL A   1      48.351  36.860  31.582  1.00  0.00     0.124 S 
ATOM     67  O   UNL A   1      47.976  36.608  32.970  1.00  0.00    -0.237 OA
ATOM     68  O   UNL A   1      49.778  37.063  31.341  1.00  0.00    -0.237 OA
ATOM     69  O   UNL A   1      47.467  37.765  30.851  1.00  0.00    -0.744 OA
ENDBRANCH  65  66
ENDBRANCH  39  60
ENDBRANCH  13  14
ENDBRANCH   6   8
ENDBRANCH   5   6
ENDBRANCH   4   5
ENDBRANCH   3   4
ENDBRANCH   2   3
ENDBRANCH   1   2
BRANCH   1  70
ATOM     70  C   UNL A   1      38.261  23.005  25.897  1.00  0.00     0.188 C 
BRANCH  70  71
ATOM     71  O   UNL A   1      37.003  23.463  25.407  1.00  0.00    -0.376 OA
BRANCH  71  72
ATOM     72  C   UNL A   1      36.334  22.647  24.456  1.00  0.00     0.202 C 
BRANCH  72  73
ATOM     73  C   UNL A   1      34.910  23.023  24.005  1.00  0.00     0.261 C 
BRANCH  73  74
ATOM     74  O   UNL A   1      33.962  21.951  23.913  1.00  0.00    -0.461 OA
BRANCH  74  75
ATOM     75  C   UNL A   1      32.827  22.276  23.234  1.00  0.00     0.338 C 
ATOM     76  O   UNL A   1      32.720  22.207  22.010  1.00  0.00    -0.249 OA
BRANCH  75  77
ATOM     77  C   UNL A   1      31.694  22.798  24.110  1.00  0.00     0.263 C 
ATOM     78  O   UNL A   1      31.816  24.205  23.926  1.00  0.00    -0.322 OA
ATOM     79  C   UNL A   1      31.688  22.417  25.592  1.00  0.00     0.186 C 
ATOM     80  C   UNL A   1      30.861  25.025  24.578  1.00  0.00     0.343 C 
ATOM     81  C   UNL A   1      30.532  23.176  26.261  1.00  0.00     0.181 C 
ATOM     82  C   UNL A   1      30.642  24.683  26.062  1.00  0.00     0.214 C 
BRANCH  79  83
ATOM     83  O   UNL A   1      31.435  21.019  25.789  1.00  0.00    -0.387 OA
ATOM     84  H   UNL A   1      30.478  20.858  25.771  1.00  0.00     0.211 HD
ENDBRANCH  79  83
BRANCH  80  85
ATOM     85  O   UNL A   1      31.252  26.400  24.415  1.00  0.00    -0.429 OA
BRANCH  85  86
ATOM     86  C   UNL A   1      32.565  26.685  24.615  1.00  0.00     0.342 C 
ATOM     87  O   UNL A   1      33.525  26.175  24.067  1.00  0.00    -0.246 OA
BRANCH  86  88
ATOM     88  C   UNL A   1      32.683  27.803  25.562  1.00  0.00     0.078 A 
ATOM     89  C   UNL A   1      33.830  28.012  26.313  1.00  0.00     0.019 A 
ATOM     90  C   UNL A   1      31.631  28.697  25.711  1.00  0.00     0.126 A 
ATOM     91  C   UNL A   1      33.902  29.105  27.170  1.00  0.00     0.021 A 
ATOM     92  N   UNL A   1      31.657  29.761  26.555  1.00  0.00    -0.264 NA
ATOM     93  C   UNL A   1      32.802  29.941  27.259  1.00  0.00     0.111 A 
ENDBRANCH  86  88
ENDBRANCH  85  86
ENDBRANCH  80  85
BRANCH  81  94
ATOM     94  O   UNL A   1      30.451  22.830  27.656  1.00  0.00    -0.387 OA
ATOM     95  H   UNL A   1      30.283  21.879  27.744  1.00  0.00     0.211 HD
ENDBRANCH  81  94
BRANCH  82  96
ATOM     96  O   UNL A   1      29.456  25.300  26.575  1.00  0.00    -0.384 OA
ATOM     97  H   UNL A   1      28.954  24.652  27.094  1.00  0.00     0.211 HD
ENDBRANCH  82  96
ENDBRANCH  75  77
ENDBRANCH  74  75
ENDBRANCH  73  74
ENDBRANCH  72  73
ENDBRANCH  71  72
ENDBRANCH  70  71
ENDBRANCH   1  70
TORSDOF 26
ENDMDL
