MODEL 1
REMARK VINA RESULT:     -10.2      0.000      0.000
REMARK SMILES O=C(COc1ccc(Br)cc1/C=C1\C(=O)Nc2ccc(Br)cc21)OCCOCCOCCOC(=O)c1ccc(-c2c3nc(c(-c4ccc(S(=O)(=O)[O-])cc4)c4ccc([nH]4)c(-c4ccc(S(=O)(=O)[O-])cc4)c4nc(c(-c5ccc(S(=O)(=O)[O-])cc5)c5ccc2[nH]5)C=C4)C=C3)cc1
REMARK SMILES IDX 28 1 27 2 26 3 25 4 24 5 2 6 1 7 3 8 4 9 5 10 6 11 11 12
REMARK SMILES IDX 7 13 10 14 8 15 9 16 12 17 13 18 14 19 23 20 15 21 16 22
REMARK SMILES IDX 17 23 22 24 18 26 20 27 19 28 21 29 29 30 30 31 31 32 32 33
REMARK SMILES IDX 33 34 34 35 35 36 36 37 37 38 95 39 38 40 94 41 39 42 40 43
REMARK SMILES IDX 41 44 88 45 42 46 93 47 87 48 89 49 43 50 92 51 86 52 85 53
REMARK SMILES IDX 44 55 74 56 55 57 73 58 56 59 59 60 72 61 90 62 57 63 58 64
REMARK SMILES IDX 71 66 91 67 60 68 45 69 46 70 54 71 47 72 53 73 48 74 49 75
REMARK SMILES IDX 50 76 51 77 52 78 75 79 76 80 84 81 77 82 83 83 78 84 79 85
REMARK SMILES IDX 80 86 81 87 82 88 61 89 62 90 70 91 63 92 69 93 64 94 65 95
REMARK SMILES IDX 66 96 67 97 68 98
REMARK H PARENT 16 25 89 54 59 65
REMARK Flexibility Score: inf
ROOT
ATOM      1  C   UNL A   1      34.454  31.977  27.634  1.00  0.00     0.188 C 
ENDROOT
BRANCH   1   2
ATOM      2  O   UNL A   1      33.408  31.012  27.674  1.00  0.00    -0.376 OA
BRANCH   2   3
ATOM      3  C   UNL A   1      33.490  29.983  26.701  1.00  0.00     0.202 C 
BRANCH   3   4
ATOM      4  C   UNL A   1      32.370  28.971  26.920  1.00  0.00     0.261 C 
BRANCH   4   5
ATOM      5  O   UNL A   1      32.421  27.848  26.013  1.00  0.00    -0.461 OA
BRANCH   5   6
ATOM      6  C   UNL A   1      32.170  26.559  26.344  1.00  0.00     0.344 C 
ATOM      7  O   UNL A   1      31.066  26.253  26.791  1.00  0.00    -0.248 OA
BRANCH   6   8
ATOM      8  C   UNL A   1      33.280  25.523  26.173  1.00  0.00     0.351 C 
BRANCH   8   9
ATOM      9  O   UNL A   1      33.574  25.109  24.833  1.00  0.00    -0.481 OA
BRANCH   9  10
ATOM     10  C   UNL A   1      33.082  23.834  24.646  1.00  0.00     0.127 A 
ATOM     11  C   UNL A   1      33.801  22.765  25.204  1.00  0.00     0.048 A 
ATOM     12  C   UNL A   1      31.967  23.628  23.811  1.00  0.00     0.018 A 
ATOM     13  C   UNL A   1      33.575  21.475  24.756  1.00  0.00     0.019 A 
ATOM     14  C   UNL A   1      31.756  22.310  23.392  1.00  0.00     0.027 A 
ATOM     15  C   UNL A   1      32.587  21.263  23.809  1.00  0.00     0.018 A 
ATOM     16  Br  UNL A   1      32.374  19.538  23.064  1.00  0.00    -0.051 Br
BRANCH  12  17
ATOM     17  C   UNL A   1      31.109  24.780  23.420  1.00  0.00     0.026 C 
ATOM     18  C   UNL A   1      31.305  25.754  22.507  1.00  0.00     0.050 C 
ATOM     19  C   UNL A   1      32.556  25.993  21.704  1.00  0.00     0.256 C 
ATOM     20  C   UNL A   1      30.694  27.077  22.698  1.00  0.00     0.012 A 
ATOM     21  O   UNL A   1      33.100  25.232  20.928  1.00  0.00    -0.269 OA
ATOM     22  N   UNL A   1      32.867  27.307  21.984  1.00  0.00    -0.321 N 
ATOM     23  C   UNL A   1      31.782  27.936  22.593  1.00  0.00     0.049 A 
ATOM     24  C   UNL A   1      29.423  27.597  22.881  1.00  0.00     0.026 A 
ATOM     25  H   UNL A   1      33.729  27.737  21.783  1.00  0.00     0.170 HD
ATOM     26  C   UNL A   1      31.691  29.254  22.936  1.00  0.00     0.028 A 
ATOM     27  C   UNL A   1      29.307  28.986  23.063  1.00  0.00     0.018 A 
ATOM     28  C   UNL A   1      30.439  29.804  23.165  1.00  0.00     0.018 A 
ATOM     29  Br  UNL A   1      27.601  29.800  23.130  1.00  0.00    -0.051 Br
ENDBRANCH  12  17
ENDBRANCH   9  10
ENDBRANCH   8   9
ENDBRANCH   6   8
ENDBRANCH   5   6
ENDBRANCH   4   5
ENDBRANCH   3   4
ENDBRANCH   2   3
ENDBRANCH   1   2
BRANCH   1  30
ATOM     30  C   UNL A   1      34.435  32.879  28.877  1.00  0.00     0.188 C 
BRANCH  30  31
ATOM     31  O   UNL A   1      34.494  32.284  30.173  1.00  0.00    -0.376 OA
BRANCH  31  32
ATOM     32  C   UNL A   1      35.674  32.419  30.953  1.00  0.00     0.202 C 
BRANCH  32  33
ATOM     33  C   UNL A   1      36.955  31.842  30.344  1.00  0.00     0.261 C 
BRANCH  33  34
ATOM     34  O   UNL A   1      37.135  30.440  30.620  1.00  0.00    -0.460 OA
BRANCH  34  35
ATOM     35  C   UNL A   1      37.037  29.606  29.554  1.00  0.00     0.338 C 
ATOM     36  O   UNL A   1      36.016  29.290  28.969  1.00  0.00    -0.246 OA
BRANCH  35  37
ATOM     37  C   UNL A   1      38.393  29.234  29.072  1.00  0.00     0.060 A 
ATOM     38  C   UNL A   1      38.770  29.368  27.733  1.00  0.00     0.016 A 
ATOM     39  C   UNL A   1      39.325  28.770  30.011  1.00  0.00     0.016 A 
ATOM     40  C   UNL A   1      40.090  29.083  27.348  1.00  0.00     0.010 A 
ATOM     41  C   UNL A   1      40.640  28.476  29.622  1.00  0.00     0.010 A 
ATOM     42  C   UNL A   1      41.045  28.655  28.291  1.00  0.00    -0.014 A 
BRANCH  42  43
ATOM     43  C   UNL A   1      42.491  28.607  27.930  1.00  0.00     0.031 A 
ATOM     44  C   UNL A   1      43.417  29.781  28.098  1.00  0.00     0.074 A 
ATOM     45  C   UNL A   1      42.984  27.455  27.429  1.00  0.00     0.049 A 
ATOM     46  N   UNL A   1      44.704  29.834  27.858  1.00  0.00    -0.248 NA
ATOM     47  C   UNL A   1      42.852  31.043  28.599  1.00  0.00     0.031 C 
ATOM     48  C   UNL A   1      42.199  26.242  27.187  1.00  0.00     0.029 A 
ATOM     49  N   UNL A   1      44.256  27.111  27.038  1.00  0.00    -0.354 N 
ATOM     50  C   UNL A   1      45.113  31.118  28.199  1.00  0.00     0.074 A 
ATOM     51  C   UNL A   1      43.930  31.825  28.645  1.00  0.00     0.031 C 
ATOM     52  C   UNL A   1      43.008  25.288  26.698  1.00  0.00     0.029 A 
ATOM     53  C   UNL A   1      44.364  25.820  26.576  1.00  0.00     0.049 A 
ATOM     54  H   UNL A   1      45.019  27.731  27.084  1.00  0.00     0.167 HD
ATOM     55  C   UNL A   1      46.363  31.637  28.153  1.00  0.00     0.031 A 
ATOM     56  C   UNL A   1      45.422  25.125  26.108  1.00  0.00     0.031 A 
ATOM     57  C   UNL A   1      47.537  30.953  27.684  1.00  0.00     0.049 A 
ATOM     58  C   UNL A   1      46.793  25.740  26.090  1.00  0.00     0.074 A 
ATOM     59  C   UNL A   1      48.811  31.484  27.535  1.00  0.00     0.029 A 
ATOM     60  N   UNL A   1      47.608  29.629  27.314  1.00  0.00    -0.354 N 
ATOM     61  N   UNL A   1      47.155  26.932  26.493  1.00  0.00    -0.248 NA
ATOM     62  C   UNL A   1      47.902  24.917  25.580  1.00  0.00     0.031 C 
ATOM     63  C   UNL A   1      49.662  30.473  27.112  1.00  0.00     0.029 A 
ATOM     64  C   UNL A   1      48.911  29.320  26.971  1.00  0.00     0.049 A 
ATOM     65  H   UNL A   1      46.850  28.999  27.298  1.00  0.00     0.167 HD
ATOM     66  C   UNL A   1      48.530  26.990  26.299  1.00  0.00     0.074 A 
ATOM     67  C   UNL A   1      48.946  25.715  25.769  1.00  0.00     0.031 C 
ATOM     68  C   UNL A   1      49.360  28.033  26.522  1.00  0.00     0.031 A 
BRANCH  55  69
ATOM     69  C   UNL A   1      46.636  33.030  28.629  1.00  0.00    -0.014 A 
ATOM     70  C   UNL A   1      46.972  34.039  27.714  1.00  0.00     0.010 A 
ATOM     71  C   UNL A   1      46.893  33.219  30.005  1.00  0.00     0.010 A 
ATOM     72  C   UNL A   1      47.526  35.235  28.171  1.00  0.00     0.020 A 
ATOM     73  C   UNL A   1      47.489  34.396  30.460  1.00  0.00     0.020 A 
ATOM     74  C   UNL A   1      47.774  35.409  29.540  1.00  0.00     0.054 A 
BRANCH  74  75
ATOM     75  S   UNL A   1      48.174  37.074  30.141  1.00  0.00     0.124 S 
ATOM     76  O   UNL A   1      49.392  36.851  30.907  1.00  0.00    -0.237 OA
ATOM     77  O   UNL A   1      48.321  37.803  28.881  1.00  0.00    -0.237 OA
ATOM     78  O   UNL A   1      46.988  37.441  30.911  1.00  0.00    -0.744 OA
ENDBRANCH  74  75
ENDBRANCH  55  69
BRANCH  56  79
ATOM     79  C   UNL A   1      45.217  23.732  25.634  1.00  0.00    -0.014 A 
ATOM     80  C   UNL A   1      45.208  22.668  26.555  1.00  0.00     0.010 A 
ATOM     81  C   UNL A   1      45.074  23.457  24.263  1.00  0.00     0.010 A 
ATOM     82  C   UNL A   1      45.098  21.350  26.111  1.00  0.00     0.020 A 
ATOM     83  C   UNL A   1      44.934  22.141  23.818  1.00  0.00     0.020 A 
ATOM     84  C   UNL A   1      44.972  21.095  24.743  1.00  0.00     0.054 A 
BRANCH  84  85
ATOM     85  S   UNL A   1      44.850  19.375  24.184  1.00  0.00     0.124 S 
ATOM     86  O   UNL A   1      46.215  18.898  24.387  1.00  0.00    -0.237 OA
ATOM     87  O   UNL A   1      43.846  18.815  25.084  1.00  0.00    -0.237 OA
ATOM     88  O   UNL A   1      44.431  19.500  22.791  1.00  0.00    -0.744 OA
ENDBRANCH  84  85
ENDBRANCH  56  79
BRANCH  68  89
ATOM     89  C   UNL A   1      50.828  27.908  26.227  1.00  0.00    -0.014 A 
ATOM     90  C   UNL A   1      51.266  27.855  24.890  1.00  0.00     0.010 A 
ATOM     91  C   UNL A   1      51.727  27.593  27.260  1.00  0.00     0.010 A 
ATOM     92  C   UNL A   1      52.566  27.442  24.588  1.00  0.00     0.020 A 
ATOM     93  C   UNL A   1      53.034  27.199  26.962  1.00  0.00     0.020 A 
ATOM     94  C   UNL A   1      53.436  27.099  25.627  1.00  0.00     0.054 A 
BRANCH  94  95
ATOM     95  S   UNL A   1      55.091  26.484  25.214  1.00  0.00     0.124 S 
ATOM     96  O   UNL A   1      55.033  26.394  23.759  1.00  0.00    -0.237 OA
ATOM     97  O   UNL A   1      55.964  27.530  25.745  1.00  0.00    -0.237 OA
ATOM     98  O   UNL A   1      55.168  25.205  25.917  1.00  0.00    -0.744 OA
ENDBRANCH  94  95
ENDBRANCH  68  89
ENDBRANCH  42  43
ENDBRANCH  35  37
ENDBRANCH  34  35
ENDBRANCH  33  34
ENDBRANCH  32  33
ENDBRANCH  31  32
ENDBRANCH  30  31
ENDBRANCH   1  30
TORSDOF 23
ENDMDL
MODEL 2
REMARK VINA RESULT:     -10.0      2.367      8.847
REMARK SMILES O=C(COc1ccc(Br)cc1/C=C1\C(=O)Nc2ccc(Br)cc21)OCCOCCOCCOC(=O)c1ccc(-c2c3nc(c(-c4ccc(S(=O)(=O)[O-])cc4)c4ccc([nH]4)c(-c4ccc(S(=O)(=O)[O-])cc4)c4nc(c(-c5ccc(S(=O)(=O)[O-])cc5)c5ccc2[nH]5)C=C4)C=C3)cc1
REMARK SMILES IDX 28 1 27 2 26 3 25 4 24 5 2 6 1 7 3 8 4 9 5 10 6 11 11 12
REMARK SMILES IDX 7 13 10 14 8 15 9 16 12 17 13 18 14 19 23 20 15 21 16 22
REMARK SMILES IDX 17 23 22 24 18 26 20 27 19 28 21 29 29 30 30 31 31 32 32 33
REMARK SMILES IDX 33 34 34 35 35 36 36 37 37 38 95 39 38 40 94 41 39 42 40 43
REMARK SMILES IDX 41 44 88 45 42 46 93 47 87 48 89 49 43 50 92 51 86 52 85 53
REMARK SMILES IDX 44 55 74 56 55 57 73 58 56 59 59 60 72 61 90 62 57 63 58 64
REMARK SMILES IDX 71 66 91 67 60 68 45 69 46 70 54 71 47 72 53 73 48 74 49 75
REMARK SMILES IDX 50 76 51 77 52 78 75 79 76 80 84 81 77 82 83 83 78 84 79 85
REMARK SMILES IDX 80 86 81 87 82 88 61 89 62 90 70 91 63 92 69 93 64 94 65 95
REMARK SMILES IDX 66 96 67 97 68 98
REMARK H PARENT 16 25 89 54 59 65
REMARK Flexibility Score: inf
ROOT
ATOM      1  C   UNL A   1      40.775  22.364  27.874  1.00  0.00     0.188 C 
ENDROOT
BRANCH   1   2
ATOM      2  O   UNL A   1      40.024  22.594  26.685  1.00  0.00    -0.376 OA
BRANCH   2   3
ATOM      3  C   UNL A   1      39.647  23.941  26.451  1.00  0.00     0.202 C 
BRANCH   3   4
ATOM      4  C   UNL A   1      38.136  24.090  26.589  1.00  0.00     0.261 C 
BRANCH   4   5
ATOM      5  O   UNL A   1      37.423  23.919  25.345  1.00  0.00    -0.461 OA
BRANCH   5   6
ATOM      6  C   UNL A   1      36.784  22.791  24.954  1.00  0.00     0.344 C 
ATOM      7  O   UNL A   1      36.844  22.439  23.777  1.00  0.00    -0.248 OA
BRANCH   6   8
ATOM      8  C   UNL A   1      35.984  21.999  25.987  1.00  0.00     0.351 C 
BRANCH   8   9
ATOM      9  O   UNL A   1      34.625  22.400  26.195  1.00  0.00    -0.481 OA
BRANCH   9  10
ATOM     10  C   UNL A   1      33.799  21.538  25.504  1.00  0.00     0.127 A 
ATOM     11  C   UNL A   1      33.884  20.169  25.803  1.00  0.00     0.048 A 
ATOM     12  C   UNL A   1      33.002  22.025  24.450  1.00  0.00     0.018 A 
ATOM     13  C   UNL A   1      33.370  19.238  24.916  1.00  0.00     0.019 A 
ATOM     14  C   UNL A   1      32.482  21.055  23.584  1.00  0.00     0.027 A 
ATOM     15  C   UNL A   1      32.717  19.690  23.781  1.00  0.00     0.018 A 
ATOM     16  Br  UNL A   1      32.153  18.440  22.478  1.00  0.00    -0.051 Br
BRANCH  12  17
ATOM     17  C   UNL A   1      32.773  23.488  24.307  1.00  0.00     0.026 C 
ATOM     18  C   UNL A   1      32.062  24.346  25.066  1.00  0.00     0.050 C 
ATOM     19  C   UNL A   1      31.181  23.992  26.236  1.00  0.00     0.256 C 
ATOM     20  C   UNL A   1      31.457  25.541  24.459  1.00  0.00     0.012 A 
ATOM     21  O   UNL A   1      31.501  23.432  27.266  1.00  0.00    -0.269 OA
ATOM     22  N   UNL A   1      29.965  24.546  25.898  1.00  0.00    -0.321 N 
ATOM     23  C   UNL A   1      30.123  25.436  24.835  1.00  0.00     0.049 A 
ATOM     24  C   UNL A   1      31.881  26.641  23.733  1.00  0.00     0.026 A 
ATOM     25  H   UNL A   1      29.111  24.343  26.341  1.00  0.00     0.170 HD
ATOM     26  C   UNL A   1      29.158  26.230  24.287  1.00  0.00     0.028 A 
ATOM     27  C   UNL A   1      30.904  27.560  23.311  1.00  0.00     0.018 A 
ATOM     28  C   UNL A   1      29.541  27.320  23.521  1.00  0.00     0.018 A 
ATOM     29  Br  UNL A   1      31.415  29.182  22.481  1.00  0.00    -0.051 Br
ENDBRANCH  12  17
ENDBRANCH   9  10
ENDBRANCH   8   9
ENDBRANCH   6   8
ENDBRANCH   5   6
ENDBRANCH   4   5
ENDBRANCH   3   4
ENDBRANCH   2   3
ENDBRANCH   1   2
BRANCH   1  30
ATOM     30  C   UNL A   1      41.832  21.269  27.669  1.00  0.00     0.188 C 
BRANCH  30  31
ATOM     31  O   UNL A   1      41.420  19.904  27.601  1.00  0.00    -0.376 OA
BRANCH  31  32
ATOM     32  C   UNL A   1      41.392  19.243  26.345  1.00  0.00     0.202 C 
BRANCH  32  33
ATOM     33  C   UNL A   1      42.739  18.746  25.813  1.00  0.00     0.261 C 
BRANCH  33  34
ATOM     34  O   UNL A   1      43.176  19.444  24.632  1.00  0.00    -0.460 OA
BRANCH  34  35
ATOM     35  C   UNL A   1      44.519  19.547  24.464  1.00  0.00     0.338 C 
ATOM     36  O   UNL A   1      45.265  18.691  24.020  1.00  0.00    -0.246 OA
BRANCH  35  37
ATOM     37  C   UNL A   1      44.963  20.936  24.752  1.00  0.00     0.060 A 
ATOM     38  C   UNL A   1      45.019  21.920  23.760  1.00  0.00     0.016 A 
ATOM     39  C   UNL A   1      45.298  21.264  26.072  1.00  0.00     0.016 A 
ATOM     40  C   UNL A   1      45.363  23.237  24.103  1.00  0.00     0.010 A 
ATOM     41  C   UNL A   1      45.652  22.578  26.411  1.00  0.00     0.010 A 
ATOM     42  C   UNL A   1      45.662  23.586  25.435  1.00  0.00    -0.014 A 
BRANCH  42  43
ATOM     43  C   UNL A   1      45.769  25.019  25.832  1.00  0.00     0.031 A 
ATOM     44  C   UNL A   1      44.587  25.836  26.281  1.00  0.00     0.074 A 
ATOM     45  C   UNL A   1      46.985  25.603  25.785  1.00  0.00     0.049 A 
ATOM     46  N   UNL A   1      44.576  27.080  26.693  1.00  0.00    -0.248 NA
ATOM     47  C   UNL A   1      43.263  25.196  26.279  1.00  0.00     0.031 C 
ATOM     48  C   UNL A   1      48.216  24.943  25.347  1.00  0.00     0.029 A 
ATOM     49  N   UNL A   1      47.388  26.878  26.109  1.00  0.00    -0.354 N 
ATOM     50  C   UNL A   1      43.258  27.370  27.024  1.00  0.00     0.074 A 
ATOM     51  C   UNL A   1      42.488  26.175  26.745  1.00  0.00     0.031 C 
ATOM     52  C   UNL A   1      49.235  25.813  25.438  1.00  0.00     0.029 A 
ATOM     53  C   UNL A   1      48.734  27.096  25.925  1.00  0.00     0.049 A 
ATOM     54  H   UNL A   1      46.771  27.569  26.442  1.00  0.00     0.167 HD
ATOM     55  C   UNL A   1      42.757  28.523  27.527  1.00  0.00     0.031 A 
ATOM     56  C   UNL A   1      49.494  28.193  26.123  1.00  0.00     0.031 A 
ATOM     57  C   UNL A   1      43.507  29.723  27.779  1.00  0.00     0.049 A 
ATOM     58  C   UNL A   1      48.894  29.446  26.697  1.00  0.00     0.074 A 
ATOM     59  C   UNL A   1      43.010  30.947  28.204  1.00  0.00     0.029 A 
ATOM     60  N   UNL A   1      44.872  29.863  27.662  1.00  0.00    -0.354 N 
ATOM     61  N   UNL A   1      47.658  29.659  27.071  1.00  0.00    -0.248 NA
ATOM     62  C   UNL A   1      49.788  30.598  26.899  1.00  0.00     0.031 C 
ATOM     63  C   UNL A   1      44.076  31.818  28.380  1.00  0.00     0.029 A 
ATOM     64  C   UNL A   1      45.233  31.143  28.037  1.00  0.00     0.049 A 
ATOM     65  H   UNL A   1      45.493  29.161  27.358  1.00  0.00     0.167 HD
ATOM     66  C   UNL A   1      47.635  30.958  27.565  1.00  0.00     0.074 A 
ATOM     67  C   UNL A   1      48.976  31.480  27.470  1.00  0.00     0.031 C 
ATOM     68  C   UNL A   1      46.574  31.653  28.030  1.00  0.00     0.031 A 
BRANCH  55  69
ATOM     69  C   UNL A   1      41.310  28.638  27.896  1.00  0.00    -0.014 A 
ATOM     70  C   UNL A   1      40.348  28.918  26.914  1.00  0.00     0.010 A 
ATOM     71  C   UNL A   1      40.989  28.809  29.260  1.00  0.00     0.010 A 
ATOM     72  C   UNL A   1      39.070  29.332  27.291  1.00  0.00     0.020 A 
ATOM     73  C   UNL A   1      39.725  29.267  29.639  1.00  0.00     0.020 A 
ATOM     74  C   UNL A   1      38.765  29.496  28.650  1.00  0.00     0.054 A 
BRANCH  74  75
ATOM     75  S   UNL A   1      37.026  29.705  29.125  1.00  0.00     0.124 S 
ATOM     76  O   UNL A   1      36.316  29.126  27.993  1.00  0.00    -0.237 OA
ATOM     77  O   UNL A   1      36.981  28.950  30.378  1.00  0.00    -0.237 OA
ATOM     78  O   UNL A   1      36.900  31.151  29.292  1.00  0.00    -0.744 OA
ENDBRANCH  74  75
ENDBRANCH  55  69
BRANCH  56  79
ATOM     79  C   UNL A   1      50.941  28.137  25.790  1.00  0.00    -0.014 A 
ATOM     80  C   UNL A   1      51.370  28.370  24.470  1.00  0.00     0.010 A 
ATOM     81  C   UNL A   1      51.889  27.811  26.775  1.00  0.00     0.010 A 
ATOM     82  C   UNL A   1      52.717  28.238  24.132  1.00  0.00     0.020 A 
ATOM     83  C   UNL A   1      53.242  27.710  26.445  1.00  0.00     0.020 A 
ATOM     84  C   UNL A   1      53.643  27.899  25.121  1.00  0.00     0.054 A 
BRANCH  84  85
ATOM     85  S   UNL A   1      55.386  27.716  24.658  1.00  0.00     0.124 S 
ATOM     86  O   UNL A   1      55.323  26.630  23.683  1.00  0.00    -0.237 OA
ATOM     87  O   UNL A   1      55.715  29.031  24.116  1.00  0.00    -0.237 OA
ATOM     88  O   UNL A   1      56.040  27.385  25.921  1.00  0.00    -0.744 OA
ENDBRANCH  84  85
ENDBRANCH  56  79
BRANCH  68  89
ATOM     89  C   UNL A   1      46.749  33.069  28.505  1.00  0.00    -0.014 A 
ATOM     90  C   UNL A   1      46.866  33.330  29.883  1.00  0.00     0.010 A 
ATOM     91  C   UNL A   1      46.545  34.137  27.616  1.00  0.00     0.010 A 
ATOM     92  C   UNL A   1      46.728  34.632  30.370  1.00  0.00     0.020 A 
ATOM     93  C   UNL A   1      46.427  35.444  28.098  1.00  0.00     0.020 A 
ATOM     94  C   UNL A   1      46.490  35.678  29.474  1.00  0.00     0.054 A 
BRANCH  94  95
ATOM     95  S   UNL A   1      46.229  37.349  30.130  1.00  0.00     0.124 S 
ATOM     96  O   UNL A   1      45.624  37.079  31.430  1.00  0.00    -0.237 OA
ATOM     97  O   UNL A   1      47.584  37.895  30.167  1.00  0.00    -0.237 OA
ATOM     98  O   UNL A   1      45.344  37.969  29.146  1.00  0.00    -0.744 OA
ENDBRANCH  94  95
ENDBRANCH  68  89
ENDBRANCH  42  43
ENDBRANCH  35  37
ENDBRANCH  34  35
ENDBRANCH  33  34
ENDBRANCH  32  33
ENDBRANCH  31  32
ENDBRANCH  30  31
ENDBRANCH   1  30
TORSDOF 23
ENDMDL
MODEL 3
REMARK VINA RESULT:      -9.9      1.623      2.342
REMARK SMILES O=C(COc1ccc(Br)cc1/C=C1\C(=O)Nc2ccc(Br)cc21)OCCOCCOCCOC(=O)c1ccc(-c2c3nc(c(-c4ccc(S(=O)(=O)[O-])cc4)c4ccc([nH]4)c(-c4ccc(S(=O)(=O)[O-])cc4)c4nc(c(-c5ccc(S(=O)(=O)[O-])cc5)c5ccc2[nH]5)C=C4)C=C3)cc1
REMARK SMILES IDX 28 1 27 2 26 3 25 4 24 5 2 6 1 7 3 8 4 9 5 10 6 11 11 12
REMARK SMILES IDX 7 13 10 14 8 15 9 16 12 17 13 18 14 19 23 20 15 21 16 22
REMARK SMILES IDX 17 23 22 24 18 26 20 27 19 28 21 29 29 30 30 31 31 32 32 33
REMARK SMILES IDX 33 34 34 35 35 36 36 37 37 38 95 39 38 40 94 41 39 42 40 43
REMARK SMILES IDX 41 44 88 45 42 46 93 47 87 48 89 49 43 50 92 51 86 52 85 53
REMARK SMILES IDX 44 55 74 56 55 57 73 58 56 59 59 60 72 61 90 62 57 63 58 64
REMARK SMILES IDX 71 66 91 67 60 68 45 69 46 70 54 71 47 72 53 73 48 74 49 75
REMARK SMILES IDX 50 76 51 77 52 78 75 79 76 80 84 81 77 82 83 83 78 84 79 85
REMARK SMILES IDX 80 86 81 87 82 88 61 89 62 90 70 91 63 92 69 93 64 94 65 95
REMARK SMILES IDX 66 96 67 97 68 98
REMARK H PARENT 16 25 89 54 59 65
REMARK Flexibility Score: inf
ROOT
ATOM      1  C   UNL A   1      34.163  31.078  28.027  1.00  0.00     0.188 C 
ENDROOT
BRANCH   1   2
ATOM      2  O   UNL A   1      33.482  30.770  26.814  1.00  0.00    -0.376 OA
BRANCH   2   3
ATOM      3  C   UNL A   1      32.118  30.407  26.955  1.00  0.00     0.202 C 
BRANCH   3   4
ATOM      4  C   UNL A   1      31.971  28.893  26.853  1.00  0.00     0.261 C 
BRANCH   4   5
ATOM      5  O   UNL A   1      33.233  28.192  26.789  1.00  0.00    -0.461 OA
BRANCH   5   6
ATOM      6  C   UNL A   1      33.779  27.657  25.671  1.00  0.00     0.344 C 
ATOM      7  O   UNL A   1      34.020  28.383  24.708  1.00  0.00    -0.248 OA
BRANCH   6   8
ATOM      8  C   UNL A   1      34.057  26.155  25.632  1.00  0.00     0.351 C 
BRANCH   8   9
ATOM      9  O   UNL A   1      34.459  25.607  24.371  1.00  0.00    -0.481 OA
BRANCH   9  10
ATOM     10  C   UNL A   1      33.722  24.466  24.130  1.00  0.00     0.127 A 
ATOM     11  C   UNL A   1      34.320  23.227  24.410  1.00  0.00     0.048 A 
ATOM     12  C   UNL A   1      32.464  24.563  23.504  1.00  0.00     0.018 A 
ATOM     13  C   UNL A   1      33.796  22.070  23.862  1.00  0.00     0.019 A 
ATOM     14  C   UNL A   1      31.954  23.370  22.979  1.00  0.00     0.027 A 
ATOM     15  C   UNL A   1      32.641  22.158  23.102  1.00  0.00     0.018 A 
ATOM     16  Br  UNL A   1      32.000  20.617  22.210  1.00  0.00    -0.051 Br
BRANCH  12  17
ATOM     17  C   UNL A   1      31.775  25.879  23.423  1.00  0.00     0.026 C 
ATOM     18  C   UNL A   1      30.854  26.442  24.233  1.00  0.00     0.050 C 
ATOM     19  C   UNL A   1      30.176  25.792  25.410  1.00  0.00     0.256 C 
ATOM     20  C   UNL A   1      29.878  27.397  23.688  1.00  0.00     0.012 A 
ATOM     21  O   UNL A   1      30.695  25.335  26.409  1.00  0.00    -0.269 OA
ATOM     22  N   UNL A   1      28.835  25.936  25.124  1.00  0.00    -0.321 N 
ATOM     23  C   UNL A   1      28.662  26.859  24.093  1.00  0.00     0.049 A 
ATOM     24  C   UNL A   1      29.902  28.596  22.994  1.00  0.00     0.026 A 
ATOM     25  H   UNL A   1      28.107  25.458  25.581  1.00  0.00     0.170 HD
ATOM     26  C   UNL A   1      27.475  27.318  23.600  1.00  0.00     0.028 A 
ATOM     27  C   UNL A   1      28.669  29.164  22.633  1.00  0.00     0.018 A 
ATOM     28  C   UNL A   1      27.462  28.495  22.867  1.00  0.00     0.018 A 
ATOM     29  Br  UNL A   1      28.604  30.887  21.853  1.00  0.00    -0.051 Br
ENDBRANCH  12  17
ENDBRANCH   9  10
ENDBRANCH   8   9
ENDBRANCH   6   8
ENDBRANCH   5   6
ENDBRANCH   4   5
ENDBRANCH   3   4
ENDBRANCH   2   3
ENDBRANCH   1   2
BRANCH   1  30
ATOM     30  C   UNL A   1      34.611  32.546  28.064  1.00  0.00     0.188 C 
BRANCH  30  31
ATOM     31  O   UNL A   1      34.497  33.280  29.283  1.00  0.00    -0.376 OA
BRANCH  31  32
ATOM     32  C   UNL A   1      35.650  33.485  30.088  1.00  0.00     0.202 C 
BRANCH  32  33
ATOM     33  C   UNL A   1      35.937  32.412  31.142  1.00  0.00     0.261 C 
BRANCH  33  34
ATOM     34  O   UNL A   1      36.223  31.120  30.574  1.00  0.00    -0.460 OA
BRANCH  34  35
ATOM     35  C   UNL A   1      36.942  30.273  31.354  1.00  0.00     0.338 C 
ATOM     36  O   UNL A   1      36.514  29.576  32.258  1.00  0.00    -0.246 OA
BRANCH  35  37
ATOM     37  C   UNL A   1      38.338  30.180  30.852  1.00  0.00     0.060 A 
ATOM     38  C   UNL A   1      39.424  29.970  31.707  1.00  0.00     0.016 A 
ATOM     39  C   UNL A   1      38.552  30.269  29.470  1.00  0.00     0.016 A 
ATOM     40  C   UNL A   1      40.711  29.804  31.172  1.00  0.00     0.010 A 
ATOM     41  C   UNL A   1      39.840  30.113  28.938  1.00  0.00     0.010 A 
ATOM     42  C   UNL A   1      40.931  29.852  29.781  1.00  0.00    -0.014 A 
BRANCH  42  43
ATOM     43  C   UNL A   1      42.238  29.419  29.210  1.00  0.00     0.031 A 
ATOM     44  C   UNL A   1      43.421  30.341  29.078  1.00  0.00     0.074 A 
ATOM     45  C   UNL A   1      42.358  28.141  28.793  1.00  0.00     0.049 A 
ATOM     46  N   UNL A   1      44.622  30.055  28.637  1.00  0.00    -0.248 NA
ATOM     47  C   UNL A   1      43.256  31.742  29.492  1.00  0.00     0.031 C 
ATOM     48  C   UNL A   1      41.289  27.141  28.835  1.00  0.00     0.029 A 
ATOM     49  N   UNL A   1      43.427  27.463  28.257  1.00  0.00    -0.354 N 
ATOM     50  C   UNL A   1      45.365  31.224  28.740  1.00  0.00     0.074 A 
ATOM     51  C   UNL A   1      44.473  32.236  29.268  1.00  0.00     0.031 C 
ATOM     52  C   UNL A   1      41.758  25.979  28.355  1.00  0.00     0.029 A 
ATOM     53  C   UNL A   1      43.154  26.148  27.956  1.00  0.00     0.049 A 
ATOM     54  H   UNL A   1      44.306  27.878  28.103  1.00  0.00     0.167 HD
ATOM     55  C   UNL A   1      46.670  31.415  28.434  1.00  0.00     0.031 A 
ATOM     56  C   UNL A   1      43.924  25.176  27.424  1.00  0.00     0.031 A 
ATOM     57  C   UNL A   1      47.554  30.424  27.881  1.00  0.00     0.049 A 
ATOM     58  C   UNL A   1      45.372  25.432  27.114  1.00  0.00     0.074 A 
ATOM     59  C   UNL A   1      48.866  30.611  27.469  1.00  0.00     0.029 A 
ATOM     60  N   UNL A   1      47.255  29.095  27.681  1.00  0.00    -0.354 N 
ATOM     61  N   UNL A   1      46.062  26.530  27.297  1.00  0.00    -0.248 NA
ATOM     62  C   UNL A   1      46.155  24.320  26.549  1.00  0.00     0.031 C 
ATOM     63  C   UNL A   1      49.375  29.388  27.054  1.00  0.00     0.029 A 
ATOM     64  C   UNL A   1      48.370  28.448  27.182  1.00  0.00     0.049 A 
ATOM     65  H   UNL A   1      46.384  28.673  27.864  1.00  0.00     0.167 HD
ATOM     66  C   UNL A   1      47.356  26.232  26.886  1.00  0.00     0.074 A 
ATOM     67  C   UNL A   1      47.369  24.852  26.468  1.00  0.00     0.031 C 
ATOM     68  C   UNL A   1      48.426  27.055  26.841  1.00  0.00     0.031 A 
BRANCH  55  69
ATOM     69  C   UNL A   1      47.333  32.735  28.676  1.00  0.00    -0.014 A 
ATOM     70  C   UNL A   1      47.810  33.066  29.954  1.00  0.00     0.010 A 
ATOM     71  C   UNL A   1      47.152  33.751  27.712  1.00  0.00     0.010 A 
ATOM     72  C   UNL A   1      48.134  34.389  30.253  1.00  0.00     0.020 A 
ATOM     73  C   UNL A   1      47.432  35.083  28.024  1.00  0.00     0.020 A 
ATOM     74  C   UNL A   1      47.951  35.387  29.285  1.00  0.00     0.054 A 
BRANCH  74  75
ATOM     75  S   UNL A   1      48.684  37.020  29.579  1.00  0.00     0.124 S 
ATOM     76  O   UNL A   1      49.640  37.140  28.487  1.00  0.00    -0.237 OA
ATOM     77  O   UNL A   1      47.503  37.880  29.507  1.00  0.00    -0.237 OA
ATOM     78  O   UNL A   1      49.252  36.892  30.918  1.00  0.00    -0.744 OA
ENDBRANCH  74  75
ENDBRANCH  55  69
BRANCH  56  79
ATOM     79  C   UNL A   1      43.327  23.839  27.173  1.00  0.00    -0.014 A 
ATOM     80  C   UNL A   1      43.221  22.907  28.221  1.00  0.00     0.010 A 
ATOM     81  C   UNL A   1      42.903  23.477  25.883  1.00  0.00     0.010 A 
ATOM     82  C   UNL A   1      42.737  21.621  27.976  1.00  0.00     0.020 A 
ATOM     83  C   UNL A   1      42.390  22.201  25.641  1.00  0.00     0.020 A 
ATOM     84  C   UNL A   1      42.334  21.274  26.684  1.00  0.00     0.054 A 
BRANCH  84  85
ATOM     85  S   UNL A   1      41.726  19.594  26.382  1.00  0.00     0.124 S 
ATOM     86  O   UNL A   1      42.170  18.895  27.586  1.00  0.00    -0.237 OA
ATOM     87  O   UNL A   1      40.284  19.790  26.264  1.00  0.00    -0.237 OA
ATOM     88  O   UNL A   1      42.402  19.205  25.147  1.00  0.00    -0.744 OA
ENDBRANCH  84  85
ENDBRANCH  56  79
BRANCH  68  89
ATOM     89  C   UNL A   1      49.749  26.547  26.340  1.00  0.00    -0.014 A 
ATOM     90  C   UNL A   1      50.710  26.088  27.260  1.00  0.00     0.010 A 
ATOM     91  C   UNL A   1      50.122  26.761  25.003  1.00  0.00     0.010 A 
ATOM     92  C   UNL A   1      52.036  25.897  26.861  1.00  0.00     0.020 A 
ATOM     93  C   UNL A   1      51.442  26.550  24.596  1.00  0.00     0.020 A 
ATOM     94  C   UNL A   1      52.396  26.148  25.534  1.00  0.00     0.054 A 
BRANCH  94  95
ATOM     95  S   UNL A   1      54.136  25.976  25.053  1.00  0.00     0.124 S 
ATOM     96  O   UNL A   1      54.834  26.436  26.250  1.00  0.00    -0.237 OA
ATOM     97  O   UNL A   1      54.251  24.547  24.768  1.00  0.00    -0.237 OA
ATOM     98  O   UNL A   1      54.257  26.847  23.886  1.00  0.00    -0.744 OA
ENDBRANCH  94  95
ENDBRANCH  68  89
ENDBRANCH  42  43
ENDBRANCH  35  37
ENDBRANCH  34  35
ENDBRANCH  33  34
ENDBRANCH  32  33
ENDBRANCH  31  32
ENDBRANCH  30  31
ENDBRANCH   1  30
TORSDOF 23
ENDMDL
