MODEL 1
REMARK VINA RESULT:     -11.2      0.000      0.000
REMARK SMILES Cc1nc2sc3c(c2c2nc(CCC(=O)OCCOCCOCCOC(=O)c4ccc(-c5c6nc(c(-c7ccc(S(=O)(=O)[O-])cc7)c7ccc([nH]7)c(-c7ccc(S(=O)(=O)[O-])cc7)c7nc(c(-c8ccc(S(=O)(=O)[O-])cc8)c8ccc5[nH]8)C=C7)C=C6)cc4)nn12)[C@@H](C)CCC3
REMARK SMILES IDX 21 1 20 2 19 3 18 4 17 5 16 6 14 7 15 8 13 9 12 10 11 11
REMARK SMILES IDX 1 12 2 13 3 14 89 15 4 16 9 17 88 18 5 19 8 20 10 21 6 22
REMARK SMILES IDX 7 23 94 24 90 25 93 26 91 27 92 28 22 29 23 30 24 31 25 32
REMARK SMILES IDX 26 33 27 34 28 35 29 36 87 37 30 38 86 39 31 40 32 41 33 42
REMARK SMILES IDX 80 43 34 44 85 45 79 46 81 47 35 48 84 49 78 50 77 51 36 53
REMARK SMILES IDX 66 54 47 55 65 56 48 57 51 58 64 59 82 60 49 61 50 62 63 64
REMARK SMILES IDX 83 65 52 66 37 67 38 68 46 69 39 70 45 71 40 72 41 73 42 74
REMARK SMILES IDX 43 75 44 76 67 77 68 78 76 79 69 80 75 81 70 82 71 83 72 84
REMARK SMILES IDX 73 85 74 86 53 87 54 88 62 89 55 90 61 91 56 92 57 93 58 94
REMARK SMILES IDX 59 95 60 96
REMARK H PARENT 81 52 51 63
REMARK Flexibility Score: inf
ROOT
ATOM      1  C   UNL A   1      41.019  21.351  27.856  1.00  0.00     0.188 C 
ENDROOT
BRANCH   1   2
ATOM      2  C   UNL A   1      40.042  22.090  26.972  1.00  0.00     0.188 C 
BRANCH   2   3
ATOM      3  O   UNL A   1      39.762  21.428  25.743  1.00  0.00    -0.376 OA
BRANCH   3   4
ATOM      4  C   UNL A   1      38.380  21.146  25.531  1.00  0.00     0.202 C 
BRANCH   4   5
ATOM      5  C   UNL A   1      37.384  22.265  25.919  1.00  0.00     0.261 C 
BRANCH   5   6
ATOM      6  O   UNL A   1      35.987  21.848  25.890  1.00  0.00    -0.463 OA
BRANCH   6   7
ATOM      7  C   UNL A   1      35.471  21.533  24.675  1.00  0.00     0.306 C 
ATOM      8  O   UNL A   1      35.755  22.136  23.644  1.00  0.00    -0.252 OA
BRANCH   7   9
ATOM      9  C   UNL A   1      34.463  20.392  24.663  1.00  0.00     0.131 C 
BRANCH   9  10
ATOM     10  C   UNL A   1      33.036  20.591  24.151  1.00  0.00     0.091 C 
BRANCH  10  11
ATOM     11  C   UNL A   1      32.353  21.837  24.601  1.00  0.00     0.152 A 
ATOM     12  C   UNL A   1      29.449  22.841  27.398  1.00  0.00     0.090 C 
ATOM     13  C   UNL A   1      30.212  23.776  26.513  1.00  0.00     0.131 A 
ATOM     14  N   UNL A   1      30.024  25.074  26.539  1.00  0.00    -0.222 NA
ATOM     15  N   UNL A   1      31.155  23.165  25.676  1.00  0.00    -0.199 N 
ATOM     16  C   UNL A   1      30.805  25.812  25.681  1.00  0.00     0.129 A 
ATOM     17  C   UNL A   1      31.951  23.886  24.830  1.00  0.00     0.168 A 
ATOM     18  N   UNL A   1      31.378  21.839  25.530  1.00  0.00    -0.150 NA
ATOM     19  S   UNL A   1      30.647  27.511  25.559  1.00  0.00    -0.120 S 
ATOM     20  C   UNL A   1      31.781  25.356  24.805  1.00  0.00     0.060 A 
ATOM     21  N   UNL A   1      32.723  23.077  24.150  1.00  0.00    -0.211 NA
ATOM     22  C   UNL A   1      31.863  27.610  24.365  1.00  0.00     0.011 A 
ATOM     23  C   UNL A   1      32.404  26.378  24.032  1.00  0.00    -0.018 A 
ATOM     24  C   UNL A   1      32.249  28.914  23.734  1.00  0.00     0.047 C 
ATOM     25  C   UNL A   1      33.496  26.258  23.000  1.00  0.00     0.018 C 
ATOM     26  C   UNL A   1      33.636  28.805  23.088  1.00  0.00     0.006 C 
ATOM     27  C   UNL A   1      33.233  25.143  22.003  1.00  0.00     0.013 C 
ATOM     28  C   UNL A   1      33.723  27.561  22.206  1.00  0.00     0.008 C 
ENDBRANCH  10  11
ENDBRANCH   9  10
ENDBRANCH   7   9
ENDBRANCH   6   7
ENDBRANCH   5   6
ENDBRANCH   4   5
ENDBRANCH   3   4
ENDBRANCH   2   3
ENDBRANCH   1   2
BRANCH   1  29
ATOM     29  O   UNL A   1      41.048  19.941  27.559  1.00  0.00    -0.376 OA
BRANCH  29  30
ATOM     30  C   UNL A   1      42.320  19.389  27.221  1.00  0.00     0.202 C 
BRANCH  30  31
ATOM     31  C   UNL A   1      42.636  19.289  25.729  1.00  0.00     0.261 C 
BRANCH  31  32
ATOM     32  O   UNL A   1      43.023  20.547  25.227  1.00  0.00    -0.460 OA
BRANCH  32  33
ATOM     33  C   UNL A   1      44.363  20.676  25.108  1.00  0.00     0.338 C 
ATOM     34  O   UNL A   1      45.197  19.787  25.006  1.00  0.00    -0.246 OA
BRANCH  33  35
ATOM     35  C   UNL A   1      44.663  22.107  25.089  1.00  0.00     0.060 A 
ATOM     36  C   UNL A   1      45.785  22.527  25.800  1.00  0.00     0.016 A 
ATOM     37  C   UNL A   1      43.717  23.001  24.560  1.00  0.00     0.016 A 
ATOM     38  C   UNL A   1      45.756  23.795  26.307  1.00  0.00     0.010 A 
ATOM     39  C   UNL A   1      43.678  24.258  25.078  1.00  0.00     0.010 A 
ATOM     40  C   UNL A   1      44.617  24.562  26.054  1.00  0.00    -0.014 A 
BRANCH  40  41
ATOM     41  C   UNL A   1      44.369  25.698  26.894  1.00  0.00     0.031 A 
ATOM     42  C   UNL A   1      45.404  26.725  26.730  1.00  0.00     0.074 A 
ATOM     43  C   UNL A   1      43.255  25.751  27.648  1.00  0.00     0.049 A 
ATOM     44  N   UNL A   1      46.358  27.002  27.551  1.00  0.00    -0.248 NA
ATOM     45  C   UNL A   1      45.552  27.329  25.393  1.00  0.00     0.031 C 
ATOM     46  C   UNL A   1      42.086  24.860  27.619  1.00  0.00     0.029 A 
ATOM     47  N   UNL A   1      42.877  26.701  28.533  1.00  0.00    -0.354 N 
ATOM     48  C   UNL A   1      47.072  28.012  26.927  1.00  0.00     0.074 A 
ATOM     49  C   UNL A   1      46.709  27.975  25.534  1.00  0.00     0.031 C 
ATOM     50  C   UNL A   1      41.048  25.471  28.240  1.00  0.00     0.029 A 
ATOM     51  C   UNL A   1      41.518  26.718  28.821  1.00  0.00     0.049 A 
ATOM     52  H   UNL A   1      43.515  27.330  28.941  1.00  0.00     0.167 HD
ATOM     53  C   UNL A   1      47.631  29.018  27.648  1.00  0.00     0.031 A 
ATOM     54  C   UNL A   1      40.846  27.745  29.403  1.00  0.00     0.031 A 
ATOM     55  C   UNL A   1      47.709  28.693  29.048  1.00  0.00     0.049 A 
ATOM     56  C   UNL A   1      41.871  28.603  30.060  1.00  0.00     0.074 A 
ATOM     57  C   UNL A   1      48.347  27.706  29.772  1.00  0.00     0.029 A 
ATOM     58  N   UNL A   1      46.704  29.180  29.852  1.00  0.00    -0.354 N 
ATOM     59  N   UNL A   1      42.597  28.210  31.072  1.00  0.00    -0.248 NA
ATOM     60  C   UNL A   1      42.429  29.704  29.288  1.00  0.00     0.031 C 
ATOM     61  C   UNL A   1      47.433  27.351  30.804  1.00  0.00     0.029 A 
ATOM     62  C   UNL A   1      46.315  28.184  30.713  1.00  0.00     0.049 A 
ATOM     63  H   UNL A   1      46.328  30.089  29.817  1.00  0.00     0.167 HD
ATOM     64  C   UNL A   1      43.870  28.701  30.812  1.00  0.00     0.074 A 
ATOM     65  C   UNL A   1      43.685  29.688  29.748  1.00  0.00     0.031 C 
ATOM     66  C   UNL A   1      44.983  28.056  31.273  1.00  0.00     0.031 A 
BRANCH  53  67
ATOM     67  C   UNL A   1      47.682  30.427  27.132  1.00  0.00    -0.014 A 
ATOM     68  C   UNL A   1      48.900  31.122  27.157  1.00  0.00     0.010 A 
ATOM     69  C   UNL A   1      46.516  31.174  26.847  1.00  0.00     0.010 A 
ATOM     70  C   UNL A   1      48.944  32.501  26.921  1.00  0.00     0.020 A 
ATOM     71  C   UNL A   1      46.552  32.535  26.562  1.00  0.00     0.020 A 
ATOM     72  C   UNL A   1      47.768  33.196  26.624  1.00  0.00     0.054 A 
BRANCH  72  73
ATOM     73  S   UNL A   1      47.831  34.986  26.376  1.00  0.00     0.124 S 
ATOM     74  O   UNL A   1      46.420  35.349  26.451  1.00  0.00    -0.237 OA
ATOM     75  O   UNL A   1      48.660  35.420  27.497  1.00  0.00    -0.237 OA
ATOM     76  O   UNL A   1      48.448  35.127  25.059  1.00  0.00    -0.744 OA
ENDBRANCH  72  73
ENDBRANCH  53  67
BRANCH  54  77
ATOM     77  C   UNL A   1      39.485  28.252  29.073  1.00  0.00    -0.014 A 
ATOM     78  C   UNL A   1      38.477  28.287  30.058  1.00  0.00     0.010 A 
ATOM     79  C   UNL A   1      39.259  28.982  27.887  1.00  0.00     0.010 A 
ATOM     80  C   UNL A   1      37.333  29.091  29.901  1.00  0.00     0.020 A 
ATOM     81  C   UNL A   1      38.118  29.778  27.720  1.00  0.00     0.020 A 
ATOM     82  C   UNL A   1      37.174  29.855  28.743  1.00  0.00     0.054 A 
BRANCH  82  83
ATOM     83  S   UNL A   1      35.805  31.045  28.636  1.00  0.00     0.124 S 
ATOM     84  O   UNL A   1      35.526  31.329  30.040  1.00  0.00    -0.237 OA
ATOM     85  O   UNL A   1      36.399  32.142  27.876  1.00  0.00    -0.237 OA
ATOM     86  O   UNL A   1      34.758  30.306  27.934  1.00  0.00    -0.744 OA
ENDBRANCH  82  83
ENDBRANCH  54  77
BRANCH  66  87
ATOM     87  C   UNL A   1      44.801  26.977  32.320  1.00  0.00    -0.014 A 
ATOM     88  C   UNL A   1      44.603  27.222  33.695  1.00  0.00     0.010 A 
ATOM     89  C   UNL A   1      44.676  25.657  31.853  1.00  0.00     0.010 A 
ATOM     90  C   UNL A   1      44.308  26.166  34.576  1.00  0.00     0.020 A 
ATOM     91  C   UNL A   1      44.366  24.607  32.719  1.00  0.00     0.020 A 
ATOM     92  C   UNL A   1      44.192  24.863  34.079  1.00  0.00     0.054 A 
BRANCH  92  93
ATOM     93  S   UNL A   1      43.782  23.501  35.208  1.00  0.00     0.124 S 
ATOM     94  O   UNL A   1      44.685  23.734  36.331  1.00  0.00    -0.237 OA
ATOM     95  O   UNL A   1      42.364  23.723  35.483  1.00  0.00    -0.237 OA
ATOM     96  O   UNL A   1      44.070  22.300  34.424  1.00  0.00    -0.744 OA
ENDBRANCH  92  93
ENDBRANCH  66  87
ENDBRANCH  40  41
ENDBRANCH  33  35
ENDBRANCH  32  33
ENDBRANCH  31  32
ENDBRANCH  30  31
ENDBRANCH  29  30
ENDBRANCH   1  29
TORSDOF 22
ENDMDL
MODEL 2
REMARK VINA RESULT:     -10.4      1.323      2.122
REMARK SMILES Cc1nc2sc3c(c2c2nc(CCC(=O)OCCOCCOCCOC(=O)c4ccc(-c5c6nc(c(-c7ccc(S(=O)(=O)[O-])cc7)c7ccc([nH]7)c(-c7ccc(S(=O)(=O)[O-])cc7)c7nc(c(-c8ccc(S(=O)(=O)[O-])cc8)c8ccc5[nH]8)C=C7)C=C6)cc4)nn12)[C@@H](C)CCC3
REMARK SMILES IDX 21 1 20 2 19 3 18 4 17 5 16 6 14 7 15 8 13 9 12 10 11 11
REMARK SMILES IDX 1 12 2 13 3 14 89 15 4 16 9 17 88 18 5 19 8 20 10 21 6 22
REMARK SMILES IDX 7 23 94 24 90 25 93 26 91 27 92 28 22 29 23 30 24 31 25 32
REMARK SMILES IDX 26 33 27 34 28 35 29 36 87 37 30 38 86 39 31 40 32 41 33 42
REMARK SMILES IDX 80 43 34 44 85 45 79 46 81 47 35 48 84 49 78 50 77 51 36 53
REMARK SMILES IDX 66 54 47 55 65 56 48 57 51 58 64 59 82 60 49 61 50 62 63 64
REMARK SMILES IDX 83 65 52 66 37 67 38 68 46 69 39 70 45 71 40 72 41 73 42 74
REMARK SMILES IDX 43 75 44 76 67 77 68 78 76 79 69 80 75 81 70 82 71 83 72 84
REMARK SMILES IDX 73 85 74 86 53 87 54 88 62 89 55 90 61 91 56 92 57 93 58 94
REMARK SMILES IDX 59 95 60 96
REMARK H PARENT 81 52 51 63
REMARK Flexibility Score: inf
ROOT
ATOM      1  C   UNL A   1      40.799  20.826  27.544  1.00  0.00     0.188 C 
ENDROOT
BRANCH   1   2
ATOM      2  C   UNL A   1      40.541  21.966  26.585  1.00  0.00     0.188 C 
BRANCH   2   3
ATOM      3  O   UNL A   1      39.516  21.698  25.636  1.00  0.00    -0.376 OA
BRANCH   3   4
ATOM      4  C   UNL A   1      38.212  22.100  26.053  1.00  0.00     0.202 C 
BRANCH   4   5
ATOM      5  C   UNL A   1      37.750  23.507  25.602  1.00  0.00     0.261 C 
BRANCH   5   6
ATOM      6  O   UNL A   1      36.396  23.540  25.063  1.00  0.00    -0.463 OA
BRANCH   6   7
ATOM      7  C   UNL A   1      36.196  22.903  23.881  1.00  0.00     0.306 C 
ATOM      8  O   UNL A   1      36.780  23.204  22.844  1.00  0.00    -0.252 OA
BRANCH   7   9
ATOM      9  C   UNL A   1      35.153  21.794  23.901  1.00  0.00     0.131 C 
BRANCH   9  10
ATOM     10  C   UNL A   1      33.656  22.107  23.945  1.00  0.00     0.091 C 
BRANCH  10  11
ATOM     11  C   UNL A   1      33.259  23.453  23.443  1.00  0.00     0.152 A 
ATOM     12  C   UNL A   1      32.298  25.137  19.767  1.00  0.00     0.090 C 
ATOM     13  C   UNL A   1      32.273  25.810  21.104  1.00  0.00     0.131 A 
ATOM     14  N   UNL A   1      31.925  27.067  21.247  1.00  0.00    -0.222 NA
ATOM     15  N   UNL A   1      32.622  24.994  22.187  1.00  0.00    -0.199 N 
ATOM     16  C   UNL A   1      31.933  27.550  22.535  1.00  0.00     0.129 A 
ATOM     17  C   UNL A   1      32.620  25.453  23.475  1.00  0.00     0.168 A 
ATOM     18  N   UNL A   1      33.054  23.713  22.137  1.00  0.00    -0.150 NA
ATOM     19  S   UNL A   1      31.553  29.180  22.886  1.00  0.00    -0.120 S 
ATOM     20  C   UNL A   1      32.245  26.867  23.703  1.00  0.00     0.060 A 
ATOM     21  N   UNL A   1      33.004  24.502  24.287  1.00  0.00    -0.211 NA
ATOM     22  C   UNL A   1      31.801  28.953  24.559  1.00  0.00     0.011 A 
ATOM     23  C   UNL A   1      32.178  27.660  24.885  1.00  0.00    -0.018 A 
ATOM     24  C   UNL A   1      31.657  30.077  25.541  1.00  0.00     0.047 C 
ATOM     25  C   UNL A   1      32.439  27.260  26.315  1.00  0.00     0.018 C 
ATOM     26  C   UNL A   1      31.456  29.526  26.958  1.00  0.00     0.006 C 
ATOM     27  C   UNL A   1      33.723  26.464  26.471  1.00  0.00     0.013 C 
ATOM     28  C   UNL A   1      32.506  28.464  27.277  1.00  0.00     0.008 C 
ENDBRANCH  10  11
ENDBRANCH   9  10
ENDBRANCH   7   9
ENDBRANCH   6   7
ENDBRANCH   5   6
ENDBRANCH   4   5
ENDBRANCH   3   4
ENDBRANCH   2   3
ENDBRANCH   1   2
BRANCH   1  29
ATOM     29  O   UNL A   1      41.150  19.613  26.850  1.00  0.00    -0.376 OA
BRANCH  29  30
ATOM     30  C   UNL A   1      42.541  19.310  26.765  1.00  0.00     0.202 C 
BRANCH  30  31
ATOM     31  C   UNL A   1      43.167  19.400  25.373  1.00  0.00     0.261 C 
BRANCH  31  32
ATOM     32  O   UNL A   1      43.426  20.746  25.043  1.00  0.00    -0.460 OA
BRANCH  32  33
ATOM     33  C   UNL A   1      44.707  20.957  24.665  1.00  0.00     0.338 C 
ATOM     34  O   UNL A   1      45.523  20.131  24.282  1.00  0.00    -0.246 OA
BRANCH  33  35
ATOM     35  C   UNL A   1      44.958  22.394  24.765  1.00  0.00     0.060 A 
ATOM     36  C   UNL A   1      46.101  22.789  25.456  1.00  0.00     0.016 A 
ATOM     37  C   UNL A   1      43.957  23.297  24.369  1.00  0.00     0.016 A 
ATOM     38  C   UNL A   1      46.057  24.003  26.081  1.00  0.00     0.010 A 
ATOM     39  C   UNL A   1      43.903  24.499  25.003  1.00  0.00     0.010 A 
ATOM     40  C   UNL A   1      44.881  24.747  25.956  1.00  0.00    -0.014 A 
BRANCH  40  41
ATOM     41  C   UNL A   1      44.641  25.792  26.910  1.00  0.00     0.031 A 
ATOM     42  C   UNL A   1      45.689  26.817  26.861  1.00  0.00     0.074 A 
ATOM     43  C   UNL A   1      43.522  25.779  27.658  1.00  0.00     0.049 A 
ATOM     44  N   UNL A   1      46.640  26.995  27.713  1.00  0.00    -0.248 NA
ATOM     45  C   UNL A   1      45.855  27.557  25.595  1.00  0.00     0.031 C 
ATOM     46  C   UNL A   1      42.343  24.911  27.528  1.00  0.00     0.029 A 
ATOM     47  N   UNL A   1      43.149  26.635  28.636  1.00  0.00    -0.354 N 
ATOM     48  C   UNL A   1      47.371  28.055  27.203  1.00  0.00     0.074 A 
ATOM     49  C   UNL A   1      47.018  28.170  25.811  1.00  0.00     0.031 C 
ATOM     50  C   UNL A   1      41.307  25.466  28.203  1.00  0.00     0.029 A 
ATOM     51  C   UNL A   1      41.788  26.639  28.915  1.00  0.00     0.049 A 
ATOM     52  H   UNL A   1      43.791  27.210  29.112  1.00  0.00     0.167 HD
ATOM     53  C   UNL A   1      47.936  28.973  28.029  1.00  0.00     0.031 A 
ATOM     54  C   UNL A   1      41.124  27.607  29.598  1.00  0.00     0.031 A 
ATOM     55  C   UNL A   1      48.000  28.502  29.387  1.00  0.00     0.049 A 
ATOM     56  C   UNL A   1      42.154  28.379  30.348  1.00  0.00     0.074 A 
ATOM     57  C   UNL A   1      48.621  27.436  30.007  1.00  0.00     0.029 A 
ATOM     58  N   UNL A   1      46.995  28.914  30.232  1.00  0.00    -0.354 N 
ATOM     59  N   UNL A   1      42.867  27.873  31.317  1.00  0.00    -0.248 NA
ATOM     60  C   UNL A   1      42.731  29.548  29.699  1.00  0.00     0.031 C 
ATOM     61  C   UNL A   1      47.695  26.986  30.991  1.00  0.00     0.029 A 
ATOM     62  C   UNL A   1      46.588  27.838  30.981  1.00  0.00     0.049 A 
ATOM     63  H   UNL A   1      46.630  29.826  30.290  1.00  0.00     0.167 HD
ATOM     64  C   UNL A   1      44.148  28.372  31.118  1.00  0.00     0.074 A 
ATOM     65  C   UNL A   1      43.983  29.468  30.163  1.00  0.00     0.031 C 
ATOM     66  C   UNL A   1      45.250  27.668  31.516  1.00  0.00     0.031 A 
BRANCH  53  67
ATOM     67  C   UNL A   1      48.007  30.428  27.664  1.00  0.00    -0.014 A 
ATOM     68  C   UNL A   1      46.817  31.153  27.503  1.00  0.00     0.010 A 
ATOM     69  C   UNL A   1      49.204  31.046  27.238  1.00  0.00     0.010 A 
ATOM     70  C   UNL A   1      46.827  32.429  26.930  1.00  0.00     0.020 A 
ATOM     71  C   UNL A   1      49.234  32.333  26.711  1.00  0.00     0.020 A 
ATOM     72  C   UNL A   1      48.037  33.010  26.539  1.00  0.00     0.054 A 
BRANCH  72  73
ATOM     73  S   UNL A   1      48.030  34.635  25.748  1.00  0.00     0.124 S 
ATOM     74  O   UNL A   1      46.789  34.592  24.983  1.00  0.00    -0.237 OA
ATOM     75  O   UNL A   1      48.038  35.534  26.899  1.00  0.00    -0.237 OA
ATOM     76  O   UNL A   1      49.258  34.636  24.956  1.00  0.00    -0.744 OA
ENDBRANCH  72  73
ENDBRANCH  53  67
BRANCH  54  77
ATOM     77  C   UNL A   1      39.771  28.163  29.314  1.00  0.00    -0.014 A 
ATOM     78  C   UNL A   1      38.805  28.247  30.337  1.00  0.00     0.010 A 
ATOM     79  C   UNL A   1      39.528  28.890  28.131  1.00  0.00     0.010 A 
ATOM     80  C   UNL A   1      37.686  29.092  30.215  1.00  0.00     0.020 A 
ATOM     81  C   UNL A   1      38.412  29.728  27.998  1.00  0.00     0.020 A 
ATOM     82  C   UNL A   1      37.512  29.850  29.055  1.00  0.00     0.054 A 
BRANCH  82  83
ATOM     83  S   UNL A   1      36.186  31.092  28.988  1.00  0.00     0.124 S 
ATOM     84  O   UNL A   1      36.872  32.254  28.430  1.00  0.00    -0.237 OA
ATOM     85  O   UNL A   1      35.205  30.457  28.112  1.00  0.00    -0.237 OA
ATOM     86  O   UNL A   1      35.769  31.229  30.382  1.00  0.00    -0.744 OA
ENDBRANCH  82  83
ENDBRANCH  54  77
BRANCH  66  87
ATOM     87  C   UNL A   1      45.047  26.487  32.442  1.00  0.00    -0.014 A 
ATOM     88  C   UNL A   1      44.741  25.179  32.014  1.00  0.00     0.010 A 
ATOM     89  C   UNL A   1      45.333  26.694  33.803  1.00  0.00     0.010 A 
ATOM     90  C   UNL A   1      44.703  24.115  32.933  1.00  0.00     0.020 A 
ATOM     91  C   UNL A   1      45.315  25.639  34.717  1.00  0.00     0.020 A 
ATOM     92  C   UNL A   1      44.991  24.355  34.281  1.00  0.00     0.054 A 
BRANCH  92  93
ATOM     93  S   UNL A   1      44.973  22.978  35.466  1.00  0.00     0.124 S 
ATOM     94  O   UNL A   1      45.912  23.426  36.489  1.00  0.00    -0.237 OA
ATOM     95  O   UNL A   1      43.573  22.922  35.877  1.00  0.00    -0.237 OA
ATOM     96  O   UNL A   1      45.423  21.832  34.675  1.00  0.00    -0.744 OA
ENDBRANCH  92  93
ENDBRANCH  66  87
ENDBRANCH  40  41
ENDBRANCH  33  35
ENDBRANCH  32  33
ENDBRANCH  31  32
ENDBRANCH  30  31
ENDBRANCH  29  30
ENDBRANCH   1  29
TORSDOF 22
ENDMDL
MODEL 3
REMARK VINA RESULT:     -10.0      7.343     12.166
REMARK SMILES Cc1nc2sc3c(c2c2nc(CCC(=O)OCCOCCOCCOC(=O)c4ccc(-c5c6nc(c(-c7ccc(S(=O)(=O)[O-])cc7)c7ccc([nH]7)c(-c7ccc(S(=O)(=O)[O-])cc7)c7nc(c(-c8ccc(S(=O)(=O)[O-])cc8)c8ccc5[nH]8)C=C7)C=C6)cc4)nn12)[C@@H](C)CCC3
REMARK SMILES IDX 21 1 20 2 19 3 18 4 17 5 16 6 14 7 15 8 13 9 12 10 11 11
REMARK SMILES IDX 1 12 2 13 3 14 89 15 4 16 9 17 88 18 5 19 8 20 10 21 6 22
REMARK SMILES IDX 7 23 94 24 90 25 93 26 91 27 92 28 22 29 23 30 24 31 25 32
REMARK SMILES IDX 26 33 27 34 28 35 29 36 87 37 30 38 86 39 31 40 32 41 33 42
REMARK SMILES IDX 80 43 34 44 85 45 79 46 81 47 35 48 84 49 78 50 77 51 36 53
REMARK SMILES IDX 66 54 47 55 65 56 48 57 51 58 64 59 82 60 49 61 50 62 63 64
REMARK SMILES IDX 83 65 52 66 37 67 38 68 46 69 39 70 45 71 40 72 41 73 42 74
REMARK SMILES IDX 43 75 44 76 67 77 68 78 76 79 69 80 75 81 70 82 71 83 72 84
REMARK SMILES IDX 73 85 74 86 53 87 54 88 62 89 55 90 61 91 56 92 57 93 58 94
REMARK SMILES IDX 59 95 60 96
REMARK H PARENT 81 52 51 63
REMARK Flexibility Score: inf
ROOT
ATOM      1  C   UNL A   1      38.320  31.538  31.797  1.00  0.00     0.188 C 
ENDROOT
BRANCH   1   2
ATOM      2  C   UNL A   1      39.190  30.401  32.283  1.00  0.00     0.188 C 
BRANCH   2   3
ATOM      3  O   UNL A   1      39.955  29.782  31.256  1.00  0.00    -0.376 OA
BRANCH   3   4
ATOM      4  C   UNL A   1      39.753  28.375  31.141  1.00  0.00     0.202 C 
BRANCH   4   5
ATOM      5  C   UNL A   1      39.493  27.832  29.716  1.00  0.00     0.261 C 
BRANCH   5   6
ATOM      6  O   UNL A   1      38.247  28.301  29.123  1.00  0.00    -0.463 OA
BRANCH   6   7
ATOM      7  C   UNL A   1      38.355  29.090  28.023  1.00  0.00     0.306 C 
ATOM      8  O   UNL A   1      39.387  29.197  27.367  1.00  0.00    -0.252 OA
BRANCH   7   9
ATOM      9  C   UNL A   1      37.110  29.889  27.663  1.00  0.00     0.131 C 
BRANCH   9  10
ATOM     10  C   UNL A   1      35.761  29.609  28.328  1.00  0.00     0.091 C 
BRANCH  10  11
ATOM     11  C   UNL A   1      34.588  29.541  27.412  1.00  0.00     0.152 A 
ATOM     12  C   UNL A   1      31.291  31.921  26.552  1.00  0.00     0.090 C 
ATOM     13  C   UNL A   1      31.676  30.636  25.887  1.00  0.00     0.131 A 
ATOM     14  N   UNL A   1      30.968  30.112  24.916  1.00  0.00    -0.222 NA
ATOM     15  N   UNL A   1      32.858  30.052  26.362  1.00  0.00    -0.199 N 
ATOM     16  C   UNL A   1      31.448  28.936  24.388  1.00  0.00     0.129 A 
ATOM     17  C   UNL A   1      33.358  28.893  25.837  1.00  0.00     0.168 A 
ATOM     18  N   UNL A   1      33.621  30.478  27.395  1.00  0.00    -0.150 NA
ATOM     19  S   UNL A   1      30.615  28.100  23.150  1.00  0.00    -0.120 S 
ATOM     20  C   UNL A   1      32.599  28.246  24.743  1.00  0.00     0.060 A 
ATOM     21  N   UNL A   1      34.452  28.554  26.471  1.00  0.00    -0.211 NA
ATOM     22  C   UNL A   1      31.783  26.857  23.105  1.00  0.00     0.011 A 
ATOM     23  C   UNL A   1      32.811  27.038  24.016  1.00  0.00    -0.018 A 
ATOM     24  C   UNL A   1      31.651  25.679  22.186  1.00  0.00     0.047 C 
ATOM     25  C   UNL A   1      33.943  26.049  24.125  1.00  0.00     0.018 C 
ATOM     26  C   UNL A   1      33.011  24.996  21.995  1.00  0.00     0.006 C 
ATOM     27  C   UNL A   1      34.254  25.677  25.564  1.00  0.00     0.013 C 
ATOM     28  C   UNL A   1      33.682  24.744  23.344  1.00  0.00     0.008 C 
ENDBRANCH  10  11
ENDBRANCH   9  10
ENDBRANCH   7   9
ENDBRANCH   6   7
ENDBRANCH   5   6
ENDBRANCH   4   5
ENDBRANCH   3   4
ENDBRANCH   2   3
ENDBRANCH   1   2
BRANCH   1  29
ATOM     29  O   UNL A   1      38.468  31.756  30.381  1.00  0.00    -0.376 OA
BRANCH  29  30
ATOM     30  C   UNL A   1      37.520  32.631  29.771  1.00  0.00     0.202 C 
BRANCH  30  31
ATOM     31  C   UNL A   1      37.813  34.127  29.887  1.00  0.00     0.261 C 
BRANCH  31  32
ATOM     32  O   UNL A   1      38.999  34.446  29.196  1.00  0.00    -0.460 OA
BRANCH  32  33
ATOM     33  C   UNL A   1      40.058  34.613  30.020  1.00  0.00     0.338 C 
ATOM     34  O   UNL A   1      40.080  34.533  31.240  1.00  0.00    -0.246 OA
BRANCH  33  35
ATOM     35  C   UNL A   1      41.224  34.884  29.180  1.00  0.00     0.060 A 
ATOM     36  C   UNL A   1      42.469  34.871  29.804  1.00  0.00     0.016 A 
ATOM     37  C   UNL A   1      41.033  35.350  27.868  1.00  0.00     0.016 A 
ATOM     38  C   UNL A   1      43.437  35.672  29.267  1.00  0.00     0.010 A 
ATOM     39  C   UNL A   1      41.989  36.161  27.341  1.00  0.00     0.010 A 
ATOM     40  C   UNL A   1      43.100  36.415  28.134  1.00  0.00    -0.014 A 
BRANCH  40  41
ATOM     41  C   UNL A   1      43.917  37.548  27.803  1.00  0.00     0.031 A 
ATOM     42  C   UNL A   1      45.334  37.180  27.707  1.00  0.00     0.074 A 
ATOM     43  C   UNL A   1      43.346  38.742  27.557  1.00  0.00     0.049 A 
ATOM     44  N   UNL A   1      46.261  37.440  28.562  1.00  0.00    -0.248 NA
ATOM     45  C   UNL A   1      45.708  36.192  26.678  1.00  0.00     0.031 C 
ATOM     46  C   UNL A   1      41.921  39.060  27.387  1.00  0.00     0.029 A 
ATOM     47  N   UNL A   1      43.945  39.925  27.287  1.00  0.00    -0.354 N 
ATOM     48  C   UNL A   1      47.400  36.858  28.030  1.00  0.00     0.074 A 
ATOM     49  C   UNL A   1      46.955  35.902  27.049  1.00  0.00     0.031 C 
ATOM     50  C   UNL A   1      41.805  40.267  26.783  1.00  0.00     0.029 A 
ATOM     51  C   UNL A   1      43.129  40.855  26.655  1.00  0.00     0.049 A 
ATOM     52  H   UNL A   1      44.883  40.111  27.518  1.00  0.00     0.167 HD
ATOM     53  C   UNL A   1      48.616  37.446  28.173  1.00  0.00     0.031 A 
ATOM     54  C   UNL A   1      43.557  41.963  25.996  1.00  0.00     0.031 A 
ATOM     55  C   UNL A   1      48.605  38.449  29.205  1.00  0.00     0.049 A 
ATOM     56  C   UNL A   1      44.950  42.220  26.460  1.00  0.00     0.074 A 
ATOM     57  C   UNL A   1      48.359  38.430  30.563  1.00  0.00     0.029 A 
ATOM     58  N   UNL A   1      48.441  39.754  28.796  1.00  0.00    -0.354 N 
ATOM     59  N   UNL A   1      45.249  42.559  27.684  1.00  0.00    -0.248 NA
ATOM     60  C   UNL A   1      46.038  41.623  25.698  1.00  0.00     0.031 C 
ATOM     61  C   UNL A   1      47.645  39.633  30.830  1.00  0.00     0.029 A 
ATOM     62  C   UNL A   1      47.552  40.366  29.644  1.00  0.00     0.049 A 
ATOM     63  H   UNL A   1      48.886  40.175  28.027  1.00  0.00     0.167 HD
ATOM     64  C   UNL A   1      46.399  41.840  27.985  1.00  0.00     0.074 A 
ATOM     65  C   UNL A   1      46.888  41.352  26.695  1.00  0.00     0.031 C 
ATOM     66  C   UNL A   1      46.680  41.463  29.268  1.00  0.00     0.031 A 
BRANCH  53  67
ATOM     67  C   UNL A   1      49.648  37.404  27.084  1.00  0.00    -0.014 A 
ATOM     68  C   UNL A   1      49.369  36.702  25.902  1.00  0.00     0.010 A 
ATOM     69  C   UNL A   1      50.981  37.830  27.284  1.00  0.00     0.010 A 
ATOM     70  C   UNL A   1      50.380  36.429  24.974  1.00  0.00     0.020 A 
ATOM     71  C   UNL A   1      51.985  37.608  26.347  1.00  0.00     0.020 A 
ATOM     72  C   UNL A   1      51.681  36.886  25.204  1.00  0.00     0.054 A 
BRANCH  72  73
ATOM     73  S   UNL A   1      52.989  36.480  24.025  1.00  0.00     0.124 S 
ATOM     74  O   UNL A   1      53.354  37.797  23.515  1.00  0.00    -0.237 OA
ATOM     75  O   UNL A   1      53.980  35.832  24.880  1.00  0.00    -0.237 OA
ATOM     76  O   UNL A   1      52.326  35.596  23.069  1.00  0.00    -0.744 OA
ENDBRANCH  72  73
ENDBRANCH  53  67
BRANCH  54  77
ATOM     77  C   UNL A   1      43.030  42.534  24.725  1.00  0.00    -0.014 A 
ATOM     78  C   UNL A   1      43.640  43.663  24.142  1.00  0.00     0.010 A 
ATOM     79  C   UNL A   1      42.130  41.798  23.927  1.00  0.00     0.010 A 
ATOM     80  C   UNL A   1      43.427  43.989  22.789  1.00  0.00     0.020 A 
ATOM     81  C   UNL A   1      41.905  42.121  22.582  1.00  0.00     0.020 A 
ATOM     82  C   UNL A   1      42.581  43.197  22.009  1.00  0.00     0.054 A 
BRANCH  82  83
ATOM     83  S   UNL A   1      42.472  43.497  20.220  1.00  0.00     0.124 S 
ATOM     84  O   UNL A   1      42.679  42.163  19.665  1.00  0.00    -0.237 OA
ATOM     85  O   UNL A   1      41.125  44.040  20.072  1.00  0.00    -0.237 OA
ATOM     86  O   UNL A   1      43.551  44.449  19.963  1.00  0.00    -0.744 OA
ENDBRANCH  82  83
ENDBRANCH  54  77
BRANCH  66  87
ATOM     87  C   UNL A   1      45.885  42.097  30.390  1.00  0.00    -0.014 A 
ATOM     88  C   UNL A   1      46.384  43.083  31.266  1.00  0.00     0.010 A 
ATOM     89  C   UNL A   1      44.517  41.779  30.454  1.00  0.00     0.010 A 
ATOM     90  C   UNL A   1      45.536  43.714  32.193  1.00  0.00     0.020 A 
ATOM     91  C   UNL A   1      43.666  42.415  31.360  1.00  0.00     0.020 A 
ATOM     92  C   UNL A   1      44.180  43.373  32.233  1.00  0.00     0.054 A 
BRANCH  92  93
ATOM     93  S   UNL A   1      43.074  44.208  33.408  1.00  0.00     0.124 S 
ATOM     94  O   UNL A   1      41.910  43.328  33.430  1.00  0.00    -0.237 OA
ATOM     95  O   UNL A   1      43.867  44.235  34.635  1.00  0.00    -0.237 OA
ATOM     96  O   UNL A   1      42.845  45.519  32.800  1.00  0.00    -0.744 OA
ENDBRANCH  92  93
ENDBRANCH  66  87
ENDBRANCH  40  41
ENDBRANCH  33  35
ENDBRANCH  32  33
ENDBRANCH  31  32
ENDBRANCH  30  31
ENDBRANCH  29  30
ENDBRANCH   1  29
TORSDOF 22
ENDMDL
