MODEL 1
REMARK VINA RESULT:      -8.3      0.000      0.000
REMARK SMILES C=CCOc1ccccc1-c1cc(C(=O)OCCOCCOCCOC(=O)c2ccc(-c3c4nc(c(-c5ccc(S(=O)(=O)[O-])cc5)c5ccc([nH]5)c(-c5ccc(S(=O)(=O)[O-])cc5)c5nc(c(-c6ccc(S(=O)(=O)[O-])cc6)c6ccc3[nH]6)C=C5)C=C4)cc2)nc(N)n1
REMARK SMILES IDX 20 1 19 2 18 3 17 4 16 5 14 6 15 7 13 8 11 9 12 10 91 11
REMARK SMILES IDX 89 12 88 13 10 14 5 15 6 16 7 17 9 18 8 19 4 20 3 21 2 22
REMARK SMILES IDX 1 23 90 24 21 27 22 28 23 29 24 30 25 31 26 32 27 33 28 34
REMARK SMILES IDX 29 35 87 36 30 37 86 38 31 39 32 40 33 41 80 42 34 43 85 44
REMARK SMILES IDX 79 45 81 46 35 47 84 48 78 49 77 50 36 52 66 53 47 54 65 55
REMARK SMILES IDX 48 56 51 57 64 58 82 59 49 60 50 61 63 63 83 64 52 65 37 66
REMARK SMILES IDX 38 67 46 68 39 69 45 70 40 71 41 72 42 73 43 74 44 75 67 76
REMARK SMILES IDX 68 77 76 78 69 79 75 80 70 81 71 82 72 83 73 84 74 85 53 86
REMARK SMILES IDX 54 87 62 88 55 89 61 90 56 91 57 92 58 93 59 94 60 95
REMARK H PARENT 90 25 90 26 81 51 51 62
REMARK Flexibility Score: inf
ROOT
ATOM      1  C   UNL A   1      42.250  19.799  26.077  1.00  0.00     0.188 C 
ENDROOT
BRANCH   1   2
ATOM      2  O   UNL A   1      43.064  20.639  25.264  1.00  0.00    -0.376 OA
BRANCH   2   3
ATOM      3  C   UNL A   1      44.035  21.479  25.858  1.00  0.00     0.202 C 
BRANCH   3   4
ATOM      4  C   UNL A   1      45.059  22.094  24.901  1.00  0.00     0.261 C 
BRANCH   4   5
ATOM      5  O   UNL A   1      46.151  22.754  25.553  1.00  0.00    -0.459 OA
BRANCH   5   6
ATOM      6  C   UNL A   1      46.511  23.947  25.003  1.00  0.00     0.357 C 
ATOM      7  O   UNL A   1      47.248  24.116  24.052  1.00  0.00    -0.244 OA
BRANCH   6   8
ATOM      8  C   UNL A   1      45.788  25.055  25.681  1.00  0.00     0.154 A 
ATOM      9  C   UNL A   1      45.454  26.406  27.538  1.00  0.00     0.080 A 
ATOM     10  C   UNL A   1      46.150  25.365  26.971  1.00  0.00     0.065 A 
ATOM     11  N   UNL A   1      44.449  27.039  26.896  1.00  0.00    -0.213 NA
ATOM     12  C   UNL A   1      44.189  26.666  25.641  1.00  0.00     0.221 A 
ATOM     13  N   UNL A   1      44.829  25.704  24.983  1.00  0.00    -0.206 NA
BRANCH   9  14
ATOM     14  C   UNL A   1      45.802  26.937  28.858  1.00  0.00     0.042 A 
ATOM     15  C   UNL A   1      45.701  26.148  30.018  1.00  0.00     0.129 A 
ATOM     16  C   UNL A   1      45.951  26.678  31.287  1.00  0.00     0.047 A 
ATOM     17  C   UNL A   1      46.365  28.002  31.407  1.00  0.00     0.004 A 
ATOM     18  C   UNL A   1      46.240  28.262  29.002  1.00  0.00     0.014 A 
ATOM     19  C   UNL A   1      46.520  28.790  30.265  1.00  0.00     0.001 A 
BRANCH  15  20
ATOM     20  O   UNL A   1      45.303  24.838  29.933  1.00  0.00    -0.489 OA
BRANCH  20  21
ATOM     21  C   UNL A   1      44.528  24.461  31.083  1.00  0.00     0.257 C 
BRANCH  21  22
ATOM     22  C   UNL A   1      43.645  23.320  30.676  1.00  0.00     0.006 C 
ATOM     23  C   UNL A   1      43.512  22.851  29.430  1.00  0.00     0.007 C 
ENDBRANCH  21  22
ENDBRANCH  20  21
ENDBRANCH  15  20
ENDBRANCH   9  14
BRANCH  12  24
ATOM     24  N   UNL A   1      43.218  27.353  24.975  1.00  0.00    -0.368 N 
ATOM     25  H   UNL A   1      42.751  26.935  24.215  1.00  0.00     0.159 HD
ATOM     26  H   UNL A   1      42.982  28.268  25.254  1.00  0.00     0.159 HD
ENDBRANCH  12  24
ENDBRANCH   6   8
ENDBRANCH   5   6
ENDBRANCH   4   5
ENDBRANCH   3   4
ENDBRANCH   2   3
ENDBRANCH   1   2
BRANCH   1  27
ATOM     27  C   UNL A   1      40.823  20.195  26.497  1.00  0.00     0.188 C 
BRANCH  27  28
ATOM     28  O   UNL A   1      40.765  21.141  27.558  1.00  0.00    -0.376 OA
BRANCH  28  29
ATOM     29  C   UNL A   1      40.015  22.319  27.280  1.00  0.00     0.202 C 
BRANCH  29  30
ATOM     30  C   UNL A   1      40.862  23.383  26.576  1.00  0.00     0.261 C 
BRANCH  30  31
ATOM     31  O   UNL A   1      41.110  24.566  27.354  1.00  0.00    -0.460 OA
BRANCH  31  32
ATOM     32  C   UNL A   1      40.683  25.731  26.818  1.00  0.00     0.338 C 
ATOM     33  O   UNL A   1      40.457  25.956  25.642  1.00  0.00    -0.246 OA
BRANCH  32  34
ATOM     34  C   UNL A   1      40.394  26.678  27.911  1.00  0.00     0.060 A 
ATOM     35  C   UNL A   1      41.039  27.915  27.901  1.00  0.00     0.016 A 
ATOM     36  C   UNL A   1      39.545  26.335  28.964  1.00  0.00     0.016 A 
ATOM     37  C   UNL A   1      40.872  28.802  28.965  1.00  0.00     0.010 A 
ATOM     38  C   UNL A   1      39.384  27.224  30.036  1.00  0.00     0.010 A 
ATOM     39  C   UNL A   1      40.073  28.450  30.060  1.00  0.00    -0.014 A 
BRANCH  39  40
ATOM     40  C   UNL A   1      40.110  29.285  31.290  1.00  0.00     0.031 A 
ATOM     41  C   UNL A   1      41.242  29.090  32.265  1.00  0.00     0.074 A 
ATOM     42  C   UNL A   1      39.200  30.253  31.514  1.00  0.00     0.049 A 
ATOM     43  N   UNL A   1      41.455  29.671  33.417  1.00  0.00    -0.248 NA
ATOM     44  C   UNL A   1      42.277  28.114  31.882  1.00  0.00     0.031 C 
ATOM     45  C   UNL A   1      38.102  30.612  30.618  1.00  0.00     0.029 A 
ATOM     46  N   UNL A   1      39.064  31.118  32.574  1.00  0.00    -0.354 N 
ATOM     47  C   UNL A   1      42.634  29.119  33.908  1.00  0.00     0.074 A 
ATOM     48  C   UNL A   1      43.081  28.146  32.934  1.00  0.00     0.031 C 
ATOM     49  C   UNL A   1      37.405  31.624  31.165  1.00  0.00     0.029 A 
ATOM     50  C   UNL A   1      37.979  31.956  32.468  1.00  0.00     0.049 A 
ATOM     51  H   UNL A   1      39.685  31.137  33.337  1.00  0.00     0.167 HD
ATOM     52  C   UNL A   1      43.289  29.395  35.060  1.00  0.00     0.031 A 
ATOM     53  C   UNL A   1      37.488  32.869  33.332  1.00  0.00     0.031 A 
ATOM     54  C   UNL A   1      42.850  30.357  36.034  1.00  0.00     0.049 A 
ATOM     55  C   UNL A   1      38.185  33.097  34.650  1.00  0.00     0.074 A 
ATOM     56  C   UNL A   1      43.439  30.688  37.242  1.00  0.00     0.029 A 
ATOM     57  N   UNL A   1      41.715  31.143  35.914  1.00  0.00    -0.354 N 
ATOM     58  N   UNL A   1      39.284  32.547  35.109  1.00  0.00    -0.248 NA
ATOM     59  C   UNL A   1      37.577  34.075  35.564  1.00  0.00     0.031 C 
ATOM     60  C   UNL A   1      42.635  31.643  37.873  1.00  0.00     0.029 A 
ATOM     61  C   UNL A   1      41.577  31.949  37.032  1.00  0.00     0.049 A 
ATOM     62  H   UNL A   1      41.098  31.131  35.147  1.00  0.00     0.167 HD
ATOM     63  C   UNL A   1      39.512  33.134  36.351  1.00  0.00     0.074 A 
ATOM     64  C   UNL A   1      38.447  34.090  36.565  1.00  0.00     0.031 C 
ATOM     65  C   UNL A   1      40.517  32.904  37.233  1.00  0.00     0.031 A 
BRANCH  52  66
ATOM     66  C   UNL A   1      44.536  28.601  35.351  1.00  0.00    -0.014 A 
ATOM     67  C   UNL A   1      44.470  27.243  35.709  1.00  0.00     0.010 A 
ATOM     68  C   UNL A   1      45.792  29.223  35.241  1.00  0.00     0.010 A 
ATOM     69  C   UNL A   1      45.639  26.532  35.993  1.00  0.00     0.020 A 
ATOM     70  C   UNL A   1      46.965  28.508  35.498  1.00  0.00     0.020 A 
ATOM     71  C   UNL A   1      46.880  27.171  35.891  1.00  0.00     0.054 A 
BRANCH  71  72
ATOM     72  S   UNL A   1      48.383  26.223  36.254  1.00  0.00     0.124 S 
ATOM     73  O   UNL A   1      49.032  27.065  37.256  1.00  0.00    -0.237 OA
ATOM     74  O   UNL A   1      47.851  24.956  36.749  1.00  0.00    -0.237 OA
ATOM     75  O   UNL A   1      49.065  26.149  34.965  1.00  0.00    -0.744 OA
ENDBRANCH  71  72
ENDBRANCH  52  66
BRANCH  53  76
ATOM     76  C   UNL A   1      36.244  33.621  33.001  1.00  0.00    -0.014 A 
ATOM     77  C   UNL A   1      36.307  34.918  32.462  1.00  0.00     0.010 A 
ATOM     78  C   UNL A   1      34.983  33.047  33.250  1.00  0.00     0.010 A 
ATOM     79  C   UNL A   1      35.134  35.633  32.197  1.00  0.00     0.020 A 
ATOM     80  C   UNL A   1      33.809  33.748  32.961  1.00  0.00     0.020 A 
ATOM     81  C   UNL A   1      33.893  35.044  32.449  1.00  0.00     0.054 A 
BRANCH  81  82
ATOM     82  S   UNL A   1      32.383  35.974  32.062  1.00  0.00     0.124 S 
ATOM     83  O   UNL A   1      31.339  35.056  32.507  1.00  0.00    -0.237 OA
ATOM     84  O   UNL A   1      32.544  37.185  32.863  1.00  0.00    -0.237 OA
ATOM     85  O   UNL A   1      32.466  36.174  30.617  1.00  0.00    -0.744 OA
ENDBRANCH  81  82
ENDBRANCH  53  76
BRANCH  65  86
ATOM     86  C   UNL A   1      40.547  33.733  38.491  1.00  0.00    -0.014 A 
ATOM     87  C   UNL A   1      39.822  33.358  39.635  1.00  0.00     0.010 A 
ATOM     88  C   UNL A   1      41.360  34.881  38.541  1.00  0.00     0.010 A 
ATOM     89  C   UNL A   1      39.880  34.138  40.796  1.00  0.00     0.020 A 
ATOM     90  C   UNL A   1      41.441  35.648  39.706  1.00  0.00     0.020 A 
ATOM     91  C   UNL A   1      40.687  35.281  40.822  1.00  0.00     0.054 A 
BRANCH  91  92
ATOM     92  S   UNL A   1      40.773  36.260  42.348  1.00  0.00     0.124 S 
ATOM     93  O   UNL A   1      40.761  35.222  43.374  1.00  0.00    -0.237 OA
ATOM     94  O   UNL A   1      42.035  36.981  42.197  1.00  0.00    -0.237 OA
ATOM     95  O   UNL A   1      39.576  37.094  42.290  1.00  0.00    -0.744 OA
ENDBRANCH  91  92
ENDBRANCH  65  86
ENDBRANCH  39  40
ENDBRANCH  32  34
ENDBRANCH  31  32
ENDBRANCH  30  31
ENDBRANCH  29  30
ENDBRANCH  28  29
ENDBRANCH  27  28
ENDBRANCH   1  27
TORSDOF 25
ENDMDL
MODEL 2
REMARK VINA RESULT:      -7.8      1.752      2.532
REMARK SMILES C=CCOc1ccccc1-c1cc(C(=O)OCCOCCOCCOC(=O)c2ccc(-c3c4nc(c(-c5ccc(S(=O)(=O)[O-])cc5)c5ccc([nH]5)c(-c5ccc(S(=O)(=O)[O-])cc5)c5nc(c(-c6ccc(S(=O)(=O)[O-])cc6)c6ccc3[nH]6)C=C5)C=C4)cc2)nc(N)n1
REMARK SMILES IDX 20 1 19 2 18 3 17 4 16 5 14 6 15 7 13 8 11 9 12 10 91 11
REMARK SMILES IDX 89 12 88 13 10 14 5 15 6 16 7 17 9 18 8 19 4 20 3 21 2 22
REMARK SMILES IDX 1 23 90 24 21 27 22 28 23 29 24 30 25 31 26 32 27 33 28 34
REMARK SMILES IDX 29 35 87 36 30 37 86 38 31 39 32 40 33 41 80 42 34 43 85 44
REMARK SMILES IDX 79 45 81 46 35 47 84 48 78 49 77 50 36 52 66 53 47 54 65 55
REMARK SMILES IDX 48 56 51 57 64 58 82 59 49 60 50 61 63 63 83 64 52 65 37 66
REMARK SMILES IDX 38 67 46 68 39 69 45 70 40 71 41 72 42 73 43 74 44 75 67 76
REMARK SMILES IDX 68 77 76 78 69 79 75 80 70 81 71 82 72 83 73 84 74 85 53 86
REMARK SMILES IDX 54 87 62 88 55 89 61 90 56 91 57 92 58 93 59 94 60 95
REMARK H PARENT 90 25 90 26 81 51 51 62
REMARK Flexibility Score: inf
ROOT
ATOM      1  C   UNL A   1      41.971  19.192  25.852  1.00  0.00     0.188 C 
ENDROOT
BRANCH   1   2
ATOM      2  O   UNL A   1      42.924  19.847  25.020  1.00  0.00    -0.376 OA
BRANCH   2   3
ATOM      3  C   UNL A   1      44.261  20.002  25.456  1.00  0.00     0.202 C 
BRANCH   3   4
ATOM      4  C   UNL A   1      45.169  20.827  24.542  1.00  0.00     0.261 C 
BRANCH   4   5
ATOM      5  O   UNL A   1      46.072  21.696  25.238  1.00  0.00    -0.459 OA
BRANCH   5   6
ATOM      6  C   UNL A   1      45.776  23.022  25.147  1.00  0.00     0.357 C 
ATOM      7  O   UNL A   1      45.596  23.659  24.128  1.00  0.00    -0.244 OA
BRANCH   6   8
ATOM      8  C   UNL A   1      45.604  23.597  26.508  1.00  0.00     0.154 A 
ATOM      9  C   UNL A   1      45.865  25.352  28.003  1.00  0.00     0.080 A 
ATOM     10  C   UNL A   1      46.064  24.873  26.730  1.00  0.00     0.065 A 
ATOM     11  N   UNL A   1      45.311  24.602  28.979  1.00  0.00    -0.213 NA
ATOM     12  C   UNL A   1      44.888  23.379  28.650  1.00  0.00     0.221 A 
ATOM     13  N   UNL A   1      44.990  22.835  27.441  1.00  0.00    -0.206 NA
BRANCH   9  14
ATOM     14  C   UNL A   1      46.187  26.734  28.366  1.00  0.00     0.042 A 
ATOM     15  C   UNL A   1      47.516  27.192  28.411  1.00  0.00     0.129 A 
ATOM     16  C   UNL A   1      47.830  28.485  28.838  1.00  0.00     0.047 A 
ATOM     17  C   UNL A   1      46.803  29.363  29.175  1.00  0.00     0.004 A 
ATOM     18  C   UNL A   1      45.169  27.642  28.690  1.00  0.00     0.014 A 
ATOM     19  C   UNL A   1      45.474  28.947  29.090  1.00  0.00     0.001 A 
BRANCH  15  20
ATOM     20  O   UNL A   1      48.550  26.354  28.078  1.00  0.00    -0.489 OA
BRANCH  20  21
ATOM     21  C   UNL A   1      49.688  27.100  27.617  1.00  0.00     0.257 C 
BRANCH  21  22
ATOM     22  C   UNL A   1      49.727  26.982  26.122  1.00  0.00     0.006 C 
ATOM     23  C   UNL A   1      49.130  26.024  25.406  1.00  0.00     0.007 C 
ENDBRANCH  21  22
ENDBRANCH  20  21
ENDBRANCH  15  20
ENDBRANCH   9  14
BRANCH  12  24
ATOM     24  N   UNL A   1      44.269  22.651  29.624  1.00  0.00    -0.368 N 
ATOM     25  H   UNL A   1      43.289  22.683  29.715  1.00  0.00     0.159 HD
ATOM     26  H   UNL A   1      44.803  22.094  30.236  1.00  0.00     0.159 HD
ENDBRANCH  12  24
ENDBRANCH   6   8
ENDBRANCH   5   6
ENDBRANCH   4   5
ENDBRANCH   3   4
ENDBRANCH   2   3
ENDBRANCH   1   2
BRANCH   1  27
ATOM     27  C   UNL A   1      40.764  19.931  26.458  1.00  0.00     0.188 C 
BRANCH  27  28
ATOM     28  O   UNL A   1      41.094  20.822  27.517  1.00  0.00    -0.376 OA
BRANCH  28  29
ATOM     29  C   UNL A   1      40.605  22.150  27.367  1.00  0.00     0.202 C 
BRANCH  29  30
ATOM     30  C   UNL A   1      41.413  22.944  26.335  1.00  0.00     0.261 C 
BRANCH  30  31
ATOM     31  O   UNL A   1      42.126  24.073  26.868  1.00  0.00    -0.460 OA
BRANCH  31  32
ATOM     32  C   UNL A   1      41.942  25.248  26.228  1.00  0.00     0.338 C 
ATOM     33  O   UNL A   1      42.054  25.455  25.033  1.00  0.00    -0.246 OA
BRANCH  32  34
ATOM     34  C   UNL A   1      41.443  26.243  27.196  1.00  0.00     0.060 A 
ATOM     35  C   UNL A   1      41.977  27.532  27.153  1.00  0.00     0.016 A 
ATOM     36  C   UNL A   1      40.506  25.901  28.172  1.00  0.00     0.016 A 
ATOM     37  C   UNL A   1      41.606  28.476  28.112  1.00  0.00     0.010 A 
ATOM     38  C   UNL A   1      40.142  26.848  29.139  1.00  0.00     0.010 A 
ATOM     39  C   UNL A   1      40.715  28.133  29.135  1.00  0.00    -0.014 A 
BRANCH  39  40
ATOM     40  C   UNL A   1      40.531  29.057  30.285  1.00  0.00     0.031 A 
ATOM     41  C   UNL A   1      41.456  28.934  31.468  1.00  0.00     0.074 A 
ATOM     42  C   UNL A   1      39.611  30.040  30.261  1.00  0.00     0.049 A 
ATOM     43  N   UNL A   1      41.456  29.600  32.595  1.00  0.00    -0.248 NA
ATOM     44  C   UNL A   1      42.529  27.932  31.361  1.00  0.00     0.031 C 
ATOM     45  C   UNL A   1      38.707  30.332  29.150  1.00  0.00     0.029 A 
ATOM     46  N   UNL A   1      39.289  30.982  31.210  1.00  0.00    -0.354 N 
ATOM     47  C   UNL A   1      42.513  29.085  33.338  1.00  0.00     0.074 A 
ATOM     48  C   UNL A   1      43.121  28.042  32.541  1.00  0.00     0.031 C 
ATOM     49  C   UNL A   1      37.934  31.383  29.479  1.00  0.00     0.029 A 
ATOM     50  C   UNL A   1      38.257  31.811  30.839  1.00  0.00     0.049 A 
ATOM     51  H   UNL A   1      39.756  31.058  32.074  1.00  0.00     0.167 HD
ATOM     52  C   UNL A   1      42.943  29.446  34.571  1.00  0.00     0.031 A 
ATOM     53  C   UNL A   1      37.625  32.786  31.525  1.00  0.00     0.031 A 
ATOM     54  C   UNL A   1      42.343  30.479  35.371  1.00  0.00     0.049 A 
ATOM     55  C   UNL A   1      38.065  33.112  32.931  1.00  0.00     0.074 A 
ATOM     56  C   UNL A   1      42.697  30.899  36.641  1.00  0.00     0.029 A 
ATOM     57  N   UNL A   1      41.263  31.254  34.981  1.00  0.00    -0.354 N 
ATOM     58  N   UNL A   1      39.049  32.596  33.629  1.00  0.00    -0.248 NA
ATOM     59  C   UNL A   1      37.310  34.156  33.639  1.00  0.00     0.031 C 
ATOM     60  C   UNL A   1      41.803  31.899  37.037  1.00  0.00     0.029 A 
ATOM     61  C   UNL A   1      40.928  32.142  35.990  1.00  0.00     0.049 A 
ATOM     62  H   UNL A   1      40.801  31.185  34.113  1.00  0.00     0.167 HD
ATOM     63  C   UNL A   1      39.047  33.274  34.846  1.00  0.00     0.074 A 
ATOM     64  C   UNL A   1      37.975  34.245  34.783  1.00  0.00     0.031 C 
ATOM     65  C   UNL A   1      39.864  33.110  35.916  1.00  0.00     0.031 A 
BRANCH  52  66
ATOM     66  C   UNL A   1      44.100  28.675  35.150  1.00  0.00    -0.014 A 
ATOM     67  C   UNL A   1      45.338  29.294  35.402  1.00  0.00     0.010 A 
ATOM     68  C   UNL A   1      43.935  27.315  35.465  1.00  0.00     0.010 A 
ATOM     69  C   UNL A   1      46.402  28.553  35.922  1.00  0.00     0.020 A 
ATOM     70  C   UNL A   1      44.989  26.578  36.011  1.00  0.00     0.020 A 
ATOM     71  C   UNL A   1      46.223  27.198  36.218  1.00  0.00     0.054 A 
BRANCH  71  72
ATOM     72  S   UNL A   1      47.618  26.262  36.902  1.00  0.00     0.124 S 
ATOM     73  O   UNL A   1      48.667  26.530  35.923  1.00  0.00    -0.237 OA
ATOM     74  O   UNL A   1      47.808  26.881  38.211  1.00  0.00    -0.237 OA
ATOM     75  O   UNL A   1      47.130  24.885  36.932  1.00  0.00    -0.744 OA
ENDBRANCH  71  72
ENDBRANCH  52  66
BRANCH  53  76
ATOM     76  C   UNL A   1      36.478  33.512  30.910  1.00  0.00    -0.014 A 
ATOM     77  C   UNL A   1      36.547  33.981  29.586  1.00  0.00     0.010 A 
ATOM     78  C   UNL A   1      35.314  33.763  31.662  1.00  0.00     0.010 A 
ATOM     79  C   UNL A   1      35.483  34.701  29.033  1.00  0.00     0.020 A 
ATOM     80  C   UNL A   1      34.238  34.458  31.103  1.00  0.00     0.020 A 
ATOM     81  C   UNL A   1      34.335  34.935  29.795  1.00  0.00     0.054 A 
BRANCH  81  82
ATOM     82  S   UNL A   1      32.951  35.838  29.046  1.00  0.00     0.124 S 
ATOM     83  O   UNL A   1      32.357  34.821  28.183  1.00  0.00    -0.237 OA
ATOM     84  O   UNL A   1      32.156  36.222  30.211  1.00  0.00    -0.237 OA
ATOM     85  O   UNL A   1      33.601  36.947  28.351  1.00  0.00    -0.744 OA
ENDBRANCH  81  82
ENDBRANCH  53  76
BRANCH  65  86
ATOM     86  C   UNL A   1      39.668  34.031  37.093  1.00  0.00    -0.014 A 
ATOM     87  C   UNL A   1      38.943  33.629  38.227  1.00  0.00     0.010 A 
ATOM     88  C   UNL A   1      40.269  35.304  37.079  1.00  0.00     0.010 A 
ATOM     89  C   UNL A   1      38.789  34.499  39.313  1.00  0.00     0.020 A 
ATOM     90  C   UNL A   1      40.140  36.165  38.172  1.00  0.00     0.020 A 
ATOM     91  C   UNL A   1      39.387  35.764  39.276  1.00  0.00     0.054 A 
BRANCH  91  92
ATOM     92  S   UNL A   1      39.203  36.863  40.708  1.00  0.00     0.124 S 
ATOM     93  O   UNL A   1      38.945  38.151  40.071  1.00  0.00    -0.237 OA
ATOM     94  O   UNL A   1      38.071  36.277  41.422  1.00  0.00    -0.237 OA
ATOM     95  O   UNL A   1      40.487  36.753  41.395  1.00  0.00    -0.744 OA
ENDBRANCH  91  92
ENDBRANCH  65  86
ENDBRANCH  39  40
ENDBRANCH  32  34
ENDBRANCH  31  32
ENDBRANCH  30  31
ENDBRANCH  29  30
ENDBRANCH  28  29
ENDBRANCH  27  28
ENDBRANCH   1  27
TORSDOF 25
ENDMDL
MODEL 3
REMARK VINA RESULT:      -7.5      2.501      8.630
REMARK SMILES C=CCOc1ccccc1-c1cc(C(=O)OCCOCCOCCOC(=O)c2ccc(-c3c4nc(c(-c5ccc(S(=O)(=O)[O-])cc5)c5ccc([nH]5)c(-c5ccc(S(=O)(=O)[O-])cc5)c5nc(c(-c6ccc(S(=O)(=O)[O-])cc6)c6ccc3[nH]6)C=C5)C=C4)cc2)nc(N)n1
REMARK SMILES IDX 20 1 19 2 18 3 17 4 16 5 14 6 15 7 13 8 11 9 12 10 91 11
REMARK SMILES IDX 89 12 88 13 10 14 5 15 6 16 7 17 9 18 8 19 4 20 3 21 2 22
REMARK SMILES IDX 1 23 90 24 21 27 22 28 23 29 24 30 25 31 26 32 27 33 28 34
REMARK SMILES IDX 29 35 87 36 30 37 86 38 31 39 32 40 33 41 80 42 34 43 85 44
REMARK SMILES IDX 79 45 81 46 35 47 84 48 78 49 77 50 36 52 66 53 47 54 65 55
REMARK SMILES IDX 48 56 51 57 64 58 82 59 49 60 50 61 63 63 83 64 52 65 37 66
REMARK SMILES IDX 38 67 46 68 39 69 45 70 40 71 41 72 42 73 43 74 44 75 67 76
REMARK SMILES IDX 68 77 76 78 69 79 75 80 70 81 71 82 72 83 73 84 74 85 53 86
REMARK SMILES IDX 54 87 62 88 55 89 61 90 56 91 57 92 58 93 59 94 60 95
REMARK H PARENT 90 25 90 26 81 51 51 62
REMARK Flexibility Score: inf
ROOT
ATOM      1  C   UNL A   1      42.134  20.314  26.213  1.00  0.00     0.188 C 
ENDROOT
BRANCH   1   2
ATOM      2  O   UNL A   1      43.001  20.881  25.236  1.00  0.00    -0.376 OA
BRANCH   2   3
ATOM      3  C   UNL A   1      43.727  22.060  25.527  1.00  0.00     0.202 C 
BRANCH   3   4
ATOM      4  C   UNL A   1      44.852  22.409  24.550  1.00  0.00     0.261 C 
BRANCH   4   5
ATOM      5  O   UNL A   1      45.193  23.800  24.518  1.00  0.00    -0.459 OA
BRANCH   5   6
ATOM      6  C   UNL A   1      46.241  24.152  25.313  1.00  0.00     0.357 C 
ATOM      7  O   UNL A   1      46.746  23.479  26.191  1.00  0.00    -0.244 OA
BRANCH   6   8
ATOM      8  C   UNL A   1      46.770  25.478  24.896  1.00  0.00     0.154 A 
ATOM      9  C   UNL A   1      48.319  26.756  23.734  1.00  0.00     0.080 A 
ATOM     10  C   UNL A   1      47.886  25.502  24.095  1.00  0.00     0.065 A 
ATOM     11  N   UNL A   1      47.724  27.883  24.182  1.00  0.00    -0.213 NA
ATOM     12  C   UNL A   1      46.637  27.743  24.945  1.00  0.00     0.221 A 
ATOM     13  N   UNL A   1      46.110  26.580  25.316  1.00  0.00    -0.206 NA
BRANCH   9  14
ATOM     14  C   UNL A   1      49.420  26.949  22.788  1.00  0.00     0.042 A 
ATOM     15  C   UNL A   1      50.755  27.044  23.221  1.00  0.00     0.129 A 
ATOM     16  C   UNL A   1      51.796  27.312  22.328  1.00  0.00     0.047 A 
ATOM     17  C   UNL A   1      51.519  27.434  20.969  1.00  0.00     0.004 A 
ATOM     18  C   UNL A   1      49.167  27.055  21.412  1.00  0.00     0.014 A 
ATOM     19  C   UNL A   1      50.208  27.294  20.510  1.00  0.00     0.001 A 
BRANCH  15  20
ATOM     20  O   UNL A   1      51.061  26.921  24.552  1.00  0.00    -0.489 OA
BRANCH  20  21
ATOM     21  C   UNL A   1      52.483  26.845  24.747  1.00  0.00     0.257 C 
BRANCH  21  22
ATOM     22  C   UNL A   1      52.753  25.669  25.636  1.00  0.00     0.006 C 
ATOM     23  C   UNL A   1      53.205  24.478  25.228  1.00  0.00     0.007 C 
ENDBRANCH  21  22
ENDBRANCH  20  21
ENDBRANCH  15  20
ENDBRANCH   9  14
BRANCH  12  24
ATOM     24  N   UNL A   1      46.002  28.883  25.339  1.00  0.00    -0.368 N 
ATOM     25  H   UNL A   1      45.019  28.936  25.306  1.00  0.00     0.159 HD
ATOM     26  H   UNL A   1      46.526  29.655  25.657  1.00  0.00     0.159 HD
ENDBRANCH  12  24
ENDBRANCH   6   8
ENDBRANCH   5   6
ENDBRANCH   4   5
ENDBRANCH   3   4
ENDBRANCH   2   3
ENDBRANCH   1   2
BRANCH   1  27
ATOM     27  C   UNL A   1      40.629  20.632  26.259  1.00  0.00     0.188 C 
BRANCH  27  28
ATOM     28  O   UNL A   1      40.237  21.460  27.347  1.00  0.00    -0.376 OA
BRANCH  28  29
ATOM     29  C   UNL A   1      39.542  22.649  26.986  1.00  0.00     0.202 C 
BRANCH  29  30
ATOM     30  C   UNL A   1      40.366  23.530  26.043  1.00  0.00     0.261 C 
BRANCH  30  31
ATOM     31  O   UNL A   1      41.488  24.184  26.659  1.00  0.00    -0.460 OA
BRANCH  31  32
ATOM     32  C   UNL A   1      41.746  25.443  26.242  1.00  0.00     0.338 C 
ATOM     33  O   UNL A   1      42.133  25.782  25.138  1.00  0.00    -0.246 OA
BRANCH  32  34
ATOM     34  C   UNL A   1      41.351  26.386  27.305  1.00  0.00     0.060 A 
ATOM     35  C   UNL A   1      42.056  27.584  27.420  1.00  0.00     0.016 A 
ATOM     36  C   UNL A   1      40.340  26.074  28.214  1.00  0.00     0.016 A 
ATOM     37  C   UNL A   1      41.783  28.461  28.471  1.00  0.00     0.010 A 
ATOM     38  C   UNL A   1      40.072  26.951  29.274  1.00  0.00     0.010 A 
ATOM     39  C   UNL A   1      40.815  28.135  29.429  1.00  0.00    -0.014 A 
BRANCH  39  40
ATOM     40  C   UNL A   1      40.716  28.945  30.672  1.00  0.00     0.031 A 
ATOM     41  C   UNL A   1      39.662  30.018  30.756  1.00  0.00     0.074 A 
ATOM     42  C   UNL A   1      41.495  28.695  31.742  1.00  0.00     0.049 A 
ATOM     43  N   UNL A   1      39.419  30.872  31.717  1.00  0.00    -0.248 NA
ATOM     44  C   UNL A   1      38.754  30.137  29.602  1.00  0.00     0.031 C 
ATOM     45  C   UNL A   1      42.496  27.635  31.836  1.00  0.00     0.029 A 
ATOM     46  N   UNL A   1      41.556  29.322  32.965  1.00  0.00    -0.354 N 
ATOM     47  C   UNL A   1      38.346  31.641  31.279  1.00  0.00     0.074 A 
ATOM     48  C   UNL A   1      37.996  31.163  29.959  1.00  0.00     0.031 C 
ATOM     49  C   UNL A   1      43.072  27.683  33.051  1.00  0.00     0.029 A 
ATOM     50  C   UNL A   1      42.513  28.803  33.805  1.00  0.00     0.049 A 
ATOM     51  H   UNL A   1      40.969  30.072  33.216  1.00  0.00     0.167 HD
ATOM     52  C   UNL A   1      37.707  32.652  31.915  1.00  0.00     0.031 A 
ATOM     53  C   UNL A   1      42.910  29.200  35.032  1.00  0.00     0.031 A 
ATOM     54  C   UNL A   1      38.051  33.135  33.224  1.00  0.00     0.049 A 
ATOM     55  C   UNL A   1      42.242  30.384  35.685  1.00  0.00     0.074 A 
ATOM     56  C   UNL A   1      37.473  34.169  33.939  1.00  0.00     0.029 A 
ATOM     57  N   UNL A   1      39.064  32.619  34.017  1.00  0.00    -0.354 N 
ATOM     58  N   UNL A   1      41.248  31.118  35.244  1.00  0.00    -0.248 NA
ATOM     59  C   UNL A   1      42.750  30.791  37.004  1.00  0.00     0.031 C 
ATOM     60  C   UNL A   1      38.166  34.308  35.147  1.00  0.00     0.029 A 
ATOM     61  C   UNL A   1      39.137  33.321  35.209  1.00  0.00     0.049 A 
ATOM     62  H   UNL A   1      39.645  31.863  33.770  1.00  0.00     0.167 HD
ATOM     63  C   UNL A   1      40.993  32.052  36.245  1.00  0.00     0.074 A 
ATOM     64  C   UNL A   1      41.928  31.783  37.318  1.00  0.00     0.031 C 
ATOM     65  C   UNL A   1      40.066  33.041  36.274  1.00  0.00     0.031 A 
BRANCH  52  66
ATOM     66  C   UNL A   1      36.593  33.338  31.170  1.00  0.00    -0.014 A 
ATOM     67  C   UNL A   1      36.815  33.950  29.923  1.00  0.00     0.010 A 
ATOM     68  C   UNL A   1      35.298  33.350  31.720  1.00  0.00     0.010 A 
ATOM     69  C   UNL A   1      35.769  34.597  29.259  1.00  0.00     0.020 A 
ATOM     70  C   UNL A   1      34.245  33.973  31.047  1.00  0.00     0.020 A 
ATOM     71  C   UNL A   1      34.491  34.609  29.828  1.00  0.00     0.054 A 
BRANCH  71  72
ATOM     72  S   UNL A   1      33.148  35.447  28.942  1.00  0.00     0.124 S 
ATOM     73  O   UNL A   1      32.376  36.019  30.042  1.00  0.00    -0.237 OA
ATOM     74  O   UNL A   1      33.866  36.411  28.111  1.00  0.00    -0.237 OA
ATOM     75  O   UNL A   1      32.489  34.367  28.212  1.00  0.00    -0.744 OA
ENDBRANCH  71  72
ENDBRANCH  52  66
BRANCH  53  76
ATOM     76  C   UNL A   1      44.026  28.493  35.723  1.00  0.00    -0.014 A 
ATOM     77  C   UNL A   1      45.362  28.884  35.523  1.00  0.00     0.010 A 
ATOM     78  C   UNL A   1      43.756  27.401  36.569  1.00  0.00     0.010 A 
ATOM     79  C   UNL A   1      46.405  28.185  36.139  1.00  0.00     0.020 A 
ATOM     80  C   UNL A   1      44.794  26.718  37.208  1.00  0.00     0.020 A 
ATOM     81  C   UNL A   1      46.114  27.106  36.978  1.00  0.00     0.054 A 
BRANCH  81  82
ATOM     82  S   UNL A   1      47.480  26.238  37.799  1.00  0.00     0.124 S 
ATOM     83  O   UNL A   1      48.648  26.897  37.223  1.00  0.00    -0.237 OA
ATOM     84  O   UNL A   1      47.229  26.517  39.211  1.00  0.00    -0.237 OA
ATOM     85  O   UNL A   1      47.288  24.845  37.402  1.00  0.00    -0.744 OA
ENDBRANCH  81  82
ENDBRANCH  53  76
BRANCH  65  86
ATOM     86  C   UNL A   1      39.975  33.879  37.523  1.00  0.00    -0.014 A 
ATOM     87  C   UNL A   1      40.655  35.104  37.638  1.00  0.00     0.010 A 
ATOM     88  C   UNL A   1      39.149  33.453  38.581  1.00  0.00     0.010 A 
ATOM     89  C   UNL A   1      40.541  35.869  38.804  1.00  0.00     0.020 A 
ATOM     90  C   UNL A   1      39.012  34.227  39.736  1.00  0.00     0.020 A 
ATOM     91  C   UNL A   1      39.722  35.423  39.847  1.00  0.00     0.054 A 
BRANCH  91  92
ATOM     92  S   UNL A   1      39.563  36.448  41.337  1.00  0.00     0.124 S 
ATOM     93  O   UNL A   1      38.189  36.178  41.745  1.00  0.00    -0.237 OA
ATOM     94  O   UNL A   1      40.599  35.906  42.213  1.00  0.00    -0.237 OA
ATOM     95  O   UNL A   1      39.814  37.803  40.852  1.00  0.00    -0.744 OA
ENDBRANCH  91  92
ENDBRANCH  65  86
ENDBRANCH  39  40
ENDBRANCH  32  34
ENDBRANCH  31  32
ENDBRANCH  30  31
ENDBRANCH  29  30
ENDBRANCH  28  29
ENDBRANCH  27  28
ENDBRANCH   1  27
TORSDOF 25
ENDMDL
