MODEL 1
REMARK VINA RESULT:      -6.4      0.000      0.000
REMARK SMILES N#C/C(=C\c1ccc(Oc2ccccc2Cl)c([N+](=O)[O-])c1)C(=O)OCCOCCOCCOC(=O)c1ccc(-c2c3nc(c(-c4ccc(S(=O)(=O)[O-])cc4)c4ccc([nH]4)c(-c4ccc(S(=O)(=O)[O-])cc4)c4nc(c(-c5ccc(S(=O)(=O)[O-])cc5)c5ccc2[nH]5)C=C4)C=C3)cc1
REMARK SMILES IDX 28 1 27 2 26 3 25 4 24 5 22 6 23 7 3 8 4 9 2 10 1 11 5 12
REMARK SMILES IDX 6 13 21 14 7 15 17 16 8 17 18 18 19 19 20 20 9 21 10 22
REMARK SMILES IDX 11 23 15 24 12 25 14 26 16 27 13 28 29 29 30 30 31 31 32 32
REMARK SMILES IDX 33 33 34 34 35 35 36 36 37 37 95 38 38 39 94 40 39 41 40 42
REMARK SMILES IDX 41 43 88 44 42 45 93 46 87 47 89 48 43 49 92 50 86 51 85 52
REMARK SMILES IDX 44 54 74 55 55 56 73 57 56 58 59 59 72 60 90 61 57 62 58 63
REMARK SMILES IDX 71 65 91 66 60 67 45 68 46 69 54 70 47 71 53 72 48 73 49 74
REMARK SMILES IDX 50 75 51 76 52 77 75 78 76 79 84 80 77 81 83 82 78 83 79 84
REMARK SMILES IDX 80 85 81 86 82 87 61 88 62 89 70 90 63 91 69 92 64 93 65 94
REMARK SMILES IDX 66 95 67 96 68 97
REMARK H PARENT 89 53 59 64
REMARK Flexibility Score: inf
ROOT
ATOM      1  C   UNL A   1      34.967  34.340  31.984  1.00  0.00     0.188 C 
ENDROOT
BRANCH   1   2
ATOM      2  O   UNL A   1      36.226  33.966  31.456  1.00  0.00    -0.376 OA
BRANCH   2   3
ATOM      3  C   UNL A   1      36.332  33.171  30.286  1.00  0.00     0.202 C 
BRANCH   3   4
ATOM      4  C   UNL A   1      37.535  32.256  30.030  1.00  0.00     0.261 C 
BRANCH   4   5
ATOM      5  O   UNL A   1      37.517  31.650  28.732  1.00  0.00    -0.459 OA
BRANCH   5   6
ATOM      6  C   UNL A   1      36.984  30.405  28.698  1.00  0.00     0.348 C 
ATOM      7  O   UNL A   1      35.804  30.134  28.542  1.00  0.00    -0.245 OA
BRANCH   6   8
ATOM      8  C   UNL A   1      38.045  29.373  28.755  1.00  0.00     0.138 C 
ATOM      9  C   UNL A   1      39.125  29.530  27.950  1.00  0.00     0.035 C 
BRANCH   8  10
ATOM     10  C   UNL A   1      38.177  28.616  30.066  1.00  0.00     0.107 C 
ATOM     11  N   UNL A   1      38.288  27.988  31.153  1.00  0.00    -0.192 NA
ENDBRANCH   8  10
BRANCH   9  12
ATOM     12  C   UNL A   1      40.463  28.988  28.272  1.00  0.00    -0.017 A 
ATOM     13  C   UNL A   1      41.260  29.648  29.215  1.00  0.00     0.012 A 
ATOM     14  C   UNL A   1      40.904  27.759  27.780  1.00  0.00     0.098 A 
ATOM     15  C   UNL A   1      42.450  29.066  29.679  1.00  0.00     0.055 A 
ATOM     16  C   UNL A   1      42.038  27.136  28.334  1.00  0.00     0.312 A 
ATOM     17  C   UNL A   1      42.859  27.790  29.256  1.00  0.00     0.204 A 
BRANCH  16  18
ATOM     18  N   UNL A   1      42.172  25.733  27.993  1.00  0.00     0.066 N 
ATOM     19  O   UNL A   1      41.633  24.915  28.748  1.00  0.00    -0.258 OA
ATOM     20  O   UNL A   1      42.753  25.470  26.931  1.00  0.00    -0.258 OA
ENDBRANCH  16  18
BRANCH  17  21
ATOM     21  O   UNL A   1      44.038  27.394  29.853  1.00  0.00    -0.449 OA
BRANCH  21  22
ATOM     22  C   UNL A   1      45.032  26.798  29.119  1.00  0.00     0.146 A 
ATOM     23  C   UNL A   1      45.639  27.602  28.148  1.00  0.00     0.049 A 
ATOM     24  C   UNL A   1      45.432  25.465  29.272  1.00  0.00     0.083 A 
ATOM     25  C   UNL A   1      46.720  27.114  27.416  1.00  0.00     0.004 A 
ATOM     26  C   UNL A   1      46.534  24.991  28.559  1.00  0.00     0.024 A 
ATOM     27  Cl  UNL A   1      44.620  24.385  30.347  1.00  0.00    -0.080 Cl
ATOM     28  C   UNL A   1      47.186  25.820  27.642  1.00  0.00     0.002 A 
ENDBRANCH  21  22
ENDBRANCH  17  21
ENDBRANCH   9  12
ENDBRANCH   6   8
ENDBRANCH   5   6
ENDBRANCH   4   5
ENDBRANCH   3   4
ENDBRANCH   2   3
ENDBRANCH   1   2
BRANCH   1  29
ATOM     29  C   UNL A   1      34.798  34.567  33.503  1.00  0.00     0.188 C 
BRANCH  29  30
ATOM     30  O   UNL A   1      35.145  33.543  34.395  1.00  0.00    -0.376 OA
BRANCH  30  31
ATOM     31  C   UNL A   1      36.251  33.750  35.252  1.00  0.00     0.202 C 
BRANCH  31  32
ATOM     32  C   UNL A   1      37.571  32.945  35.200  1.00  0.00     0.261 C 
BRANCH  32  33
ATOM     33  O   UNL A   1      37.509  31.520  35.032  1.00  0.00    -0.460 OA
BRANCH  33  34
ATOM     34  C   UNL A   1      38.378  30.790  35.783  1.00  0.00     0.338 C 
ATOM     35  O   UNL A   1      38.107  30.162  36.799  1.00  0.00    -0.246 OA
BRANCH  34  36
ATOM     36  C   UNL A   1      39.665  30.651  35.064  1.00  0.00     0.060 A 
ATOM     37  C   UNL A   1      39.698  29.983  33.826  1.00  0.00     0.016 A 
ATOM     38  C   UNL A   1      40.840  31.154  35.618  1.00  0.00     0.016 A 
ATOM     39  C   UNL A   1      40.909  29.800  33.151  1.00  0.00     0.010 A 
ATOM     40  C   UNL A   1      42.055  30.940  34.957  1.00  0.00     0.010 A 
ATOM     41  C   UNL A   1      42.102  30.237  33.737  1.00  0.00    -0.014 A 
BRANCH  41  42
ATOM     42  C   UNL A   1      43.416  29.800  33.193  1.00  0.00     0.031 A 
ATOM     43  C   UNL A   1      44.123  30.709  32.220  1.00  0.00     0.074 A 
ATOM     44  C   UNL A   1      43.969  28.622  33.534  1.00  0.00     0.049 A 
ATOM     45  N   UNL A   1      45.219  30.505  31.536  1.00  0.00    -0.248 NA
ATOM     46  C   UNL A   1      43.502  32.023  31.980  1.00  0.00     0.031 C 
ATOM     47  C   UNL A   1      43.427  27.678  34.508  1.00  0.00     0.029 A 
ATOM     48  N   UNL A   1      45.116  28.013  33.079  1.00  0.00    -0.354 N 
ATOM     49  C   UNL A   1      45.406  31.650  30.770  1.00  0.00     0.074 A 
ATOM     50  C   UNL A   1      44.301  32.537  31.058  1.00  0.00     0.031 C 
ATOM     51  C   UNL A   1      44.234  26.603  34.571  1.00  0.00     0.029 A 
ATOM     52  C   UNL A   1      45.328  26.763  33.612  1.00  0.00     0.049 A 
ATOM     53  H   UNL A   1      45.727  28.433  32.431  1.00  0.00     0.167 HD
ATOM     54  C   UNL A   1      46.407  31.937  29.904  1.00  0.00     0.031 A 
ATOM     55  C   UNL A   1      46.279  25.845  33.342  1.00  0.00     0.031 A 
ATOM     56  C   UNL A   1      47.505  31.052  29.617  1.00  0.00     0.049 A 
ATOM     57  C   UNL A   1      47.337  26.157  32.311  1.00  0.00     0.074 A 
ATOM     58  C   UNL A   1      48.585  31.269  28.778  1.00  0.00     0.029 A 
ATOM     59  N   UNL A   1      47.662  29.783  30.151  1.00  0.00    -0.354 N 
ATOM     60  N   UNL A   1      47.517  27.255  31.614  1.00  0.00    -0.248 NA
ATOM     61  C   UNL A   1      48.325  25.103  32.033  1.00  0.00     0.031 C 
ATOM     62  C   UNL A   1      49.354  30.102  28.748  1.00  0.00     0.029 A 
ATOM     63  C   UNL A   1      48.798  29.188  29.629  1.00  0.00     0.049 A 
ATOM     64  H   UNL A   1      47.055  29.366  30.805  1.00  0.00     0.167 HD
ATOM     65  C   UNL A   1      48.661  27.038  30.850  1.00  0.00     0.074 A 
ATOM     66  C   UNL A   1      49.136  25.709  31.175  1.00  0.00     0.031 C 
ATOM     67  C   UNL A   1      49.267  27.867  29.963  1.00  0.00     0.031 A 
BRANCH  54  68
ATOM     68  C   UNL A   1      46.339  33.246  29.161  1.00  0.00    -0.014 A 
ATOM     69  C   UNL A   1      45.589  33.387  27.980  1.00  0.00     0.010 A 
ATOM     70  C   UNL A   1      46.994  34.373  29.692  1.00  0.00     0.010 A 
ATOM     71  C   UNL A   1      45.521  34.622  27.329  1.00  0.00     0.020 A 
ATOM     72  C   UNL A   1      46.903  35.616  29.061  1.00  0.00     0.020 A 
ATOM     73  C   UNL A   1      46.178  35.730  27.875  1.00  0.00     0.054 A 
BRANCH  73  74
ATOM     74  S   UNL A   1      46.038  37.329  27.029  1.00  0.00     0.124 S 
ATOM     75  O   UNL A   1      44.593  37.457  26.863  1.00  0.00    -0.237 OA
ATOM     76  O   UNL A   1      46.646  38.250  27.984  1.00  0.00    -0.237 OA
ATOM     77  O   UNL A   1      46.790  37.134  25.791  1.00  0.00    -0.744 OA
ENDBRANCH  73  74
ENDBRANCH  54  68
BRANCH  55  78
ATOM     78  C   UNL A   1      46.276  24.526  34.039  1.00  0.00    -0.014 A 
ATOM     79  C   UNL A   1      47.160  24.276  35.105  1.00  0.00     0.010 A 
ATOM     80  C   UNL A   1      45.412  23.498  33.619  1.00  0.00     0.010 A 
ATOM     81  C   UNL A   1      47.200  23.019  35.716  1.00  0.00     0.020 A 
ATOM     82  C   UNL A   1      45.427  22.250  34.249  1.00  0.00     0.020 A 
ATOM     83  C   UNL A   1      46.332  22.013  35.285  1.00  0.00     0.054 A 
BRANCH  83  84
ATOM     84  S   UNL A   1      46.381  20.399  36.114  1.00  0.00     0.124 S 
ATOM     85  O   UNL A   1      45.678  19.545  35.161  1.00  0.00    -0.237 OA
ATOM     86  O   UNL A   1      47.815  20.153  36.243  1.00  0.00    -0.237 OA
ATOM     87  O   UNL A   1      45.681  20.638  37.374  1.00  0.00    -0.744 OA
ENDBRANCH  83  84
ENDBRANCH  55  78
BRANCH  67  88
ATOM     88  C   UNL A   1      50.542  27.390  29.312  1.00  0.00    -0.014 A 
ATOM     89  C   UNL A   1      50.531  26.701  28.086  1.00  0.00     0.010 A 
ATOM     90  C   UNL A   1      51.779  27.697  29.910  1.00  0.00     0.010 A 
ATOM     91  C   UNL A   1      51.730  26.297  27.490  1.00  0.00     0.020 A 
ATOM     92  C   UNL A   1      52.981  27.325  29.302  1.00  0.00     0.020 A 
ATOM     93  C   UNL A   1      52.948  26.614  28.101  1.00  0.00     0.054 A 
BRANCH  93  94
ATOM     94  S   UNL A   1      54.490  26.118  27.285  1.00  0.00     0.124 S 
ATOM     95  O   UNL A   1      55.188  25.408  28.353  1.00  0.00    -0.237 OA
ATOM     96  O   UNL A   1      54.015  25.284  26.183  1.00  0.00    -0.237 OA
ATOM     97  O   UNL A   1      55.094  27.386  26.882  1.00  0.00    -0.744 OA
ENDBRANCH  93  94
ENDBRANCH  67  88
ENDBRANCH  41  42
ENDBRANCH  34  36
ENDBRANCH  33  34
ENDBRANCH  32  33
ENDBRANCH  31  32
ENDBRANCH  30  31
ENDBRANCH  29  30
ENDBRANCH   1  29
TORSDOF 25
ENDMDL
MODEL 2
REMARK VINA RESULT:      -5.9      7.076     14.898
REMARK SMILES N#C/C(=C\c1ccc(Oc2ccccc2Cl)c([N+](=O)[O-])c1)C(=O)OCCOCCOCCOC(=O)c1ccc(-c2c3nc(c(-c4ccc(S(=O)(=O)[O-])cc4)c4ccc([nH]4)c(-c4ccc(S(=O)(=O)[O-])cc4)c4nc(c(-c5ccc(S(=O)(=O)[O-])cc5)c5ccc2[nH]5)C=C4)C=C3)cc1
REMARK SMILES IDX 28 1 27 2 26 3 25 4 24 5 22 6 23 7 3 8 4 9 2 10 1 11 5 12
REMARK SMILES IDX 6 13 21 14 7 15 17 16 8 17 18 18 19 19 20 20 9 21 10 22
REMARK SMILES IDX 11 23 15 24 12 25 14 26 16 27 13 28 29 29 30 30 31 31 32 32
REMARK SMILES IDX 33 33 34 34 35 35 36 36 37 37 95 38 38 39 94 40 39 41 40 42
REMARK SMILES IDX 41 43 88 44 42 45 93 46 87 47 89 48 43 49 92 50 86 51 85 52
REMARK SMILES IDX 44 54 74 55 55 56 73 57 56 58 59 59 72 60 90 61 57 62 58 63
REMARK SMILES IDX 71 65 91 66 60 67 45 68 46 69 54 70 47 71 53 72 48 73 49 74
REMARK SMILES IDX 50 75 51 76 52 77 75 78 76 79 84 80 77 81 83 82 78 83 79 84
REMARK SMILES IDX 80 85 81 86 82 87 61 88 62 89 70 90 63 91 69 92 64 93 65 94
REMARK SMILES IDX 66 95 67 96 68 97
REMARK H PARENT 89 53 59 64
REMARK Flexibility Score: inf
ROOT
ATOM      1  C   UNL A   1      47.869  22.760  39.491  1.00  0.00     0.188 C 
ENDROOT
BRANCH   1   2
ATOM      2  O   UNL A   1      47.975  22.097  38.244  1.00  0.00    -0.376 OA
BRANCH   2   3
ATOM      3  C   UNL A   1      48.678  20.872  38.116  1.00  0.00     0.202 C 
BRANCH   3   4
ATOM      4  C   UNL A   1      48.583  19.764  39.171  1.00  0.00     0.261 C 
BRANCH   4   5
ATOM      5  O   UNL A   1      47.802  18.642  38.744  1.00  0.00    -0.459 OA
BRANCH   5   6
ATOM      6  C   UNL A   1      46.505  18.675  39.136  1.00  0.00     0.348 C 
ATOM      7  O   UNL A   1      45.672  19.497  38.791  1.00  0.00    -0.245 OA
BRANCH   6   8
ATOM      8  C   UNL A   1      46.173  17.493  39.964  1.00  0.00     0.138 C 
ATOM      9  C   UNL A   1      46.490  17.534  41.282  1.00  0.00     0.035 C 
BRANCH   8  10
ATOM     10  C   UNL A   1      45.002  16.647  39.491  1.00  0.00     0.107 C 
ATOM     11  N   UNL A   1      44.033  15.945  39.098  1.00  0.00    -0.192 NA
ENDBRANCH   8  10
BRANCH   9  12
ATOM     12  C   UNL A   1      45.755  16.778  42.319  1.00  0.00    -0.017 A 
ATOM     13  C   UNL A   1      44.361  16.679  42.234  1.00  0.00     0.012 A 
ATOM     14  C   UNL A   1      46.410  16.034  43.300  1.00  0.00     0.098 A 
ATOM     15  C   UNL A   1      43.651  15.821  43.090  1.00  0.00     0.055 A 
ATOM     16  C   UNL A   1      45.702  15.096  44.074  1.00  0.00     0.312 A 
ATOM     17  C   UNL A   1      44.309  15.001  44.022  1.00  0.00     0.204 A 
BRANCH  16  18
ATOM     18  N   UNL A   1      46.543  14.153  44.784  1.00  0.00     0.066 N 
ATOM     19  O   UNL A   1      46.725  13.049  44.256  1.00  0.00    -0.258 OA
ATOM     20  O   UNL A   1      47.075  14.555  45.828  1.00  0.00    -0.258 OA
ENDBRANCH  16  18
BRANCH  17  21
ATOM     21  O   UNL A   1      43.431  14.218  44.741  1.00  0.00    -0.449 OA
BRANCH  21  22
ATOM     22  C   UNL A   1      43.250  12.895  44.429  1.00  0.00     0.146 A 
ATOM     23  C   UNL A   1      42.570  12.637  43.233  1.00  0.00     0.049 A 
ATOM     24  C   UNL A   1      43.674  11.831  45.235  1.00  0.00     0.083 A 
ATOM     25  C   UNL A   1      42.421  11.326  42.786  1.00  0.00     0.004 A 
ATOM     26  C   UNL A   1      43.549  10.522  44.768  1.00  0.00     0.024 A 
ATOM     27  Cl  UNL A   1      44.383  12.088  46.788  1.00  0.00    -0.080 Cl
ATOM     28  C   UNL A   1      42.935  10.271  43.537  1.00  0.00     0.002 A 
ENDBRANCH  21  22
ENDBRANCH  17  21
ENDBRANCH   9  12
ENDBRANCH   6   8
ENDBRANCH   5   6
ENDBRANCH   4   5
ENDBRANCH   3   4
ENDBRANCH   2   3
ENDBRANCH   1   2
BRANCH   1  29
ATOM     29  C   UNL A   1      48.403  24.201  39.651  1.00  0.00     0.188 C 
BRANCH  29  30
ATOM     30  O   UNL A   1      49.775  24.447  39.507  1.00  0.00    -0.376 OA
BRANCH  30  31
ATOM     31  C   UNL A   1      50.279  25.695  39.943  1.00  0.00     0.202 C 
BRANCH  31  32
ATOM     32  C   UNL A   1      49.847  27.067  39.376  1.00  0.00     0.261 C 
BRANCH  32  33
ATOM     33  O   UNL A   1      48.622  27.156  38.631  1.00  0.00    -0.460 OA
BRANCH  33  34
ATOM     34  C   UNL A   1      47.698  28.037  39.103  1.00  0.00     0.338 C 
ATOM     35  O   UNL A   1      47.748  28.639  40.169  1.00  0.00    -0.246 OA
BRANCH  34  36
ATOM     36  C   UNL A   1      46.730  28.367  38.032  1.00  0.00     0.060 A 
ATOM     37  C   UNL A   1      47.090  29.289  37.033  1.00  0.00     0.016 A 
ATOM     38  C   UNL A   1      45.462  27.790  38.026  1.00  0.00     0.016 A 
ATOM     39  C   UNL A   1      46.175  29.649  36.038  1.00  0.00     0.010 A 
ATOM     40  C   UNL A   1      44.537  28.178  37.049  1.00  0.00     0.010 A 
ATOM     41  C   UNL A   1      44.876  29.130  36.068  1.00  0.00    -0.014 A 
BRANCH  41  42
ATOM     42  C   UNL A   1      43.808  29.712  35.212  1.00  0.00     0.031 A 
ATOM     43  C   UNL A   1      42.919  30.776  35.806  1.00  0.00     0.074 A 
ATOM     44  C   UNL A   1      43.611  29.302  33.946  1.00  0.00     0.049 A 
ATOM     45  N   UNL A   1      41.863  31.355  35.297  1.00  0.00    -0.248 NA
ATOM     46  C   UNL A   1      43.266  31.240  37.160  1.00  0.00     0.031 C 
ATOM     47  C   UNL A   1      44.432  28.330  33.230  1.00  0.00     0.029 A 
ATOM     48  N   UNL A   1      42.636  29.651  33.040  1.00  0.00    -0.354 N 
ATOM     49  C   UNL A   1      41.406  32.233  36.275  1.00  0.00     0.074 A 
ATOM     50  C   UNL A   1      42.288  32.095  37.413  1.00  0.00     0.031 C 
ATOM     51  C   UNL A   1      43.922  28.152  31.996  1.00  0.00     0.029 A 
ATOM     52  C   UNL A   1      42.715  28.965  31.851  1.00  0.00     0.049 A 
ATOM     53  H   UNL A   1      41.947  30.329  33.226  1.00  0.00     0.167 HD
ATOM     54  C   UNL A   1      40.347  33.076  36.230  1.00  0.00     0.031 A 
ATOM     55  C   UNL A   1      41.896  28.973  30.779  1.00  0.00     0.031 A 
ATOM     56  C   UNL A   1      39.470  33.211  35.097  1.00  0.00     0.049 A 
ATOM     57  C   UNL A   1      40.675  29.862  30.787  1.00  0.00     0.074 A 
ATOM     58  C   UNL A   1      38.389  34.063  34.946  1.00  0.00     0.029 A 
ATOM     59  N   UNL A   1      39.563  32.471  33.929  1.00  0.00    -0.354 N 
ATOM     60  N   UNL A   1      40.271  30.707  31.707  1.00  0.00    -0.248 NA
ATOM     61  C   UNL A   1      39.800  29.800  29.606  1.00  0.00     0.031 C 
ATOM     62  C   UNL A   1      37.785  33.786  33.716  1.00  0.00     0.029 A 
ATOM     63  C   UNL A   1      38.536  32.818  33.067  1.00  0.00     0.049 A 
ATOM     64  H   UNL A   1      40.258  31.800  33.739  1.00  0.00     0.167 HD
ATOM     65  C   UNL A   1      39.122  31.305  31.196  1.00  0.00     0.074 A 
ATOM     66  C   UNL A   1      38.899  30.734  29.885  1.00  0.00     0.031 C 
ATOM     67  C   UNL A   1      38.325  32.248  31.761  1.00  0.00     0.031 A 
BRANCH  54  68
ATOM     68  C   UNL A   1      40.045  33.891  37.461  1.00  0.00    -0.014 A 
ATOM     69  C   UNL A   1      40.534  35.200  37.619  1.00  0.00     0.010 A 
ATOM     70  C   UNL A   1      39.204  33.351  38.453  1.00  0.00     0.010 A 
ATOM     71  C   UNL A   1      40.212  35.942  38.760  1.00  0.00     0.020 A 
ATOM     72  C   UNL A   1      38.855  34.101  39.580  1.00  0.00     0.020 A 
ATOM     73  C   UNL A   1      39.373  35.388  39.732  1.00  0.00     0.054 A 
BRANCH  73  74
ATOM     74  S   UNL A   1      38.941  36.390  41.182  1.00  0.00     0.124 S 
ATOM     75  O   UNL A   1      38.035  35.501  41.904  1.00  0.00    -0.237 OA
ATOM     76  O   UNL A   1      40.238  36.614  41.813  1.00  0.00    -0.237 OA
ATOM     77  O   UNL A   1      38.317  37.580  40.608  1.00  0.00    -0.744 OA
ENDBRANCH  73  74
ENDBRANCH  54  68
BRANCH  55  78
ATOM     78  C   UNL A   1      42.179  28.099  29.604  1.00  0.00    -0.014 A 
ATOM     79  C   UNL A   1      42.972  28.563  28.539  1.00  0.00     0.010 A 
ATOM     80  C   UNL A   1      41.629  26.806  29.527  1.00  0.00     0.010 A 
ATOM     81  C   UNL A   1      43.186  27.766  27.410  1.00  0.00     0.020 A 
ATOM     82  C   UNL A   1      41.867  25.993  28.414  1.00  0.00     0.020 A 
ATOM     83  C   UNL A   1      42.633  26.484  27.355  1.00  0.00     0.054 A 
BRANCH  83  84
ATOM     84  S   UNL A   1      42.948  25.456  25.893  1.00  0.00     0.124 S 
ATOM     85  O   UNL A   1      42.190  24.247  26.201  1.00  0.00    -0.237 OA
ATOM     86  O   UNL A   1      42.415  26.276  24.808  1.00  0.00    -0.237 OA
ATOM     87  O   UNL A   1      44.401  25.299  25.890  1.00  0.00    -0.744 OA
ENDBRANCH  83  84
ENDBRANCH  55  78
BRANCH  67  88
ATOM     88  C   UNL A   1      37.164  32.766  30.949  1.00  0.00    -0.014 A 
ATOM     89  C   UNL A   1      35.835  32.615  31.383  1.00  0.00     0.010 A 
ATOM     90  C   UNL A   1      37.415  33.474  29.758  1.00  0.00     0.010 A 
ATOM     91  C   UNL A   1      34.779  33.132  30.626  1.00  0.00     0.020 A 
ATOM     92  C   UNL A   1      36.366  34.021  29.015  1.00  0.00     0.020 A 
ATOM     93  C   UNL A   1      35.052  33.834  29.446  1.00  0.00     0.054 A 
BRANCH  93  94
ATOM     94  S   UNL A   1      33.667  34.532  28.506  1.00  0.00     0.124 S 
ATOM     95  O   UNL A   1      33.359  33.456  27.569  1.00  0.00    -0.237 OA
ATOM     96  O   UNL A   1      32.664  34.769  29.541  1.00  0.00    -0.237 OA
ATOM     97  O   UNL A   1      34.229  35.739  27.904  1.00  0.00    -0.744 OA
ENDBRANCH  93  94
ENDBRANCH  67  88
ENDBRANCH  41  42
ENDBRANCH  34  36
ENDBRANCH  33  34
ENDBRANCH  32  33
ENDBRANCH  31  32
ENDBRANCH  30  31
ENDBRANCH  29  30
ENDBRANCH   1  29
TORSDOF 25
ENDMDL
MODEL 3
REMARK VINA RESULT:      -5.8      4.728      9.380
REMARK SMILES N#C/C(=C\c1ccc(Oc2ccccc2Cl)c([N+](=O)[O-])c1)C(=O)OCCOCCOCCOC(=O)c1ccc(-c2c3nc(c(-c4ccc(S(=O)(=O)[O-])cc4)c4ccc([nH]4)c(-c4ccc(S(=O)(=O)[O-])cc4)c4nc(c(-c5ccc(S(=O)(=O)[O-])cc5)c5ccc2[nH]5)C=C4)C=C3)cc1
REMARK SMILES IDX 28 1 27 2 26 3 25 4 24 5 22 6 23 7 3 8 4 9 2 10 1 11 5 12
REMARK SMILES IDX 6 13 21 14 7 15 17 16 8 17 18 18 19 19 20 20 9 21 10 22
REMARK SMILES IDX 11 23 15 24 12 25 14 26 16 27 13 28 29 29 30 30 31 31 32 32
REMARK SMILES IDX 33 33 34 34 35 35 36 36 37 37 95 38 38 39 94 40 39 41 40 42
REMARK SMILES IDX 41 43 88 44 42 45 93 46 87 47 89 48 43 49 92 50 86 51 85 52
REMARK SMILES IDX 44 54 74 55 55 56 73 57 56 58 59 59 72 60 90 61 57 62 58 63
REMARK SMILES IDX 71 65 91 66 60 67 45 68 46 69 54 70 47 71 53 72 48 73 49 74
REMARK SMILES IDX 50 75 51 76 52 77 75 78 76 79 84 80 77 81 83 82 78 83 79 84
REMARK SMILES IDX 80 85 81 86 82 87 61 88 62 89 70 90 63 91 69 92 64 93 65 94
REMARK SMILES IDX 66 95 67 96 68 97
REMARK H PARENT 89 53 59 64
REMARK Flexibility Score: inf
ROOT
ATOM      1  C   UNL A   1      38.896  34.573  32.467  1.00  0.00     0.188 C 
ENDROOT
BRANCH   1   2
ATOM      2  O   UNL A   1      39.733  34.113  31.423  1.00  0.00    -0.376 OA
BRANCH   2   3
ATOM      3  C   UNL A   1      41.128  34.368  31.426  1.00  0.00     0.202 C 
BRANCH   3   4
ATOM      4  C   UNL A   1      42.098  33.606  30.515  1.00  0.00     0.261 C 
BRANCH   4   5
ATOM      5  O   UNL A   1      43.388  34.221  30.423  1.00  0.00    -0.459 OA
BRANCH   5   6
ATOM      6  C   UNL A   1      44.035  34.002  29.253  1.00  0.00     0.348 C 
ATOM      7  O   UNL A   1      44.190  32.920  28.710  1.00  0.00    -0.245 OA
BRANCH   6   8
ATOM      8  C   UNL A   1      44.446  35.280  28.628  1.00  0.00     0.138 C 
ATOM      9  C   UNL A   1      43.775  35.689  27.522  1.00  0.00     0.035 C 
BRANCH   8  10
ATOM     10  C   UNL A   1      45.087  36.305  29.549  1.00  0.00     0.107 C 
ATOM     11  N   UNL A   1      45.618  37.154  30.314  1.00  0.00    -0.192 NA
ENDBRANCH   8  10
BRANCH   9  12
ATOM     12  C   UNL A   1      43.630  37.110  27.139  1.00  0.00    -0.017 A 
ATOM     13  C   UNL A   1      42.437  37.779  27.432  1.00  0.00     0.012 A 
ATOM     14  C   UNL A   1      44.694  37.853  26.627  1.00  0.00     0.098 A 
ATOM     15  C   UNL A   1      42.331  39.168  27.252  1.00  0.00     0.055 A 
ATOM     16  C   UNL A   1      44.614  39.256  26.557  1.00  0.00     0.312 A 
ATOM     17  C   UNL A   1      43.424  39.939  26.821  1.00  0.00     0.204 A 
BRANCH  16  18
ATOM     18  N   UNL A   1      45.889  39.916  26.354  1.00  0.00     0.066 N 
ATOM     19  O   UNL A   1      46.608  40.073  27.349  1.00  0.00    -0.258 OA
ATOM     20  O   UNL A   1      46.190  40.204  25.188  1.00  0.00    -0.258 OA
ENDBRANCH  16  18
BRANCH  17  21
ATOM     21  O   UNL A   1      43.116  41.281  26.737  1.00  0.00    -0.449 OA
BRANCH  21  22
ATOM     22  C   UNL A   1      43.003  41.902  25.519  1.00  0.00     0.146 A 
ATOM     23  C   UNL A   1      42.007  41.405  24.671  1.00  0.00     0.049 A 
ATOM     24  C   UNL A   1      43.827  42.950  25.091  1.00  0.00     0.083 A 
ATOM     25  C   UNL A   1      41.755  42.031  23.452  1.00  0.00     0.004 A 
ATOM     26  C   UNL A   1      43.551  43.592  23.883  1.00  0.00     0.024 A 
ATOM     27  Cl  UNL A   1      45.166  43.503  26.031  1.00  0.00    -0.080 Cl
ATOM     28  C   UNL A   1      42.506  43.141  23.071  1.00  0.00     0.002 A 
ENDBRANCH  21  22
ENDBRANCH  17  21
ENDBRANCH   9  12
ENDBRANCH   6   8
ENDBRANCH   5   6
ENDBRANCH   4   5
ENDBRANCH   3   4
ENDBRANCH   2   3
ENDBRANCH   1   2
BRANCH   1  29
ATOM     29  C   UNL A   1      37.359  34.511  32.313  1.00  0.00     0.188 C 
BRANCH  29  30
ATOM     30  O   UNL A   1      36.803  33.833  31.220  1.00  0.00    -0.376 OA
BRANCH  30  31
ATOM     31  C   UNL A   1      35.401  33.647  31.194  1.00  0.00     0.202 C 
BRANCH  31  32
ATOM     32  C   UNL A   1      34.575  33.342  29.922  1.00  0.00     0.261 C 
BRANCH  32  33
ATOM     33  O   UNL A   1      34.341  31.972  29.558  1.00  0.00    -0.460 OA
BRANCH  33  34
ATOM     34  C   UNL A   1      34.960  31.539  28.426  1.00  0.00     0.338 C 
ATOM     35  O   UNL A   1      34.662  31.841  27.277  1.00  0.00    -0.246 OA
BRANCH  34  36
ATOM     36  C   UNL A   1      36.217  30.841  28.780  1.00  0.00     0.060 A 
ATOM     37  C   UNL A   1      36.162  29.657  29.538  1.00  0.00     0.016 A 
ATOM     38  C   UNL A   1      37.448  31.363  28.389  1.00  0.00     0.016 A 
ATOM     39  C   UNL A   1      37.339  29.006  29.922  1.00  0.00     0.010 A 
ATOM     40  C   UNL A   1      38.624  30.728  28.803  1.00  0.00     0.010 A 
ATOM     41  C   UNL A   1      38.579  29.565  29.595  1.00  0.00    -0.014 A 
BRANCH  41  42
ATOM     42  C   UNL A   1      39.827  29.064  30.233  1.00  0.00     0.031 A 
ATOM     43  C   UNL A   1      40.302  29.737  31.496  1.00  0.00     0.074 A 
ATOM     44  C   UNL A   1      40.537  28.051  29.704  1.00  0.00     0.049 A 
ATOM     45  N   UNL A   1      41.405  29.550  32.174  1.00  0.00    -0.248 NA
ATOM     46  C   UNL A   1      39.414  30.766  32.064  1.00  0.00     0.031 C 
ATOM     47  C   UNL A   1      40.161  27.273  28.527  1.00  0.00     0.029 A 
ATOM     48  N   UNL A   1      41.742  27.512  30.092  1.00  0.00    -0.354 N 
ATOM     49  C   UNL A   1      41.355  30.452  33.231  1.00  0.00     0.074 A 
ATOM     50  C   UNL A   1      40.124  31.198  33.095  1.00  0.00     0.031 C 
ATOM     51  C   UNL A   1      41.121  26.362  28.281  1.00  0.00     0.029 A 
ATOM     52  C   UNL A   1      42.199  26.520  29.257  1.00  0.00     0.049 A 
ATOM     53  H   UNL A   1      42.231  27.810  30.893  1.00  0.00     0.167 HD
ATOM     54  C   UNL A   1      42.255  30.642  34.226  1.00  0.00     0.031 A 
ATOM     55  C   UNL A   1      43.361  25.835  29.265  1.00  0.00     0.031 A 
ATOM     56  C   UNL A   1      43.481  29.900  34.360  1.00  0.00     0.049 A 
ATOM     57  C   UNL A   1      44.384  26.123  30.338  1.00  0.00     0.074 A 
ATOM     58  C   UNL A   1      44.440  29.999  35.352  1.00  0.00     0.029 A 
ATOM     59  N   UNL A   1      43.921  28.930  33.472  1.00  0.00    -0.354 N 
ATOM     60  N   UNL A   1      44.312  26.959  31.348  1.00  0.00    -0.248 NA
ATOM     61  C   UNL A   1      45.646  25.371  30.273  1.00  0.00     0.031 C 
ATOM     62  C   UNL A   1      45.495  29.143  35.026  1.00  0.00     0.029 A 
ATOM     63  C   UNL A   1      45.158  28.452  33.873  1.00  0.00     0.049 A 
ATOM     64  H   UNL A   1      43.428  28.626  32.676  1.00  0.00     0.167 HD
ATOM     65  C   UNL A   1      45.499  26.801  32.059  1.00  0.00     0.074 A 
ATOM     66  C   UNL A   1      46.267  25.785  31.370  1.00  0.00     0.031 C 
ATOM     67  C   UNL A   1      45.913  27.436  33.184  1.00  0.00     0.031 A 
BRANCH  54  68
ATOM     68  C   UNL A   1      41.973  31.732  35.228  1.00  0.00    -0.014 A 
ATOM     69  C   UNL A   1      42.574  32.999  35.129  1.00  0.00     0.010 A 
ATOM     70  C   UNL A   1      41.042  31.496  36.257  1.00  0.00     0.010 A 
ATOM     71  C   UNL A   1      42.270  34.000  36.058  1.00  0.00     0.020 A 
ATOM     72  C   UNL A   1      40.713  32.503  37.168  1.00  0.00     0.020 A 
ATOM     73  C   UNL A   1      41.340  33.745  37.071  1.00  0.00     0.054 A 
BRANCH  73  74
ATOM     74  S   UNL A   1      40.937  35.076  38.236  1.00  0.00     0.124 S 
ATOM     75  O   UNL A   1      42.262  35.561  38.610  1.00  0.00    -0.237 OA
ATOM     76  O   UNL A   1      40.141  35.987  37.418  1.00  0.00    -0.237 OA
ATOM     77  O   UNL A   1      40.201  34.395  39.300  1.00  0.00    -0.744 OA
ENDBRANCH  73  74
ENDBRANCH  54  68
BRANCH  55  78
ATOM     78  C   UNL A   1      43.645  24.814  28.214  1.00  0.00    -0.014 A 
ATOM     79  C   UNL A   1      44.319  25.171  27.032  1.00  0.00     0.010 A 
ATOM     80  C   UNL A   1      43.213  23.485  28.374  1.00  0.00     0.010 A 
ATOM     81  C   UNL A   1      44.529  24.228  26.020  1.00  0.00     0.020 A 
ATOM     82  C   UNL A   1      43.450  22.531  27.379  1.00  0.00     0.020 A 
ATOM     83  C   UNL A   1      44.094  22.913  26.201  1.00  0.00     0.054 A 
BRANCH  83  84
ATOM     84  S   UNL A   1      44.405  21.699  24.888  1.00  0.00     0.124 S 
ATOM     85  O   UNL A   1      43.468  20.633  25.229  1.00  0.00    -0.237 OA
ATOM     86  O   UNL A   1      44.089  22.454  23.678  1.00  0.00    -0.237 OA
ATOM     87  O   UNL A   1      45.819  21.367  25.054  1.00  0.00    -0.744 OA
ENDBRANCH  83  84
ENDBRANCH  55  78
BRANCH  67  88
ATOM     88  C   UNL A   1      47.235  27.021  33.781  1.00  0.00    -0.014 A 
ATOM     89  C   UNL A   1      48.433  27.678  33.448  1.00  0.00     0.010 A 
ATOM     90  C   UNL A   1      47.267  25.992  34.742  1.00  0.00     0.010 A 
ATOM     91  C   UNL A   1      49.640  27.292  34.038  1.00  0.00     0.020 A 
ATOM     92  C   UNL A   1      48.465  25.625  35.359  1.00  0.00     0.020 A 
ATOM     93  C   UNL A   1      49.648  26.269  34.993  1.00  0.00     0.054 A 
BRANCH  93  94
ATOM     94  S   UNL A   1      51.221  25.818  35.777  1.00  0.00     0.124 S 
ATOM     95  O   UNL A   1      51.544  24.558  35.112  1.00  0.00    -0.237 OA
ATOM     96  O   UNL A   1      52.083  26.947  35.437  1.00  0.00    -0.237 OA
ATOM     97  O   UNL A   1      50.883  25.705  37.194  1.00  0.00    -0.744 OA
ENDBRANCH  93  94
ENDBRANCH  67  88
ENDBRANCH  41  42
ENDBRANCH  34  36
ENDBRANCH  33  34
ENDBRANCH  32  33
ENDBRANCH  31  32
ENDBRANCH  30  31
ENDBRANCH  29  30
ENDBRANCH   1  29
TORSDOF 25
ENDMDL
