MODEL 1
REMARK VINA RESULT:     -11.0      0.000      0.000
REMARK SMILES O=C(NC1(C(=O)OCCOCCOCCOC(=O)c2ccc(-c3c4nc(c(-c5ccc(S(=O)(=O)[O-])cc5)c5ccc([nH]5)c(-c5ccc(S(=O)(=O)[O-])cc5)c5nc(c(-c6ccc(S(=O)(=O)[O-])cc6)c6ccc3[nH]6)C=C5)C=C4)cc2)Cc2ccccc2C1)OCC1c2ccccc2-c2ccccc21
REMARK SMILES IDX 11 1 10 2 9 3 8 4 7 5 5 6 6 7 4 8 79 9 86 10 80 11 85 12
REMARK SMILES IDX 81 13 84 14 82 15 83 16 3 17 1 18 2 19 87 21 88 22 89 23
REMARK SMILES IDX 90 24 101 25 91 26 95 27 96 28 100 29 92 30 94 31 97 32
REMARK SMILES IDX 99 33 93 34 98 35 12 36 13 37 14 38 15 39 16 40 17 41 18 42
REMARK SMILES IDX 19 43 20 44 78 45 21 46 77 47 22 48 23 49 24 50 71 51 25 52
REMARK SMILES IDX 76 53 70 54 72 55 26 56 75 57 69 58 68 59 27 61 57 62 38 63
REMARK SMILES IDX 56 64 39 65 42 66 55 67 73 68 40 69 41 70 54 72 74 73 43 74
REMARK SMILES IDX 28 75 29 76 37 77 30 78 36 79 31 80 32 81 33 82 34 83 35 84
REMARK SMILES IDX 58 85 59 86 67 87 60 88 66 89 61 90 62 91 63 92 64 93 65 94
REMARK SMILES IDX 44 95 45 96 53 97 46 98 52 99 47 100 48 101 49 102 50 103
REMARK SMILES IDX 51 104
REMARK H PARENT 3 20 72 60 42 71
REMARK Flexibility Score: inf
ROOT
ATOM      1  C   UNL A   1      34.418  32.762  28.001  1.00  0.00     0.188 C 
ENDROOT
BRANCH   1   2
ATOM      2  O   UNL A   1      33.837  31.468  28.122  1.00  0.00    -0.376 OA
BRANCH   2   3
ATOM      3  C   UNL A   1      32.741  31.229  27.248  1.00  0.00     0.202 C 
BRANCH   3   4
ATOM      4  C   UNL A   1      32.736  29.853  26.570  1.00  0.00     0.261 C 
BRANCH   4   5
ATOM      5  O   UNL A   1      31.447  29.197  26.485  1.00  0.00    -0.461 OA
BRANCH   5   6
ATOM      6  C   UNL A   1      31.380  27.930  26.941  1.00  0.00     0.332 C 
ATOM      7  O   UNL A   1      31.273  27.675  28.143  1.00  0.00    -0.249 OA
BRANCH   6   8
ATOM      8  C   UNL A   1      31.382  26.772  25.886  1.00  0.00     0.149 C 
ATOM      9  C   UNL A   1      32.922  26.495  25.686  1.00  0.00     0.076 C 
ATOM     10  C   UNL A   1      30.908  26.718  24.415  1.00  0.00     0.076 C 
ATOM     11  C   UNL A   1      33.195  27.069  24.301  1.00  0.00    -0.042 A 
ATOM     12  C   UNL A   1      32.044  27.021  23.543  1.00  0.00    -0.042 A 
ATOM     13  C   UNL A   1      34.309  27.628  23.713  1.00  0.00     0.004 A 
ATOM     14  C   UNL A   1      31.949  27.346  22.198  1.00  0.00     0.004 A 
ATOM     15  C   UNL A   1      34.231  28.060  22.369  1.00  0.00     0.000 A 
ATOM     16  C   UNL A   1      33.067  27.886  21.602  1.00  0.00     0.000 A 
BRANCH   8  17
ATOM     17  N   UNL A   1      30.483  25.815  26.563  1.00  0.00    -0.305 N 
ATOM     18  O   UNL A   1      30.312  23.665  27.394  1.00  0.00    -0.225 OA
ATOM     19  C   UNL A   1      30.870  24.487  26.667  1.00  0.00     0.408 C 
ATOM     20  H   UNL A   1      29.622  26.115  26.935  1.00  0.00     0.168 HD
BRANCH  19  21
ATOM     21  O   UNL A   1      31.964  24.193  25.903  1.00  0.00    -0.449 OA
BRANCH  21  22
ATOM     22  C   UNL A   1      32.080  22.855  25.372  1.00  0.00     0.248 C 
BRANCH  22  23
ATOM     23  C   UNL A   1      33.434  22.600  24.613  1.00  0.00     0.088 C 
ATOM     24  C   UNL A   1      34.886  22.724  25.175  1.00  0.00    -0.029 A 
ATOM     25  C   UNL A   1      33.440  21.123  24.213  1.00  0.00    -0.029 A 
ATOM     26  C   UNL A   1      35.623  23.792  25.661  1.00  0.00     0.005 A 
ATOM     27  C   UNL A   1      35.584  21.524  24.975  1.00  0.00    -0.014 A 
ATOM     28  C   UNL A   1      34.634  20.509  24.622  1.00  0.00    -0.014 A 
ATOM     29  C   UNL A   1      32.404  20.385  23.675  1.00  0.00     0.005 A 
ATOM     30  C   UNL A   1      37.019  23.742  25.768  1.00  0.00     0.000 A 
ATOM     31  C   UNL A   1      36.978  21.464  25.013  1.00  0.00     0.009 A 
ATOM     32  C   UNL A   1      34.692  19.142  24.780  1.00  0.00     0.009 A 
ATOM     33  C   UNL A   1      32.479  19.002  23.776  1.00  0.00     0.000 A 
ATOM     34  C   UNL A   1      37.703  22.601  25.372  1.00  0.00     0.001 A 
ATOM     35  C   UNL A   1      33.583  18.390  24.390  1.00  0.00     0.001 A 
ENDBRANCH  22  23
ENDBRANCH  21  22
ENDBRANCH  19  21
ENDBRANCH   8  17
ENDBRANCH   6   8
ENDBRANCH   5   6
ENDBRANCH   4   5
ENDBRANCH   3   4
ENDBRANCH   2   3
ENDBRANCH   1   2
BRANCH   1  36
ATOM     36  C   UNL A   1      33.938  33.763  29.054  1.00  0.00     0.188 C 
BRANCH  36  37
ATOM     37  O   UNL A   1      34.243  33.381  30.389  1.00  0.00    -0.376 OA
BRANCH  37  38
ATOM     38  C   UNL A   1      35.256  32.390  30.564  1.00  0.00     0.202 C 
BRANCH  38  39
ATOM     39  C   UNL A   1      35.740  31.981  31.976  1.00  0.00     0.261 C 
BRANCH  39  40
ATOM     40  O   UNL A   1      36.448  30.734  32.029  1.00  0.00    -0.460 OA
BRANCH  40  41
ATOM     41  C   UNL A   1      37.661  30.782  32.630  1.00  0.00     0.338 C 
ATOM     42  O   UNL A   1      37.902  31.025  33.799  1.00  0.00    -0.246 OA
BRANCH  41  43
ATOM     43  C   UNL A   1      38.683  30.267  31.701  1.00  0.00     0.060 A 
ATOM     44  C   UNL A   1      39.791  29.616  32.255  1.00  0.00     0.016 A 
ATOM     45  C   UNL A   1      38.601  30.470  30.330  1.00  0.00     0.016 A 
ATOM     46  C   UNL A   1      40.854  29.199  31.463  1.00  0.00     0.010 A 
ATOM     47  C   UNL A   1      39.671  30.062  29.528  1.00  0.00     0.010 A 
ATOM     48  C   UNL A   1      40.816  29.462  30.094  1.00  0.00    -0.014 A 
BRANCH  48  49
ATOM     49  C   UNL A   1      42.032  29.310  29.261  1.00  0.00     0.031 A 
ATOM     50  C   UNL A   1      42.290  27.962  28.649  1.00  0.00     0.074 A 
ATOM     51  C   UNL A   1      42.897  30.322  29.081  1.00  0.00     0.049 A 
ATOM     52  N   UNL A   1      43.390  27.472  28.146  1.00  0.00    -0.248 NA
ATOM     53  C   UNL A   1      41.146  27.032  28.623  1.00  0.00     0.031 C 
ATOM     54  C   UNL A   1      42.695  31.704  29.515  1.00  0.00     0.029 A 
ATOM     55  N   UNL A   1      44.143  30.329  28.504  1.00  0.00    -0.354 N 
ATOM     56  C   UNL A   1      43.089  26.160  27.798  1.00  0.00     0.074 A 
ATOM     57  C   UNL A   1      41.704  25.930  28.146  1.00  0.00     0.031 C 
ATOM     58  C   UNL A   1      43.796  32.418  29.222  1.00  0.00     0.029 A 
ATOM     59  C   UNL A   1      44.800  31.529  28.644  1.00  0.00     0.049 A 
ATOM     60  H   UNL A   1      44.527  29.552  28.037  1.00  0.00     0.167 HD
ATOM     61  C   UNL A   1      43.907  25.229  27.252  1.00  0.00     0.031 A 
ATOM     62  C   UNL A   1      46.084  31.850  28.390  1.00  0.00     0.031 A 
ATOM     63  C   UNL A   1      45.281  25.490  26.911  1.00  0.00     0.049 A 
ATOM     64  C   UNL A   1      47.006  30.776  27.866  1.00  0.00     0.074 A 
ATOM     65  C   UNL A   1      46.213  24.630  26.362  1.00  0.00     0.029 A 
ATOM     66  N   UNL A   1      45.915  26.713  27.085  1.00  0.00    -0.354 N 
ATOM     67  N   UNL A   1      46.739  29.520  27.590  1.00  0.00    -0.248 NA
ATOM     68  C   UNL A   1      48.403  31.161  27.624  1.00  0.00     0.031 C 
ATOM     69  C   UNL A   1      47.427  25.317  26.258  1.00  0.00     0.029 A 
ATOM     70  C   UNL A   1      47.233  26.626  26.674  1.00  0.00     0.049 A 
ATOM     71  H   UNL A   1      45.489  27.524  27.447  1.00  0.00     0.167 HD
ATOM     72  C   UNL A   1      47.926  28.974  27.112  1.00  0.00     0.074 A 
ATOM     73  C   UNL A   1      48.908  30.041  27.126  1.00  0.00     0.031 C 
ATOM     74  C   UNL A   1      48.184  27.709  26.694  1.00  0.00     0.031 A 
BRANCH  61  75
ATOM     75  C   UNL A   1      43.359  23.839  27.060  1.00  0.00    -0.014 A 
ATOM     76  C   UNL A   1      43.086  22.992  28.150  1.00  0.00     0.010 A 
ATOM     77  C   UNL A   1      43.098  23.375  25.757  1.00  0.00     0.010 A 
ATOM     78  C   UNL A   1      42.603  21.697  27.937  1.00  0.00     0.020 A 
ATOM     79  C   UNL A   1      42.585  22.093  25.541  1.00  0.00     0.020 A 
ATOM     80  C   UNL A   1      42.356  21.256  26.634  1.00  0.00     0.054 A 
BRANCH  80  81
ATOM     81  S   UNL A   1      41.711  19.577  26.389  1.00  0.00     0.124 S 
ATOM     82  O   UNL A   1      42.345  19.190  25.131  1.00  0.00    -0.237 OA
ATOM     83  O   UNL A   1      42.191  18.876  27.577  1.00  0.00    -0.237 OA
ATOM     84  O   UNL A   1      40.264  19.766  26.323  1.00  0.00    -0.744 OA
ENDBRANCH  80  81
ENDBRANCH  61  75
BRANCH  62  85
ATOM     85  C   UNL A   1      46.585  33.224  28.676  1.00  0.00    -0.014 A 
ATOM     86  C   UNL A   1      47.197  33.522  29.906  1.00  0.00     0.010 A 
ATOM     87  C   UNL A   1      46.458  34.247  27.717  1.00  0.00     0.010 A 
ATOM     88  C   UNL A   1      47.658  34.815  30.178  1.00  0.00     0.020 A 
ATOM     89  C   UNL A   1      46.946  35.533  27.970  1.00  0.00     0.020 A 
ATOM     90  C   UNL A   1      47.533  35.811  29.205  1.00  0.00     0.054 A 
BRANCH  90  91
ATOM     91  S   UNL A   1      48.184  37.467  29.564  1.00  0.00     0.124 S 
ATOM     92  O   UNL A   1      48.871  37.255  30.834  1.00  0.00    -0.237 OA
ATOM     93  O   UNL A   1      49.046  37.724  28.414  1.00  0.00    -0.237 OA
ATOM     94  O   UNL A   1      46.985  38.300  29.635  1.00  0.00    -0.744 OA
ENDBRANCH  90  91
ENDBRANCH  62  85
BRANCH  74  95
ATOM     95  C   UNL A   1      49.566  27.423  26.168  1.00  0.00    -0.014 A 
ATOM     96  C   UNL A   1      50.563  26.862  26.985  1.00  0.00     0.010 A 
ATOM     97  C   UNL A   1      49.846  27.664  24.810  1.00  0.00     0.010 A 
ATOM     98  C   UNL A   1      51.826  26.577  26.460  1.00  0.00     0.020 A 
ATOM     99  C   UNL A   1      51.097  27.350  24.274  1.00  0.00     0.020 A 
ATOM    100  C   UNL A   1      52.084  26.822  25.107  1.00  0.00     0.054 A 
BRANCH 100 101
ATOM    101  S   UNL A   1      53.716  26.399  24.440  1.00  0.00     0.124 S 
ATOM    102  O   UNL A   1      54.612  27.071  25.376  1.00  0.00    -0.237 OA
ATOM    103  O   UNL A   1      53.718  24.939  24.504  1.00  0.00    -0.237 OA
ATOM    104  O   UNL A   1      53.694  26.956  23.090  1.00  0.00    -0.744 OA
ENDBRANCH 100 101
ENDBRANCH  74  95
ENDBRANCH  48  49
ENDBRANCH  41  43
ENDBRANCH  40  41
ENDBRANCH  39  40
ENDBRANCH  38  39
ENDBRANCH  37  38
ENDBRANCH  36  37
ENDBRANCH   1  36
TORSDOF 24
ENDMDL
MODEL 2
REMARK VINA RESULT:     -10.8      5.601     11.457
REMARK SMILES O=C(NC1(C(=O)OCCOCCOCCOC(=O)c2ccc(-c3c4nc(c(-c5ccc(S(=O)(=O)[O-])cc5)c5ccc([nH]5)c(-c5ccc(S(=O)(=O)[O-])cc5)c5nc(c(-c6ccc(S(=O)(=O)[O-])cc6)c6ccc3[nH]6)C=C5)C=C4)cc2)Cc2ccccc2C1)OCC1c2ccccc2-c2ccccc21
REMARK SMILES IDX 11 1 10 2 9 3 8 4 7 5 5 6 6 7 4 8 79 9 86 10 80 11 85 12
REMARK SMILES IDX 81 13 84 14 82 15 83 16 3 17 1 18 2 19 87 21 88 22 89 23
REMARK SMILES IDX 90 24 101 25 91 26 95 27 96 28 100 29 92 30 94 31 97 32
REMARK SMILES IDX 99 33 93 34 98 35 12 36 13 37 14 38 15 39 16 40 17 41 18 42
REMARK SMILES IDX 19 43 20 44 78 45 21 46 77 47 22 48 23 49 24 50 71 51 25 52
REMARK SMILES IDX 76 53 70 54 72 55 26 56 75 57 69 58 68 59 27 61 57 62 38 63
REMARK SMILES IDX 56 64 39 65 42 66 55 67 73 68 40 69 41 70 54 72 74 73 43 74
REMARK SMILES IDX 28 75 29 76 37 77 30 78 36 79 31 80 32 81 33 82 34 83 35 84
REMARK SMILES IDX 58 85 59 86 67 87 60 88 66 89 61 90 62 91 63 92 64 93 65 94
REMARK SMILES IDX 44 95 45 96 53 97 46 98 52 99 47 100 48 101 49 102 50 103
REMARK SMILES IDX 51 104
REMARK H PARENT 3 20 72 60 42 71
REMARK Flexibility Score: inf
ROOT
ATOM      1  C   UNL A   1      39.159  21.413  25.838  1.00  0.00     0.188 C 
ENDROOT
BRANCH   1   2
ATOM      2  O   UNL A   1      38.398  20.372  25.238  1.00  0.00    -0.376 OA
BRANCH   2   3
ATOM      3  C   UNL A   1      37.021  20.675  25.057  1.00  0.00     0.202 C 
BRANCH   3   4
ATOM      4  C   UNL A   1      36.733  21.907  24.189  1.00  0.00     0.261 C 
BRANCH   4   5
ATOM      5  O   UNL A   1      35.378  22.416  24.245  1.00  0.00    -0.461 OA
BRANCH   5   6
ATOM      6  C   UNL A   1      34.926  23.060  23.149  1.00  0.00     0.332 C 
ATOM      7  O   UNL A   1      35.601  23.149  22.122  1.00  0.00    -0.249 OA
BRANCH   6   8
ATOM      8  C   UNL A   1      33.476  23.650  23.196  1.00  0.00     0.149 C 
ATOM      9  C   UNL A   1      33.571  24.697  24.372  1.00  0.00     0.076 C 
ATOM     10  C   UNL A   1      32.110  23.004  23.523  1.00  0.00     0.076 C 
ATOM     11  C   UNL A   1      32.782  24.026  25.490  1.00  0.00    -0.042 A 
ATOM     12  C   UNL A   1      31.834  23.184  24.949  1.00  0.00    -0.042 A 
ATOM     13  C   UNL A   1      32.864  24.077  26.865  1.00  0.00     0.004 A 
ATOM     14  C   UNL A   1      30.859  22.502  25.662  1.00  0.00     0.004 A 
ATOM     15  C   UNL A   1      31.948  23.323  27.634  1.00  0.00     0.000 A 
ATOM     16  C   UNL A   1      30.926  22.567  27.036  1.00  0.00     0.000 A 
BRANCH   8  17
ATOM     17  N   UNL A   1      33.326  24.053  21.782  1.00  0.00    -0.305 N 
ATOM     18  O   UNL A   1      33.085  25.860  20.360  1.00  0.00    -0.225 OA
ATOM     19  C   UNL A   1      33.014  25.373  21.489  1.00  0.00     0.408 C 
ATOM     20  H   UNL A   1      33.445  23.396  21.059  1.00  0.00     0.168 HD
BRANCH  19  21
ATOM     21  O   UNL A   1      32.655  26.091  22.595  1.00  0.00    -0.449 OA
BRANCH  21  22
ATOM     22  C   UNL A   1      31.369  26.747  22.589  1.00  0.00     0.248 C 
BRANCH  22  23
ATOM     23  C   UNL A   1      31.032  27.475  23.942  1.00  0.00     0.088 C 
ATOM     24  C   UNL A   1      31.955  28.419  24.778  1.00  0.00    -0.029 A 
ATOM     25  C   UNL A   1      29.881  28.439  23.646  1.00  0.00    -0.029 A 
ATOM     26  C   UNL A   1      33.152  28.221  25.445  1.00  0.00     0.005 A 
ATOM     27  C   UNL A   1      31.316  29.648  24.995  1.00  0.00    -0.014 A 
ATOM     28  C   UNL A   1      30.188  29.726  24.111  1.00  0.00    -0.014 A 
ATOM     29  C   UNL A   1      28.746  28.200  22.897  1.00  0.00     0.005 A 
ATOM     30  C   UNL A   1      33.610  29.109  26.427  1.00  0.00     0.000 A 
ATOM     31  C   UNL A   1      31.714  30.520  26.010  1.00  0.00     0.009 A 
ATOM     32  C   UNL A   1      29.543  30.826  23.587  1.00  0.00     0.009 A 
ATOM     33  C   UNL A   1      28.052  29.301  22.412  1.00  0.00     0.000 A 
ATOM     34  C   UNL A   1      32.850  30.221  26.762  1.00  0.00     0.001 A 
ATOM     35  C   UNL A   1      28.491  30.604  22.696  1.00  0.00     0.001 A 
ENDBRANCH  22  23
ENDBRANCH  21  22
ENDBRANCH  19  21
ENDBRANCH   8  17
ENDBRANCH   6   8
ENDBRANCH   5   6
ENDBRANCH   4   5
ENDBRANCH   3   4
ENDBRANCH   2   3
ENDBRANCH   1   2
BRANCH   1  36
ATOM     36  C   UNL A   1      40.461  20.942  26.487  1.00  0.00     0.188 C 
BRANCH  36  37
ATOM     37  O   UNL A   1      41.605  21.103  25.658  1.00  0.00    -0.376 OA
BRANCH  37  38
ATOM     38  C   UNL A   1      42.715  21.810  26.213  1.00  0.00     0.202 C 
BRANCH  38  39
ATOM     39  C   UNL A   1      42.942  23.310  25.908  1.00  0.00     0.261 C 
BRANCH  39  40
ATOM     40  O   UNL A   1      41.816  24.154  26.183  1.00  0.00    -0.460 OA
BRANCH  40  41
ATOM     41  C   UNL A   1      41.961  25.451  25.816  1.00  0.00     0.338 C 
ATOM     42  O   UNL A   1      42.219  25.885  24.708  1.00  0.00    -0.246 OA
BRANCH  41  43
ATOM     43  C   UNL A   1      41.534  26.319  26.929  1.00  0.00     0.060 A 
ATOM     44  C   UNL A   1      42.172  27.558  27.061  1.00  0.00     0.016 A 
ATOM     45  C   UNL A   1      40.588  25.913  27.860  1.00  0.00     0.016 A 
ATOM     46  C   UNL A   1      41.912  28.391  28.144  1.00  0.00     0.010 A 
ATOM     47  C   UNL A   1      40.329  26.741  28.955  1.00  0.00     0.010 A 
ATOM     48  C   UNL A   1      41.017  27.962  29.123  1.00  0.00    -0.014 A 
BRANCH  48  49
ATOM     49  C   UNL A   1      40.929  28.662  30.426  1.00  0.00     0.031 A 
ATOM     50  C   UNL A   1      39.851  29.698  30.585  1.00  0.00     0.074 A 
ATOM     51  C   UNL A   1      41.795  28.415  31.422  1.00  0.00     0.049 A 
ATOM     52  N   UNL A   1      39.735  30.648  31.471  1.00  0.00    -0.248 NA
ATOM     53  C   UNL A   1      38.767  29.664  29.587  1.00  0.00     0.031 C 
ATOM     54  C   UNL A   1      42.799  27.351  31.434  1.00  0.00     0.029 A 
ATOM     55  N   UNL A   1      41.985  29.071  32.613  1.00  0.00    -0.354 N 
ATOM     56  C   UNL A   1      38.599  31.362  31.106  1.00  0.00     0.074 A 
ATOM     57  C   UNL A   1      38.062  30.735  29.918  1.00  0.00     0.031 C 
ATOM     58  C   UNL A   1      43.524  27.449  32.563  1.00  0.00     0.029 A 
ATOM     59  C   UNL A   1      43.080  28.621  33.313  1.00  0.00     0.049 A 
ATOM     60  H   UNL A   1      41.395  29.792  32.933  1.00  0.00     0.167 HD
ATOM     61  C   UNL A   1      38.066  32.454  31.703  1.00  0.00     0.031 A 
ATOM     62  C   UNL A   1      43.687  29.137  34.400  1.00  0.00     0.031 A 
ATOM     63  C   UNL A   1      38.621  33.052  32.889  1.00  0.00     0.049 A 
ATOM     64  C   UNL A   1      43.134  30.406  35.001  1.00  0.00     0.074 A 
ATOM     65  C   UNL A   1      38.180  34.163  33.584  1.00  0.00     0.029 A 
ATOM     66  N   UNL A   1      39.741  32.578  33.558  1.00  0.00    -0.354 N 
ATOM     67  N   UNL A   1      42.094  31.114  34.624  1.00  0.00    -0.248 NA
ATOM     68  C   UNL A   1      43.837  30.947  36.171  1.00  0.00     0.031 C 
ATOM     69  C   UNL A   1      39.068  34.395  34.639  1.00  0.00     0.029 A 
ATOM     70  C   UNL A   1      40.020  33.386  34.646  1.00  0.00     0.049 A 
ATOM     71  H   UNL A   1      40.261  31.783  33.297  1.00  0.00     0.167 HD
ATOM     72  C   UNL A   1      42.000  32.166  35.529  1.00  0.00     0.074 A 
ATOM     73  C   UNL A   1      43.083  31.994  36.478  1.00  0.00     0.031 C 
ATOM     74  C   UNL A   1      41.102  33.183  35.577  1.00  0.00     0.031 A 
BRANCH  61  75
ATOM     75  C   UNL A   1      36.875  33.103  31.046  1.00  0.00    -0.014 A 
ATOM     76  C   UNL A   1      36.965  33.708  29.780  1.00  0.00     0.010 A 
ATOM     77  C   UNL A   1      35.633  33.094  31.709  1.00  0.00     0.010 A 
ATOM     78  C   UNL A   1      35.848  34.326  29.209  1.00  0.00     0.020 A 
ATOM     79  C   UNL A   1      34.506  33.683  31.128  1.00  0.00     0.020 A 
ATOM     80  C   UNL A   1      34.626  34.310  29.887  1.00  0.00     0.054 A 
BRANCH  80  81
ATOM     81  S   UNL A   1      33.188  35.103  29.114  1.00  0.00     0.124 S 
ATOM     82  O   UNL A   1      32.293  35.284  30.254  1.00  0.00    -0.237 OA
ATOM     83  O   UNL A   1      33.760  36.330  28.564  1.00  0.00    -0.237 OA
ATOM     84  O   UNL A   1      32.745  34.128  28.122  1.00  0.00    -0.744 OA
ENDBRANCH  80  81
ENDBRANCH  61  75
BRANCH  62  85
ATOM     85  C   UNL A   1      44.909  28.490  34.956  1.00  0.00    -0.014 A 
ATOM     86  C   UNL A   1      46.188  28.962  34.613  1.00  0.00     0.010 A 
ATOM     87  C   UNL A   1      44.804  27.397  35.836  1.00  0.00     0.010 A 
ATOM     88  C   UNL A   1      47.335  28.348  35.126  1.00  0.00     0.020 A 
ATOM     89  C   UNL A   1      45.947  26.800  36.379  1.00  0.00     0.020 A 
ATOM     90  C   UNL A   1      47.206  27.273  36.010  1.00  0.00     0.054 A 
BRANCH  90  91
ATOM     91  S   UNL A   1      48.710  26.526  36.700  1.00  0.00     0.124 S 
ATOM     92  O   UNL A   1      49.744  27.451  36.249  1.00  0.00    -0.237 OA
ATOM     93  O   UNL A   1      48.436  26.534  38.135  1.00  0.00    -0.237 OA
ATOM     94  O   UNL A   1      48.748  25.200  36.087  1.00  0.00    -0.744 OA
ENDBRANCH  90  91
ENDBRANCH  62  85
BRANCH  74  95
ATOM     95  C   UNL A   1      41.218  34.154  36.723  1.00  0.00    -0.014 A 
ATOM     96  C   UNL A   1      41.834  35.408  36.564  1.00  0.00     0.010 A 
ATOM     97  C   UNL A   1      40.639  33.824  37.962  1.00  0.00     0.010 A 
ATOM     98  C   UNL A   1      41.896  36.301  37.637  1.00  0.00     0.020 A 
ATOM     99  C   UNL A   1      40.671  34.728  39.026  1.00  0.00     0.020 A 
ATOM    100  C   UNL A   1      41.313  35.956  38.860  1.00  0.00     0.054 A 
BRANCH 100 101
ATOM    101  S   UNL A   1      41.367  37.153  40.221  1.00  0.00     0.124 S 
ATOM    102  O   UNL A   1      40.763  38.334  39.612  1.00  0.00    -0.237 OA
ATOM    103  O   UNL A   1      40.566  36.499  41.253  1.00  0.00    -0.237 OA
ATOM    104  O   UNL A   1      42.791  37.268  40.525  1.00  0.00    -0.744 OA
ENDBRANCH 100 101
ENDBRANCH  74  95
ENDBRANCH  48  49
ENDBRANCH  41  43
ENDBRANCH  40  41
ENDBRANCH  39  40
ENDBRANCH  38  39
ENDBRANCH  37  38
ENDBRANCH  36  37
ENDBRANCH   1  36
TORSDOF 24
ENDMDL
MODEL 3
REMARK VINA RESULT:     -10.4      2.556      9.783
REMARK SMILES O=C(NC1(C(=O)OCCOCCOCCOC(=O)c2ccc(-c3c4nc(c(-c5ccc(S(=O)(=O)[O-])cc5)c5ccc([nH]5)c(-c5ccc(S(=O)(=O)[O-])cc5)c5nc(c(-c6ccc(S(=O)(=O)[O-])cc6)c6ccc3[nH]6)C=C5)C=C4)cc2)Cc2ccccc2C1)OCC1c2ccccc2-c2ccccc21
REMARK SMILES IDX 11 1 10 2 9 3 8 4 7 5 5 6 6 7 4 8 79 9 86 10 80 11 85 12
REMARK SMILES IDX 81 13 84 14 82 15 83 16 3 17 1 18 2 19 87 21 88 22 89 23
REMARK SMILES IDX 90 24 101 25 91 26 95 27 96 28 100 29 92 30 94 31 97 32
REMARK SMILES IDX 99 33 93 34 98 35 12 36 13 37 14 38 15 39 16 40 17 41 18 42
REMARK SMILES IDX 19 43 20 44 78 45 21 46 77 47 22 48 23 49 24 50 71 51 25 52
REMARK SMILES IDX 76 53 70 54 72 55 26 56 75 57 69 58 68 59 27 61 57 62 38 63
REMARK SMILES IDX 56 64 39 65 42 66 55 67 73 68 40 69 41 70 54 72 74 73 43 74
REMARK SMILES IDX 28 75 29 76 37 77 30 78 36 79 31 80 32 81 33 82 34 83 35 84
REMARK SMILES IDX 58 85 59 86 67 87 60 88 66 89 61 90 62 91 63 92 64 93 65 94
REMARK SMILES IDX 44 95 45 96 53 97 46 98 52 99 47 100 48 101 49 102 50 103
REMARK SMILES IDX 51 104
REMARK H PARENT 3 20 72 60 42 71
REMARK Flexibility Score: inf
ROOT
ATOM      1  C   UNL A   1      39.772  21.426  26.093  1.00  0.00     0.188 C 
ENDROOT
BRANCH   1   2
ATOM      2  O   UNL A   1      38.718  20.793  25.377  1.00  0.00    -0.376 OA
BRANCH   2   3
ATOM      3  C   UNL A   1      37.454  21.435  25.496  1.00  0.00     0.202 C 
BRANCH   3   4
ATOM      4  C   UNL A   1      37.337  22.782  24.773  1.00  0.00     0.261 C 
BRANCH   4   5
ATOM      5  O   UNL A   1      36.017  23.378  24.757  1.00  0.00    -0.461 OA
BRANCH   5   6
ATOM      6  C   UNL A   1      35.413  23.483  23.556  1.00  0.00     0.332 C 
ATOM      7  O   UNL A   1      35.935  23.053  22.525  1.00  0.00    -0.249 OA
BRANCH   6   8
ATOM      8  C   UNL A   1      33.985  24.124  23.510  1.00  0.00     0.149 C 
ATOM      9  C   UNL A   1      33.907  24.884  24.889  1.00  0.00     0.076 C 
ATOM     10  C   UNL A   1      32.573  23.494  23.473  1.00  0.00     0.076 C 
ATOM     11  C   UNL A   1      32.938  24.028  25.697  1.00  0.00    -0.042 A 
ATOM     12  C   UNL A   1      32.075  23.373  24.844  1.00  0.00    -0.042 A 
ATOM     13  C   UNL A   1      32.799  23.776  27.045  1.00  0.00     0.004 A 
ATOM     14  C   UNL A   1      30.987  22.604  25.230  1.00  0.00     0.004 A 
ATOM     15  C   UNL A   1      31.759  22.921  27.477  1.00  0.00     0.000 A 
ATOM     16  C   UNL A   1      30.834  22.367  26.578  1.00  0.00     0.000 A 
BRANCH   8  17
ATOM     17  N   UNL A   1      34.070  24.831  22.215  1.00  0.00    -0.305 N 
ATOM     18  O   UNL A   1      33.750  26.864  21.162  1.00  0.00    -0.225 OA
ATOM     19  C   UNL A   1      33.539  26.109  22.112  1.00  0.00     0.408 C 
ATOM     20  H   UNL A   1      34.496  24.403  21.439  1.00  0.00     0.168 HD
BRANCH  19  21
ATOM     21  O   UNL A   1      32.785  26.459  23.196  1.00  0.00    -0.449 OA
BRANCH  21  22
ATOM     22  C   UNL A   1      31.570  27.204  22.965  1.00  0.00     0.248 C 
BRANCH  22  23
ATOM     23  C   UNL A   1      31.068  27.991  24.231  1.00  0.00     0.088 C 
ATOM     24  C   UNL A   1      31.853  29.042  25.078  1.00  0.00    -0.029 A 
ATOM     25  C   UNL A   1      29.894  28.858  23.771  1.00  0.00    -0.029 A 
ATOM     26  C   UNL A   1      32.994  28.964  25.860  1.00  0.00     0.005 A 
ATOM     27  C   UNL A   1      31.126  30.239  25.155  1.00  0.00    -0.014 A 
ATOM     28  C   UNL A   1      30.081  30.189  24.173  1.00  0.00    -0.014 A 
ATOM     29  C   UNL A   1      28.849  28.501  22.942  1.00  0.00     0.005 A 
ATOM     30  C   UNL A   1      33.306  29.939  26.817  1.00  0.00     0.000 A 
ATOM     31  C   UNL A   1      31.377  31.196  26.140  1.00  0.00     0.009 A 
ATOM     32  C   UNL A   1      29.423  31.210  23.521  1.00  0.00     0.009 A 
ATOM     33  C   UNL A   1      28.139  29.523  22.326  1.00  0.00     0.000 A 
ATOM     34  C   UNL A   1      32.455  31.018  27.007  1.00  0.00     0.001 A 
ATOM     35  C   UNL A   1      28.473  30.866  22.558  1.00  0.00     0.001 A 
ENDBRANCH  22  23
ENDBRANCH  21  22
ENDBRANCH  19  21
ENDBRANCH   8  17
ENDBRANCH   6   8
ENDBRANCH   5   6
ENDBRANCH   4   5
ENDBRANCH   3   4
ENDBRANCH   2   3
ENDBRANCH   1   2
BRANCH   1  36
ATOM     36  C   UNL A   1      40.772  20.454  26.722  1.00  0.00     0.188 C 
BRANCH  36  37
ATOM     37  O   UNL A   1      41.164  19.396  25.856  1.00  0.00    -0.376 OA
BRANCH  37  38
ATOM     38  C   UNL A   1      42.232  18.557  26.299  1.00  0.00     0.202 C 
BRANCH  38  39
ATOM     39  C   UNL A   1      43.536  18.421  25.479  1.00  0.00     0.261 C 
BRANCH  39  40
ATOM     40  O   UNL A   1      43.709  19.413  24.458  1.00  0.00    -0.460 OA
BRANCH  40  41
ATOM     41  C   UNL A   1      44.921  20.018  24.437  1.00  0.00     0.338 C 
ATOM     42  O   UNL A   1      45.932  19.637  23.873  1.00  0.00    -0.246 OA
BRANCH  41  43
ATOM     43  C   UNL A   1      44.802  21.364  25.026  1.00  0.00     0.060 A 
ATOM     44  C   UNL A   1      44.267  22.376  24.221  1.00  0.00     0.016 A 
ATOM     45  C   UNL A   1      45.261  21.652  26.304  1.00  0.00     0.016 A 
ATOM     46  C   UNL A   1      44.221  23.696  24.655  1.00  0.00     0.010 A 
ATOM     47  C   UNL A   1      45.227  22.978  26.744  1.00  0.00     0.010 A 
ATOM     48  C   UNL A   1      44.745  24.009  25.909  1.00  0.00    -0.014 A 
BRANCH  48  49
ATOM     49  C   UNL A   1      44.990  25.419  26.295  1.00  0.00     0.031 A 
ATOM     50  C   UNL A   1      46.333  26.006  25.961  1.00  0.00     0.074 A 
ATOM     51  C   UNL A   1      44.068  26.143  26.950  1.00  0.00     0.049 A 
ATOM     52  N   UNL A   1      46.915  27.074  26.433  1.00  0.00    -0.248 NA
ATOM     53  C   UNL A   1      47.136  25.266  24.971  1.00  0.00     0.031 C 
ATOM     54  C   UNL A   1      42.691  25.729  27.217  1.00  0.00     0.029 A 
ATOM     55  N   UNL A   1      44.169  27.379  27.538  1.00  0.00    -0.354 N 
ATOM     56  C   UNL A   1      48.174  27.105  25.843  1.00  0.00     0.074 A 
ATOM     57  C   UNL A   1      48.272  25.949  24.980  1.00  0.00     0.031 C 
ATOM     58  C   UNL A   1      42.085  26.681  27.949  1.00  0.00     0.029 A 
ATOM     59  C   UNL A   1      43.051  27.732  28.257  1.00  0.00     0.049 A 
ATOM     60  H   UNL A   1      44.963  27.956  27.454  1.00  0.00     0.167 HD
ATOM     61  C   UNL A   1      49.163  28.011  26.025  1.00  0.00     0.031 A 
ATOM     62  C   UNL A   1      42.856  28.754  29.113  1.00  0.00     0.031 A 
ATOM     63  C   UNL A   1      49.034  29.156  26.888  1.00  0.00     0.049 A 
ATOM     64  C   UNL A   1      43.999  29.705  29.374  1.00  0.00     0.074 A 
ATOM     65  C   UNL A   1      49.964  30.141  27.162  1.00  0.00     0.029 A 
ATOM     66  N   UNL A   1      47.891  29.468  27.613  1.00  0.00    -0.354 N 
ATOM     67  N   UNL A   1      45.208  29.704  28.861  1.00  0.00    -0.248 NA
ATOM     68  C   UNL A   1      43.752  30.792  30.330  1.00  0.00     0.031 C 
ATOM     69  C   UNL A   1      49.405  31.016  28.098  1.00  0.00     0.029 A 
ATOM     70  C   UNL A   1      48.100  30.619  28.352  1.00  0.00     0.049 A 
ATOM     71  H   UNL A   1      47.056  28.948  27.602  1.00  0.00     0.167 HD
ATOM     72  C   UNL A   1      45.856  30.806  29.408  1.00  0.00     0.074 A 
ATOM     73  C   UNL A   1      44.899  31.457  30.283  1.00  0.00     0.031 C 
ATOM     74  C   UNL A   1      47.124  31.247  29.208  1.00  0.00     0.031 A 
BRANCH  61  75
ATOM     75  C   UNL A   1      50.480  27.761  25.336  1.00  0.00    -0.014 A 
ATOM     76  C   UNL A   1      51.618  27.336  26.044  1.00  0.00     0.010 A 
ATOM     77  C   UNL A   1      50.574  27.943  23.943  1.00  0.00     0.010 A 
ATOM     78  C   UNL A   1      52.833  27.139  25.380  1.00  0.00     0.020 A 
ATOM     79  C   UNL A   1      51.778  27.717  23.270  1.00  0.00     0.020 A 
ATOM     80  C   UNL A   1      52.905  27.331  23.997  1.00  0.00     0.054 A 
BRANCH  80  81
ATOM     81  S   UNL A   1      54.490  27.049  23.159  1.00  0.00     0.124 S 
ATOM     82  O   UNL A   1      54.058  26.664  21.818  1.00  0.00    -0.237 OA
ATOM     83  O   UNL A   1      55.139  28.354  23.259  1.00  0.00    -0.237 OA
ATOM     84  O   UNL A   1      55.113  25.985  23.942  1.00  0.00    -0.744 OA
ENDBRANCH  80  81
ENDBRANCH  61  75
BRANCH  62  85
ATOM     85  C   UNL A   1      41.554  28.902  29.824  1.00  0.00    -0.014 A 
ATOM     86  C   UNL A   1      41.349  28.296  31.075  1.00  0.00     0.010 A 
ATOM     87  C   UNL A   1      40.508  29.653  29.254  1.00  0.00     0.010 A 
ATOM     88  C   UNL A   1      40.122  28.426  31.737  1.00  0.00     0.020 A 
ATOM     89  C   UNL A   1      39.292  29.814  29.926  1.00  0.00     0.020 A 
ATOM     90  C   UNL A   1      39.103  29.188  31.159  1.00  0.00     0.054 A 
BRANCH  90  91
ATOM     91  S   UNL A   1      37.540  29.382  32.061  1.00  0.00     0.124 S 
ATOM     92  O   UNL A   1      37.706  30.693  32.679  1.00  0.00    -0.237 OA
ATOM     93  O   UNL A   1      36.547  29.307  30.992  1.00  0.00    -0.237 OA
ATOM     94  O   UNL A   1      37.535  28.251  32.987  1.00  0.00    -0.744 OA
ENDBRANCH  90  91
ENDBRANCH  62  85
BRANCH  74  95
ATOM     95  C   UNL A   1      47.531  32.520  29.902  1.00  0.00    -0.014 A 
ATOM     96  C   UNL A   1      46.892  33.742  29.631  1.00  0.00     0.010 A 
ATOM     97  C   UNL A   1      48.532  32.472  30.890  1.00  0.00     0.010 A 
ATOM     98  C   UNL A   1      47.270  34.900  30.315  1.00  0.00     0.020 A 
ATOM     99  C   UNL A   1      48.889  33.621  31.598  1.00  0.00     0.020 A 
ATOM    100  C   UNL A   1      48.265  34.832  31.295  1.00  0.00     0.054 A 
BRANCH 100 101
ATOM    101  S   UNL A   1      48.702  36.340  32.201  1.00  0.00     0.124 S 
ATOM    102  O   UNL A   1      50.131  36.458  31.926  1.00  0.00    -0.237 OA
ATOM    103  O   UNL A   1      47.855  37.349  31.569  1.00  0.00    -0.237 OA
ATOM    104  O   UNL A   1      48.358  36.026  33.585  1.00  0.00    -0.744 OA
ENDBRANCH 100 101
ENDBRANCH  74  95
ENDBRANCH  48  49
ENDBRANCH  41  43
ENDBRANCH  40  41
ENDBRANCH  39  40
ENDBRANCH  38  39
ENDBRANCH  37  38
ENDBRANCH  36  37
ENDBRANCH   1  36
TORSDOF 24
ENDMDL
