MODEL 1
REMARK VINA RESULT:     -10.0      0.000      0.000
REMARK SMILES Cc1cc(Br)cc2c1O[C@H](C(F)(F)F)C(C(=O)OCCOCCOCCOC(=O)c1ccc(-c3c4nc(c(-c5ccc(S(=O)(=O)[O-])cc5)c5ccc([nH]5)c(-c5ccc(S(=O)(=O)[O-])cc5)c5nc(c(-c6ccc(S(=O)(=O)[O-])cc6)c6ccc3[nH]6)C=C5)C=C4)cc1)=C2
REMARK SMILES IDX 23 1 22 2 21 3 20 4 19 5 18 6 16 7 17 8 15 9 1 10 2 11 3 12
REMARK SMILES IDX 8 13 4 14 7 15 9 16 5 17 6 18 90 19 10 20 11 21 12 22 13 23
REMARK SMILES IDX 14 24 24 25 25 26 26 27 27 28 28 29 29 30 30 31 31 32 89 33
REMARK SMILES IDX 32 34 88 35 33 36 34 37 35 38 82 39 36 40 87 41 81 42 83 43
REMARK SMILES IDX 37 44 86 45 80 46 79 47 38 49 68 50 49 51 67 52 50 53 53 54
REMARK SMILES IDX 66 55 84 56 51 57 52 58 65 60 85 61 54 62 39 63 40 64 48 65
REMARK SMILES IDX 41 66 47 67 42 68 43 69 44 70 45 71 46 72 69 73 70 74 78 75
REMARK SMILES IDX 71 76 77 77 72 78 73 79 74 80 75 81 76 82 55 83 56 84 64 85
REMARK SMILES IDX 57 86 63 87 58 88 59 89 60 90 61 91 62 92
REMARK H PARENT 83 48 53 59
REMARK Flexibility Score: inf
ROOT
ATOM      1  C   UNL A   1      41.639  21.929  26.769  1.00  0.00     0.188 C 
ENDROOT
BRANCH   1   2
ATOM      2  C   UNL A   1      40.126  22.116  27.011  1.00  0.00     0.188 C 
BRANCH   2   3
ATOM      3  O   UNL A   1      39.431  23.191  26.419  1.00  0.00    -0.376 OA
BRANCH   3   4
ATOM      4  C   UNL A   1      38.145  23.033  25.849  1.00  0.00     0.202 C 
BRANCH   4   5
ATOM      5  C   UNL A   1      37.506  21.673  25.539  1.00  0.00     0.261 C 
BRANCH   5   6
ATOM      6  O   UNL A   1      36.264  21.716  24.834  1.00  0.00    -0.460 OA
BRANCH   6   7
ATOM      7  C   UNL A   1      35.197  22.083  25.586  1.00  0.00     0.338 C 
ATOM      8  O   UNL A   1      34.862  21.610  26.659  1.00  0.00    -0.246 OA
BRANCH   7   9
ATOM      9  C   UNL A   1      34.533  23.241  24.965  1.00  0.00     0.087 C 
ATOM     10  C   UNL A   1      31.627  26.359  22.127  1.00  0.00     0.048 C 
ATOM     11  C   UNL A   1      32.437  26.492  23.386  1.00  0.00    -0.007 A 
ATOM     12  C   UNL A   1      32.456  27.713  24.076  1.00  0.00     0.023 A 
ATOM     13  C   UNL A   1      33.191  25.415  23.881  1.00  0.00     0.130 A 
ATOM     14  C   UNL A   1      33.203  27.847  25.246  1.00  0.00     0.019 A 
ATOM     15  C   UNL A   1      33.913  25.546  25.073  1.00  0.00     0.019 A 
ATOM     16  O   UNL A   1      33.173  24.264  23.141  1.00  0.00    -0.475 OA
ATOM     17  Br  UNL A   1      33.210  29.497  26.167  1.00  0.00    -0.051 Br
ATOM     18  C   UNL A   1      33.928  26.770  25.750  1.00  0.00     0.027 A 
ATOM     19  C   UNL A   1      34.607  24.399  25.632  1.00  0.00     0.027 C 
ATOM     20  C   UNL A   1      33.820  23.069  23.654  1.00  0.00     0.316 C 
BRANCH  20  21
ATOM     21  C   UNL A   1      32.779  21.941  23.696  1.00  0.00     0.430 C 
ATOM     22  F   UNL A   1      33.377  20.726  23.775  1.00  0.00    -0.167 F 
ATOM     23  F   UNL A   1      31.971  22.040  24.778  1.00  0.00    -0.167 F 
ATOM     24  F   UNL A   1      31.990  21.932  22.599  1.00  0.00    -0.167 F 
ENDBRANCH  20  21
ENDBRANCH   7   9
ENDBRANCH   6   7
ENDBRANCH   5   6
ENDBRANCH   4   5
ENDBRANCH   3   4
ENDBRANCH   2   3
ENDBRANCH   1   2
BRANCH   1  25
ATOM     25  O   UNL A   1      42.178  21.976  25.461  1.00  0.00    -0.376 OA
BRANCH  25  26
ATOM     26  C   UNL A   1      43.016  23.065  25.101  1.00  0.00     0.202 C 
BRANCH  26  27
ATOM     27  C   UNL A   1      43.450  24.088  26.156  1.00  0.00     0.261 C 
BRANCH  27  28
ATOM     28  O   UNL A   1      43.386  25.450  25.707  1.00  0.00    -0.460 OA
BRANCH  28  29
ATOM     29  C   UNL A   1      42.183  26.055  25.874  1.00  0.00     0.338 C 
ATOM     30  O   UNL A   1      41.204  25.962  25.155  1.00  0.00    -0.246 OA
BRANCH  29  31
ATOM     31  C   UNL A   1      42.151  26.715  27.191  1.00  0.00     0.060 A 
ATOM     32  C   UNL A   1      41.247  26.235  28.148  1.00  0.00     0.016 A 
ATOM     33  C   UNL A   1      42.964  27.815  27.468  1.00  0.00     0.016 A 
ATOM     34  C   UNL A   1      41.142  26.866  29.386  1.00  0.00     0.010 A 
ATOM     35  C   UNL A   1      42.837  28.464  28.700  1.00  0.00     0.010 A 
ATOM     36  C   UNL A   1      41.909  28.008  29.653  1.00  0.00    -0.014 A 
BRANCH  36  37
ATOM     37  C   UNL A   1      41.603  28.826  30.849  1.00  0.00     0.031 A 
ATOM     38  C   UNL A   1      40.450  29.791  30.780  1.00  0.00     0.074 A 
ATOM     39  C   UNL A   1      42.306  28.689  31.987  1.00  0.00     0.049 A 
ATOM     40  N   UNL A   1      40.000  30.606  31.697  1.00  0.00    -0.248 NA
ATOM     41  C   UNL A   1      39.702  29.834  29.512  1.00  0.00     0.031 C 
ATOM     42  C   UNL A   1      43.404  27.746  32.198  1.00  0.00     0.029 A 
ATOM     43  N   UNL A   1      42.190  29.346  33.187  1.00  0.00    -0.354 N 
ATOM     44  C   UNL A   1      38.908  31.248  31.124  1.00  0.00     0.074 A 
ATOM     45  C   UNL A   1      38.786  30.755  29.770  1.00  0.00     0.031 C 
ATOM     46  C   UNL A   1      43.860  27.885  33.456  1.00  0.00     0.029 A 
ATOM     47  C   UNL A   1      43.109  28.945  34.127  1.00  0.00     0.049 A 
ATOM     48  H   UNL A   1      41.513  30.040  33.357  1.00  0.00     0.167 HD
ATOM     49  C   UNL A   1      38.074  32.158  31.678  1.00  0.00     0.031 A 
ATOM     50  C   UNL A   1      43.324  29.391  35.381  1.00  0.00     0.031 A 
ATOM     51  C   UNL A   1      38.214  32.676  33.011  1.00  0.00     0.049 A 
ATOM     52  C   UNL A   1      42.459  30.497  35.933  1.00  0.00     0.074 A 
ATOM     53  C   UNL A   1      37.432  33.619  33.654  1.00  0.00     0.029 A 
ATOM     54  N   UNL A   1      39.206  32.301  33.903  1.00  0.00    -0.354 N 
ATOM     55  N   UNL A   1      41.431  31.093  35.380  1.00  0.00    -0.248 NA
ATOM     56  C   UNL A   1      42.787  30.991  37.280  1.00  0.00     0.031 C 
ATOM     57  C   UNL A   1      37.981  33.851  34.919  1.00  0.00     0.029 A 
ATOM     58  C   UNL A   1      39.073  33.012  35.083  1.00  0.00     0.049 A 
ATOM     59  H   UNL A   1      39.904  31.629  33.725  1.00  0.00     0.167 HD
ATOM     60  C   UNL A   1      40.973  32.013  36.320  1.00  0.00     0.074 A 
ATOM     61  C   UNL A   1      41.832  31.889  37.480  1.00  0.00     0.031 C 
ATOM     62  C   UNL A   1      39.934  32.878  36.230  1.00  0.00     0.031 A 
BRANCH  49  63
ATOM     63  C   UNL A   1      36.943  32.669  30.828  1.00  0.00    -0.014 A 
ATOM     64  C   UNL A   1      37.155  33.700  29.895  1.00  0.00     0.010 A 
ATOM     65  C   UNL A   1      35.669  32.085  30.931  1.00  0.00     0.010 A 
ATOM     66  C   UNL A   1      36.104  34.156  29.098  1.00  0.00     0.020 A 
ATOM     67  C   UNL A   1      34.620  32.522  30.117  1.00  0.00     0.020 A 
ATOM     68  C   UNL A   1      34.842  33.564  29.214  1.00  0.00     0.054 A 
BRANCH  68  69
ATOM     69  S   UNL A   1      33.506  34.158  28.142  1.00  0.00     0.124 S 
ATOM     70  O   UNL A   1      34.232  34.993  27.189  1.00  0.00    -0.237 OA
ATOM     71  O   UNL A   1      32.956  32.919  27.600  1.00  0.00    -0.237 OA
ATOM     72  O   UNL A   1      32.623  34.881  29.055  1.00  0.00    -0.744 OA
ENDBRANCH  68  69
ENDBRANCH  49  63
BRANCH  50  73
ATOM     73  C   UNL A   1      44.412  28.801  36.208  1.00  0.00    -0.014 A 
ATOM     74  C   UNL A   1      44.164  27.680  37.019  1.00  0.00     0.010 A 
ATOM     75  C   UNL A   1      45.703  29.363  36.193  1.00  0.00     0.010 A 
ATOM     76  C   UNL A   1      45.182  27.138  37.809  1.00  0.00     0.020 A 
ATOM     77  C   UNL A   1      46.730  28.808  36.964  1.00  0.00     0.020 A 
ATOM     78  C   UNL A   1      46.460  27.704  37.775  1.00  0.00     0.054 A 
BRANCH  78  79
ATOM     79  S   UNL A   1      47.775  26.953  38.774  1.00  0.00     0.124 S 
ATOM     80  O   UNL A   1      47.206  27.008  40.116  1.00  0.00    -0.237 OA
ATOM     81  O   UNL A   1      47.890  25.619  38.189  1.00  0.00    -0.237 OA
ATOM     82  O   UNL A   1      48.922  27.828  38.543  1.00  0.00    -0.744 OA
ENDBRANCH  78  79
ENDBRANCH  50  73
BRANCH  62  83
ATOM     83  C   UNL A   1      39.639  33.753  37.420  1.00  0.00    -0.014 A 
ATOM     84  C   UNL A   1      39.074  33.216  38.591  1.00  0.00     0.010 A 
ATOM     85  C   UNL A   1      40.026  35.106  37.402  1.00  0.00     0.010 A 
ATOM     86  C   UNL A   1      38.895  34.020  39.720  1.00  0.00     0.020 A 
ATOM     87  C   UNL A   1      39.871  35.906  38.536  1.00  0.00     0.020 A 
ATOM     88  C   UNL A   1      39.300  35.358  39.687  1.00  0.00     0.054 A 
BRANCH  88  89
ATOM     89  S   UNL A   1      39.126  36.357  41.193  1.00  0.00     0.124 S 
ATOM     90  O   UNL A   1      38.908  37.694  40.648  1.00  0.00    -0.237 OA
ATOM     91  O   UNL A   1      37.970  35.749  41.847  1.00  0.00    -0.237 OA
ATOM     92  O   UNL A   1      40.398  36.166  41.886  1.00  0.00    -0.744 OA
ENDBRANCH  88  89
ENDBRANCH  62  83
ENDBRANCH  36  37
ENDBRANCH  29  31
ENDBRANCH  28  29
ENDBRANCH  27  28
ENDBRANCH  26  27
ENDBRANCH  25  26
ENDBRANCH   1  25
TORSDOF 21
ENDMDL
MODEL 2
REMARK VINA RESULT:      -9.6      2.625      8.736
REMARK SMILES Cc1cc(Br)cc2c1O[C@H](C(F)(F)F)C(C(=O)OCCOCCOCCOC(=O)c1ccc(-c3c4nc(c(-c5ccc(S(=O)(=O)[O-])cc5)c5ccc([nH]5)c(-c5ccc(S(=O)(=O)[O-])cc5)c5nc(c(-c6ccc(S(=O)(=O)[O-])cc6)c6ccc3[nH]6)C=C5)C=C4)cc1)=C2
REMARK SMILES IDX 23 1 22 2 21 3 20 4 19 5 18 6 16 7 17 8 15 9 1 10 2 11 3 12
REMARK SMILES IDX 8 13 4 14 7 15 9 16 5 17 6 18 90 19 10 20 11 21 12 22 13 23
REMARK SMILES IDX 14 24 24 25 25 26 26 27 27 28 28 29 29 30 30 31 31 32 89 33
REMARK SMILES IDX 32 34 88 35 33 36 34 37 35 38 82 39 36 40 87 41 81 42 83 43
REMARK SMILES IDX 37 44 86 45 80 46 79 47 38 49 68 50 49 51 67 52 50 53 53 54
REMARK SMILES IDX 66 55 84 56 51 57 52 58 65 60 85 61 54 62 39 63 40 64 48 65
REMARK SMILES IDX 41 66 47 67 42 68 43 69 44 70 45 71 46 72 69 73 70 74 78 75
REMARK SMILES IDX 71 76 77 77 72 78 73 79 74 80 75 81 76 82 55 83 56 84 64 85
REMARK SMILES IDX 57 86 63 87 58 88 59 89 60 90 61 91 62 92
REMARK H PARENT 83 48 53 59
REMARK Flexibility Score: inf
ROOT
ATOM      1  C   UNL A   1      31.422  29.766  25.571  1.00  0.00     0.188 C 
ENDROOT
BRANCH   1   2
ATOM      2  C   UNL A   1      31.878  28.396  25.025  1.00  0.00     0.188 C 
BRANCH   2   3
ATOM      3  O   UNL A   1      30.965  27.328  24.910  1.00  0.00    -0.376 OA
BRANCH   3   4
ATOM      4  C   UNL A   1      30.692  26.452  25.989  1.00  0.00     0.202 C 
BRANCH   4   5
ATOM      5  C   UNL A   1      31.629  25.322  26.433  1.00  0.00     0.261 C 
BRANCH   5   6
ATOM      6  O   UNL A   1      31.631  24.156  25.607  1.00  0.00    -0.460 OA
BRANCH   6   7
ATOM      7  C   UNL A   1      32.757  23.405  25.687  1.00  0.00     0.338 C 
ATOM      8  O   UNL A   1      33.745  23.639  26.364  1.00  0.00    -0.246 OA
BRANCH   7   9
ATOM      9  C   UNL A   1      32.582  22.171  24.904  1.00  0.00     0.087 C 
ATOM     10  C   UNL A   1      32.158  18.672  21.189  1.00  0.00     0.048 C 
ATOM     11  C   UNL A   1      32.365  18.642  22.677  1.00  0.00    -0.007 A 
ATOM     12  C   UNL A   1      32.538  17.414  23.332  1.00  0.00     0.023 A 
ATOM     13  C   UNL A   1      32.375  19.827  23.432  1.00  0.00     0.130 A 
ATOM     14  C   UNL A   1      32.732  17.375  24.712  1.00  0.00     0.019 A 
ATOM     15  C   UNL A   1      32.603  19.783  24.812  1.00  0.00     0.019 A 
ATOM     16  O   UNL A   1      32.154  20.992  22.748  1.00  0.00    -0.475 OA
ATOM     17  Br  UNL A   1      32.971  15.712  25.576  1.00  0.00    -0.051 Br
ATOM     18  C   UNL A   1      32.769  18.552  25.455  1.00  0.00     0.027 A 
ATOM     19  C   UNL A   1      32.713  21.018  25.570  1.00  0.00     0.027 C 
ATOM     20  C   UNL A   1      32.279  22.264  23.436  1.00  0.00     0.316 C 
BRANCH  20  21
ATOM     21  C   UNL A   1      33.306  23.119  22.678  1.00  0.00     0.430 C 
ATOM     22  F   UNL A   1      33.047  24.442  22.828  1.00  0.00    -0.167 F 
ATOM     23  F   UNL A   1      34.564  22.922  23.137  1.00  0.00    -0.167 F 
ATOM     24  F   UNL A   1      33.312  22.857  21.352  1.00  0.00    -0.167 F 
ENDBRANCH  20  21
ENDBRANCH   7   9
ENDBRANCH   6   7
ENDBRANCH   5   6
ENDBRANCH   4   5
ENDBRANCH   3   4
ENDBRANCH   2   3
ENDBRANCH   1   2
BRANCH   1  25
ATOM     25  O   UNL A   1      32.365  30.729  26.003  1.00  0.00    -0.376 OA
BRANCH  25  26
ATOM     26  C   UNL A   1      33.007  30.547  27.257  1.00  0.00     0.202 C 
BRANCH  26  27
ATOM     27  C   UNL A   1      34.094  31.524  27.719  1.00  0.00     0.261 C 
BRANCH  27  28
ATOM     28  O   UNL A   1      33.845  32.889  27.350  1.00  0.00    -0.460 OA
BRANCH  28  29
ATOM     29  C   UNL A   1      33.705  33.749  28.389  1.00  0.00     0.338 C 
ATOM     30  O   UNL A   1      32.779  34.514  28.597  1.00  0.00    -0.246 OA
BRANCH  29  31
ATOM     31  C   UNL A   1      34.770  33.494  29.376  1.00  0.00     0.060 A 
ATOM     32  C   UNL A   1      36.050  34.002  29.113  1.00  0.00     0.016 A 
ATOM     33  C   UNL A   1      34.528  32.732  30.519  1.00  0.00     0.016 A 
ATOM     34  C   UNL A   1      37.099  33.734  29.989  1.00  0.00     0.010 A 
ATOM     35  C   UNL A   1      35.589  32.440  31.383  1.00  0.00     0.010 A 
ATOM     36  C   UNL A   1      36.882  32.919  31.108  1.00  0.00    -0.014 A 
BRANCH  36  37
ATOM     37  C   UNL A   1      38.043  32.419  31.880  1.00  0.00     0.031 A 
ATOM     38  C   UNL A   1      38.924  31.373  31.252  1.00  0.00     0.074 A 
ATOM     39  C   UNL A   1      38.335  32.911  33.098  1.00  0.00     0.049 A 
ATOM     40  N   UNL A   1      39.989  30.791  31.737  1.00  0.00    -0.248 NA
ATOM     41  C   UNL A   1      38.560  30.935  29.894  1.00  0.00     0.031 C 
ATOM     42  C   UNL A   1      37.595  33.967  33.786  1.00  0.00     0.029 A 
ATOM     43  N   UNL A   1      39.345  32.584  33.968  1.00  0.00    -0.354 N 
ATOM     44  C   UNL A   1      40.431  29.929  30.739  1.00  0.00     0.074 A 
ATOM     45  C   UNL A   1      39.499  30.038  29.638  1.00  0.00     0.031 C 
ATOM     46  C   UNL A   1      38.180  34.204  34.975  1.00  0.00     0.029 A 
ATOM     47  C   UNL A   1      39.314  33.296  35.143  1.00  0.00     0.049 A 
ATOM     48  H   UNL A   1      40.028  31.902  33.769  1.00  0.00     0.167 HD
ATOM     49  C   UNL A   1      41.520  29.127  30.735  1.00  0.00     0.031 A 
ATOM     50  C   UNL A   1      40.104  33.214  36.233  1.00  0.00     0.031 A 
ATOM     51  C   UNL A   1      42.427  28.991  31.841  1.00  0.00     0.049 A 
ATOM     52  C   UNL A   1      41.238  32.221  36.253  1.00  0.00     0.074 A 
ATOM     53  C   UNL A   1      43.548  28.185  31.941  1.00  0.00     0.029 A 
ATOM     54  N   UNL A   1      42.314  29.671  33.044  1.00  0.00    -0.354 N 
ATOM     55  N   UNL A   1      41.644  31.413  35.303  1.00  0.00    -0.248 NA
ATOM     56  C   UNL A   1      42.021  32.127  37.496  1.00  0.00     0.031 C 
ATOM     57  C   UNL A   1      44.084  28.341  33.223  1.00  0.00     0.029 A 
ATOM     58  C   UNL A   1      43.329  29.286  33.901  1.00  0.00     0.049 A 
ATOM     59  H   UNL A   1      41.615  30.331  33.257  1.00  0.00     0.167 HD
ATOM     60  C   UNL A   1      42.744  30.736  35.823  1.00  0.00     0.074 A 
ATOM     61  C   UNL A   1      42.945  31.233  37.169  1.00  0.00     0.031 C 
ATOM     62  C   UNL A   1      43.518  29.790  35.238  1.00  0.00     0.031 A 
BRANCH  49  63
ATOM     63  C   UNL A   1      41.778  28.315  29.496  1.00  0.00    -0.014 A 
ATOM     64  C   UNL A   1      42.627  28.799  28.484  1.00  0.00     0.010 A 
ATOM     65  C   UNL A   1      41.202  27.040  29.361  1.00  0.00     0.010 A 
ATOM     66  C   UNL A   1      42.875  28.031  27.345  1.00  0.00     0.020 A 
ATOM     67  C   UNL A   1      41.468  26.258  28.233  1.00  0.00     0.020 A 
ATOM     68  C   UNL A   1      42.293  26.765  27.226  1.00  0.00     0.054 A 
BRANCH  68  69
ATOM     69  S   UNL A   1      42.659  25.779  25.749  1.00  0.00     0.124 S 
ATOM     70  O   UNL A   1      41.486  26.036  24.917  1.00  0.00    -0.237 OA
ATOM     71  O   UNL A   1      43.908  26.368  25.273  1.00  0.00    -0.237 OA
ATOM     72  O   UNL A   1      42.771  24.415  26.260  1.00  0.00    -0.744 OA
ENDBRANCH  68  69
ENDBRANCH  49  63
BRANCH  50  73
ATOM     73  C   UNL A   1      39.849  34.093  37.408  1.00  0.00    -0.014 A 
ATOM     74  C   UNL A   1      39.078  33.632  38.489  1.00  0.00     0.010 A 
ATOM     75  C   UNL A   1      40.372  35.399  37.447  1.00  0.00     0.010 A 
ATOM     76  C   UNL A   1      38.824  34.464  39.583  1.00  0.00     0.020 A 
ATOM     77  C   UNL A   1      40.139  36.225  38.552  1.00  0.00     0.020 A 
ATOM     78  C   UNL A   1      39.358  35.755  39.609  1.00  0.00     0.054 A 
BRANCH  78  79
ATOM     79  S   UNL A   1      39.053  36.799  41.061  1.00  0.00     0.124 S 
ATOM     80  O   UNL A   1      38.170  35.955  41.861  1.00  0.00    -0.237 OA
ATOM     81  O   UNL A   1      40.399  36.992  41.597  1.00  0.00    -0.237 OA
ATOM     82  O   UNL A   1      38.435  37.997  40.499  1.00  0.00    -0.744 OA
ENDBRANCH  78  79
ENDBRANCH  50  73
BRANCH  62  83
ATOM     83  C   UNL A   1      44.674  29.235  36.027  1.00  0.00    -0.014 A 
ATOM     84  C   UNL A   1      44.473  28.252  37.012  1.00  0.00     0.010 A 
ATOM     85  C   UNL A   1      45.987  29.630  35.708  1.00  0.00     0.010 A 
ATOM     86  C   UNL A   1      45.566  27.678  37.669  1.00  0.00     0.020 A 
ATOM     87  C   UNL A   1      47.082  29.042  36.345  1.00  0.00     0.020 A 
ATOM     88  C   UNL A   1      46.864  28.073  37.327  1.00  0.00     0.054 A 
BRANCH  88  89
ATOM     89  S   UNL A   1      48.264  27.256  38.141  1.00  0.00     0.124 S 
ATOM     90  O   UNL A   1      47.714  26.949  39.458  1.00  0.00    -0.237 OA
ATOM     91  O   UNL A   1      48.508  26.104  37.278  1.00  0.00    -0.237 OA
ATOM     92  O   UNL A   1      49.315  28.271  38.127  1.00  0.00    -0.744 OA
ENDBRANCH  88  89
ENDBRANCH  62  83
ENDBRANCH  36  37
ENDBRANCH  29  31
ENDBRANCH  28  29
ENDBRANCH  27  28
ENDBRANCH  26  27
ENDBRANCH  25  26
ENDBRANCH   1  25
TORSDOF 21
ENDMDL
MODEL 3
REMARK VINA RESULT:      -9.3      7.541     13.216
REMARK SMILES Cc1cc(Br)cc2c1O[C@H](C(F)(F)F)C(C(=O)OCCOCCOCCOC(=O)c1ccc(-c3c4nc(c(-c5ccc(S(=O)(=O)[O-])cc5)c5ccc([nH]5)c(-c5ccc(S(=O)(=O)[O-])cc5)c5nc(c(-c6ccc(S(=O)(=O)[O-])cc6)c6ccc3[nH]6)C=C5)C=C4)cc1)=C2
REMARK SMILES IDX 23 1 22 2 21 3 20 4 19 5 18 6 16 7 17 8 15 9 1 10 2 11 3 12
REMARK SMILES IDX 8 13 4 14 7 15 9 16 5 17 6 18 90 19 10 20 11 21 12 22 13 23
REMARK SMILES IDX 14 24 24 25 25 26 26 27 27 28 28 29 29 30 30 31 31 32 89 33
REMARK SMILES IDX 32 34 88 35 33 36 34 37 35 38 82 39 36 40 87 41 81 42 83 43
REMARK SMILES IDX 37 44 86 45 80 46 79 47 38 49 68 50 49 51 67 52 50 53 53 54
REMARK SMILES IDX 66 55 84 56 51 57 52 58 65 60 85 61 54 62 39 63 40 64 48 65
REMARK SMILES IDX 41 66 47 67 42 68 43 69 44 70 45 71 46 72 69 73 70 74 78 75
REMARK SMILES IDX 71 76 77 77 72 78 73 79 74 80 75 81 76 82 55 83 56 84 64 85
REMARK SMILES IDX 57 86 63 87 58 88 59 89 60 90 61 91 62 92
REMARK H PARENT 83 48 53 59
REMARK Flexibility Score: inf
ROOT
ATOM      1  C   UNL A   1      46.658  21.194  36.759  1.00  0.00     0.188 C 
ENDROOT
BRANCH   1   2
ATOM      2  C   UNL A   1      46.425  19.809  37.401  1.00  0.00     0.188 C 
BRANCH   2   3
ATOM      3  O   UNL A   1      46.042  19.700  38.753  1.00  0.00    -0.376 OA
BRANCH   3   4
ATOM      4  C   UNL A   1      46.969  19.379  39.775  1.00  0.00     0.202 C 
BRANCH   4   5
ATOM      5  C   UNL A   1      46.569  18.841  41.155  1.00  0.00     0.261 C 
BRANCH   5   6
ATOM      6  O   UNL A   1      45.713  17.697  41.151  1.00  0.00    -0.460 OA
BRANCH   6   7
ATOM      7  C   UNL A   1      44.442  17.939  41.555  1.00  0.00     0.338 C 
ATOM      8  O   UNL A   1      43.857  19.010  41.530  1.00  0.00    -0.246 OA
BRANCH   7   9
ATOM      9  C   UNL A   1      43.799  16.672  41.942  1.00  0.00     0.087 C 
ATOM     10  C   UNL A   1      41.197  12.263  42.061  1.00  0.00     0.048 C 
ATOM     11  C   UNL A   1      42.202  12.944  42.946  1.00  0.00    -0.007 A 
ATOM     12  C   UNL A   1      42.654  12.301  44.108  1.00  0.00     0.023 A 
ATOM     13  C   UNL A   1      42.691  14.225  42.639  1.00  0.00     0.130 A 
ATOM     14  C   UNL A   1      43.588  12.923  44.936  1.00  0.00     0.019 A 
ATOM     15  C   UNL A   1      43.652  14.830  43.457  1.00  0.00     0.019 A 
ATOM     16  O   UNL A   1      42.179  14.823  41.520  1.00  0.00    -0.475 OA
ATOM     17  Br  UNL A   1      44.192  12.039  46.493  1.00  0.00    -0.051 Br
ATOM     18  C   UNL A   1      44.092  14.182  44.616  1.00  0.00     0.027 A 
ATOM     19  C   UNL A   1      44.227  16.109  43.078  1.00  0.00     0.027 C 
ATOM     20  C   UNL A   1      42.728  16.088  41.066  1.00  0.00     0.316 C 
BRANCH  20  21
ATOM     21  C   UNL A   1      43.191  15.915  39.611  1.00  0.00     0.430 C 
ATOM     22  F   UNL A   1      44.509  15.600  39.551  1.00  0.00    -0.167 F 
ATOM     23  F   UNL A   1      42.530  14.911  38.987  1.00  0.00    -0.167 F 
ATOM     24  F   UNL A   1      43.010  17.036  38.879  1.00  0.00    -0.167 F 
ENDBRANCH  20  21
ENDBRANCH   7   9
ENDBRANCH   6   7
ENDBRANCH   5   6
ENDBRANCH   4   5
ENDBRANCH   3   4
ENDBRANCH   2   3
ENDBRANCH   1   2
BRANCH   1  25
ATOM     25  O   UNL A   1      47.531  22.135  37.356  1.00  0.00    -0.376 OA
BRANCH  25  26
ATOM     26  C   UNL A   1      47.012  23.397  37.752  1.00  0.00     0.202 C 
BRANCH  26  27
ATOM     27  C   UNL A   1      47.948  24.599  37.921  1.00  0.00     0.261 C 
BRANCH  27  28
ATOM     28  O   UNL A   1      47.963  25.488  36.795  1.00  0.00    -0.460 OA
BRANCH  28  29
ATOM     29  C   UNL A   1      47.853  26.805  37.100  1.00  0.00     0.338 C 
ATOM     30  O   UNL A   1      48.683  27.509  37.650  1.00  0.00    -0.246 OA
BRANCH  29  31
ATOM     31  C   UNL A   1      46.626  27.344  36.486  1.00  0.00     0.060 A 
ATOM     32  C   UNL A   1      46.710  28.567  35.805  1.00  0.00     0.016 A 
ATOM     33  C   UNL A   1      45.404  26.682  36.613  1.00  0.00     0.016 A 
ATOM     34  C   UNL A   1      45.563  29.141  35.261  1.00  0.00     0.010 A 
ATOM     35  C   UNL A   1      44.250  27.274  36.090  1.00  0.00     0.010 A 
ATOM     36  C   UNL A   1      44.321  28.516  35.435  1.00  0.00    -0.014 A 
BRANCH  36  37
ATOM     37  C   UNL A   1      43.082  29.253  35.095  1.00  0.00     0.031 A 
ATOM     38  C   UNL A   1      42.373  28.908  33.813  1.00  0.00     0.074 A 
ATOM     39  C   UNL A   1      42.572  30.182  35.924  1.00  0.00     0.049 A 
ATOM     40  N   UNL A   1      41.280  29.418  33.311  1.00  0.00    -0.248 NA
ATOM     41  C   UNL A   1      42.974  27.841  32.995  1.00  0.00     0.031 C 
ATOM     42  C   UNL A   1      43.132  30.561  37.221  1.00  0.00     0.029 A 
ATOM     43  N   UNL A   1      41.457  30.971  35.794  1.00  0.00    -0.354 N 
ATOM     44  C   UNL A   1      41.052  28.725  32.128  1.00  0.00     0.074 A 
ATOM     45  C   UNL A   1      42.139  27.785  31.969  1.00  0.00     0.031 C 
ATOM     46  C   UNL A   1      42.353  31.510  37.770  1.00  0.00     0.029 A 
ATOM     47  C   UNL A   1      41.260  31.827  36.851  1.00  0.00     0.049 A 
ATOM     48  H   UNL A   1      40.854  30.928  35.016  1.00  0.00     0.167 HD
ATOM     49  C   UNL A   1      40.024  28.851  31.257  1.00  0.00     0.031 A 
ATOM     50  C   UNL A   1      40.313  32.766  37.047  1.00  0.00     0.031 A 
ATOM     51  C   UNL A   1      38.962  29.808  31.395  1.00  0.00     0.049 A 
ATOM     52  C   UNL A   1      39.247  32.974  36.000  1.00  0.00     0.074 A 
ATOM     53  C   UNL A   1      37.887  30.028  30.552  1.00  0.00     0.029 A 
ATOM     54  N   UNL A   1      38.843  30.712  32.440  1.00  0.00    -0.354 N 
ATOM     55  N   UNL A   1      39.045  32.311  34.887  1.00  0.00    -0.248 NA
ATOM     56  C   UNL A   1      38.284  34.061  36.236  1.00  0.00     0.031 C 
ATOM     57  C   UNL A   1      37.146  31.099  31.061  1.00  0.00     0.029 A 
ATOM     58  C   UNL A   1      37.727  31.508  32.251  1.00  0.00     0.049 A 
ATOM     59  H   UNL A   1      39.461  30.777  33.204  1.00  0.00     0.167 HD
ATOM     60  C   UNL A   1      37.916  32.882  34.304  1.00  0.00     0.074 A 
ATOM     61  C   UNL A   1      37.476  33.939  35.191  1.00  0.00     0.031 C 
ATOM     62  C   UNL A   1      37.300  32.556  33.141  1.00  0.00     0.031 A 
BRANCH  49  63
ATOM     63  C   UNL A   1      40.014  27.939  30.062  1.00  0.00    -0.014 A 
ATOM     64  C   UNL A   1      40.751  28.261  28.908  1.00  0.00     0.010 A 
ATOM     65  C   UNL A   1      39.297  26.731  30.107  1.00  0.00     0.010 A 
ATOM     66  C   UNL A   1      40.751  27.400  27.809  1.00  0.00     0.020 A 
ATOM     67  C   UNL A   1      39.314  25.856  29.017  1.00  0.00     0.020 A 
ATOM     68  C   UNL A   1      40.031  26.202  27.870  1.00  0.00     0.054 A 
BRANCH  68  69
ATOM     69  S   UNL A   1      40.075  25.091  26.437  1.00  0.00     0.124 S 
ATOM     70  O   UNL A   1      40.720  25.927  25.428  1.00  0.00    -0.237 OA
ATOM     71  O   UNL A   1      40.873  23.970  26.927  1.00  0.00    -0.237 OA
ATOM     72  O   UNL A   1      38.668  24.790  26.187  1.00  0.00    -0.744 OA
ENDBRANCH  68  69
ENDBRANCH  49  63
BRANCH  50  73
ATOM     73  C   UNL A   1      40.326  33.595  38.284  1.00  0.00    -0.014 A 
ATOM     74  C   UNL A   1      39.592  33.199  39.415  1.00  0.00     0.010 A 
ATOM     75  C   UNL A   1      41.070  34.789  38.334  1.00  0.00     0.010 A 
ATOM     76  C   UNL A   1      39.591  33.988  40.570  1.00  0.00     0.020 A 
ATOM     77  C   UNL A   1      41.090  35.568  39.496  1.00  0.00     0.020 A 
ATOM     78  C   UNL A   1      40.342  35.166  40.604  1.00  0.00     0.054 A 
BRANCH  78  79
ATOM     79  S   UNL A   1      40.361  36.147  42.130  1.00  0.00     0.124 S 
ATOM     80  O   UNL A   1      40.129  35.128  43.149  1.00  0.00    -0.237 OA
ATOM     81  O   UNL A   1      41.701  36.729  42.112  1.00  0.00    -0.237 OA
ATOM     82  O   UNL A   1      39.271  37.101  41.938  1.00  0.00    -0.744 OA
ENDBRANCH  78  79
ENDBRANCH  50  73
BRANCH  62  83
ATOM     83  C   UNL A   1      36.066  33.329  32.756  1.00  0.00    -0.014 A 
ATOM     84  C   UNL A   1      34.846  33.124  33.425  1.00  0.00     0.010 A 
ATOM     85  C   UNL A   1      36.155  34.343  31.784  1.00  0.00     0.010 A 
ATOM     86  C   UNL A   1      33.735  33.916  33.121  1.00  0.00     0.020 A 
ATOM     87  C   UNL A   1      35.054  35.152  31.496  1.00  0.00     0.020 A 
ATOM     88  C   UNL A   1      33.847  34.928  32.163  1.00  0.00     0.054 A 
BRANCH  88  89
ATOM     89  S   UNL A   1      32.410  35.990  31.845  1.00  0.00     0.124 S 
ATOM     90  O   UNL A   1      31.336  35.253  32.505  1.00  0.00    -0.237 OA
ATOM     91  O   UNL A   1      32.794  37.246  32.482  1.00  0.00    -0.237 OA
ATOM     92  O   UNL A   1      32.328  36.037  30.387  1.00  0.00    -0.744 OA
ENDBRANCH  88  89
ENDBRANCH  62  83
ENDBRANCH  36  37
ENDBRANCH  29  31
ENDBRANCH  28  29
ENDBRANCH  27  28
ENDBRANCH  26  27
ENDBRANCH  25  26
ENDBRANCH   1  25
TORSDOF 21
ENDMDL
