MODEL 1
REMARK VINA RESULT:      -9.6      0.000      0.000
REMARK SMILES CS(=O)(=O)c1ccc(C2=NN(c3ccc(C(=O)OCCOCCOCCOC(=O)c4ccc(-c5c6nc(c(-c7ccc(S(=O)(=O)[O-])cc7)c7ccc([nH]7)c(-c7ccc(S(=O)(=O)[O-])cc7)c7nc(c(-c8ccc(S(=O)(=O)[O-])cc8)c8ccc5[nH]8)C=C7)C=C6)cc4)cc3)[C@H](c3ccccc3)C2)cc1
REMARK SMILES IDX 22 1 21 2 20 3 19 4 18 5 16 6 17 7 15 8 12 9 13 10 91 11
REMARK SMILES IDX 14 12 90 13 11 14 9 15 10 16 99 17 92 18 8 19 5 20 6 21
REMARK SMILES IDX 101 22 7 23 100 24 2 25 1 26 3 27 4 28 93 29 94 30 98 31
REMARK SMILES IDX 95 32 97 33 96 34 23 35 24 36 25 37 26 38 27 39 28 40 29 41
REMARK SMILES IDX 30 42 31 43 89 44 32 45 88 46 33 47 34 48 35 49 82 50 36 51
REMARK SMILES IDX 87 52 81 53 83 54 37 55 86 56 80 57 79 58 38 60 68 61 49 62
REMARK SMILES IDX 67 63 50 64 53 65 66 66 84 67 51 68 52 69 65 71 85 72 54 73
REMARK SMILES IDX 39 74 40 75 48 76 41 77 47 78 42 79 43 80 44 81 45 82 46 83
REMARK SMILES IDX 69 84 70 85 78 86 71 87 77 88 72 89 73 90 74 91 75 92 76 93
REMARK SMILES IDX 55 94 56 95 64 96 57 97 63 98 58 99 59 100 60 101 61 102
REMARK SMILES IDX 62 103
REMARK H PARENT 83 59 53 70
REMARK Flexibility Score: inf
ROOT
ATOM      1  C   UNL A   1      40.665  20.719  26.908  1.00  0.00     0.188 C 
ENDROOT
BRANCH   1   2
ATOM      2  O   UNL A   1      39.891  21.132  25.793  1.00  0.00    -0.376 OA
BRANCH   2   3
ATOM      3  C   UNL A   1      38.671  20.476  25.483  1.00  0.00     0.202 C 
BRANCH   3   4
ATOM      4  C   UNL A   1      37.497  21.198  24.802  1.00  0.00     0.261 C 
BRANCH   4   5
ATOM      5  O   UNL A   1      36.458  21.647  25.682  1.00  0.00    -0.460 OA
BRANCH   5   6
ATOM      6  C   UNL A   1      35.194  21.499  25.214  1.00  0.00     0.338 C 
ATOM      7  O   UNL A   1      34.661  20.455  24.878  1.00  0.00    -0.246 OA
BRANCH   6   8
ATOM      8  C   UNL A   1      34.462  22.789  25.278  1.00  0.00     0.060 A 
ATOM      9  C   UNL A   1      33.310  25.344  25.425  1.00  0.00     0.060 A 
ATOM     10  C   UNL A   1      34.041  24.965  24.294  1.00  0.00     0.029 A 
ATOM     11  C   UNL A   1      33.049  24.380  26.411  1.00  0.00     0.029 A 
ATOM     12  C   UNL A   1      34.622  23.696  24.223  1.00  0.00     0.018 A 
ATOM     13  C   UNL A   1      33.635  23.114  26.355  1.00  0.00     0.018 A 
BRANCH   9  14
ATOM     14  N   UNL A   1      33.022  26.688  25.696  1.00  0.00    -0.257 N 
ATOM     15  C   UNL A   1      33.440  28.475  26.780  1.00  0.00     0.071 C 
ATOM     16  N   UNL A   1      34.005  27.548  26.069  1.00  0.00    -0.176 NA
ATOM     17  C   UNL A   1      31.985  28.263  27.097  1.00  0.00     0.091 C 
ATOM     18  C   UNL A   1      31.700  27.004  26.269  1.00  0.00     0.144 C 
BRANCH  15  19
ATOM     19  C   UNL A   1      34.147  29.687  27.237  1.00  0.00    -0.002 A 
ATOM     20  C   UNL A   1      35.402  31.997  28.181  1.00  0.00     0.067 A 
ATOM     21  C   UNL A   1      34.010  31.967  28.035  1.00  0.00     0.021 A 
ATOM     22  C   UNL A   1      36.171  30.876  27.855  1.00  0.00     0.021 A 
ATOM     23  C   UNL A   1      33.385  30.816  27.551  1.00  0.00     0.011 A 
ATOM     24  C   UNL A   1      35.539  29.713  27.391  1.00  0.00     0.011 A 
BRANCH  20  25
ATOM     25  S   UNL A   1      36.122  33.499  28.807  1.00  0.00     0.175 S 
ATOM     26  C   UNL A   1      35.804  33.560  30.545  1.00  0.00     0.163 C 
ATOM     27  O   UNL A   1      35.371  34.589  28.209  1.00  0.00    -0.224 OA
ATOM     28  O   UNL A   1      37.553  33.382  28.622  1.00  0.00    -0.224 OA
ENDBRANCH  20  25
ENDBRANCH  15  19
BRANCH  18  29
ATOM     29  C   UNL A   1      30.651  27.087  25.163  1.00  0.00    -0.023 A 
ATOM     30  C   UNL A   1      29.609  26.164  25.002  1.00  0.00     0.006 A 
ATOM     31  C   UNL A   1      30.668  28.210  24.310  1.00  0.00     0.006 A 
ATOM     32  C   UNL A   1      28.614  26.370  24.038  1.00  0.00     0.000 A 
ATOM     33  C   UNL A   1      29.649  28.441  23.386  1.00  0.00     0.000 A 
ATOM     34  C   UNL A   1      28.622  27.517  23.247  1.00  0.00     0.000 A 
ENDBRANCH  18  29
ENDBRANCH   9  14
ENDBRANCH   6   8
ENDBRANCH   5   6
ENDBRANCH   4   5
ENDBRANCH   3   4
ENDBRANCH   2   3
ENDBRANCH   1   2
BRANCH   1  35
ATOM     35  C   UNL A   1      42.179  20.478  26.743  1.00  0.00     0.188 C 
BRANCH  35  36
ATOM     36  O   UNL A   1      42.865  21.374  25.903  1.00  0.00    -0.376 OA
BRANCH  36  37
ATOM     37  C   UNL A   1      43.735  22.343  26.461  1.00  0.00     0.202 C 
BRANCH  37  38
ATOM     38  C   UNL A   1      45.279  22.301  26.459  1.00  0.00     0.261 C 
BRANCH  38  39
ATOM     39  O   UNL A   1      46.007  23.516  26.648  1.00  0.00    -0.460 OA
BRANCH  39  40
ATOM     40  C   UNL A   1      46.093  24.332  25.570  1.00  0.00     0.338 C 
ATOM     41  O   UNL A   1      45.998  24.013  24.396  1.00  0.00    -0.246 OA
BRANCH  40  42
ATOM     42  C   UNL A   1      46.146  25.730  26.042  1.00  0.00     0.060 A 
ATOM     43  C   UNL A   1      46.809  26.013  27.244  1.00  0.00     0.016 A 
ATOM     44  C   UNL A   1      45.529  26.749  25.315  1.00  0.00     0.016 A 
ATOM     45  C   UNL A   1      46.843  27.320  27.730  1.00  0.00     0.010 A 
ATOM     46  C   UNL A   1      45.547  28.055  25.816  1.00  0.00     0.010 A 
ATOM     47  C   UNL A   1      46.182  28.343  27.037  1.00  0.00    -0.014 A 
BRANCH  47  48
ATOM     48  C   UNL A   1      46.042  29.683  27.659  1.00  0.00     0.031 A 
ATOM     49  C   UNL A   1      44.800  29.995  28.449  1.00  0.00     0.074 A 
ATOM     50  C   UNL A   1      47.008  30.610  27.530  1.00  0.00     0.049 A 
ATOM     51  N   UNL A   1      44.462  31.101  29.060  1.00  0.00    -0.248 NA
ATOM     52  C   UNL A   1      43.806  28.916  28.559  1.00  0.00     0.031 C 
ATOM     53  C   UNL A   1      48.266  30.425  26.811  1.00  0.00     0.029 A 
ATOM     54  N   UNL A   1      47.070  31.900  27.995  1.00  0.00    -0.354 N 
ATOM     55  C   UNL A   1      43.211  30.858  29.613  1.00  0.00     0.074 A 
ATOM     56  C   UNL A   1      42.839  29.509  29.242  1.00  0.00     0.031 C 
ATOM     57  C   UNL A   1      48.973  31.567  26.871  1.00  0.00     0.029 A 
ATOM     58  C   UNL A   1      48.202  32.572  27.603  1.00  0.00     0.049 A 
ATOM     59  H   UNL A   1      46.370  32.307  28.555  1.00  0.00     0.167 HD
ATOM     60  C   UNL A   1      42.439  31.683  30.363  1.00  0.00     0.031 A 
ATOM     61  C   UNL A   1      48.569  33.856  27.791  1.00  0.00     0.031 A 
ATOM     62  C   UNL A   1      42.802  33.032  30.713  1.00  0.00     0.049 A 
ATOM     63  C   UNL A   1      47.675  34.773  28.583  1.00  0.00     0.074 A 
ATOM     64  C   UNL A   1      42.108  33.933  31.501  1.00  0.00     0.029 A 
ATOM     65  N   UNL A   1      43.948  33.683  30.278  1.00  0.00    -0.354 N 
ATOM     66  N   UNL A   1      46.520  34.514  29.149  1.00  0.00    -0.248 NA
ATOM     67  C   UNL A   1      48.141  36.154  28.771  1.00  0.00     0.031 C 
ATOM     68  C   UNL A   1      42.796  35.151  31.483  1.00  0.00     0.029 A 
ATOM     69  C   UNL A   1      43.959  34.988  30.746  1.00  0.00     0.049 A 
ATOM     70  H   UNL A   1      44.651  33.278  29.721  1.00  0.00     0.167 HD
ATOM     71  C   UNL A   1      46.129  35.694  29.776  1.00  0.00     0.074 A 
ATOM     72  C   UNL A   1      47.183  36.659  29.537  1.00  0.00     0.031 C 
ATOM     73  C   UNL A   1      45.001  35.951  30.486  1.00  0.00     0.031 A 
BRANCH  60  74
ATOM     74  C   UNL A   1      41.094  31.162  30.804  1.00  0.00    -0.014 A 
ATOM     75  C   UNL A   1      40.034  30.988  29.894  1.00  0.00     0.010 A 
ATOM     76  C   UNL A   1      40.892  30.829  32.156  1.00  0.00     0.010 A 
ATOM     77  C   UNL A   1      38.784  30.546  30.338  1.00  0.00     0.020 A 
ATOM     78  C   UNL A   1      39.654  30.356  32.598  1.00  0.00     0.020 A 
ATOM     79  C   UNL A   1      38.601  30.238  31.690  1.00  0.00     0.054 A 
BRANCH  79  80
ATOM     80  S   UNL A   1      36.969  29.671  32.241  1.00  0.00     0.124 S 
ATOM     81  O   UNL A   1      36.292  29.418  30.971  1.00  0.00    -0.237 OA
ATOM     82  O   UNL A   1      37.290  28.484  33.029  1.00  0.00    -0.237 OA
ATOM     83  O   UNL A   1      36.449  30.801  33.008  1.00  0.00    -0.744 OA
ENDBRANCH  79  80
ENDBRANCH  60  74
BRANCH  61  84
ATOM     84  C   UNL A   1      49.843  34.348  27.196  1.00  0.00    -0.014 A 
ATOM     85  C   UNL A   1      49.888  34.817  25.872  1.00  0.00     0.010 A 
ATOM     86  C   UNL A   1      51.016  34.384  27.974  1.00  0.00     0.010 A 
ATOM     87  C   UNL A   1      51.080  35.316  25.338  1.00  0.00     0.020 A 
ATOM     88  C   UNL A   1      52.201  34.909  27.454  1.00  0.00     0.020 A 
ATOM     89  C   UNL A   1      52.227  35.369  26.137  1.00  0.00     0.054 A 
BRANCH  89  90
ATOM     90  S   UNL A   1      53.736  36.108  25.451  1.00  0.00     0.124 S 
ATOM     91  O   UNL A   1      53.853  35.424  24.167  1.00  0.00    -0.237 OA
ATOM     92  O   UNL A   1      53.388  37.525  25.384  1.00  0.00    -0.237 OA
ATOM     93  O   UNL A   1      54.762  35.772  26.435  1.00  0.00    -0.744 OA
ENDBRANCH  89  90
ENDBRANCH  61  84
BRANCH  73  94
ATOM     94  C   UNL A   1      44.851  37.333  31.074  1.00  0.00    -0.014 A 
ATOM     95  C   UNL A   1      44.044  38.308  30.461  1.00  0.00     0.010 A 
ATOM     96  C   UNL A   1      45.499  37.648  32.283  1.00  0.00     0.010 A 
ATOM     97  C   UNL A   1      43.924  39.585  31.020  1.00  0.00     0.020 A 
ATOM     98  C   UNL A   1      45.356  38.912  32.863  1.00  0.00     0.020 A 
ATOM     99  C   UNL A   1      44.585  39.879  32.217  1.00  0.00     0.054 A 
BRANCH  99 100
ATOM    100  S   UNL A   1      44.398  41.536  32.933  1.00  0.00     0.124 S 
ATOM    101  O   UNL A   1      45.500  42.263  32.307  1.00  0.00    -0.237 OA
ATOM    102  O   UNL A   1      43.060  41.926  32.496  1.00  0.00    -0.237 OA
ATOM    103  O   UNL A   1      44.537  41.311  34.370  1.00  0.00    -0.744 OA
ENDBRANCH  99 100
ENDBRANCH  73  94
ENDBRANCH  47  48
ENDBRANCH  40  42
ENDBRANCH  39  40
ENDBRANCH  38  39
ENDBRANCH  37  38
ENDBRANCH  36  37
ENDBRANCH  35  36
ENDBRANCH   1  35
TORSDOF 24
ENDMDL
MODEL 2
REMARK VINA RESULT:      -9.3      0.688      7.588
REMARK SMILES CS(=O)(=O)c1ccc(C2=NN(c3ccc(C(=O)OCCOCCOCCOC(=O)c4ccc(-c5c6nc(c(-c7ccc(S(=O)(=O)[O-])cc7)c7ccc([nH]7)c(-c7ccc(S(=O)(=O)[O-])cc7)c7nc(c(-c8ccc(S(=O)(=O)[O-])cc8)c8ccc5[nH]8)C=C7)C=C6)cc4)cc3)[C@H](c3ccccc3)C2)cc1
REMARK SMILES IDX 22 1 21 2 20 3 19 4 18 5 16 6 17 7 15 8 12 9 13 10 91 11
REMARK SMILES IDX 14 12 90 13 11 14 9 15 10 16 99 17 92 18 8 19 5 20 6 21
REMARK SMILES IDX 101 22 7 23 100 24 2 25 1 26 3 27 4 28 93 29 94 30 98 31
REMARK SMILES IDX 95 32 97 33 96 34 23 35 24 36 25 37 26 38 27 39 28 40 29 41
REMARK SMILES IDX 30 42 31 43 89 44 32 45 88 46 33 47 34 48 35 49 82 50 36 51
REMARK SMILES IDX 87 52 81 53 83 54 37 55 86 56 80 57 79 58 38 60 68 61 49 62
REMARK SMILES IDX 67 63 50 64 53 65 66 66 84 67 51 68 52 69 65 71 85 72 54 73
REMARK SMILES IDX 39 74 40 75 48 76 41 77 47 78 42 79 43 80 44 81 45 82 46 83
REMARK SMILES IDX 69 84 70 85 78 86 71 87 77 88 72 89 73 90 74 91 75 92 76 93
REMARK SMILES IDX 55 94 56 95 64 96 57 97 63 98 58 99 59 100 60 101 61 102
REMARK SMILES IDX 62 103
REMARK H PARENT 83 59 53 70
REMARK Flexibility Score: inf
ROOT
ATOM      1  C   UNL A   1      41.021  20.017  26.752  1.00  0.00     0.188 C 
ENDROOT
BRANCH   1   2
ATOM      2  O   UNL A   1      40.189  21.087  26.335  1.00  0.00    -0.376 OA
BRANCH   2   3
ATOM      3  C   UNL A   1      38.993  20.830  25.615  1.00  0.00     0.202 C 
BRANCH   3   4
ATOM      4  C   UNL A   1      37.991  21.940  25.258  1.00  0.00     0.261 C 
BRANCH   4   5
ATOM      5  O   UNL A   1      36.731  21.872  25.936  1.00  0.00    -0.460 OA
BRANCH   5   6
ATOM      6  C   UNL A   1      35.640  21.790  25.134  1.00  0.00     0.338 C 
ATOM      7  O   UNL A   1      35.271  20.811  24.507  1.00  0.00    -0.246 OA
BRANCH   6   8
ATOM      8  C   UNL A   1      34.847  23.041  25.207  1.00  0.00     0.060 A 
ATOM      9  C   UNL A   1      33.567  25.532  25.403  1.00  0.00     0.060 A 
ATOM     10  C   UNL A   1      34.427  25.265  24.333  1.00  0.00     0.029 A 
ATOM     11  C   UNL A   1      33.251  24.490  26.289  1.00  0.00     0.029 A 
ATOM     12  C   UNL A   1      35.071  24.028  24.239  1.00  0.00     0.018 A 
ATOM     13  C   UNL A   1      33.898  23.256  26.210  1.00  0.00     0.018 A 
BRANCH   9  14
ATOM     14  N   UNL A   1      33.189  26.840  25.732  1.00  0.00    -0.257 N 
ATOM     15  C   UNL A   1      33.485  28.600  26.899  1.00  0.00     0.071 C 
ATOM     16  N   UNL A   1      34.113  27.746  26.151  1.00  0.00    -0.176 NA
ATOM     17  C   UNL A   1      32.045  28.279  27.195  1.00  0.00     0.091 C 
ATOM     18  C   UNL A   1      31.847  27.043  26.309  1.00  0.00     0.144 C 
BRANCH  15  19
ATOM     19  C   UNL A   1      34.108  29.834  27.415  1.00  0.00    -0.002 A 
ATOM     20  C   UNL A   1      35.370  32.158  28.312  1.00  0.00     0.067 A 
ATOM     21  C   UNL A   1      36.134  31.036  27.967  1.00  0.00     0.021 A 
ATOM     22  C   UNL A   1      33.976  32.123  28.213  1.00  0.00     0.021 A 
ATOM     23  C   UNL A   1      35.501  29.871  27.531  1.00  0.00     0.011 A 
ATOM     24  C   UNL A   1      33.345  30.958  27.752  1.00  0.00     0.011 A 
BRANCH  20  25
ATOM     25  S   UNL A   1      36.253  33.605  28.856  1.00  0.00     0.175 S 
ATOM     26  C   UNL A   1      36.123  33.679  30.618  1.00  0.00     0.163 C 
ATOM     27  O   UNL A   1      35.520  34.746  28.337  1.00  0.00    -0.224 OA
ATOM     28  O   UNL A   1      37.645  33.392  28.522  1.00  0.00    -0.224 OA
ENDBRANCH  20  25
ENDBRANCH  15  19
BRANCH  18  29
ATOM     29  C   UNL A   1      30.800  27.107  25.201  1.00  0.00    -0.023 A 
ATOM     30  C   UNL A   1      29.808  26.137  25.004  1.00  0.00     0.006 A 
ATOM     31  C   UNL A   1      30.762  28.256  24.384  1.00  0.00     0.006 A 
ATOM     32  C   UNL A   1      28.808  26.322  24.041  1.00  0.00     0.000 A 
ATOM     33  C   UNL A   1      29.735  28.464  23.462  1.00  0.00     0.000 A 
ATOM     34  C   UNL A   1      28.759  27.493  23.287  1.00  0.00     0.000 A 
ENDBRANCH  18  29
ENDBRANCH   9  14
ENDBRANCH   6   8
ENDBRANCH   5   6
ENDBRANCH   4   5
ENDBRANCH   3   4
ENDBRANCH   2   3
ENDBRANCH   1   2
BRANCH   1  35
ATOM     35  C   UNL A   1      42.386  19.795  26.068  1.00  0.00     0.188 C 
BRANCH  35  36
ATOM     36  O   UNL A   1      42.926  20.900  25.383  1.00  0.00    -0.376 OA
BRANCH  36  37
ATOM     37  C   UNL A   1      43.725  21.842  26.077  1.00  0.00     0.202 C 
BRANCH  37  38
ATOM     38  C   UNL A   1      45.263  21.820  26.211  1.00  0.00     0.261 C 
BRANCH  38  39
ATOM     39  O   UNL A   1      45.941  23.010  26.616  1.00  0.00    -0.460 OA
BRANCH  39  40
ATOM     40  C   UNL A   1      46.469  23.763  25.620  1.00  0.00     0.338 C 
ATOM     41  O   UNL A   1      46.864  23.373  24.534  1.00  0.00    -0.246 OA
BRANCH  40  42
ATOM     42  C   UNL A   1      46.328  25.187  25.984  1.00  0.00     0.060 A 
ATOM     43  C   UNL A   1      47.290  25.769  26.820  1.00  0.00     0.016 A 
ATOM     44  C   UNL A   1      45.246  25.934  25.519  1.00  0.00     0.016 A 
ATOM     45  C   UNL A   1      47.162  27.103  27.207  1.00  0.00     0.010 A 
ATOM     46  C   UNL A   1      45.109  27.266  25.925  1.00  0.00     0.010 A 
ATOM     47  C   UNL A   1      46.052  27.850  26.791  1.00  0.00    -0.014 A 
BRANCH  47  48
ATOM     48  C   UNL A   1      45.809  29.194  27.369  1.00  0.00     0.031 A 
ATOM     49  C   UNL A   1      46.880  30.244  27.253  1.00  0.00     0.074 A 
ATOM     50  C   UNL A   1      44.648  29.484  27.984  1.00  0.00     0.049 A 
ATOM     51  N   UNL A   1      46.888  31.474  27.698  1.00  0.00    -0.248 NA
ATOM     52  C   UNL A   1      48.108  29.850  26.545  1.00  0.00     0.031 C 
ATOM     53  C   UNL A   1      43.523  28.564  28.141  1.00  0.00     0.029 A 
ATOM     54  N   UNL A   1      44.230  30.637  28.600  1.00  0.00    -0.354 N 
ATOM     55  C   UNL A   1      48.125  31.997  27.339  1.00  0.00     0.074 A 
ATOM     56  C   UNL A   1      48.849  30.941  26.664  1.00  0.00     0.031 C 
ATOM     57  C   UNL A   1      42.546  29.185  28.824  1.00  0.00     0.029 A 
ATOM     58  C   UNL A   1      42.990  30.534  29.179  1.00  0.00     0.049 A 
ATOM     59  H   UNL A   1      44.769  31.461  28.625  1.00  0.00     0.167 HD
ATOM     60  C   UNL A   1      48.614  33.243  27.552  1.00  0.00     0.031 A 
ATOM     61  C   UNL A   1      42.297  31.413  29.932  1.00  0.00     0.031 A 
ATOM     62  C   UNL A   1      47.899  34.284  28.243  1.00  0.00     0.049 A 
ATOM     63  C   UNL A   1      42.879  32.775  30.202  1.00  0.00     0.074 A 
ATOM     64  C   UNL A   1      48.292  35.590  28.474  1.00  0.00     0.029 A 
ATOM     65  N   UNL A   1      46.652  34.132  28.835  1.00  0.00    -0.354 N 
ATOM     66  N   UNL A   1      44.026  33.276  29.808  1.00  0.00    -0.248 NA
ATOM     67  C   UNL A   1      42.066  33.696  31.009  1.00  0.00     0.031 C 
ATOM     68  C   UNL A   1      47.319  36.207  29.268  1.00  0.00     0.029 A 
ATOM     69  C   UNL A   1      46.282  35.309  29.468  1.00  0.00     0.049 A 
ATOM     70  H   UNL A   1      46.111  33.311  28.809  1.00  0.00     0.167 HD
ATOM     71  C   UNL A   1      44.065  34.576  30.304  1.00  0.00     0.074 A 
ATOM     72  C   UNL A   1      42.816  34.790  31.007  1.00  0.00     0.031 C 
ATOM     73  C   UNL A   1      45.046  35.508  30.185  1.00  0.00     0.031 A 
BRANCH  60  74
ATOM     74  C   UNL A   1      50.019  33.524  27.081  1.00  0.00    -0.014 A 
ATOM     75  C   UNL A   1      51.126  33.404  27.942  1.00  0.00     0.010 A 
ATOM     76  C   UNL A   1      50.235  33.906  25.744  1.00  0.00     0.010 A 
ATOM     77  C   UNL A   1      52.413  33.715  27.490  1.00  0.00     0.020 A 
ATOM     78  C   UNL A   1      51.523  34.185  25.280  1.00  0.00     0.020 A 
ATOM     79  C   UNL A   1      52.601  34.110  26.162  1.00  0.00     0.054 A 
BRANCH  79  80
ATOM     80  S   UNL A   1      54.279  34.512  25.602  1.00  0.00     0.124 S 
ATOM     81  O   UNL A   1      54.432  33.627  24.450  1.00  0.00    -0.237 OA
ATOM     82  O   UNL A   1      54.182  35.935  25.293  1.00  0.00    -0.237 OA
ATOM     83  O   UNL A   1      55.118  34.184  26.753  1.00  0.00    -0.744 OA
ENDBRANCH  79  80
ENDBRANCH  60  74
BRANCH  61  84
ATOM     84  C   UNL A   1      40.978  31.014  30.496  1.00  0.00    -0.014 A 
ATOM     85  C   UNL A   1      39.848  30.884  29.670  1.00  0.00     0.010 A 
ATOM     86  C   UNL A   1      40.858  30.722  31.868  1.00  0.00     0.010 A 
ATOM     87  C   UNL A   1      38.625  30.467  30.205  1.00  0.00     0.020 A 
ATOM     88  C   UNL A   1      39.646  30.277  32.400  1.00  0.00     0.020 A 
ATOM     89  C   UNL A   1      38.535  30.155  31.566  1.00  0.00     0.054 A 
BRANCH  89  90
ATOM     90  S   UNL A   1      36.962  29.526  32.215  1.00  0.00     0.124 S 
ATOM     91  O   UNL A   1      36.235  29.199  30.991  1.00  0.00    -0.237 OA
ATOM     92  O   UNL A   1      37.389  28.384  33.020  1.00  0.00    -0.237 OA
ATOM     93  O   UNL A   1      36.429  30.653  32.977  1.00  0.00    -0.744 OA
ENDBRANCH  89  90
ENDBRANCH  61  84
BRANCH  73  94
ATOM     94  C   UNL A   1      44.803  36.856  30.818  1.00  0.00    -0.014 A 
ATOM     95  C   UNL A   1      45.228  37.139  32.128  1.00  0.00     0.010 A 
ATOM     96  C   UNL A   1      44.172  37.870  30.073  1.00  0.00     0.010 A 
ATOM     97  C   UNL A   1      44.987  38.394  32.697  1.00  0.00     0.020 A 
ATOM     98  C   UNL A   1      43.959  39.136  30.625  1.00  0.00     0.020 A 
ATOM     99  C   UNL A   1      44.351  39.384  31.942  1.00  0.00     0.054 A 
BRANCH  99 100
ATOM    100  S   UNL A   1      44.067  41.010  32.695  1.00  0.00     0.124 S 
ATOM    101  O   UNL A   1      43.997  41.879  31.522  1.00  0.00    -0.237 OA
ATOM    102  O   UNL A   1      42.808  40.818  33.411  1.00  0.00    -0.237 OA
ATOM    103  O   UNL A   1      45.238  41.208  33.546  1.00  0.00    -0.744 OA
ENDBRANCH  99 100
ENDBRANCH  73  94
ENDBRANCH  47  48
ENDBRANCH  40  42
ENDBRANCH  39  40
ENDBRANCH  38  39
ENDBRANCH  37  38
ENDBRANCH  36  37
ENDBRANCH  35  36
ENDBRANCH   1  35
TORSDOF 24
ENDMDL
MODEL 3
REMARK VINA RESULT:      -9.2      3.514     10.577
REMARK SMILES CS(=O)(=O)c1ccc(C2=NN(c3ccc(C(=O)OCCOCCOCCOC(=O)c4ccc(-c5c6nc(c(-c7ccc(S(=O)(=O)[O-])cc7)c7ccc([nH]7)c(-c7ccc(S(=O)(=O)[O-])cc7)c7nc(c(-c8ccc(S(=O)(=O)[O-])cc8)c8ccc5[nH]8)C=C7)C=C6)cc4)cc3)[C@H](c3ccccc3)C2)cc1
REMARK SMILES IDX 22 1 21 2 20 3 19 4 18 5 16 6 17 7 15 8 12 9 13 10 91 11
REMARK SMILES IDX 14 12 90 13 11 14 9 15 10 16 99 17 92 18 8 19 5 20 6 21
REMARK SMILES IDX 101 22 7 23 100 24 2 25 1 26 3 27 4 28 93 29 94 30 98 31
REMARK SMILES IDX 95 32 97 33 96 34 23 35 24 36 25 37 26 38 27 39 28 40 29 41
REMARK SMILES IDX 30 42 31 43 89 44 32 45 88 46 33 47 34 48 35 49 82 50 36 51
REMARK SMILES IDX 87 52 81 53 83 54 37 55 86 56 80 57 79 58 38 60 68 61 49 62
REMARK SMILES IDX 67 63 50 64 53 65 66 66 84 67 51 68 52 69 65 71 85 72 54 73
REMARK SMILES IDX 39 74 40 75 48 76 41 77 47 78 42 79 43 80 44 81 45 82 46 83
REMARK SMILES IDX 69 84 70 85 78 86 71 87 77 88 72 89 73 90 74 91 75 92 76 93
REMARK SMILES IDX 55 94 56 95 64 96 57 97 63 98 58 99 59 100 60 101 61 102
REMARK SMILES IDX 62 103
REMARK H PARENT 83 59 53 70
REMARK Flexibility Score: inf
ROOT
ATOM      1  C   UNL A   1      35.089  34.806  29.768  1.00  0.00     0.188 C 
ENDROOT
BRANCH   1   2
ATOM      2  O   UNL A   1      35.888  34.443  28.654  1.00  0.00    -0.376 OA
BRANCH   2   3
ATOM      3  C   UNL A   1      35.474  33.401  27.782  1.00  0.00     0.202 C 
BRANCH   3   4
ATOM      4  C   UNL A   1      35.726  31.917  28.094  1.00  0.00     0.261 C 
BRANCH   4   5
ATOM      5  O   UNL A   1      34.785  31.000  27.522  1.00  0.00    -0.460 OA
BRANCH   5   6
ATOM      6  C   UNL A   1      35.179  29.703  27.491  1.00  0.00     0.338 C 
ATOM      7  O   UNL A   1      36.108  29.211  28.110  1.00  0.00    -0.246 OA
BRANCH   6   8
ATOM      8  C   UNL A   1      34.237  28.893  26.679  1.00  0.00     0.060 A 
ATOM      9  C   UNL A   1      32.552  27.151  25.264  1.00  0.00     0.060 A 
ATOM     10  C   UNL A   1      32.345  27.376  26.629  1.00  0.00     0.029 A 
ATOM     11  C   UNL A   1      33.520  27.916  24.594  1.00  0.00     0.029 A 
ATOM     12  C   UNL A   1      33.189  28.236  27.337  1.00  0.00     0.018 A 
ATOM     13  C   UNL A   1      34.375  28.769  25.295  1.00  0.00     0.018 A 
BRANCH   9  14
ATOM     14  N   UNL A   1      31.980  26.055  24.606  1.00  0.00    -0.257 N 
ATOM     15  C   UNL A   1      32.165  24.081  23.820  1.00  0.00     0.071 C 
ATOM     16  N   UNL A   1      32.384  24.787  24.886  1.00  0.00    -0.176 NA
ATOM     17  C   UNL A   1      31.703  24.847  22.609  1.00  0.00     0.091 C 
ATOM     18  C   UNL A   1      31.533  26.246  23.214  1.00  0.00     0.144 C 
BRANCH  15  19
ATOM     19  C   UNL A   1      32.320  22.615  23.775  1.00  0.00    -0.002 A 
ATOM     20  C   UNL A   1      32.573  19.834  23.798  1.00  0.00     0.067 A 
ATOM     21  C   UNL A   1      32.936  20.578  24.927  1.00  0.00     0.021 A 
ATOM     22  C   UNL A   1      32.084  20.474  22.656  1.00  0.00     0.021 A 
ATOM     23  C   UNL A   1      32.821  21.969  24.909  1.00  0.00     0.011 A 
ATOM     24  C   UNL A   1      31.948  21.869  22.649  1.00  0.00     0.011 A 
BRANCH  20  25
ATOM     25  S   UNL A   1      32.745  18.065  23.902  1.00  0.00     0.175 S 
ATOM     26  C   UNL A   1      34.454  17.711  24.186  1.00  0.00     0.163 C 
ATOM     27  O   UNL A   1      32.428  17.548  22.583  1.00  0.00    -0.224 OA
ATOM     28  O   UNL A   1      32.004  17.643  25.073  1.00  0.00    -0.224 OA
ENDBRANCH  20  25
ENDBRANCH  15  19
BRANCH  18  29
ATOM     29  C   UNL A   1      30.146  26.882  23.188  1.00  0.00    -0.023 A 
ATOM     30  C   UNL A   1      29.000  26.287  23.733  1.00  0.00     0.006 A 
ATOM     31  C   UNL A   1      30.021  28.190  22.673  1.00  0.00     0.006 A 
ATOM     32  C   UNL A   1      27.786  26.982  23.778  1.00  0.00     0.000 A 
ATOM     33  C   UNL A   1      28.824  28.901  22.766  1.00  0.00     0.000 A 
ATOM     34  C   UNL A   1      27.703  28.294  23.316  1.00  0.00     0.000 A 
ENDBRANCH  18  29
ENDBRANCH   9  14
ENDBRANCH   6   8
ENDBRANCH   5   6
ENDBRANCH   4   5
ENDBRANCH   3   4
ENDBRANCH   2   3
ENDBRANCH   1   2
BRANCH   1  35
ATOM     35  C   UNL A   1      33.983  33.852  30.262  1.00  0.00     0.188 C 
BRANCH  35  36
ATOM     36  O   UNL A   1      34.389  32.830  31.140  1.00  0.00    -0.376 OA
BRANCH  36  37
ATOM     37  C   UNL A   1      35.467  33.050  32.033  1.00  0.00     0.202 C 
BRANCH  37  38
ATOM     38  C   UNL A   1      36.925  32.574  31.846  1.00  0.00     0.261 C 
BRANCH  38  39
ATOM     39  O   UNL A   1      37.926  33.530  31.493  1.00  0.00    -0.460 OA
BRANCH  39  40
ATOM     40  C   UNL A   1      38.827  33.832  32.460  1.00  0.00     0.338 C 
ATOM     41  O   UNL A   1      38.668  33.751  33.666  1.00  0.00    -0.246 OA
BRANCH  40  42
ATOM     42  C   UNL A   1      40.126  34.116  31.817  1.00  0.00     0.060 A 
ATOM     43  C   UNL A   1      40.203  34.114  30.418  1.00  0.00     0.016 A 
ATOM     44  C   UNL A   1      41.261  34.362  32.590  1.00  0.00     0.016 A 
ATOM     45  C   UNL A   1      41.425  34.345  29.787  1.00  0.00     0.010 A 
ATOM     46  C   UNL A   1      42.489  34.573  31.955  1.00  0.00     0.010 A 
ATOM     47  C   UNL A   1      42.583  34.541  30.552  1.00  0.00    -0.014 A 
BRANCH  47  48
ATOM     48  C   UNL A   1      43.909  34.577  29.887  1.00  0.00     0.031 A 
ATOM     49  C   UNL A   1      44.498  35.907  29.503  1.00  0.00     0.074 A 
ATOM     50  C   UNL A   1      44.586  33.443  29.632  1.00  0.00     0.049 A 
ATOM     51  N   UNL A   1      45.629  36.170  28.901  1.00  0.00    -0.248 NA
ATOM     52  C   UNL A   1      43.701  37.097  29.840  1.00  0.00     0.031 C 
ATOM     53  C   UNL A   1      44.136  32.095  29.974  1.00  0.00     0.029 A 
ATOM     54  N   UNL A   1      45.796  33.249  29.014  1.00  0.00    -0.354 N 
ATOM     55  C   UNL A   1      45.674  37.553  28.772  1.00  0.00     0.074 A 
ATOM     56  C   UNL A   1      44.444  38.070  29.334  1.00  0.00     0.031 C 
ATOM     57  C   UNL A   1      45.054  31.210  29.548  1.00  0.00     0.029 A 
ATOM     58  C   UNL A   1      46.138  31.926  28.876  1.00  0.00     0.049 A 
ATOM     59  H   UNL A   1      46.367  33.988  28.699  1.00  0.00     0.167 HD
ATOM     60  C   UNL A   1      46.650  38.325  28.233  1.00  0.00     0.031 A 
ATOM     61  C   UNL A   1      47.191  31.352  28.258  1.00  0.00     0.031 A 
ATOM     62  C   UNL A   1      47.862  37.806  27.656  1.00  0.00     0.049 A 
ATOM     63  C   UNL A   1      48.239  32.224  27.620  1.00  0.00     0.074 A 
ATOM     64  C   UNL A   1      48.929  38.508  27.122  1.00  0.00     0.029 A 
ATOM     65  N   UNL A   1      48.161  36.458  27.515  1.00  0.00    -0.354 N 
ATOM     66  N   UNL A   1      48.298  33.532  27.554  1.00  0.00    -0.248 NA
ATOM     67  C   UNL A   1      49.373  31.538  26.982  1.00  0.00     0.031 C 
ATOM     68  C   UNL A   1      49.838  37.585  26.593  1.00  0.00     0.029 A 
ATOM     69  C   UNL A   1      49.375  36.307  26.864  1.00  0.00     0.049 A 
ATOM     70  H   UNL A   1      47.595  35.718  27.831  1.00  0.00     0.167 HD
ATOM     71  C   UNL A   1      49.481  33.829  26.885  1.00  0.00     0.074 A 
ATOM     72  C   UNL A   1      50.118  32.562  26.586  1.00  0.00     0.031 C 
ATOM     73  C   UNL A   1      49.993  35.041  26.550  1.00  0.00     0.031 A 
BRANCH  60  74
ATOM     74  C   UNL A   1      46.411  39.814  28.192  1.00  0.00    -0.014 A 
ATOM     75  C   UNL A   1      46.773  40.651  29.264  1.00  0.00     0.010 A 
ATOM     76  C   UNL A   1      45.824  40.386  27.049  1.00  0.00     0.010 A 
ATOM     77  C   UNL A   1      46.498  42.022  29.217  1.00  0.00     0.020 A 
ATOM     78  C   UNL A   1      45.578  41.761  26.984  1.00  0.00     0.020 A 
ATOM     79  C   UNL A   1      45.897  42.566  28.078  1.00  0.00     0.054 A 
BRANCH  79  80
ATOM     80  S   UNL A   1      45.547  44.346  28.044  1.00  0.00     0.124 S 
ATOM     81  O   UNL A   1      44.996  44.518  26.702  1.00  0.00    -0.237 OA
ATOM     82  O   UNL A   1      44.596  44.508  29.139  1.00  0.00    -0.237 OA
ATOM     83  O   UNL A   1      46.854  44.961  28.262  1.00  0.00    -0.744 OA
ENDBRANCH  79  80
ENDBRANCH  60  74
BRANCH  61  84
ATOM     84  C   UNL A   1      47.286  29.867  28.202  1.00  0.00    -0.014 A 
ATOM     85  C   UNL A   1      46.658  29.141  27.176  1.00  0.00     0.010 A 
ATOM     86  C   UNL A   1      48.045  29.173  29.165  1.00  0.00     0.010 A 
ATOM     87  C   UNL A   1      46.790  27.749  27.110  1.00  0.00     0.020 A 
ATOM     88  C   UNL A   1      48.204  27.788  29.085  1.00  0.00     0.020 A 
ATOM     89  C   UNL A   1      47.572  27.083  28.060  1.00  0.00     0.054 A 
BRANCH  89  90
ATOM     90  S   UNL A   1      47.804  25.291  27.897  1.00  0.00     0.124 S 
ATOM     91  O   UNL A   1      46.524  24.773  28.371  1.00  0.00    -0.237 OA
ATOM     92  O   UNL A   1      48.058  25.137  26.467  1.00  0.00    -0.237 OA
ATOM     93  O   UNL A   1      48.950  25.013  28.760  1.00  0.00    -0.744 OA
ENDBRANCH  89  90
ENDBRANCH  61  84
BRANCH  73  94
ATOM     94  C   UNL A   1      51.321  35.060  25.833  1.00  0.00    -0.014 A 
ATOM     95  C   UNL A   1      52.537  35.044  26.539  1.00  0.00     0.010 A 
ATOM     96  C   UNL A   1      51.351  35.054  24.425  1.00  0.00     0.010 A 
ATOM     97  C   UNL A   1      53.756  35.068  25.854  1.00  0.00     0.020 A 
ATOM     98  C   UNL A   1      52.567  35.044  23.737  1.00  0.00     0.020 A 
ATOM     99  C   UNL A   1      53.763  35.071  24.456  1.00  0.00     0.054 A 
BRANCH  99 100
ATOM    100  S   UNL A   1      55.357  35.082  23.590  1.00  0.00     0.124 S 
ATOM    101  O   UNL A   1      56.292  35.361  24.678  1.00  0.00    -0.237 OA
ATOM    102  O   UNL A   1      55.429  33.734  23.031  1.00  0.00    -0.237 OA
ATOM    103  O   UNL A   1      55.211  36.152  22.606  1.00  0.00    -0.744 OA
ENDBRANCH  99 100
ENDBRANCH  73  94
ENDBRANCH  47  48
ENDBRANCH  40  42
ENDBRANCH  39  40
ENDBRANCH  38  39
ENDBRANCH  37  38
ENDBRANCH  36  37
ENDBRANCH  35  36
ENDBRANCH   1  35
TORSDOF 24
ENDMDL
