MODEL 1
REMARK VINA RESULT:     -10.0      0.000      0.000
REMARK SMILES CSc1ncc(Cl)c(C(=O)Nc2ccsc2C(=O)OCCOCCOCCOC(=O)c2ccc(-c3c4nc(c(-c5ccc(S(=O)(=O)[O-])cc5)c5ccc([nH]5)c(-c5ccc(S(=O)(=O)[O-])cc5)c5nc(c(-c6ccc(S(=O)(=O)[O-])cc6)c6ccc3[nH]6)C=C5)C=C4)cc2)n1
REMARK SMILES IDX 23 1 22 2 21 3 20 4 19 5 17 6 18 7 16 8 12 9 13 10 14 11
REMARK SMILES IDX 15 12 11 13 9 14 10 15 8 17 3 18 4 19 91 20 5 21 6 22 7 23
REMARK SMILES IDX 2 24 1 25 24 26 25 27 26 28 27 29 28 30 29 31 30 32 31 33
REMARK SMILES IDX 32 34 90 35 33 36 89 37 34 38 35 39 36 40 83 41 37 42 88 43
REMARK SMILES IDX 82 44 84 45 38 46 87 47 81 48 80 49 39 51 69 52 50 53 68 54
REMARK SMILES IDX 51 55 54 56 67 57 85 58 52 59 53 60 66 62 86 63 55 64 40 65
REMARK SMILES IDX 41 66 49 67 42 68 48 69 43 70 44 71 45 72 46 73 47 74 70 75
REMARK SMILES IDX 71 76 79 77 72 78 78 79 73 80 74 81 75 82 76 83 77 84 56 85
REMARK SMILES IDX 57 86 65 87 58 88 64 89 59 90 60 91 61 92 62 93 63 94
REMARK H PARENT 11 16 84 50 54 61
REMARK Flexibility Score: inf
ROOT
ATOM      1  C   UNL A   1      34.922  30.657  27.734  1.00  0.00     0.188 C 
ENDROOT
BRANCH   1   2
ATOM      2  O   UNL A   1      34.181  29.745  26.932  1.00  0.00    -0.376 OA
BRANCH   2   3
ATOM      3  C   UNL A   1      32.894  30.094  26.454  1.00  0.00     0.202 C 
BRANCH   3   4
ATOM      4  C   UNL A   1      31.769  29.087  26.698  1.00  0.00     0.261 C 
BRANCH   4   5
ATOM      5  O   UNL A   1      31.477  28.239  25.568  1.00  0.00    -0.459 OA
BRANCH   5   6
ATOM      6  C   UNL A   1      31.274  26.919  25.873  1.00  0.00     0.350 C 
ATOM      7  O   UNL A   1      31.005  26.523  27.001  1.00  0.00    -0.245 OA
BRANCH   6   8
ATOM      8  C   UNL A   1      31.410  26.064  24.696  1.00  0.00     0.136 A 
ATOM      9  C   UNL A   1      31.033  24.750  24.408  1.00  0.00     0.067 A 
ATOM     10  C   UNL A   1      31.310  24.431  23.037  1.00  0.00     0.039 A 
ATOM     11  C   UNL A   1      32.015  25.414  22.385  1.00  0.00     0.068 A 
ATOM     12  S   UNL A   1      32.248  26.777  23.364  1.00  0.00    -0.135 S 
BRANCH   9  13
ATOM     13  N   UNL A   1      30.426  23.915  25.341  1.00  0.00    -0.319 N 
ATOM     14  C   UNL A   1      30.731  22.643  25.787  1.00  0.00     0.276 C 
ATOM     15  O   UNL A   1      29.923  22.075  26.529  1.00  0.00    -0.267 OA
ATOM     16  H   UNL A   1      29.628  24.306  25.766  1.00  0.00     0.170 HD
BRANCH  14  17
ATOM     17  C   UNL A   1      31.994  21.915  25.468  1.00  0.00     0.151 A 
ATOM     18  C   UNL A   1      32.860  19.946  24.656  1.00  0.00     0.188 A 
ATOM     19  N   UNL A   1      34.114  20.291  24.977  1.00  0.00    -0.230 NA
ATOM     20  N   UNL A   1      31.785  20.720  24.847  1.00  0.00    -0.216 NA
ATOM     21  C   UNL A   1      34.272  21.475  25.602  1.00  0.00     0.137 A 
ATOM     22  C   UNL A   1      33.236  22.327  25.911  1.00  0.00     0.090 A 
ATOM     23  Cl  UNL A   1      33.565  23.730  26.829  1.00  0.00    -0.080 Cl
BRANCH  18  24
ATOM     24  S   UNL A   1      32.616  18.307  24.032  1.00  0.00    -0.090 SA
ATOM     25  C   UNL A   1      32.836  17.408  25.587  1.00  0.00     0.094 C 
ENDBRANCH  18  24
ENDBRANCH  14  17
ENDBRANCH   9  13
ENDBRANCH   6   8
ENDBRANCH   5   6
ENDBRANCH   4   5
ENDBRANCH   3   4
ENDBRANCH   2   3
ENDBRANCH   1   2
BRANCH   1  26
ATOM     26  C   UNL A   1      34.273  31.946  28.264  1.00  0.00     0.188 C 
BRANCH  26  27
ATOM     27  O   UNL A   1      35.167  32.856  28.884  1.00  0.00    -0.376 OA
BRANCH  27  28
ATOM     28  C   UNL A   1      34.757  33.347  30.153  1.00  0.00     0.202 C 
BRANCH  28  29
ATOM     29  C   UNL A   1      35.204  32.423  31.288  1.00  0.00     0.261 C 
BRANCH  29  30
ATOM     30  O   UNL A   1      36.562  31.966  31.176  1.00  0.00    -0.460 OA
BRANCH  30  31
ATOM     31  C   UNL A   1      36.745  30.627  31.121  1.00  0.00     0.338 C 
ATOM     32  O   UNL A   1      35.906  29.763  31.296  1.00  0.00    -0.246 OA
BRANCH  31  33
ATOM     33  C   UNL A   1      38.114  30.375  30.637  1.00  0.00     0.060 A 
ATOM     34  C   UNL A   1      38.351  30.361  29.259  1.00  0.00     0.016 A 
ATOM     35  C   UNL A   1      39.155  30.143  31.539  1.00  0.00     0.016 A 
ATOM     36  C   UNL A   1      39.632  30.094  28.774  1.00  0.00     0.010 A 
ATOM     37  C   UNL A   1      40.432  29.860  31.053  1.00  0.00     0.010 A 
ATOM     38  C   UNL A   1      40.671  29.812  29.669  1.00  0.00    -0.014 A 
BRANCH  38  39
ATOM     39  C   UNL A   1      41.980  29.336  29.167  1.00  0.00     0.031 A 
ATOM     40  C   UNL A   1      43.115  30.316  29.058  1.00  0.00     0.074 A 
ATOM     41  C   UNL A   1      42.155  28.053  28.802  1.00  0.00     0.049 A 
ATOM     42  N   UNL A   1      44.327  30.130  28.604  1.00  0.00    -0.248 NA
ATOM     43  C   UNL A   1      42.847  31.687  29.525  1.00  0.00     0.031 C 
ATOM     44  C   UNL A   1      41.143  27.001  28.890  1.00  0.00     0.029 A 
ATOM     45  N   UNL A   1      43.253  27.424  28.273  1.00  0.00    -0.354 N 
ATOM     46  C   UNL A   1      44.967  31.357  28.726  1.00  0.00     0.074 A 
ATOM     47  C   UNL A   1      44.002  32.286  29.276  1.00  0.00     0.031 C 
ATOM     48  C   UNL A   1      41.665  25.856  28.417  1.00  0.00     0.029 A 
ATOM     49  C   UNL A   1      43.035  26.102  27.966  1.00  0.00     0.049 A 
ATOM     50  H   UNL A   1      44.116  27.876  28.126  1.00  0.00     0.167 HD
ATOM     51  C   UNL A   1      46.242  31.683  28.410  1.00  0.00     0.031 A 
ATOM     52  C   UNL A   1      43.841  25.201  27.372  1.00  0.00     0.031 A 
ATOM     53  C   UNL A   1      47.193  30.769  27.838  1.00  0.00     0.049 A 
ATOM     54  C   UNL A   1      45.232  25.606  26.958  1.00  0.00     0.074 A 
ATOM     55  C   UNL A   1      48.513  31.006  27.491  1.00  0.00     0.029 A 
ATOM     56  N   UNL A   1      46.926  29.448  27.517  1.00  0.00    -0.354 N 
ATOM     57  N   UNL A   1      45.833  26.764  27.108  1.00  0.00    -0.248 NA
ATOM     58  C   UNL A   1      46.056  24.581  26.302  1.00  0.00     0.031 C 
ATOM     59  C   UNL A   1      49.029  29.839  26.917  1.00  0.00     0.029 A 
ATOM     60  C   UNL A   1      48.047  28.862  26.954  1.00  0.00     0.049 A 
ATOM     61  H   UNL A   1      46.065  28.993  27.667  1.00  0.00     0.167 HD
ATOM     62  C   UNL A   1      47.112  26.597  26.587  1.00  0.00     0.074 A 
ATOM     63  C   UNL A   1      47.202  25.226  26.128  1.00  0.00     0.031 C 
ATOM     64  C   UNL A   1      48.123  27.496  26.502  1.00  0.00     0.031 A 
BRANCH  51  65
ATOM     65  C   UNL A   1      46.668  33.104  28.650  1.00  0.00    -0.014 A 
ATOM     66  C   UNL A   1      46.479  34.093  27.668  1.00  0.00     0.010 A 
ATOM     67  C   UNL A   1      47.242  33.460  29.884  1.00  0.00     0.010 A 
ATOM     68  C   UNL A   1      46.893  35.406  27.903  1.00  0.00     0.020 A 
ATOM     69  C   UNL A   1      47.637  34.777  30.130  1.00  0.00     0.020 A 
ATOM     70  C   UNL A   1      47.476  35.739  29.129  1.00  0.00     0.054 A 
BRANCH  70  71
ATOM     71  S   UNL A   1      47.994  37.454  29.411  1.00  0.00     0.124 S 
ATOM     72  O   UNL A   1      46.826  38.012  30.088  1.00  0.00    -0.237 OA
ATOM     73  O   UNL A   1      49.185  37.298  30.241  1.00  0.00    -0.237 OA
ATOM     74  O   UNL A   1      48.240  37.968  28.065  1.00  0.00    -0.744 OA
ENDBRANCH  70  71
ENDBRANCH  51  65
BRANCH  52  75
ATOM     75  C   UNL A   1      43.348  23.822  27.111  1.00  0.00    -0.014 A 
ATOM     76  C   UNL A   1      43.349  22.856  28.133  1.00  0.00     0.010 A 
ATOM     77  C   UNL A   1      42.879  23.467  25.833  1.00  0.00     0.010 A 
ATOM     78  C   UNL A   1      42.904  21.555  27.877  1.00  0.00     0.020 A 
ATOM     79  C   UNL A   1      42.411  22.175  25.580  1.00  0.00     0.020 A 
ATOM     80  C   UNL A   1      42.438  21.223  26.602  1.00  0.00     0.054 A 
BRANCH  80  81
ATOM     81  S   UNL A   1      41.822  19.543  26.303  1.00  0.00     0.124 S 
ATOM     82  O   UNL A   1      42.225  18.851  27.523  1.00  0.00    -0.237 OA
ATOM     83  O   UNL A   1      40.385  19.756  26.142  1.00  0.00    -0.237 OA
ATOM     84  O   UNL A   1      42.523  19.134  25.088  1.00  0.00    -0.744 OA
ENDBRANCH  80  81
ENDBRANCH  52  75
BRANCH  64  85
ATOM     85  C   UNL A   1      49.430  27.023  25.923  1.00  0.00    -0.014 A 
ATOM     86  C   UNL A   1      49.843  27.417  24.638  1.00  0.00     0.010 A 
ATOM     87  C   UNL A   1      50.285  26.225  26.704  1.00  0.00     0.010 A 
ATOM     88  C   UNL A   1      51.078  26.997  24.135  1.00  0.00     0.020 A 
ATOM     89  C   UNL A   1      51.529  25.823  26.214  1.00  0.00     0.020 A 
ATOM     90  C   UNL A   1      51.913  26.201  24.925  1.00  0.00     0.054 A 
BRANCH  90  91
ATOM     91  S   UNL A   1      53.532  25.708  24.271  1.00  0.00     0.124 S 
ATOM     92  O   UNL A   1      54.420  26.687  24.890  1.00  0.00    -0.237 OA
ATOM     93  O   UNL A   1      53.672  24.336  24.757  1.00  0.00    -0.237 OA
ATOM     94  O   UNL A   1      53.373  25.835  22.824  1.00  0.00    -0.744 OA
ENDBRANCH  90  91
ENDBRANCH  64  85
ENDBRANCH  38  39
ENDBRANCH  31  33
ENDBRANCH  30  31
ENDBRANCH  29  30
ENDBRANCH  28  29
ENDBRANCH  27  28
ENDBRANCH  26  27
ENDBRANCH   1  26
TORSDOF 23
ENDMDL
MODEL 2
REMARK VINA RESULT:      -9.2      6.078     11.883
REMARK SMILES CSc1ncc(Cl)c(C(=O)Nc2ccsc2C(=O)OCCOCCOCCOC(=O)c2ccc(-c3c4nc(c(-c5ccc(S(=O)(=O)[O-])cc5)c5ccc([nH]5)c(-c5ccc(S(=O)(=O)[O-])cc5)c5nc(c(-c6ccc(S(=O)(=O)[O-])cc6)c6ccc3[nH]6)C=C5)C=C4)cc2)n1
REMARK SMILES IDX 23 1 22 2 21 3 20 4 19 5 17 6 18 7 16 8 12 9 13 10 14 11
REMARK SMILES IDX 15 12 11 13 9 14 10 15 8 17 3 18 4 19 91 20 5 21 6 22 7 23
REMARK SMILES IDX 2 24 1 25 24 26 25 27 26 28 27 29 28 30 29 31 30 32 31 33
REMARK SMILES IDX 32 34 90 35 33 36 89 37 34 38 35 39 36 40 83 41 37 42 88 43
REMARK SMILES IDX 82 44 84 45 38 46 87 47 81 48 80 49 39 51 69 52 50 53 68 54
REMARK SMILES IDX 51 55 54 56 67 57 85 58 52 59 53 60 66 62 86 63 55 64 40 65
REMARK SMILES IDX 41 66 49 67 42 68 48 69 43 70 44 71 45 72 46 73 47 74 70 75
REMARK SMILES IDX 71 76 79 77 72 78 78 79 73 80 74 81 75 82 76 83 77 84 56 85
REMARK SMILES IDX 57 86 65 87 58 88 64 89 59 90 60 91 61 92 62 93 63 94
REMARK H PARENT 11 16 84 50 54 61
REMARK Flexibility Score: inf
ROOT
ATOM      1  C   UNL A   1      36.092  21.993  25.769  1.00  0.00     0.188 C 
ENDROOT
BRANCH   1   2
ATOM      2  O   UNL A   1      34.805  21.704  25.237  1.00  0.00    -0.376 OA
BRANCH   2   3
ATOM      3  C   UNL A   1      33.661  21.727  26.074  1.00  0.00     0.202 C 
BRANCH   3   4
ATOM      4  C   UNL A   1      33.075  23.101  26.404  1.00  0.00     0.261 C 
BRANCH   4   5
ATOM      5  O   UNL A   1      33.267  24.091  25.374  1.00  0.00    -0.459 OA
BRANCH   5   6
ATOM      6  C   UNL A   1      32.132  24.757  24.993  1.00  0.00     0.350 C 
ATOM      7  O   UNL A   1      31.090  24.733  25.638  1.00  0.00    -0.245 OA
BRANCH   6   8
ATOM      8  C   UNL A   1      32.327  25.491  23.746  1.00  0.00     0.136 A 
ATOM      9  C   UNL A   1      32.375  26.849  23.421  1.00  0.00     0.067 A 
ATOM     10  C   UNL A   1      32.712  27.029  22.039  1.00  0.00     0.039 A 
ATOM     11  C   UNL A   1      32.747  25.851  21.332  1.00  0.00     0.068 A 
ATOM     12  S   UNL A   1      32.499  24.508  22.335  1.00  0.00    -0.135 S 
BRANCH   9  13
ATOM     13  N   UNL A   1      32.169  27.858  24.357  1.00  0.00    -0.319 N 
ATOM     14  C   UNL A   1      31.233  28.873  24.439  1.00  0.00     0.276 C 
ATOM     15  O   UNL A   1      31.376  29.728  25.319  1.00  0.00    -0.267 OA
ATOM     16  H   UNL A   1      32.811  27.846  25.103  1.00  0.00     0.170 HD
BRANCH  14  17
ATOM     17  C   UNL A   1      30.032  28.988  23.562  1.00  0.00     0.151 A 
ATOM     18  C   UNL A   1      28.793  30.434  22.274  1.00  0.00     0.188 A 
ATOM     19  N   UNL A   1      27.817  29.534  22.089  1.00  0.00    -0.230 NA
ATOM     20  N   UNL A   1      29.917  30.206  22.963  1.00  0.00    -0.216 NA
ATOM     21  C   UNL A   1      27.966  28.347  22.711  1.00  0.00     0.137 A 
ATOM     22  C   UNL A   1      29.046  28.021  23.500  1.00  0.00     0.090 A 
ATOM     23  Cl  UNL A   1      29.038  26.534  24.341  1.00  0.00    -0.080 Cl
BRANCH  18  24
ATOM     24  S   UNL A   1      28.508  32.063  21.642  1.00  0.00    -0.090 SA
ATOM     25  C   UNL A   1      28.985  32.995  23.117  1.00  0.00     0.094 C 
ENDBRANCH  18  24
ENDBRANCH  14  17
ENDBRANCH   9  13
ENDBRANCH   6   8
ENDBRANCH   5   6
ENDBRANCH   4   5
ENDBRANCH   3   4
ENDBRANCH   2   3
ENDBRANCH   1   2
BRANCH   1  26
ATOM     26  C   UNL A   1      37.332  21.217  25.297  1.00  0.00     0.188 C 
BRANCH  26  27
ATOM     27  O   UNL A   1      38.569  21.882  25.496  1.00  0.00    -0.376 OA
BRANCH  27  28
ATOM     28  C   UNL A   1      39.589  21.105  26.109  1.00  0.00     0.202 C 
BRANCH  28  29
ATOM     29  C   UNL A   1      40.554  21.976  26.917  1.00  0.00     0.261 C 
BRANCH  29  30
ATOM     30  O   UNL A   1      40.287  23.386  26.835  1.00  0.00    -0.460 OA
BRANCH  30  31
ATOM     31  C   UNL A   1      41.361  24.197  26.715  1.00  0.00     0.338 C 
ATOM     32  O   UNL A   1      42.282  24.087  25.926  1.00  0.00    -0.246 OA
BRANCH  31  33
ATOM     33  C   UNL A   1      41.155  25.359  27.598  1.00  0.00     0.060 A 
ATOM     34  C   UNL A   1      42.114  26.377  27.608  1.00  0.00     0.016 A 
ATOM     35  C   UNL A   1      40.027  25.436  28.419  1.00  0.00     0.016 A 
ATOM     36  C   UNL A   1      41.957  27.473  28.457  1.00  0.00     0.010 A 
ATOM     37  C   UNL A   1      39.880  26.525  29.280  1.00  0.00     0.010 A 
ATOM     38  C   UNL A   1      40.855  27.536  29.319  1.00  0.00    -0.014 A 
BRANCH  38  39
ATOM     39  C   UNL A   1      40.779  28.587  30.359  1.00  0.00     0.031 A 
ATOM     40  C   UNL A   1      41.735  28.530  31.518  1.00  0.00     0.074 A 
ATOM     41  C   UNL A   1      39.867  29.572  30.281  1.00  0.00     0.049 A 
ATOM     42  N   UNL A   1      41.818  29.314  32.561  1.00  0.00    -0.248 NA
ATOM     43  C   UNL A   1      42.731  27.445  31.496  1.00  0.00     0.031 C 
ATOM     44  C   UNL A   1      38.907  29.755  29.193  1.00  0.00     0.029 A 
ATOM     45  N   UNL A   1      39.597  30.601  31.147  1.00  0.00    -0.354 N 
ATOM     46  C   UNL A   1      42.869  28.819  33.322  1.00  0.00     0.074 A 
ATOM     47  C   UNL A   1      43.380  27.653  32.633  1.00  0.00     0.031 C 
ATOM     48  C   UNL A   1      38.142  30.827  29.465  1.00  0.00     0.029 A 
ATOM     49  C   UNL A   1      38.538  31.386  30.757  1.00  0.00     0.049 A 
ATOM     50  H   UNL A   1      40.112  30.762  31.972  1.00  0.00     0.167 HD
ATOM     51  C   UNL A   1      43.367  29.291  34.489  1.00  0.00     0.031 A 
ATOM     52  C   UNL A   1      37.945  32.422  31.381  1.00  0.00     0.031 A 
ATOM     53  C   UNL A   1      42.843  30.432  35.190  1.00  0.00     0.049 A 
ATOM     54  C   UNL A   1      38.467  32.884  32.717  1.00  0.00     0.074 A 
ATOM     55  C   UNL A   1      43.287  30.991  36.376  1.00  0.00     0.029 A 
ATOM     56  N   UNL A   1      41.754  31.182  34.776  1.00  0.00    -0.354 N 
ATOM     57  N   UNL A   1      39.482  32.423  33.410  1.00  0.00    -0.248 NA
ATOM     58  C   UNL A   1      37.767  34.009  33.351  1.00  0.00     0.031 C 
ATOM     59  C   UNL A   1      42.436  32.052  36.704  1.00  0.00     0.029 A 
ATOM     60  C   UNL A   1      41.495  32.185  35.695  1.00  0.00     0.049 A 
ATOM     61  H   UNL A   1      41.240  31.025  33.951  1.00  0.00     0.167 HD
ATOM     62  C   UNL A   1      39.557  33.219  34.548  1.00  0.00     0.074 A 
ATOM     63  C   UNL A   1      38.492  34.196  34.447  1.00  0.00     0.031 C 
ATOM     64  C   UNL A   1      40.432  33.151  35.582  1.00  0.00     0.031 A 
BRANCH  51  65
ATOM     65  C   UNL A   1      44.522  28.545  35.095  1.00  0.00    -0.014 A 
ATOM     66  C   UNL A   1      45.850  28.898  34.795  1.00  0.00     0.010 A 
ATOM     67  C   UNL A   1      44.276  27.492  35.994  1.00  0.00     0.010 A 
ATOM     68  C   UNL A   1      46.912  28.185  35.355  1.00  0.00     0.020 A 
ATOM     69  C   UNL A   1      45.338  26.791  36.574  1.00  0.00     0.020 A 
ATOM     70  C   UNL A   1      46.650  27.132  36.236  1.00  0.00     0.054 A 
BRANCH  70  71
ATOM     71  S   UNL A   1      48.048  26.230  36.958  1.00  0.00     0.124 S 
ATOM     72  O   UNL A   1      48.612  25.565  35.786  1.00  0.00    -0.237 OA
ATOM     73  O   UNL A   1      48.864  27.300  37.525  1.00  0.00    -0.237 OA
ATOM     74  O   UNL A   1      47.421  25.344  37.936  1.00  0.00    -0.744 OA
ENDBRANCH  70  71
ENDBRANCH  51  65
BRANCH  52  75
ATOM     75  C   UNL A   1      36.771  33.090  30.758  1.00  0.00    -0.014 A 
ATOM     76  C   UNL A   1      36.936  33.941  29.651  1.00  0.00     0.010 A 
ATOM     77  C   UNL A   1      35.479  32.881  31.275  1.00  0.00     0.010 A 
ATOM     78  C   UNL A   1      35.831  34.583  29.082  1.00  0.00     0.020 A 
ATOM     79  C   UNL A   1      34.371  33.501  30.694  1.00  0.00     0.020 A 
ATOM     80  C   UNL A   1      34.556  34.359  29.608  1.00  0.00     0.054 A 
BRANCH  80  81
ATOM     81  S   UNL A   1      33.130  35.165  28.826  1.00  0.00     0.124 S 
ATOM     82  O   UNL A   1      32.632  34.113  27.947  1.00  0.00    -0.237 OA
ATOM     83  O   UNL A   1      32.282  35.488  29.971  1.00  0.00    -0.237 OA
ATOM     84  O   UNL A   1      33.720  36.319  28.151  1.00  0.00    -0.744 OA
ENDBRANCH  80  81
ENDBRANCH  52  75
BRANCH  64  85
ATOM     85  C   UNL A   1      40.303  34.180  36.673  1.00  0.00    -0.014 A 
ATOM     86  C   UNL A   1      41.080  35.352  36.666  1.00  0.00     0.010 A 
ATOM     87  C   UNL A   1      39.342  34.000  37.684  1.00  0.00     0.010 A 
ATOM     88  C   UNL A   1      40.917  36.312  37.668  1.00  0.00     0.020 A 
ATOM     89  C   UNL A   1      39.160  34.968  38.674  1.00  0.00     0.020 A 
ATOM     90  C   UNL A   1      39.959  36.114  38.667  1.00  0.00     0.054 A 
BRANCH  90  91
ATOM     91  S   UNL A   1      39.730  37.397  39.930  1.00  0.00     0.124 S 
ATOM     92  O   UNL A   1      40.977  38.149  39.829  1.00  0.00    -0.237 OA
ATOM     93  O   UNL A   1      38.533  38.096  39.468  1.00  0.00    -0.237 OA
ATOM     94  O   UNL A   1      39.559  36.637  41.167  1.00  0.00    -0.744 OA
ENDBRANCH  90  91
ENDBRANCH  64  85
ENDBRANCH  38  39
ENDBRANCH  31  33
ENDBRANCH  30  31
ENDBRANCH  29  30
ENDBRANCH  28  29
ENDBRANCH  27  28
ENDBRANCH  26  27
ENDBRANCH   1  26
TORSDOF 23
ENDMDL
MODEL 3
REMARK VINA RESULT:      -9.1      5.904      8.354
REMARK SMILES CSc1ncc(Cl)c(C(=O)Nc2ccsc2C(=O)OCCOCCOCCOC(=O)c2ccc(-c3c4nc(c(-c5ccc(S(=O)(=O)[O-])cc5)c5ccc([nH]5)c(-c5ccc(S(=O)(=O)[O-])cc5)c5nc(c(-c6ccc(S(=O)(=O)[O-])cc6)c6ccc3[nH]6)C=C5)C=C4)cc2)n1
REMARK SMILES IDX 23 1 22 2 21 3 20 4 19 5 17 6 18 7 16 8 12 9 13 10 14 11
REMARK SMILES IDX 15 12 11 13 9 14 10 15 8 17 3 18 4 19 91 20 5 21 6 22 7 23
REMARK SMILES IDX 2 24 1 25 24 26 25 27 26 28 27 29 28 30 29 31 30 32 31 33
REMARK SMILES IDX 32 34 90 35 33 36 89 37 34 38 35 39 36 40 83 41 37 42 88 43
REMARK SMILES IDX 82 44 84 45 38 46 87 47 81 48 80 49 39 51 69 52 50 53 68 54
REMARK SMILES IDX 51 55 54 56 67 57 85 58 52 59 53 60 66 62 86 63 55 64 40 65
REMARK SMILES IDX 41 66 49 67 42 68 48 69 43 70 44 71 45 72 46 73 47 74 70 75
REMARK SMILES IDX 71 76 79 77 72 78 78 79 73 80 74 81 75 82 76 83 77 84 56 85
REMARK SMILES IDX 57 86 65 87 58 88 64 89 59 90 60 91 61 92 62 93 63 94
REMARK H PARENT 11 16 84 50 54 61
REMARK Flexibility Score: inf
ROOT
ATOM      1  C   UNL A   1      35.034  31.228  27.646  1.00  0.00     0.188 C 
ENDROOT
BRANCH   1   2
ATOM      2  O   UNL A   1      34.758  29.855  27.897  1.00  0.00    -0.376 OA
BRANCH   2   3
ATOM      3  C   UNL A   1      33.671  29.213  27.252  1.00  0.00     0.202 C 
BRANCH   3   4
ATOM      4  C   UNL A   1      33.982  28.458  25.959  1.00  0.00     0.261 C 
BRANCH   4   5
ATOM      5  O   UNL A   1      32.821  27.920  25.294  1.00  0.00    -0.459 OA
BRANCH   5   6
ATOM      6  C   UNL A   1      33.020  26.718  24.667  1.00  0.00     0.350 C 
ATOM      7  O   UNL A   1      33.734  26.583  23.681  1.00  0.00    -0.245 OA
BRANCH   6   8
ATOM      8  C   UNL A   1      32.288  25.637  25.324  1.00  0.00     0.136 A 
ATOM      9  C   UNL A   1      32.631  24.345  25.729  1.00  0.00     0.067 A 
ATOM     10  C   UNL A   1      31.548  23.732  26.442  1.00  0.00     0.039 A 
ATOM     11  C   UNL A   1      30.394  24.479  26.420  1.00  0.00     0.068 A 
ATOM     12  S   UNL A   1      30.625  25.972  25.653  1.00  0.00    -0.135 S 
BRANCH   9  13
ATOM     13  N   UNL A   1      33.884  23.787  25.496  1.00  0.00    -0.319 N 
ATOM     14  C   UNL A   1      34.281  22.636  24.840  1.00  0.00     0.276 C 
ATOM     15  O   UNL A   1      35.470  22.305  24.912  1.00  0.00    -0.267 OA
ATOM     16  H   UNL A   1      34.629  24.312  25.868  1.00  0.00     0.170 HD
BRANCH  14  17
ATOM     17  C   UNL A   1      33.382  21.781  24.013  1.00  0.00     0.151 A 
ATOM     18  C   UNL A   1      32.662  19.626  23.658  1.00  0.00     0.188 A 
ATOM     19  N   UNL A   1      31.993  19.965  22.547  1.00  0.00    -0.230 NA
ATOM     20  N   UNL A   1      33.335  20.485  24.432  1.00  0.00    -0.216 NA
ATOM     21  C   UNL A   1      32.078  21.255  22.163  1.00  0.00     0.137 A 
ATOM     22  C   UNL A   1      32.794  22.216  22.841  1.00  0.00     0.090 A 
ATOM     23  Cl  UNL A   1      32.930  23.778  22.163  1.00  0.00    -0.080 Cl
BRANCH  18  24
ATOM     24  S   UNL A   1      32.733  17.902  24.052  1.00  0.00    -0.090 SA
ATOM     25  C   UNL A   1      32.728  18.053  25.855  1.00  0.00     0.094 C 
ENDBRANCH  18  24
ENDBRANCH  14  17
ENDBRANCH   9  13
ENDBRANCH   6   8
ENDBRANCH   5   6
ENDBRANCH   4   5
ENDBRANCH   3   4
ENDBRANCH   2   3
ENDBRANCH   1   2
BRANCH   1  26
ATOM     26  C   UNL A   1      34.431  32.328  28.534  1.00  0.00     0.188 C 
BRANCH  26  27
ATOM     27  O   UNL A   1      34.976  33.623  28.339  1.00  0.00    -0.376 OA
BRANCH  27  28
ATOM     28  C   UNL A   1      34.032  34.647  28.055  1.00  0.00     0.202 C 
BRANCH  28  29
ATOM     29  C   UNL A   1      32.910  34.685  29.095  1.00  0.00     0.261 C 
BRANCH  29  30
ATOM     30  O   UNL A   1      33.113  35.643  30.147  1.00  0.00    -0.460 OA
BRANCH  30  31
ATOM     31  C   UNL A   1      33.072  35.166  31.412  1.00  0.00     0.338 C 
ATOM     32  O   UNL A   1      32.125  35.189  32.176  1.00  0.00    -0.246 OA
BRANCH  31  33
ATOM     33  C   UNL A   1      34.333  34.446  31.667  1.00  0.00     0.060 A 
ATOM     34  C   UNL A   1      34.276  33.157  32.207  1.00  0.00     0.016 A 
ATOM     35  C   UNL A   1      35.563  35.045  31.385  1.00  0.00     0.016 A 
ATOM     36  C   UNL A   1      35.455  32.466  32.486  1.00  0.00     0.010 A 
ATOM     37  C   UNL A   1      36.742  34.359  31.680  1.00  0.00     0.010 A 
ATOM     38  C   UNL A   1      36.694  33.077  32.252  1.00  0.00    -0.014 A 
BRANCH  38  39
ATOM     39  C   UNL A   1      37.942  32.437  32.725  1.00  0.00     0.031 A 
ATOM     40  C   UNL A   1      38.425  32.731  34.119  1.00  0.00     0.074 A 
ATOM     41  C   UNL A   1      38.645  31.616  31.924  1.00  0.00     0.049 A 
ATOM     42  N   UNL A   1      39.509  32.320  34.722  1.00  0.00    -0.248 NA
ATOM     43  C   UNL A   1      37.568  33.602  34.941  1.00  0.00     0.031 C 
ATOM     44  C   UNL A   1      38.267  31.229  30.566  1.00  0.00     0.029 A 
ATOM     45  N   UNL A   1      39.835  30.969  32.142  1.00  0.00    -0.354 N 
ATOM     46  C   UNL A   1      39.470  32.883  35.991  1.00  0.00     0.074 A 
ATOM     47  C   UNL A   1      38.266  33.682  36.064  1.00  0.00     0.031 C 
ATOM     48  C   UNL A   1      39.216  30.419  30.065  1.00  0.00     0.029 A 
ATOM     49  C   UNL A   1      40.280  30.255  31.055  1.00  0.00     0.049 A 
ATOM     50  H   UNL A   1      40.324  31.012  32.996  1.00  0.00     0.167 HD
ATOM     51  C   UNL A   1      40.356  32.747  37.006  1.00  0.00     0.031 A 
ATOM     52  C   UNL A   1      41.424  29.567  30.874  1.00  0.00     0.031 A 
ATOM     53  C   UNL A   1      41.566  31.977  36.927  1.00  0.00     0.049 A 
ATOM     54  C   UNL A   1      42.432  29.492  31.992  1.00  0.00     0.074 A 
ATOM     55  C   UNL A   1      42.522  31.773  37.907  1.00  0.00     0.029 A 
ATOM     56  N   UNL A   1      41.995  31.292  35.801  1.00  0.00    -0.354 N 
ATOM     57  N   UNL A   1      42.366  30.006  33.198  1.00  0.00    -0.248 NA
ATOM     58  C   UNL A   1      43.665  28.739  31.725  1.00  0.00     0.031 C 
ATOM     59  C   UNL A   1      43.553  31.003  37.358  1.00  0.00     0.029 A 
ATOM     60  C   UNL A   1      43.214  30.685  36.053  1.00  0.00     0.049 A 
ATOM     61  H   UNL A   1      41.506  31.245  34.947  1.00  0.00     0.167 HD
ATOM     62  C   UNL A   1      43.537  29.616  33.840  1.00  0.00     0.074 A 
ATOM     63  C   UNL A   1      44.288  28.817  32.894  1.00  0.00     0.031 C 
ATOM     64  C   UNL A   1      43.950  29.891  35.102  1.00  0.00     0.031 A 
BRANCH  51  65
ATOM     65  C   UNL A   1      40.054  33.481  38.283  1.00  0.00    -0.014 A 
ATOM     66  C   UNL A   1      40.485  34.805  38.477  1.00  0.00     0.010 A 
ATOM     67  C   UNL A   1      39.310  32.844  39.293  1.00  0.00     0.010 A 
ATOM     68  C   UNL A   1      40.208  35.467  39.675  1.00  0.00     0.020 A 
ATOM     69  C   UNL A   1      39.013  33.512  40.484  1.00  0.00     0.020 A 
ATOM     70  C   UNL A   1      39.480  34.815  40.674  1.00  0.00     0.054 A 
BRANCH  70  71
ATOM     71  S   UNL A   1      39.126  35.701  42.216  1.00  0.00     0.124 S 
ATOM     72  O   UNL A   1      40.103  35.114  43.129  1.00  0.00    -0.237 OA
ATOM     73  O   UNL A   1      39.367  37.094  41.850  1.00  0.00    -0.237 OA
ATOM     74  O   UNL A   1      37.731  35.366  42.495  1.00  0.00    -0.744 OA
ENDBRANCH  70  71
ENDBRANCH  51  65
BRANCH  52  75
ATOM     75  C   UNL A   1      41.693  28.905  29.570  1.00  0.00    -0.014 A 
ATOM     76  C   UNL A   1      41.392  27.544  29.383  1.00  0.00     0.010 A 
ATOM     77  C   UNL A   1      42.259  29.634  28.507  1.00  0.00     0.010 A 
ATOM     78  C   UNL A   1      41.667  26.921  28.162  1.00  0.00     0.020 A 
ATOM     79  C   UNL A   1      42.512  29.020  27.278  1.00  0.00     0.020 A 
ATOM     80  C   UNL A   1      42.225  27.663  27.117  1.00  0.00     0.054 A 
BRANCH  80  81
ATOM     81  S   UNL A   1      42.530  26.846  25.526  1.00  0.00     0.124 S 
ATOM     82  O   UNL A   1      42.601  27.981  24.612  1.00  0.00    -0.237 OA
ATOM     83  O   UNL A   1      43.790  26.147  25.765  1.00  0.00    -0.237 OA
ATOM     84  O   UNL A   1      41.366  25.979  25.360  1.00  0.00    -0.744 OA
ENDBRANCH  80  81
ENDBRANCH  52  75
BRANCH  64  85
ATOM     85  C   UNL A   1      45.258  29.296  35.552  1.00  0.00    -0.014 A 
ATOM     86  C   UNL A   1      46.470  29.987  35.383  1.00  0.00     0.010 A 
ATOM     87  C   UNL A   1      45.262  28.054  36.213  1.00  0.00     0.010 A 
ATOM     88  C   UNL A   1      47.668  29.433  35.843  1.00  0.00     0.020 A 
ATOM     89  C   UNL A   1      46.454  27.508  36.694  1.00  0.00     0.020 A 
ATOM     90  C   UNL A   1      47.653  28.196  36.495  1.00  0.00     0.054 A 
BRANCH  90  91
ATOM     91  S   UNL A   1      49.213  27.517  37.127  1.00  0.00     0.124 S 
ATOM     92  O   UNL A   1      50.143  27.840  36.048  1.00  0.00    -0.237 OA
ATOM     93  O   UNL A   1      49.409  28.260  38.369  1.00  0.00    -0.237 OA
ATOM     94  O   UNL A   1      48.927  26.095  37.299  1.00  0.00    -0.744 OA
ENDBRANCH  90  91
ENDBRANCH  64  85
ENDBRANCH  38  39
ENDBRANCH  31  33
ENDBRANCH  30  31
ENDBRANCH  29  30
ENDBRANCH  28  29
ENDBRANCH  27  28
ENDBRANCH  26  27
ENDBRANCH   1  26
TORSDOF 23
ENDMDL
