MODEL 1
REMARK VINA RESULT:      -9.5      0.000      0.000
REMARK SMILES COc1ccc2c(c1)C=C(C(=O)OCCOCCOCCOC(=O)c1ccc(-c3c4nc(c(-c5ccc(S(=O)(=O)[O-])cc5)c5ccc([nH]5)c(-c5ccc(S(=O)(=O)[O-])cc5)c5nc(c(-c6ccc(S(=O)(=O)[O-])cc6)c6ccc3[nH]6)C=C5)C=C4)cc1)[C@H](C(F)(F)F)O2
REMARK SMILES IDX 18 1 17 2 16 3 15 4 14 5 13 6 11 7 12 8 10 9 3 10 4 11 8 12
REMARK SMILES IDX 5 13 7 14 6 15 9 16 90 17 85 18 2 19 1 20 86 21 87 22 88 23
REMARK SMILES IDX 89 24 19 25 20 26 21 27 22 28 23 29 24 30 25 31 26 32 84 33
REMARK SMILES IDX 27 34 83 35 28 36 29 37 30 38 77 39 31 40 82 41 76 42 78 43
REMARK SMILES IDX 32 44 81 45 75 46 74 47 33 49 63 50 44 51 62 52 45 53 48 54
REMARK SMILES IDX 61 55 79 56 46 57 47 58 60 60 80 61 49 62 34 63 35 64 43 65
REMARK SMILES IDX 36 66 42 67 37 68 38 69 39 70 40 71 41 72 64 73 65 74 73 75
REMARK SMILES IDX 66 76 72 77 67 78 68 79 69 80 70 81 71 82 50 83 51 84 59 85
REMARK SMILES IDX 52 86 58 87 53 88 54 89 55 90 56 91 57 92
REMARK H PARENT 78 48 48 59
REMARK Flexibility Score: inf
ROOT
ATOM      1  C   UNL A   1      33.323  30.258  26.758  1.00  0.00     0.188 C 
ENDROOT
BRANCH   1   2
ATOM      2  C   UNL A   1      34.115  29.014  26.306  1.00  0.00     0.188 C 
BRANCH   2   3
ATOM      3  O   UNL A   1      33.600  27.791  26.813  1.00  0.00    -0.376 OA
BRANCH   3   4
ATOM      4  C   UNL A   1      32.248  27.822  27.249  1.00  0.00     0.202 C 
BRANCH   4   5
ATOM      5  C   UNL A   1      31.300  27.082  26.304  1.00  0.00     0.261 C 
BRANCH   5   6
ATOM      6  O   UNL A   1      31.819  25.829  25.827  1.00  0.00    -0.460 OA
BRANCH   6   7
ATOM      7  C   UNL A   1      32.514  25.856  24.667  1.00  0.00     0.338 C 
ATOM      8  O   UNL A   1      32.446  26.724  23.816  1.00  0.00    -0.246 OA
BRANCH   7   9
ATOM      9  C   UNL A   1      33.444  24.709  24.624  1.00  0.00     0.087 C 
ATOM     10  C   UNL A   1      37.589  22.510  25.740  1.00  0.00     0.119 A 
ATOM     11  C   UNL A   1      37.035  21.289  25.349  1.00  0.00     0.050 A 
ATOM     12  C   UNL A   1      36.804  23.669  25.709  1.00  0.00     0.058 A 
ATOM     13  C   UNL A   1      35.715  21.231  24.895  1.00  0.00     0.051 A 
ATOM     14  C   UNL A   1      35.483  23.618  25.256  1.00  0.00     0.021 A 
ATOM     15  C   UNL A   1      34.955  22.395  24.828  1.00  0.00     0.128 A 
ATOM     16  C   UNL A   1      34.609  24.788  25.290  1.00  0.00     0.027 C 
ATOM     17  O   UNL A   1      33.662  22.273  24.389  1.00  0.00    -0.475 OA
ATOM     18  C   UNL A   1      33.116  23.485  23.796  1.00  0.00     0.316 C 
BRANCH  10  19
ATOM     19  O   UNL A   1      38.864  22.685  26.210  1.00  0.00    -0.497 OA
ATOM     20  C   UNL A   1      39.718  21.547  26.135  1.00  0.00     0.278 C 
ENDBRANCH  10  19
BRANCH  18  21
ATOM     21  C   UNL A   1      31.647  23.232  23.426  1.00  0.00     0.430 C 
ATOM     22  F   UNL A   1      31.157  24.252  22.679  1.00  0.00    -0.167 F 
ATOM     23  F   UNL A   1      31.545  22.122  22.652  1.00  0.00    -0.167 F 
ATOM     24  F   UNL A   1      30.857  23.055  24.500  1.00  0.00    -0.167 F 
ENDBRANCH  18  21
ENDBRANCH   7   9
ENDBRANCH   6   7
ENDBRANCH   5   6
ENDBRANCH   4   5
ENDBRANCH   3   4
ENDBRANCH   2   3
ENDBRANCH   1   2
BRANCH   1  25
ATOM     25  O   UNL A   1      33.754  31.021  27.880  1.00  0.00    -0.376 OA
BRANCH  25  26
ATOM     26  C   UNL A   1      35.017  31.667  27.840  1.00  0.00     0.202 C 
BRANCH  26  27
ATOM     27  C   UNL A   1      36.096  31.195  28.817  1.00  0.00     0.261 C 
BRANCH  27  28
ATOM     28  O   UNL A   1      36.618  29.886  28.536  1.00  0.00    -0.460 OA
BRANCH  28  29
ATOM     29  C   UNL A   1      37.361  29.339  29.530  1.00  0.00     0.338 C 
ATOM     30  O   UNL A   1      36.984  29.032  30.648  1.00  0.00    -0.246 OA
BRANCH  29  31
ATOM     31  C   UNL A   1      38.706  28.995  29.025  1.00  0.00     0.060 A 
ATOM     32  C   UNL A   1      39.660  28.553  29.952  1.00  0.00     0.016 A 
ATOM     33  C   UNL A   1      39.054  29.179  27.686  1.00  0.00     0.016 A 
ATOM     34  C   UNL A   1      40.975  28.327  29.550  1.00  0.00     0.010 A 
ATOM     35  C   UNL A   1      40.381  28.975  27.289  1.00  0.00     0.010 A 
ATOM     36  C   UNL A   1      41.352  28.580  28.226  1.00  0.00    -0.014 A 
BRANCH  36  37
ATOM     37  C   UNL A   1      42.791  28.606  27.867  1.00  0.00     0.031 A 
ATOM     38  C   UNL A   1      43.410  27.367  27.278  1.00  0.00     0.074 A 
ATOM     39  C   UNL A   1      43.533  29.713  28.039  1.00  0.00     0.049 A 
ATOM     40  N   UNL A   1      44.647  27.153  26.909  1.00  0.00    -0.248 NA
ATOM     41  C   UNL A   1      42.513  26.217  27.078  1.00  0.00     0.031 C 
ATOM     42  C   UNL A   1      43.042  30.992  28.548  1.00  0.00     0.029 A 
ATOM     43  N   UNL A   1      44.868  29.934  27.801  1.00  0.00    -0.354 N 
ATOM     44  C   UNL A   1      44.677  25.847  26.433  1.00  0.00     0.074 A 
ATOM     45  C   UNL A   1      43.343  25.309  26.584  1.00  0.00     0.031 C 
ATOM     46  C   UNL A   1      44.066  31.863  28.594  1.00  0.00     0.029 A 
ATOM     47  C   UNL A   1      45.288  31.195  28.146  1.00  0.00     0.049 A 
ATOM     48  H   UNL A   1      45.466  29.251  27.418  1.00  0.00     0.167 HD
ATOM     49  C   UNL A   1      45.721  25.155  25.916  1.00  0.00     0.031 A 
ATOM     50  C   UNL A   1      46.519  31.742  28.122  1.00  0.00     0.031 A 
ATOM     51  C   UNL A   1      47.055  25.677  25.793  1.00  0.00     0.049 A 
ATOM     52  C   UNL A   1      47.685  30.924  27.628  1.00  0.00     0.074 A 
ATOM     53  C   UNL A   1      48.180  25.053  25.279  1.00  0.00     0.029 A 
ATOM     54  N   UNL A   1      47.450  26.942  26.201  1.00  0.00    -0.354 N 
ATOM     55  N   UNL A   1      47.694  29.697  27.163  1.00  0.00    -0.248 NA
ATOM     56  C   UNL A   1      49.005  31.570  27.649  1.00  0.00     0.031 C 
ATOM     57  C   UNL A   1      49.265  25.924  25.425  1.00  0.00     0.029 A 
ATOM     58  C   UNL A   1      48.806  27.110  25.977  1.00  0.00     0.049 A 
ATOM     59  H   UNL A   1      46.854  27.620  26.592  1.00  0.00     0.167 HD
ATOM     60  C   UNL A   1      49.016  29.435  26.813  1.00  0.00     0.074 A 
ATOM     61  C   UNL A   1      49.775  30.631  27.113  1.00  0.00     0.031 C 
ATOM     62  C   UNL A   1      49.550  28.306  26.284  1.00  0.00     0.031 A 
BRANCH  49  63
ATOM     63  C   UNL A   1      45.456  23.738  25.488  1.00  0.00    -0.014 A 
ATOM     64  C   UNL A   1      45.046  23.438  24.176  1.00  0.00     0.010 A 
ATOM     65  C   UNL A   1      45.622  22.689  26.411  1.00  0.00     0.010 A 
ATOM     66  C   UNL A   1      44.756  22.121  23.811  1.00  0.00     0.020 A 
ATOM     67  C   UNL A   1      45.358  21.368  26.041  1.00  0.00     0.020 A 
ATOM     68  C   UNL A   1      44.905  21.095  24.749  1.00  0.00     0.054 A 
BRANCH  68  69
ATOM     69  S   UNL A   1      44.513  19.395  24.254  1.00  0.00     0.124 S 
ATOM     70  O   UNL A   1      44.572  19.485  22.796  1.00  0.00    -0.237 OA
ATOM     71  O   UNL A   1      45.584  18.622  24.878  1.00  0.00    -0.237 OA
ATOM     72  O   UNL A   1      43.181  19.170  24.809  1.00  0.00    -0.744 OA
ENDBRANCH  68  69
ENDBRANCH  49  63
BRANCH  50  73
ATOM     73  C   UNL A   1      46.718  33.138  28.596  1.00  0.00    -0.014 A 
ATOM     74  C   UNL A   1      46.616  34.218  27.703  1.00  0.00     0.010 A 
ATOM     75  C   UNL A   1      47.001  33.393  29.950  1.00  0.00     0.010 A 
ATOM     76  C   UNL A   1      46.802  35.529  28.154  1.00  0.00     0.020 A 
ATOM     77  C   UNL A   1      47.165  34.703  30.409  1.00  0.00     0.020 A 
ATOM     78  C   UNL A   1      47.072  35.763  29.505  1.00  0.00     0.054 A 
BRANCH  78  79
ATOM     79  S   UNL A   1      47.251  37.475  30.080  1.00  0.00     0.124 S 
ATOM     80  O   UNL A   1      46.192  38.156  29.340  1.00  0.00    -0.237 OA
ATOM     81  O   UNL A   1      47.037  37.350  31.520  1.00  0.00    -0.237 OA
ATOM     82  O   UNL A   1      48.614  37.826  29.689  1.00  0.00    -0.744 OA
ENDBRANCH  78  79
ENDBRANCH  50  73
BRANCH  62  83
ATOM     83  C   UNL A   1      51.022  28.315  25.962  1.00  0.00    -0.014 A 
ATOM     84  C   UNL A   1      51.492  28.717  24.700  1.00  0.00     0.010 A 
ATOM     85  C   UNL A   1      51.951  27.975  26.964  1.00  0.00     0.010 A 
ATOM     86  C   UNL A   1      52.864  28.753  24.436  1.00  0.00     0.020 A 
ATOM     87  C   UNL A   1      53.324  28.034  26.711  1.00  0.00     0.020 A 
ATOM     88  C   UNL A   1      53.772  28.410  25.443  1.00  0.00     0.054 A 
BRANCH  88  89
ATOM     89  S   UNL A   1      55.549  28.512  25.093  1.00  0.00     0.124 S 
ATOM     90  O   UNL A   1      55.561  28.816  23.666  1.00  0.00    -0.237 OA
ATOM     91  O   UNL A   1      55.989  29.595  25.970  1.00  0.00    -0.237 OA
ATOM     92  O   UNL A   1      56.049  27.187  25.453  1.00  0.00    -0.744 OA
ENDBRANCH  88  89
ENDBRANCH  62  83
ENDBRANCH  36  37
ENDBRANCH  29  31
ENDBRANCH  28  29
ENDBRANCH  27  28
ENDBRANCH  26  27
ENDBRANCH  25  26
ENDBRANCH   1  25
TORSDOF 22
ENDMDL
MODEL 2
REMARK VINA RESULT:      -9.2      6.763     11.813
REMARK SMILES COc1ccc2c(c1)C=C(C(=O)OCCOCCOCCOC(=O)c1ccc(-c3c4nc(c(-c5ccc(S(=O)(=O)[O-])cc5)c5ccc([nH]5)c(-c5ccc(S(=O)(=O)[O-])cc5)c5nc(c(-c6ccc(S(=O)(=O)[O-])cc6)c6ccc3[nH]6)C=C5)C=C4)cc1)[C@H](C(F)(F)F)O2
REMARK SMILES IDX 18 1 17 2 16 3 15 4 14 5 13 6 11 7 12 8 10 9 3 10 4 11 8 12
REMARK SMILES IDX 5 13 7 14 6 15 9 16 90 17 85 18 2 19 1 20 86 21 87 22 88 23
REMARK SMILES IDX 89 24 19 25 20 26 21 27 22 28 23 29 24 30 25 31 26 32 84 33
REMARK SMILES IDX 27 34 83 35 28 36 29 37 30 38 77 39 31 40 82 41 76 42 78 43
REMARK SMILES IDX 32 44 81 45 75 46 74 47 33 49 63 50 44 51 62 52 45 53 48 54
REMARK SMILES IDX 61 55 79 56 46 57 47 58 60 60 80 61 49 62 34 63 35 64 43 65
REMARK SMILES IDX 36 66 42 67 37 68 38 69 39 70 40 71 41 72 64 73 65 74 73 75
REMARK SMILES IDX 66 76 72 77 67 78 68 79 69 80 70 81 71 82 50 83 51 84 59 85
REMARK SMILES IDX 52 86 58 87 53 88 54 89 55 90 56 91 57 92
REMARK H PARENT 78 48 48 59
REMARK Flexibility Score: inf
ROOT
ATOM      1  C   UNL A   1      41.531  20.936  26.124  1.00  0.00     0.188 C 
ENDROOT
BRANCH   1   2
ATOM      2  C   UNL A   1      40.136  21.194  26.728  1.00  0.00     0.188 C 
BRANCH   2   3
ATOM      3  O   UNL A   1      39.454  22.296  26.147  1.00  0.00    -0.376 OA
BRANCH   3   4
ATOM      4  C   UNL A   1      38.155  22.021  25.640  1.00  0.00     0.202 C 
BRANCH   4   5
ATOM      5  C   UNL A   1      37.171  23.169  25.870  1.00  0.00     0.261 C 
BRANCH   5   6
ATOM      6  O   UNL A   1      35.912  22.996  25.197  1.00  0.00    -0.460 OA
BRANCH   6   7
ATOM      7  C   UNL A   1      34.831  22.752  25.973  1.00  0.00     0.338 C 
ATOM      8  O   UNL A   1      34.789  21.978  26.912  1.00  0.00    -0.246 OA
BRANCH   7   9
ATOM      9  C   UNL A   1      33.723  23.640  25.566  1.00  0.00     0.087 C 
ATOM     10  C   UNL A   1      31.588  27.952  25.229  1.00  0.00     0.119 A 
ATOM     11  C   UNL A   1      30.705  27.429  24.282  1.00  0.00     0.050 A 
ATOM     12  C   UNL A   1      32.606  27.142  25.748  1.00  0.00     0.058 A 
ATOM     13  C   UNL A   1      30.815  26.096  23.881  1.00  0.00     0.051 A 
ATOM     14  C   UNL A   1      32.721  25.807  25.351  1.00  0.00     0.021 A 
ATOM     15  C   UNL A   1      31.803  25.286  24.432  1.00  0.00     0.128 A 
ATOM     16  C   UNL A   1      33.820  24.959  25.805  1.00  0.00     0.027 C 
ATOM     17  O   UNL A   1      31.871  23.991  23.989  1.00  0.00    -0.475 OA
ATOM     18  C   UNL A   1      32.471  23.066  24.939  1.00  0.00     0.316 C 
BRANCH  10  19
ATOM     19  O   UNL A   1      31.581  29.242  25.688  1.00  0.00    -0.497 OA
ATOM     20  C   UNL A   1      32.784  29.690  26.306  1.00  0.00     0.278 C 
ENDBRANCH  10  19
BRANCH  18  21
ATOM     21  C   UNL A   1      32.557  21.678  24.285  1.00  0.00     0.430 C 
ATOM     22  F   UNL A   1      32.079  20.723  25.120  1.00  0.00    -0.167 F 
ATOM     23  F   UNL A   1      31.772  21.634  23.179  1.00  0.00    -0.167 F 
ATOM     24  F   UNL A   1      33.807  21.350  23.911  1.00  0.00    -0.167 F 
ENDBRANCH  18  21
ENDBRANCH   7   9
ENDBRANCH   6   7
ENDBRANCH   5   6
ENDBRANCH   4   5
ENDBRANCH   3   4
ENDBRANCH   2   3
ENDBRANCH   1   2
BRANCH   1  25
ATOM     25  O   UNL A   1      42.316  22.016  25.629  1.00  0.00    -0.376 OA
BRANCH  25  26
ATOM     26  C   UNL A   1      42.807  22.993  26.533  1.00  0.00     0.202 C 
BRANCH  26  27
ATOM     27  C   UNL A   1      42.474  24.461  26.255  1.00  0.00     0.261 C 
BRANCH  27  28
ATOM     28  O   UNL A   1      41.402  24.987  27.055  1.00  0.00    -0.460 OA
BRANCH  28  29
ATOM     29  C   UNL A   1      40.863  26.145  26.600  1.00  0.00     0.338 C 
ATOM     30  O   UNL A   1      40.549  26.410  25.452  1.00  0.00    -0.246 OA
BRANCH  29  31
ATOM     31  C   UNL A   1      40.537  27.031  27.736  1.00  0.00     0.060 A 
ATOM     32  C   UNL A   1      41.086  28.321  27.738  1.00  0.00     0.016 A 
ATOM     33  C   UNL A   1      39.778  26.584  28.818  1.00  0.00     0.016 A 
ATOM     34  C   UNL A   1      40.908  29.156  28.840  1.00  0.00     0.010 A 
ATOM     35  C   UNL A   1      39.620  27.415  29.934  1.00  0.00     0.010 A 
ATOM     36  C   UNL A   1      40.212  28.690  29.962  1.00  0.00    -0.014 A 
BRANCH  36  37
ATOM     37  C   UNL A   1      40.258  29.466  31.225  1.00  0.00     0.031 A 
ATOM     38  C   UNL A   1      41.379  29.199  32.195  1.00  0.00     0.074 A 
ATOM     39  C   UNL A   1      39.339  30.407  31.500  1.00  0.00     0.049 A 
ATOM     40  N   UNL A   1      41.610  29.739  33.364  1.00  0.00    -0.248 NA
ATOM     41  C   UNL A   1      42.370  28.189  31.790  1.00  0.00     0.031 C 
ATOM     42  C   UNL A   1      38.238  30.799  30.623  1.00  0.00     0.029 A 
ATOM     43  N   UNL A   1      39.189  31.205  32.608  1.00  0.00    -0.354 N 
ATOM     44  C   UNL A   1      42.771  29.136  33.834  1.00  0.00     0.074 A 
ATOM     45  C   UNL A   1      43.181  28.171  32.837  1.00  0.00     0.031 C 
ATOM     46  C   UNL A   1      37.518  31.757  31.231  1.00  0.00     0.029 A 
ATOM     47  C   UNL A   1      38.089  32.025  32.551  1.00  0.00     0.049 A 
ATOM     48  H   UNL A   1      39.812  31.190  33.371  1.00  0.00     0.167 HD
ATOM     49  C   UNL A   1      43.437  29.364  34.991  1.00  0.00     0.031 A 
ATOM     50  C   UNL A   1      37.590  32.880  33.465  1.00  0.00     0.031 A 
ATOM     51  C   UNL A   1      43.015  30.300  35.997  1.00  0.00     0.049 A 
ATOM     52  C   UNL A   1      38.297  33.051  34.785  1.00  0.00     0.074 A 
ATOM     53  C   UNL A   1      43.625  30.603  37.203  1.00  0.00     0.029 A 
ATOM     54  N   UNL A   1      41.867  31.075  35.923  1.00  0.00    -0.354 N 
ATOM     55  N   UNL A   1      39.404  32.488  35.208  1.00  0.00    -0.248 NA
ATOM     56  C   UNL A   1      37.688  33.980  35.749  1.00  0.00     0.031 C 
ATOM     57  C   UNL A   1      42.818  31.523  37.880  1.00  0.00     0.029 A 
ATOM     58  C   UNL A   1      41.735  31.836  37.073  1.00  0.00     0.049 A 
ATOM     59  H   UNL A   1      41.240  31.083  35.165  1.00  0.00     0.167 HD
ATOM     60  C   UNL A   1      39.637  33.015  36.476  1.00  0.00     0.074 A 
ATOM     61  C   UNL A   1      38.561  33.945  36.748  1.00  0.00     0.031 C 
ATOM     62  C   UNL A   1      40.656  32.756  37.333  1.00  0.00     0.031 A 
BRANCH  49  63
ATOM     63  C   UNL A   1      44.674  28.544  35.241  1.00  0.00    -0.014 A 
ATOM     64  C   UNL A   1      44.606  27.310  35.912  1.00  0.00     0.010 A 
ATOM     65  C   UNL A   1      45.923  29.014  34.795  1.00  0.00     0.010 A 
ATOM     66  C   UNL A   1      45.771  26.586  36.179  1.00  0.00     0.020 A 
ATOM     67  C   UNL A   1      47.086  28.281  35.039  1.00  0.00     0.020 A 
ATOM     68  C   UNL A   1      47.005  27.082  35.749  1.00  0.00     0.054 A 
BRANCH  68  69
ATOM     69  S   UNL A   1      48.504  26.129  36.116  1.00  0.00     0.124 S 
ATOM     70  O   UNL A   1      47.948  24.860  36.581  1.00  0.00    -0.237 OA
ATOM     71  O   UNL A   1      49.181  26.081  34.822  1.00  0.00    -0.237 OA
ATOM     72  O   UNL A   1      49.179  26.924  37.139  1.00  0.00    -0.744 OA
ENDBRANCH  68  69
ENDBRANCH  49  63
BRANCH  50  73
ATOM     73  C   UNL A   1      36.341  33.632  33.170  1.00  0.00    -0.014 A 
ATOM     74  C   UNL A   1      36.393  34.881  32.528  1.00  0.00     0.010 A 
ATOM     75  C   UNL A   1      35.089  33.095  33.522  1.00  0.00     0.010 A 
ATOM     76  C   UNL A   1      35.215  35.584  32.251  1.00  0.00     0.020 A 
ATOM     77  C   UNL A   1      33.909  33.783  33.226  1.00  0.00     0.020 A 
ATOM     78  C   UNL A   1      33.981  35.028  32.600  1.00  0.00     0.054 A 
BRANCH  78  79
ATOM     79  S   UNL A   1      32.463  35.930  32.177  1.00  0.00     0.124 S 
ATOM     80  O   UNL A   1      31.426  34.997  32.610  1.00  0.00    -0.237 OA
ATOM     81  O   UNL A   1      32.587  37.150  32.971  1.00  0.00    -0.237 OA
ATOM     82  O   UNL A   1      32.570  36.121  30.733  1.00  0.00    -0.744 OA
ENDBRANCH  78  79
ENDBRANCH  50  73
BRANCH  62  83
ATOM     83  C   UNL A   1      40.679  33.509  38.637  1.00  0.00    -0.014 A 
ATOM     84  C   UNL A   1      41.351  34.737  38.760  1.00  0.00     0.010 A 
ATOM     85  C   UNL A   1      39.961  33.008  39.738  1.00  0.00     0.010 A 
ATOM     86  C   UNL A   1      41.328  35.438  39.969  1.00  0.00     0.020 A 
ATOM     87  C   UNL A   1      39.915  33.717  40.942  1.00  0.00     0.020 A 
ATOM     88  C   UNL A   1      40.611  34.922  41.053  1.00  0.00     0.054 A 
BRANCH  88  89
ATOM     89  S   UNL A   1      40.553  35.872  42.598  1.00  0.00     0.124 S 
ATOM     90  O   UNL A   1      41.787  36.650  42.523  1.00  0.00    -0.237 OA
ATOM     91  O   UNL A   1      39.318  36.639  42.459  1.00  0.00    -0.237 OA
ATOM     92  O   UNL A   1      40.527  34.844  43.636  1.00  0.00    -0.744 OA
ENDBRANCH  88  89
ENDBRANCH  62  83
ENDBRANCH  36  37
ENDBRANCH  29  31
ENDBRANCH  28  29
ENDBRANCH  27  28
ENDBRANCH  26  27
ENDBRANCH  25  26
ENDBRANCH   1  25
TORSDOF 22
ENDMDL
MODEL 3
REMARK VINA RESULT:      -9.2      6.918     11.832
REMARK SMILES COc1ccc2c(c1)C=C(C(=O)OCCOCCOCCOC(=O)c1ccc(-c3c4nc(c(-c5ccc(S(=O)(=O)[O-])cc5)c5ccc([nH]5)c(-c5ccc(S(=O)(=O)[O-])cc5)c5nc(c(-c6ccc(S(=O)(=O)[O-])cc6)c6ccc3[nH]6)C=C5)C=C4)cc1)[C@H](C(F)(F)F)O2
REMARK SMILES IDX 18 1 17 2 16 3 15 4 14 5 13 6 11 7 12 8 10 9 3 10 4 11 8 12
REMARK SMILES IDX 5 13 7 14 6 15 9 16 90 17 85 18 2 19 1 20 86 21 87 22 88 23
REMARK SMILES IDX 89 24 19 25 20 26 21 27 22 28 23 29 24 30 25 31 26 32 84 33
REMARK SMILES IDX 27 34 83 35 28 36 29 37 30 38 77 39 31 40 82 41 76 42 78 43
REMARK SMILES IDX 32 44 81 45 75 46 74 47 33 49 63 50 44 51 62 52 45 53 48 54
REMARK SMILES IDX 61 55 79 56 46 57 47 58 60 60 80 61 49 62 34 63 35 64 43 65
REMARK SMILES IDX 36 66 42 67 37 68 38 69 39 70 40 71 41 72 64 73 65 74 73 75
REMARK SMILES IDX 66 76 72 77 67 78 68 79 69 80 70 81 71 82 50 83 51 84 59 85
REMARK SMILES IDX 52 86 58 87 53 88 54 89 55 90 56 91 57 92
REMARK H PARENT 78 48 48 59
REMARK Flexibility Score: inf
ROOT
ATOM      1  C   UNL A   1      41.527  21.130  26.199  1.00  0.00     0.188 C 
ENDROOT
BRANCH   1   2
ATOM      2  C   UNL A   1      40.138  21.419  26.802  1.00  0.00     0.188 C 
BRANCH   2   3
ATOM      3  O   UNL A   1      39.526  22.596  26.295  1.00  0.00    -0.376 OA
BRANCH   3   4
ATOM      4  C   UNL A   1      38.222  22.433  25.756  1.00  0.00     0.202 C 
BRANCH   4   5
ATOM      5  C   UNL A   1      37.304  23.622  26.046  1.00  0.00     0.261 C 
BRANCH   5   6
ATOM      6  O   UNL A   1      35.986  23.485  25.489  1.00  0.00    -0.460 OA
BRANCH   6   7
ATOM      7  C   UNL A   1      35.898  22.954  24.248  1.00  0.00     0.338 C 
ATOM      8  O   UNL A   1      36.530  23.315  23.272  1.00  0.00    -0.246 OA
BRANCH   7   9
ATOM      9  C   UNL A   1      34.976  21.800  24.271  1.00  0.00     0.087 C 
ATOM     10  C   UNL A   1      33.991  17.113  24.847  1.00  0.00     0.119 A 
ATOM     11  C   UNL A   1      32.631  17.420  24.933  1.00  0.00     0.050 A 
ATOM     12  C   UNL A   1      34.927  18.146  24.716  1.00  0.00     0.058 A 
ATOM     13  C   UNL A   1      32.205  18.748  24.852  1.00  0.00     0.051 A 
ATOM     14  C   UNL A   1      34.507  19.477  24.634  1.00  0.00     0.021 A 
ATOM     15  C   UNL A   1      33.139  19.765  24.680  1.00  0.00     0.128 A 
ATOM     16  C   UNL A   1      35.458  20.584  24.582  1.00  0.00     0.027 C 
ATOM     17  O   UNL A   1      32.663  21.049  24.623  1.00  0.00    -0.475 OA
ATOM     18  C   UNL A   1      33.520  21.972  23.894  1.00  0.00     0.316 C 
BRANCH  10  19
ATOM     19  O   UNL A   1      34.523  15.854  24.923  1.00  0.00    -0.497 OA
ATOM     20  C   UNL A   1      35.833  15.763  25.474  1.00  0.00     0.278 C 
ENDBRANCH  10  19
BRANCH  18  21
ATOM     21  C   UNL A   1      32.910  23.379  23.979  1.00  0.00     0.430 C 
ATOM     22  F   UNL A   1      33.466  24.201  23.054  1.00  0.00    -0.167 F 
ATOM     23  F   UNL A   1      31.586  23.333  23.688  1.00  0.00    -0.167 F 
ATOM     24  F   UNL A   1      33.041  23.937  25.197  1.00  0.00    -0.167 F 
ENDBRANCH  18  21
ENDBRANCH   7   9
ENDBRANCH   6   7
ENDBRANCH   5   6
ENDBRANCH   4   5
ENDBRANCH   3   4
ENDBRANCH   2   3
ENDBRANCH   1   2
BRANCH   1  25
ATOM     25  O   UNL A   1      42.299  22.180  25.625  1.00  0.00    -0.376 OA
BRANCH  25  26
ATOM     26  C   UNL A   1      42.794  23.217  26.459  1.00  0.00     0.202 C 
BRANCH  26  27
ATOM     27  C   UNL A   1      42.528  24.664  26.039  1.00  0.00     0.261 C 
BRANCH  27  28
ATOM     28  O   UNL A   1      41.547  25.343  26.838  1.00  0.00    -0.460 OA
BRANCH  28  29
ATOM     29  C   UNL A   1      41.263  26.610  26.445  1.00  0.00     0.338 C 
ATOM     30  O   UNL A   1      41.202  27.030  25.302  1.00  0.00    -0.246 OA
BRANCH  29  31
ATOM     31  C   UNL A   1      40.859  27.423  27.611  1.00  0.00     0.060 A 
ATOM     32  C   UNL A   1      41.278  28.759  27.652  1.00  0.00     0.016 A 
ATOM     33  C   UNL A   1      40.156  26.867  28.681  1.00  0.00     0.016 A 
ATOM     34  C   UNL A   1      41.025  29.537  28.781  1.00  0.00     0.010 A 
ATOM     35  C   UNL A   1      39.924  27.643  29.823  1.00  0.00     0.010 A 
ATOM     36  C   UNL A   1      40.387  28.969  29.890  1.00  0.00    -0.014 A 
BRANCH  36  37
ATOM     37  C   UNL A   1      40.366  29.705  31.178  1.00  0.00     0.031 A 
ATOM     38  C   UNL A   1      41.460  29.443  32.177  1.00  0.00     0.074 A 
ATOM     39  C   UNL A   1      39.407  30.608  31.450  1.00  0.00     0.049 A 
ATOM     40  N   UNL A   1      41.635  29.952  33.369  1.00  0.00    -0.248 NA
ATOM     41  C   UNL A   1      42.497  28.478  31.775  1.00  0.00     0.031 C 
ATOM     42  C   UNL A   1      38.324  30.992  30.547  1.00  0.00     0.029 A 
ATOM     43  N   UNL A   1      39.194  31.364  32.576  1.00  0.00    -0.354 N 
ATOM     44  C   UNL A   1      42.798  29.371  33.861  1.00  0.00     0.074 A 
ATOM     45  C   UNL A   1      43.273  28.452  32.849  1.00  0.00     0.031 C 
ATOM     46  C   UNL A   1      37.553  31.908  31.160  1.00  0.00     0.029 A 
ATOM     47  C   UNL A   1      38.070  32.151  32.506  1.00  0.00     0.049 A 
ATOM     48  H   UNL A   1      39.791  31.344  33.359  1.00  0.00     0.167 HD
ATOM     49  C   UNL A   1      43.417  29.583  35.047  1.00  0.00     0.031 A 
ATOM     50  C   UNL A   1      37.513  32.960  33.428  1.00  0.00     0.031 A 
ATOM     51  C   UNL A   1      42.930  30.472  36.066  1.00  0.00     0.049 A 
ATOM     52  C   UNL A   1      38.169  33.111  34.777  1.00  0.00     0.074 A 
ATOM     53  C   UNL A   1      43.489  30.755  37.301  1.00  0.00     0.029 A 
ATOM     54  N   UNL A   1      41.762  31.213  35.976  1.00  0.00    -0.354 N 
ATOM     55  N   UNL A   1      39.279  32.570  35.220  1.00  0.00    -0.248 NA
ATOM     56  C   UNL A   1      37.498  33.988  35.747  1.00  0.00     0.031 C 
ATOM     57  C   UNL A   1      42.630  31.628  37.978  1.00  0.00     0.029 A 
ATOM     58  C   UNL A   1      41.566  31.932  37.143  1.00  0.00     0.049 A 
ATOM     59  H   UNL A   1      41.160  31.225  35.198  1.00  0.00     0.167 HD
ATOM     60  C   UNL A   1      39.452  33.063  36.511  1.00  0.00     0.074 A 
ATOM     61  C   UNL A   1      38.338  33.949  36.774  1.00  0.00     0.031 C 
ATOM     62  C   UNL A   1      40.449  32.808  37.394  1.00  0.00     0.031 A 
BRANCH  49  63
ATOM     63  C   UNL A   1      44.671  28.794  35.313  1.00  0.00    -0.014 A 
ATOM     64  C   UNL A   1      44.618  27.527  35.920  1.00  0.00     0.010 A 
ATOM     65  C   UNL A   1      45.920  29.330  34.950  1.00  0.00     0.010 A 
ATOM     66  C   UNL A   1      45.796  26.831  36.206  1.00  0.00     0.020 A 
ATOM     67  C   UNL A   1      47.098  28.626  35.212  1.00  0.00     0.020 A 
ATOM     68  C   UNL A   1      47.030  27.390  35.858  1.00  0.00     0.054 A 
BRANCH  68  69
ATOM     69  S   UNL A   1      48.544  26.473  36.248  1.00  0.00     0.124 S 
ATOM     70  O   UNL A   1      48.279  26.020  37.613  1.00  0.00    -0.237 OA
ATOM     71  O   UNL A   1      48.557  25.424  35.231  1.00  0.00    -0.237 OA
ATOM     72  O   UNL A   1      49.600  27.474  36.119  1.00  0.00    -0.744 OA
ENDBRANCH  68  69
ENDBRANCH  49  63
BRANCH  50  73
ATOM     73  C   UNL A   1      36.251  33.681  33.113  1.00  0.00    -0.014 A 
ATOM     74  C   UNL A   1      35.004  33.069  33.328  1.00  0.00     0.010 A 
ATOM     75  C   UNL A   1      36.291  34.992  32.602  1.00  0.00     0.010 A 
ATOM     76  C   UNL A   1      33.820  33.752  33.031  1.00  0.00     0.020 A 
ATOM     77  C   UNL A   1      35.110  35.685  32.326  1.00  0.00     0.020 A 
ATOM     78  C   UNL A   1      33.881  35.057  32.534  1.00  0.00     0.054 A 
BRANCH  78  79
ATOM     79  S   UNL A   1      32.332  35.947  32.212  1.00  0.00     0.124 S 
ATOM     80  O   UNL A   1      31.329  34.971  32.630  1.00  0.00    -0.237 OA
ATOM     81  O   UNL A   1      32.460  37.126  33.064  1.00  0.00    -0.237 OA
ATOM     82  O   UNL A   1      32.385  36.215  30.777  1.00  0.00    -0.744 OA
ENDBRANCH  78  79
ENDBRANCH  50  73
BRANCH  62  83
ATOM     83  C   UNL A   1      40.404  33.520  38.721  1.00  0.00    -0.014 A 
ATOM     84  C   UNL A   1      39.518  33.118  39.736  1.00  0.00     0.010 A 
ATOM     85  C   UNL A   1      41.308  34.567  38.976  1.00  0.00     0.010 A 
ATOM     86  C   UNL A   1      39.519  33.768  40.973  1.00  0.00     0.020 A 
ATOM     87  C   UNL A   1      41.329  35.204  40.219  1.00  0.00     0.020 A 
ATOM     88  C   UNL A   1      40.424  34.809  41.207  1.00  0.00     0.054 A 
BRANCH  88  89
ATOM     89  S   UNL A   1      40.442  35.606  42.837  1.00  0.00     0.124 S 
ATOM     90  O   UNL A   1      41.802  36.132  42.903  1.00  0.00    -0.237 OA
ATOM     91  O   UNL A   1      39.385  36.608  42.717  1.00  0.00    -0.237 OA
ATOM     92  O   UNL A   1      40.150  34.512  43.760  1.00  0.00    -0.744 OA
ENDBRANCH  88  89
ENDBRANCH  62  83
ENDBRANCH  36  37
ENDBRANCH  29  31
ENDBRANCH  28  29
ENDBRANCH  27  28
ENDBRANCH  26  27
ENDBRANCH  25  26
ENDBRANCH   1  25
TORSDOF 22
ENDMDL
