MODEL 1
REMARK VINA RESULT:      -8.9      0.000      0.000
REMARK SMILES C[C@H]1[C@H](C)CC[C@@]2(C(=O)OCCOCCOCCOC(=O)c3ccc(-c4c5nc(c(-c6ccc(S(=O)(=O)[O-])cc6)c6ccc([nH]6)c(-c6ccc(S(=O)(=O)[O-])cc6)c6nc(c(-c7ccc(S(=O)(=O)[O-])cc7)c7ccc4[nH]7)C=C6)C=C5)cc3)CC[C@@]3(C)C(=CC[C@@H]4[C@@]5(C)CC[C@H](O)C(C)(C)[C@@H]5CC[C@]43C)[C@H]12
REMARK SMILES IDX 15 1 14 2 13 3 12 4 11 5 10 6 8 7 9 8 7 9 1 10 2 11 3 12
REMARK SMILES IDX 104 13 4 14 5 15 86 16 6 17 82 18 84 19 87 20 83 21 85 22
REMARK SMILES IDX 102 23 88 24 89 25 101 26 103 27 90 28 100 29 91 30 92 31
REMARK SMILES IDX 99 32 93 33 96 34 94 35 97 36 98 37 95 38 16 40 17 41 18 42
REMARK SMILES IDX 19 43 20 44 21 45 22 46 23 47 81 48 24 49 80 50 25 51 26 52
REMARK SMILES IDX 27 53 74 54 28 55 79 56 73 57 75 58 29 59 78 60 72 61 71 62
REMARK SMILES IDX 30 64 60 65 41 66 59 67 42 68 45 69 58 70 76 71 43 72 44 73
REMARK SMILES IDX 57 75 77 76 46 77 31 78 32 79 40 80 33 81 39 82 34 83 35 84
REMARK SMILES IDX 36 85 37 86 38 87 61 88 62 89 70 90 63 91 69 92 64 93 65 94
REMARK SMILES IDX 66 95 67 96 68 97 47 98 48 99 56 100 49 101 55 102 50 103
REMARK SMILES IDX 51 104 52 105 53 106 54 107
REMARK H PARENT 95 39 75 63 45 74
REMARK Flexibility Score: inf
ROOT
ATOM      1  C   UNL A   1      45.238  24.429  25.877  1.00  0.00     0.188 C 
ENDROOT
BRANCH   1   2
ATOM      2  C   UNL A   1      46.530  24.388  25.001  1.00  0.00     0.188 C 
BRANCH   2   3
ATOM      3  O   UNL A   1      46.826  25.632  24.406  1.00  0.00    -0.376 OA
BRANCH   3   4
ATOM      4  C   UNL A   1      46.115  26.688  25.003  1.00  0.00     0.202 C 
BRANCH   4   5
ATOM      5  C   UNL A   1      46.923  27.680  25.834  1.00  0.00     0.261 C 
BRANCH   5   6
ATOM      6  O   UNL A   1      46.770  27.819  27.309  1.00  0.00    -0.463 OA
BRANCH   6   7
ATOM      7  C   UNL A   1      46.017  28.151  28.387  1.00  0.00     0.312 C 
ATOM      8  O   UNL A   1      44.893  28.637  28.400  1.00  0.00    -0.252 OA
BRANCH   7   9
ATOM      9  C   UNL A   1      46.714  27.727  29.703  1.00  0.00     0.075 C 
ATOM     10  C   UNL A   1      50.564  27.615  28.705  1.00  0.00     0.008 C 
ATOM     11  C   UNL A   1      49.065  27.311  28.687  1.00  0.00    -0.003 C 
ATOM     12  C   UNL A   1      48.795  25.765  28.786  1.00  0.00    -0.011 C 
ATOM     13  C   UNL A   1      48.192  28.224  29.704  1.00  0.00     0.036 C 
ATOM     14  C   UNL A   1      49.357  24.959  27.595  1.00  0.00     0.008 C 
ATOM     15  C   UNL A   1      47.307  25.404  28.837  1.00  0.00     0.005 C 
ATOM     16  C   UNL A   1      48.033  29.799  29.514  1.00  0.00    -0.063 C 
ATOM     17  C   UNL A   1      46.552  26.207  29.862  1.00  0.00     0.020 C 
ATOM     18  C   UNL A   1      45.965  28.332  30.914  1.00  0.00     0.020 C 
ATOM     19  C   UNL A   1      47.112  30.614  30.524  1.00  0.00    -0.006 C 
ATOM     20  C   UNL A   1      48.434  30.389  28.372  1.00  0.00    -0.027 C 
ATOM     21  C   UNL A   1      45.802  29.839  30.826  1.00  0.00     0.013 C 
ATOM     22  C   UNL A   1      47.888  30.707  31.862  1.00  0.00     0.017 C 
ATOM     23  C   UNL A   1      46.715  32.131  29.971  1.00  0.00    -0.020 C 
ATOM     24  C   UNL A   1      47.815  31.635  27.811  1.00  0.00     0.032 C 
ATOM     25  C   UNL A   1      46.434  31.999  28.429  1.00  0.00     0.006 C 
ATOM     26  C   UNL A   1      45.467  32.757  30.646  1.00  0.00     0.008 C 
ATOM     27  C   UNL A   1      47.889  33.113  30.259  1.00  0.00     0.012 C 
ATOM     28  C   UNL A   1      45.640  33.183  27.668  1.00  0.00    -0.025 C 
ATOM     29  C   UNL A   1      45.071  34.117  30.039  1.00  0.00     0.005 C 
ATOM     30  C   UNL A   1      46.671  34.073  26.937  1.00  0.00     0.012 C 
ATOM     31  C   UNL A   1      44.705  32.595  26.550  1.00  0.00     0.010 C 
ATOM     32  C   UNL A   1      44.606  33.947  28.589  1.00  0.00     0.003 C 
ATOM     33  C   UNL A   1      43.912  33.663  25.771  1.00  0.00     0.033 C 
ATOM     34  C   UNL A   1      43.934  35.215  27.912  1.00  0.00    -0.006 C 
ATOM     35  C   UNL A   1      43.186  34.715  26.629  1.00  0.00     0.120 C 
ATOM     36  C   UNL A   1      44.901  36.393  27.636  1.00  0.00     0.014 C 
ATOM     37  C   UNL A   1      42.853  35.836  28.843  1.00  0.00     0.014 C 
BRANCH  35  38
ATOM     38  O   UNL A   1      42.797  35.803  25.786  1.00  0.00    -0.393 OA
ATOM     39  H   UNL A   1      42.761  35.504  24.865  1.00  0.00     0.210 HD
ENDBRANCH  35  38
ENDBRANCH   7   9
ENDBRANCH   6   7
ENDBRANCH   5   6
ENDBRANCH   4   5
ENDBRANCH   3   4
ENDBRANCH   2   3
ENDBRANCH   1   2
BRANCH   1  40
ATOM     40  O   UNL A   1      44.071  23.745  25.440  1.00  0.00    -0.376 OA
BRANCH  40  41
ATOM     41  C   UNL A   1      43.211  23.222  26.428  1.00  0.00     0.202 C 
BRANCH  41  42
ATOM     42  C   UNL A   1      41.702  23.478  26.262  1.00  0.00     0.261 C 
BRANCH  42  43
ATOM     43  O   UNL A   1      41.111  24.502  27.103  1.00  0.00    -0.460 OA
BRANCH  43  44
ATOM     44  C   UNL A   1      40.960  25.743  26.550  1.00  0.00     0.338 C 
ATOM     45  O   UNL A   1      41.119  26.013  25.376  1.00  0.00    -0.246 OA
BRANCH  44  46
ATOM     46  C   UNL A   1      40.365  26.734  27.513  1.00  0.00     0.060 A 
ATOM     47  C   UNL A   1      40.774  28.078  27.427  1.00  0.00     0.016 A 
ATOM     48  C   UNL A   1      39.498  26.362  28.542  1.00  0.00     0.016 A 
ATOM     49  C   UNL A   1      40.423  29.012  28.415  1.00  0.00     0.010 A 
ATOM     50  C   UNL A   1      39.162  27.295  29.547  1.00  0.00     0.010 A 
ATOM     51  C   UNL A   1      39.686  28.606  29.532  1.00  0.00    -0.014 A 
BRANCH  51  52
ATOM     52  C   UNL A   1      39.745  29.415  30.793  1.00  0.00     0.031 A 
ATOM     53  C   UNL A   1      40.901  29.157  31.740  1.00  0.00     0.074 A 
ATOM     54  C   UNL A   1      38.861  30.384  31.109  1.00  0.00     0.049 A 
ATOM     55  N   UNL A   1      41.161  29.684  32.911  1.00  0.00    -0.248 NA
ATOM     56  C   UNL A   1      41.894  28.163  31.299  1.00  0.00     0.031 C 
ATOM     57  C   UNL A   1      37.734  30.813  30.287  1.00  0.00     0.029 A 
ATOM     58  N   UNL A   1      38.781  31.185  32.230  1.00  0.00    -0.354 N 
ATOM     59  C   UNL A   1      42.331  29.070  33.353  1.00  0.00     0.074 A 
ATOM     60  C   UNL A   1      42.710  28.111  32.339  1.00  0.00     0.031 C 
ATOM     61  C   UNL A   1      37.064  31.785  30.936  1.00  0.00     0.029 A 
ATOM     62  C   UNL A   1      37.696  32.034  32.235  1.00  0.00     0.049 A 
ATOM     63  H   UNL A   1      39.439  31.153  32.961  1.00  0.00     0.167 HD
ATOM     64  C   UNL A   1      43.037  29.279  34.490  1.00  0.00     0.031 A 
ATOM     65  C   UNL A   1      37.253  32.896  33.176  1.00  0.00     0.031 A 
ATOM     66  C   UNL A   1      42.679  30.225  35.512  1.00  0.00     0.049 A 
ATOM     67  C   UNL A   1      38.012  33.062  34.475  1.00  0.00     0.074 A 
ATOM     68  C   UNL A   1      43.350  30.512  36.690  1.00  0.00     0.029 A 
ATOM     69  N   UNL A   1      41.553  31.032  35.489  1.00  0.00    -0.354 N 
ATOM     70  N   UNL A   1      39.124  32.485  34.866  1.00  0.00    -0.248 NA
ATOM     71  C   UNL A   1      37.458  34.010  35.457  1.00  0.00     0.031 C 
ATOM     72  C   UNL A   1      42.596  31.446  37.408  1.00  0.00     0.029 A 
ATOM     73  C   UNL A   1      41.495  31.795  36.644  1.00  0.00     0.049 A 
ATOM     74  H   UNL A   1      40.892  31.058  34.760  1.00  0.00     0.167 HD
ATOM     75  C   UNL A   1      39.417  33.026  36.118  1.00  0.00     0.074 A 
ATOM     76  C   UNL A   1      38.375  33.985  36.415  1.00  0.00     0.031 C 
ATOM     77  C   UNL A   1      40.459  32.752  36.943  1.00  0.00     0.031 A 
BRANCH  64  78
ATOM     78  C   UNL A   1      44.263  28.429  34.710  1.00  0.00    -0.014 A 
ATOM     79  C   UNL A   1      44.164  27.088  35.126  1.00  0.00     0.010 A 
ATOM     80  C   UNL A   1      45.537  28.975  34.464  1.00  0.00     0.010 A 
ATOM     81  C   UNL A   1      45.316  26.325  35.335  1.00  0.00     0.020 A 
ATOM     82  C   UNL A   1      46.690  28.205  34.641  1.00  0.00     0.020 A 
ATOM     83  C   UNL A   1      46.573  26.890  35.094  1.00  0.00     0.054 A 
BRANCH  83  84
ATOM     84  S   UNL A   1      48.050  25.870  35.354  1.00  0.00     0.124 S 
ATOM     85  O   UNL A   1      49.065  26.879  35.646  1.00  0.00    -0.237 OA
ATOM     86  O   UNL A   1      47.661  25.025  36.480  1.00  0.00    -0.237 OA
ATOM     87  O   UNL A   1      48.217  25.169  34.083  1.00  0.00    -0.744 OA
ENDBRANCH  83  84
ENDBRANCH  64  78
BRANCH  65  88
ATOM     88  C   UNL A   1      35.997  33.674  32.949  1.00  0.00    -0.014 A 
ATOM     89  C   UNL A   1      36.043  35.016  32.528  1.00  0.00     0.010 A 
ATOM     90  C   UNL A   1      34.743  33.080  33.182  1.00  0.00     0.010 A 
ATOM     91  C   UNL A   1      34.863  35.750  32.357  1.00  0.00     0.020 A 
ATOM     92  C   UNL A   1      33.561  33.800  32.983  1.00  0.00     0.020 A 
ATOM     93  C   UNL A   1      33.629  35.135  32.579  1.00  0.00     0.054 A 
BRANCH  93  94
ATOM     94  S   UNL A   1      32.111  36.085  32.286  1.00  0.00     0.124 S 
ATOM     95  O   UNL A   1      32.256  36.474  30.887  1.00  0.00    -0.237 OA
ATOM     96  O   UNL A   1      31.066  35.103  32.566  1.00  0.00    -0.237 OA
ATOM     97  O   UNL A   1      32.200  37.178  33.252  1.00  0.00    -0.744 OA
ENDBRANCH  93  94
ENDBRANCH  65  88
BRANCH  77  98
ATOM     98  C   UNL A   1      40.568  33.532  38.233  1.00  0.00    -0.014 A 
ATOM     99  C   UNL A   1      40.924  34.892  38.249  1.00  0.00     0.010 A 
ATOM    100  C   UNL A   1      40.252  32.900  39.452  1.00  0.00     0.010 A 
ATOM    101  C   UNL A   1      41.006  35.592  39.459  1.00  0.00     0.020 A 
ATOM    102  C   UNL A   1      40.301  33.603  40.660  1.00  0.00     0.020 A 
ATOM    103  C   UNL A   1      40.697  34.942  40.658  1.00  0.00     0.054 A 
BRANCH 103 104
ATOM    104  S   UNL A   1      40.789  35.875  42.211  1.00  0.00     0.124 S 
ATOM    105  O   UNL A   1      41.662  36.988  41.847  1.00  0.00    -0.237 OA
ATOM    106  O   UNL A   1      39.392  36.227  42.457  1.00  0.00    -0.237 OA
ATOM    107  O   UNL A   1      41.361  34.921  43.158  1.00  0.00    -0.744 OA
ENDBRANCH 103 104
ENDBRANCH  77  98
ENDBRANCH  51  52
ENDBRANCH  44  46
ENDBRANCH  43  44
ENDBRANCH  42  43
ENDBRANCH  41  42
ENDBRANCH  40  41
ENDBRANCH   1  40
TORSDOF 21
ENDMDL
MODEL 2
REMARK VINA RESULT:      -8.5      2.301      3.292
REMARK SMILES C[C@H]1[C@H](C)CC[C@@]2(C(=O)OCCOCCOCCOC(=O)c3ccc(-c4c5nc(c(-c6ccc(S(=O)(=O)[O-])cc6)c6ccc([nH]6)c(-c6ccc(S(=O)(=O)[O-])cc6)c6nc(c(-c7ccc(S(=O)(=O)[O-])cc7)c7ccc4[nH]7)C=C6)C=C5)cc3)CC[C@@]3(C)C(=CC[C@@H]4[C@@]5(C)CC[C@H](O)C(C)(C)[C@@H]5CC[C@]43C)[C@H]12
REMARK SMILES IDX 15 1 14 2 13 3 12 4 11 5 10 6 8 7 9 8 7 9 1 10 2 11 3 12
REMARK SMILES IDX 104 13 4 14 5 15 86 16 6 17 82 18 84 19 87 20 83 21 85 22
REMARK SMILES IDX 102 23 88 24 89 25 101 26 103 27 90 28 100 29 91 30 92 31
REMARK SMILES IDX 99 32 93 33 96 34 94 35 97 36 98 37 95 38 16 40 17 41 18 42
REMARK SMILES IDX 19 43 20 44 21 45 22 46 23 47 81 48 24 49 80 50 25 51 26 52
REMARK SMILES IDX 27 53 74 54 28 55 79 56 73 57 75 58 29 59 78 60 72 61 71 62
REMARK SMILES IDX 30 64 60 65 41 66 59 67 42 68 45 69 58 70 76 71 43 72 44 73
REMARK SMILES IDX 57 75 77 76 46 77 31 78 32 79 40 80 33 81 39 82 34 83 35 84
REMARK SMILES IDX 36 85 37 86 38 87 61 88 62 89 70 90 63 91 69 92 64 93 65 94
REMARK SMILES IDX 66 95 67 96 68 97 47 98 48 99 56 100 49 101 55 102 50 103
REMARK SMILES IDX 51 104 52 105 53 106 54 107
REMARK H PARENT 95 39 75 63 45 74
REMARK Flexibility Score: inf
ROOT
ATOM      1  C   UNL A   1      46.518  24.069  24.848  1.00  0.00     0.188 C 
ENDROOT
BRANCH   1   2
ATOM      2  C   UNL A   1      45.623  25.334  25.044  1.00  0.00     0.188 C 
BRANCH   2   3
ATOM      3  O   UNL A   1      46.233  26.314  25.857  1.00  0.00    -0.376 OA
BRANCH   3   4
ATOM      4  C   UNL A   1      45.674  27.589  25.660  1.00  0.00     0.202 C 
BRANCH   4   5
ATOM      5  C   UNL A   1      46.644  28.764  25.604  1.00  0.00     0.261 C 
BRANCH   5   6
ATOM      6  O   UNL A   1      47.134  29.473  26.820  1.00  0.00    -0.463 OA
BRANCH   6   7
ATOM      7  C   UNL A   1      46.900  30.005  28.044  1.00  0.00     0.312 C 
ATOM      8  O   UNL A   1      45.865  30.509  28.462  1.00  0.00    -0.252 OA
BRANCH   7   9
ATOM      9  C   UNL A   1      48.120  29.807  28.978  1.00  0.00     0.075 C 
ATOM     10  C   UNL A   1      51.210  29.868  26.472  1.00  0.00     0.008 C 
ATOM     11  C   UNL A   1      49.884  29.449  27.108  1.00  0.00    -0.003 C 
ATOM     12  C   UNL A   1      49.870  27.912  27.440  1.00  0.00    -0.011 C 
ATOM     13  C   UNL A   1      49.396  30.414  28.318  1.00  0.00     0.036 C 
ATOM     14  C   UNL A   1      49.992  27.008  26.194  1.00  0.00     0.008 C 
ATOM     15  C   UNL A   1      48.589  27.446  28.140  1.00  0.00     0.005 C 
ATOM     16  C   UNL A   1      48.981  31.934  28.082  1.00  0.00    -0.063 C 
ATOM     17  C   UNL A   1      48.225  28.311  29.316  1.00  0.00     0.020 C 
ATOM     18  C   UNL A   1      47.861  30.501  30.337  1.00  0.00     0.020 C 
ATOM     19  C   UNL A   1      48.459  32.797  29.313  1.00  0.00    -0.006 C 
ATOM     20  C   UNL A   1      48.805  32.404  26.833  1.00  0.00    -0.027 C 
ATOM     21  C   UNL A   1      47.492  31.967  30.200  1.00  0.00     0.013 C 
ATOM     22  C   UNL A   1      49.695  33.119  30.190  1.00  0.00     0.017 C 
ATOM     23  C   UNL A   1      47.688  34.196  28.854  1.00  0.00    -0.020 C 
ATOM     24  C   UNL A   1      47.863  33.518  26.481  1.00  0.00     0.032 C 
ATOM     25  C   UNL A   1      46.821  33.849  27.588  1.00  0.00     0.006 C 
ATOM     26  C   UNL A   1      46.756  34.804  29.935  1.00  0.00     0.008 C 
ATOM     27  C   UNL A   1      48.746  35.295  28.541  1.00  0.00     0.012 C 
ATOM     28  C   UNL A   1      45.646  34.861  27.134  1.00  0.00    -0.025 C 
ATOM     29  C   UNL A   1      45.983  36.041  29.439  1.00  0.00     0.005 C 
ATOM     30  C   UNL A   1      46.171  35.729  25.968  1.00  0.00     0.012 C 
ATOM     31  C   UNL A   1      44.416  34.066  26.564  1.00  0.00     0.010 C 
ATOM     32  C   UNL A   1      44.992  35.654  28.337  1.00  0.00     0.003 C 
ATOM     33  C   UNL A   1      43.250  34.962  26.103  1.00  0.00     0.033 C 
ATOM     34  C   UNL A   1      43.952  36.769  27.901  1.00  0.00    -0.006 C 
ATOM     35  C   UNL A   1      42.814  36.054  27.095  1.00  0.00     0.120 C 
ATOM     36  C   UNL A   1      44.569  37.975  27.148  1.00  0.00     0.014 C 
ATOM     37  C   UNL A   1      43.277  37.418  29.144  1.00  0.00     0.014 C 
BRANCH  35  38
ATOM     38  O   UNL A   1      41.984  36.994  26.407  1.00  0.00    -0.393 OA
ATOM     39  H   UNL A   1      42.143  37.884  26.756  1.00  0.00     0.210 HD
ENDBRANCH  35  38
ENDBRANCH   7   9
ENDBRANCH   6   7
ENDBRANCH   5   6
ENDBRANCH   4   5
ENDBRANCH   3   4
ENDBRANCH   2   3
ENDBRANCH   1   2
BRANCH   1  40
ATOM     40  O   UNL A   1      46.571  23.082  25.869  1.00  0.00    -0.376 OA
BRANCH  40  41
ATOM     41  C   UNL A   1      45.347  22.598  26.376  1.00  0.00     0.202 C 
BRANCH  41  42
ATOM     42  C   UNL A   1      44.441  21.811  25.412  1.00  0.00     0.261 C 
BRANCH  42  43
ATOM     43  O   UNL A   1      43.267  22.496  24.904  1.00  0.00    -0.460 OA
BRANCH  43  44
ATOM     44  C   UNL A   1      42.097  22.303  25.583  1.00  0.00     0.338 C 
ATOM     45  O   UNL A   1      41.569  21.226  25.780  1.00  0.00    -0.246 OA
BRANCH  44  46
ATOM     46  C   UNL A   1      41.610  23.555  26.261  1.00  0.00     0.060 A 
ATOM     47  C   UNL A   1      42.189  24.783  25.891  1.00  0.00     0.016 A 
ATOM     48  C   UNL A   1      40.678  23.539  27.299  1.00  0.00     0.016 A 
ATOM     49  C   UNL A   1      41.937  25.957  26.619  1.00  0.00     0.010 A 
ATOM     50  C   UNL A   1      40.440  24.714  28.045  1.00  0.00     0.010 A 
ATOM     51  C   UNL A   1      41.127  25.914  27.758  1.00  0.00    -0.014 A 
BRANCH  51  52
ATOM     52  C   UNL A   1      41.258  26.983  28.802  1.00  0.00     0.031 A 
ATOM     53  C   UNL A   1      42.420  26.880  29.770  1.00  0.00     0.074 A 
ATOM     54  C   UNL A   1      40.434  28.046  28.899  1.00  0.00     0.049 A 
ATOM     55  N   UNL A   1      42.735  27.642  30.788  1.00  0.00    -0.248 NA
ATOM     56  C   UNL A   1      43.349  25.757  29.556  1.00  0.00     0.031 C 
ATOM     57  C   UNL A   1      39.313  28.342  28.013  1.00  0.00     0.029 A 
ATOM     58  N   UNL A   1      40.423  29.083  29.809  1.00  0.00    -0.354 N 
ATOM     59  C   UNL A   1      43.880  27.078  31.346  1.00  0.00     0.074 A 
ATOM     60  C   UNL A   1      44.185  25.895  30.572  1.00  0.00     0.031 C 
ATOM     61  C   UNL A   1      38.711  29.472  28.431  1.00  0.00     0.029 A 
ATOM     62  C   UNL A   1      39.385  29.972  29.633  1.00  0.00     0.049 A 
ATOM     63  H   UNL A   1      41.095  29.179  30.521  1.00  0.00     0.167 HD
ATOM     64  C   UNL A   1      44.623  27.498  32.398  1.00  0.00     0.031 A 
ATOM     65  C   UNL A   1      39.010  31.048  30.358  1.00  0.00     0.031 A 
ATOM     66  C   UNL A   1      44.339  28.670  33.182  1.00  0.00     0.049 A 
ATOM     67  C   UNL A   1      39.807  31.460  31.577  1.00  0.00     0.074 A 
ATOM     68  C   UNL A   1      45.051  29.177  34.257  1.00  0.00     0.029 A 
ATOM     69  N   UNL A   1      43.258  29.513  32.989  1.00  0.00    -0.354 N 
ATOM     70  N   UNL A   1      40.895  30.924  32.077  1.00  0.00    -0.248 NA
ATOM     71  C   UNL A   1      39.326  32.635  32.324  1.00  0.00     0.031 C 
ATOM     72  C   UNL A   1      44.365  30.291  34.752  1.00  0.00     0.029 A 
ATOM     73  C   UNL A   1      43.267  30.521  33.941  1.00  0.00     0.049 A 
ATOM     74  H   UNL A   1      42.583  29.412  32.279  1.00  0.00     0.167 HD
ATOM     75  C   UNL A   1      41.245  31.716  33.170  1.00  0.00     0.074 A 
ATOM     76  C   UNL A   1      40.263  32.775  33.253  1.00  0.00     0.031 C 
ATOM     77  C   UNL A   1      42.291  31.578  34.025  1.00  0.00     0.031 A 
BRANCH  64  78
ATOM     78  C   UNL A   1      45.807  26.651  32.792  1.00  0.00    -0.014 A 
ATOM     79  C   UNL A   1      47.065  26.816  32.183  1.00  0.00     0.010 A 
ATOM     80  C   UNL A   1      45.663  25.694  33.815  1.00  0.00     0.010 A 
ATOM     81  C   UNL A   1      48.143  26.009  32.557  1.00  0.00     0.020 A 
ATOM     82  C   UNL A   1      46.747  24.908  34.214  1.00  0.00     0.020 A 
ATOM     83  C   UNL A   1      47.976  25.058  33.570  1.00  0.00     0.054 A 
BRANCH  83  84
ATOM     84  S   UNL A   1      49.399  24.039  34.049  1.00  0.00     0.124 S 
ATOM     85  O   UNL A   1      49.913  24.766  35.207  1.00  0.00    -0.237 OA
ATOM     86  O   UNL A   1      48.783  22.748  34.340  1.00  0.00    -0.237 OA
ATOM     87  O   UNL A   1      50.258  24.064  32.867  1.00  0.00    -0.744 OA
ENDBRANCH  83  84
ENDBRANCH  64  78
BRANCH  65  88
ATOM     88  C   UNL A   1      37.792  31.824  29.973  1.00  0.00    -0.014 A 
ATOM     89  C   UNL A   1      37.894  32.990  29.190  1.00  0.00     0.010 A 
ATOM     90  C   UNL A   1      36.521  31.415  30.416  1.00  0.00     0.010 A 
ATOM     91  C   UNL A   1      36.753  33.734  28.868  1.00  0.00     0.020 A 
ATOM     92  C   UNL A   1      35.375  32.139  30.072  1.00  0.00     0.020 A 
ATOM     93  C   UNL A   1      35.499  33.300  29.305  1.00  0.00     0.054 A 
BRANCH  93  94
ATOM     94  S   UNL A   1      34.027  34.243  28.820  1.00  0.00     0.124 S 
ATOM     95  O   UNL A   1      33.359  34.451  30.101  1.00  0.00    -0.237 OA
ATOM     96  O   UNL A   1      34.606  35.435  28.205  1.00  0.00    -0.237 OA
ATOM     97  O   UNL A   1      33.338  33.348  27.893  1.00  0.00    -0.744 OA
ENDBRANCH  93  94
ENDBRANCH  65  88
BRANCH  77  98
ATOM     98  C   UNL A   1      42.470  32.621  35.103  1.00  0.00    -0.014 A 
ATOM     99  C   UNL A   1      43.221  33.790  34.885  1.00  0.00     0.010 A 
ATOM    100  C   UNL A   1      41.826  32.452  36.344  1.00  0.00     0.010 A 
ATOM    101  C   UNL A   1      43.362  34.745  35.899  1.00  0.00     0.020 A 
ATOM    102  C   UNL A   1      41.937  33.418  37.350  1.00  0.00     0.020 A 
ATOM    103  C   UNL A   1      42.721  34.551  37.127  1.00  0.00     0.054 A 
BRANCH 103 104
ATOM    104  S   UNL A   1      42.899  35.814  38.419  1.00  0.00     0.124 S 
ATOM    105  O   UNL A   1      44.344  35.834  38.627  1.00  0.00    -0.237 OA
ATOM    106  O   UNL A   1      42.339  37.004  37.783  1.00  0.00    -0.237 OA
ATOM    107  O   UNL A   1      42.118  35.284  39.534  1.00  0.00    -0.744 OA
ENDBRANCH 103 104
ENDBRANCH  77  98
ENDBRANCH  51  52
ENDBRANCH  44  46
ENDBRANCH  43  44
ENDBRANCH  42  43
ENDBRANCH  41  42
ENDBRANCH  40  41
ENDBRANCH   1  40
TORSDOF 21
ENDMDL
MODEL 3
REMARK VINA RESULT:      -8.3      2.435      7.883
REMARK SMILES C[C@H]1[C@H](C)CC[C@@]2(C(=O)OCCOCCOCCOC(=O)c3ccc(-c4c5nc(c(-c6ccc(S(=O)(=O)[O-])cc6)c6ccc([nH]6)c(-c6ccc(S(=O)(=O)[O-])cc6)c6nc(c(-c7ccc(S(=O)(=O)[O-])cc7)c7ccc4[nH]7)C=C6)C=C5)cc3)CC[C@@]3(C)C(=CC[C@@H]4[C@@]5(C)CC[C@H](O)C(C)(C)[C@@H]5CC[C@]43C)[C@H]12
REMARK SMILES IDX 15 1 14 2 13 3 12 4 11 5 10 6 8 7 9 8 7 9 1 10 2 11 3 12
REMARK SMILES IDX 104 13 4 14 5 15 86 16 6 17 82 18 84 19 87 20 83 21 85 22
REMARK SMILES IDX 102 23 88 24 89 25 101 26 103 27 90 28 100 29 91 30 92 31
REMARK SMILES IDX 99 32 93 33 96 34 94 35 97 36 98 37 95 38 16 40 17 41 18 42
REMARK SMILES IDX 19 43 20 44 21 45 22 46 23 47 81 48 24 49 80 50 25 51 26 52
REMARK SMILES IDX 27 53 74 54 28 55 79 56 73 57 75 58 29 59 78 60 72 61 71 62
REMARK SMILES IDX 30 64 60 65 41 66 59 67 42 68 45 69 58 70 76 71 43 72 44 73
REMARK SMILES IDX 57 75 77 76 46 77 31 78 32 79 40 80 33 81 39 82 34 83 35 84
REMARK SMILES IDX 36 85 37 86 38 87 61 88 62 89 70 90 63 91 69 92 64 93 65 94
REMARK SMILES IDX 66 95 67 96 68 97 47 98 48 99 56 100 49 101 55 102 50 103
REMARK SMILES IDX 51 104 52 105 53 106 54 107
REMARK H PARENT 95 39 75 63 45 74
REMARK Flexibility Score: inf
ROOT
ATOM      1  C   UNL A   1      46.685  26.178  32.495  1.00  0.00     0.188 C 
ENDROOT
BRANCH   1   2
ATOM      2  C   UNL A   1      47.836  27.224  32.356  1.00  0.00     0.188 C 
BRANCH   2   3
ATOM      3  O   UNL A   1      47.814  27.898  31.117  1.00  0.00    -0.376 OA
BRANCH   3   4
ATOM      4  C   UNL A   1      47.608  27.020  30.038  1.00  0.00     0.202 C 
BRANCH   4   5
ATOM      5  C   UNL A   1      46.493  27.379  29.061  1.00  0.00     0.261 C 
BRANCH   5   6
ATOM      6  O   UNL A   1      46.152  28.783  28.697  1.00  0.00    -0.463 OA
BRANCH   6   7
ATOM      7  C   UNL A   1      46.524  30.074  28.516  1.00  0.00     0.312 C 
ATOM      8  O   UNL A   1      47.128  30.800  29.295  1.00  0.00    -0.252 OA
BRANCH   7   9
ATOM      9  C   UNL A   1      46.184  30.554  27.084  1.00  0.00     0.075 C 
ATOM     10  C   UNL A   1      42.811  28.617  26.243  1.00  0.00     0.008 C 
ATOM     11  C   UNL A   1      44.269  28.860  26.636  1.00  0.00    -0.003 C 
ATOM     12  C   UNL A   1      45.252  28.049  25.714  1.00  0.00    -0.011 C 
ATOM     13  C   UNL A   1      44.651  30.425  26.831  1.00  0.00     0.036 C 
ATOM     14  C   UNL A   1      45.083  26.518  25.824  1.00  0.00     0.008 C 
ATOM     15  C   UNL A   1      46.731  28.303  26.020  1.00  0.00     0.005 C 
ATOM     16  C   UNL A   1      44.026  31.316  27.995  1.00  0.00    -0.063 C 
ATOM     17  C   UNL A   1      47.062  29.769  26.095  1.00  0.00     0.020 C 
ATOM     18  C   UNL A   1      46.615  32.030  26.907  1.00  0.00     0.020 C 
ATOM     19  C   UNL A   1      44.496  32.829  28.152  1.00  0.00    -0.006 C 
ATOM     20  C   UNL A   1      43.333  30.740  28.994  1.00  0.00    -0.027 C 
ATOM     21  C   UNL A   1      46.031  32.954  27.960  1.00  0.00     0.013 C 
ATOM     22  C   UNL A   1      43.841  33.623  26.994  1.00  0.00     0.017 C 
ATOM     23  C   UNL A   1      44.089  33.494  29.620  1.00  0.00    -0.020 C 
ATOM     24  C   UNL A   1      43.249  31.295  30.386  1.00  0.00     0.032 C 
ATOM     25  C   UNL A   1      44.317  32.380  30.707  1.00  0.00     0.006 C 
ATOM     26  C   UNL A   1      44.918  34.743  30.015  1.00  0.00     0.008 C 
ATOM     27  C   UNL A   1      42.605  33.965  29.584  1.00  0.00     0.012 C 
ATOM     28  C   UNL A   1      44.407  32.804  32.264  1.00  0.00    -0.025 C 
ATOM     29  C   UNL A   1      44.583  35.270  31.424  1.00  0.00     0.005 C 
ATOM     30  C   UNL A   1      43.040  32.525  32.927  1.00  0.00     0.012 C 
ATOM     31  C   UNL A   1      45.450  31.908  33.025  1.00  0.00     0.010 C 
ATOM     32  C   UNL A   1      44.995  34.254  32.494  1.00  0.00     0.003 C 
ATOM     33  C   UNL A   1      45.592  32.246  34.522  1.00  0.00     0.033 C 
ATOM     34  C   UNL A   1      44.942  34.755  33.998  1.00  0.00    -0.006 C 
ATOM     35  C   UNL A   1      45.770  33.738  34.856  1.00  0.00     0.120 C 
ATOM     36  C   UNL A   1      43.516  35.003  34.550  1.00  0.00     0.014 C 
ATOM     37  C   UNL A   1      45.641  36.137  34.149  1.00  0.00     0.014 C 
BRANCH  35  38
ATOM     38  O   UNL A   1      45.546  33.924  36.257  1.00  0.00    -0.393 OA
ATOM     39  H   UNL A   1      45.209  34.819  36.415  1.00  0.00     0.210 HD
ENDBRANCH  35  38
ENDBRANCH   7   9
ENDBRANCH   6   7
ENDBRANCH   5   6
ENDBRANCH   4   5
ENDBRANCH   3   4
ENDBRANCH   2   3
ENDBRANCH   1   2
BRANCH   1  40
ATOM     40  O   UNL A   1      46.965  24.893  33.034  1.00  0.00    -0.376 OA
BRANCH  40  41
ATOM     41  C   UNL A   1      46.044  24.355  33.957  1.00  0.00     0.202 C 
BRANCH  41  42
ATOM     42  C   UNL A   1      46.558  24.044  35.373  1.00  0.00     0.261 C 
BRANCH  42  43
ATOM     43  O   UNL A   1      47.657  24.853  35.868  1.00  0.00    -0.460 OA
BRANCH  43  44
ATOM     44  C   UNL A   1      47.434  25.559  37.017  1.00  0.00     0.338 C 
ATOM     45  O   UNL A   1      48.012  25.383  38.073  1.00  0.00    -0.246 OA
BRANCH  44  46
ATOM     46  C   UNL A   1      46.530  26.742  36.801  1.00  0.00     0.060 A 
ATOM     47  C   UNL A   1      45.287  26.762  37.459  1.00  0.00     0.016 A 
ATOM     48  C   UNL A   1      46.833  27.772  35.910  1.00  0.00     0.016 A 
ATOM     49  C   UNL A   1      44.311  27.723  37.147  1.00  0.00     0.010 A 
ATOM     50  C   UNL A   1      45.846  28.726  35.580  1.00  0.00     0.010 A 
ATOM     51  C   UNL A   1      44.551  28.662  36.139  1.00  0.00    -0.014 A 
BRANCH  51  52
ATOM     52  C   UNL A   1      43.394  29.328  35.455  1.00  0.00     0.031 A 
ATOM     53  C   UNL A   1      42.951  28.767  34.118  1.00  0.00     0.074 A 
ATOM     54  C   UNL A   1      42.702  30.359  35.980  1.00  0.00     0.049 A 
ATOM     55  N   UNL A   1      42.013  29.182  33.302  1.00  0.00    -0.248 NA
ATOM     56  C   UNL A   1      43.674  27.576  33.639  1.00  0.00     0.031 C 
ATOM     57  C   UNL A   1      42.941  30.977  37.281  1.00  0.00     0.029 A 
ATOM     58  N   UNL A   1      41.641  31.075  35.461  1.00  0.00    -0.354 N 
ATOM     59  C   UNL A   1      42.051  28.319  32.210  1.00  0.00     0.074 A 
ATOM     60  C   UNL A   1      43.123  27.379  32.453  1.00  0.00     0.031 C 
ATOM     61  C   UNL A   1      42.069  31.988  37.453  1.00  0.00     0.029 A 
ATOM     62  C   UNL A   1      41.221  32.112  36.264  1.00  0.00     0.049 A 
ATOM     63  H   UNL A   1      41.224  30.863  34.596  1.00  0.00     0.167 HD
ATOM     64  C   UNL A   1      41.268  28.295  31.103  1.00  0.00     0.031 A 
ATOM     65  C   UNL A   1      40.279  33.060  36.062  1.00  0.00     0.031 A 
ATOM     66  C   UNL A   1      40.198  29.220  30.840  1.00  0.00     0.049 A 
ATOM     67  C   UNL A   1      39.465  33.065  34.786  1.00  0.00     0.074 A 
ATOM     68  C   UNL A   1      39.344  29.255  29.749  1.00  0.00     0.029 A 
ATOM     69  N   UNL A   1      39.837  30.273  31.662  1.00  0.00    -0.354 N 
ATOM     70  N   UNL A   1      39.504  32.231  33.774  1.00  0.00    -0.248 NA
ATOM     71  C   UNL A   1      38.468  34.139  34.633  1.00  0.00     0.031 C 
ATOM     72  C   UNL A   1      38.509  30.369  29.883  1.00  0.00     0.029 A 
ATOM     73  C   UNL A   1      38.793  30.983  31.091  1.00  0.00     0.049 A 
ATOM     74  H   UNL A   1      40.260  30.486  32.526  1.00  0.00     0.167 HD
ATOM     75  C   UNL A   1      38.517  32.659  32.886  1.00  0.00     0.074 A 
ATOM     76  C   UNL A   1      37.888  33.817  33.485  1.00  0.00     0.031 C 
ATOM     77  C   UNL A   1      38.163  32.135  31.685  1.00  0.00     0.031 A 
BRANCH  64  78
ATOM     78  C   UNL A   1      41.572  27.247  30.063  1.00  0.00    -0.014 A 
ATOM     79  C   UNL A   1      42.887  26.802  29.828  1.00  0.00     0.010 A 
ATOM     80  C   UNL A   1      40.516  26.673  29.329  1.00  0.00     0.010 A 
ATOM     81  C   UNL A   1      43.143  25.839  28.849  1.00  0.00     0.020 A 
ATOM     82  C   UNL A   1      40.765  25.686  28.372  1.00  0.00     0.020 A 
ATOM     83  C   UNL A   1      42.080  25.288  28.125  1.00  0.00     0.054 A 
BRANCH  83  84
ATOM     84  S   UNL A   1      42.441  24.025  26.874  1.00  0.00     0.124 S 
ATOM     85  O   UNL A   1      42.171  24.745  25.632  1.00  0.00    -0.237 OA
ATOM     86  O   UNL A   1      43.845  23.715  27.129  1.00  0.00    -0.237 OA
ATOM     87  O   UNL A   1      41.502  22.949  27.186  1.00  0.00    -0.744 OA
ENDBRANCH  83  84
ENDBRANCH  64  78
BRANCH  65  88
ATOM     88  C   UNL A   1      40.052  34.122  37.089  1.00  0.00    -0.014 A 
ATOM     89  C   UNL A   1      39.060  33.973  38.077  1.00  0.00     0.010 A 
ATOM     90  C   UNL A   1      40.810  35.307  37.064  1.00  0.00     0.010 A 
ATOM     91  C   UNL A   1      38.826  34.990  39.010  1.00  0.00     0.020 A 
ATOM     92  C   UNL A   1      40.600  36.312  38.012  1.00  0.00     0.020 A 
ATOM     93  C   UNL A   1      39.603  36.151  38.976  1.00  0.00     0.054 A 
BRANCH  93  94
ATOM     94  S   UNL A   1      39.327  37.427  40.236  1.00  0.00     0.124 S 
ATOM     95  O   UNL A   1      38.447  38.361  39.541  1.00  0.00    -0.237 OA
ATOM     96  O   UNL A   1      38.714  36.668  41.324  1.00  0.00    -0.237 OA
ATOM     97  O   UNL A   1      40.671  37.926  40.518  1.00  0.00    -0.744 OA
ENDBRANCH  93  94
ENDBRANCH  65  88
BRANCH  77  98
ATOM     98  C   UNL A   1      37.008  32.769  30.945  1.00  0.00    -0.014 A 
ATOM     99  C   UNL A   1      35.674  32.406  31.205  1.00  0.00     0.010 A 
ATOM    100  C   UNL A   1      37.262  33.790  30.009  1.00  0.00     0.010 A 
ATOM    101  C   UNL A   1      34.623  33.019  30.511  1.00  0.00     0.020 A 
ATOM    102  C   UNL A   1      36.214  34.428  29.337  1.00  0.00     0.020 A 
ATOM    103  C   UNL A   1      34.900  34.024  29.579  1.00  0.00     0.054 A 
BRANCH 103 104
ATOM    104  S   UNL A   1      33.520  34.819  28.709  1.00  0.00     0.124 S 
ATOM    105  O   UNL A   1      34.143  36.037  28.198  1.00  0.00    -0.237 OA
ATOM    106  O   UNL A   1      33.162  33.825  27.700  1.00  0.00    -0.237 OA
ATOM    107  O   UNL A   1      32.520  35.023  29.755  1.00  0.00    -0.744 OA
ENDBRANCH 103 104
ENDBRANCH  77  98
ENDBRANCH  51  52
ENDBRANCH  44  46
ENDBRANCH  43  44
ENDBRANCH  42  43
ENDBRANCH  41  42
ENDBRANCH  40  41
ENDBRANCH   1  40
TORSDOF 21
ENDMDL
