MODEL 1
REMARK VINA RESULT:      -8.6      0.000      0.000
REMARK SMILES Cc1c(NC(=S)NC(=O)CSc2ccc(Cl)cc2)cccc1C(=O)OCCOCCOCCOC(=O)c1ccc(-c2c3nc(c(-c4ccc(S(=O)(=O)[O-])cc4)c4ccc([nH]4)c(-c4ccc(S(=O)(=O)[O-])cc4)c4nc(c(-c5ccc(S(=O)(=O)[O-])cc5)c5ccc2[nH]5)C=C4)C=C3)cc1
REMARK SMILES IDX 28 1 27 2 26 3 25 4 23 5 24 6 22 7 1 8 2 9 3 10 19 11 21 12
REMARK SMILES IDX 20 13 4 14 5 16 6 17 7 18 8 19 9 21 10 22 11 23 12 24 13 25
REMARK SMILES IDX 18 26 14 27 17 28 15 29 16 30 29 31 30 32 31 33 32 34 33 35
REMARK SMILES IDX 34 36 35 37 36 38 37 39 38 40 96 41 39 42 95 43 40 44 41 45
REMARK SMILES IDX 42 46 89 47 43 48 94 49 88 50 90 51 44 52 93 53 87 54 86 55
REMARK SMILES IDX 45 57 75 58 56 59 74 60 57 61 60 62 73 63 91 64 58 65 59 66
REMARK SMILES IDX 72 68 92 69 61 70 46 71 47 72 55 73 48 74 54 75 49 76 50 77
REMARK SMILES IDX 51 78 52 79 53 80 76 81 77 82 85 83 78 84 84 85 79 86 80 87
REMARK SMILES IDX 81 88 82 89 83 90 62 91 63 92 71 93 64 94 70 95 65 96 66 97
REMARK SMILES IDX 67 98 68 99 69 100
REMARK H PARENT 4 15 7 20 90 56 60 67
REMARK Flexibility Score: inf
ROOT
ATOM      1  O   UNL A   1      45.336  28.747  25.754  1.00  0.00    -0.376 OA
ENDROOT
BRANCH   1   2
ATOM      2  C   UNL A   1      46.545  29.361  26.271  1.00  0.00     0.202 C 
BRANCH   2   3
ATOM      3  C   UNL A   1      47.557  28.630  27.437  1.00  0.00     0.261 C 
BRANCH   3   4
ATOM      4  O   UNL A   1      47.110  27.670  28.757  1.00  0.00    -0.460 OA
BRANCH   4   5
ATOM      5  C   UNL A   1      46.889  26.272  28.984  1.00  0.00     0.338 C 
ATOM      6  O   UNL A   1      47.688  25.402  29.332  1.00  0.00    -0.246 OA
BRANCH   5   7
ATOM      7  C   UNL A   1      45.610  25.531  28.898  1.00  0.00     0.065 A 
ATOM      8  C   UNL A   1      46.130  25.119  26.509  1.00  0.00     0.047 C 
ATOM      9  C   UNL A   1      45.403  24.747  27.770  1.00  0.00    -0.013 A 
ATOM     10  C   UNL A   1      44.721  23.507  27.940  1.00  0.00     0.044 A 
ATOM     11  C   UNL A   1      43.977  23.232  29.090  1.00  0.00     0.026 A 
ATOM     12  C   UNL A   1      45.095  25.025  30.125  1.00  0.00     0.016 A 
ATOM     13  C   UNL A   1      44.189  23.983  30.220  1.00  0.00     0.003 A 
BRANCH  10  14
ATOM     14  N   UNL A   1      44.902  22.528  26.958  1.00  0.00    -0.332 N 
ATOM     15  H   UNL A   1      45.805  22.138  26.969  1.00  0.00     0.169 HD
BRANCH  14  16
ATOM     16  C   UNL A   1      44.121  22.002  26.008  1.00  0.00     0.177 C 
ATOM     17  S   UNL A   1      43.347  23.098  24.996  1.00  0.00    -0.040 S 
BRANCH  16  18
ATOM     18  N   UNL A   1      43.859  20.678  25.785  1.00  0.00    -0.302 N 
ATOM     19  C   UNL A   1      42.882  19.694  25.683  1.00  0.00     0.236 C 
ATOM     20  H   UNL A   1      44.726  20.236  25.633  1.00  0.00     0.172 HD
ATOM     21  O   UNL A   1      43.202  18.707  24.999  1.00  0.00    -0.274 OA
BRANCH  19  22
ATOM     22  C   UNL A   1      41.504  19.732  26.314  1.00  0.00     0.175 C 
BRANCH  22  23
ATOM     23  S   UNL A   1      41.253  21.015  27.564  1.00  0.00    -0.116 SA
BRANCH  23  24
ATOM     24  C   UNL A   1      39.890  21.878  26.788  1.00  0.00     0.008 A 
ATOM     25  C   UNL A   1      39.002  21.237  25.915  1.00  0.00     0.016 A 
ATOM     26  C   UNL A   1      39.690  23.227  27.105  1.00  0.00     0.016 A 
ATOM     27  C   UNL A   1      37.906  21.936  25.390  1.00  0.00     0.021 A 
ATOM     28  C   UNL A   1      38.597  23.922  26.583  1.00  0.00     0.021 A 
ATOM     29  C   UNL A   1      37.702  23.270  25.738  1.00  0.00     0.041 A 
ATOM     30  Cl  UNL A   1      36.321  24.112  25.156  1.00  0.00    -0.084 Cl
ENDBRANCH  23  24
ENDBRANCH  22  23
ENDBRANCH  19  22
ENDBRANCH  16  18
ENDBRANCH  14  16
ENDBRANCH  10  14
ENDBRANCH   5   7
ENDBRANCH   4   5
ENDBRANCH   3   4
ENDBRANCH   2   3
ENDBRANCH   1   2
BRANCH   1  31
ATOM     31  C   UNL A   1      44.028  28.757  26.376  1.00  0.00     0.188 C 
BRANCH  31  32
ATOM     32  C   UNL A   1      43.674  28.119  27.731  1.00  0.00     0.188 C 
BRANCH  32  33
ATOM     33  O   UNL A   1      42.461  27.391  27.682  1.00  0.00    -0.376 OA
BRANCH  33  34
ATOM     34  C   UNL A   1      41.585  27.697  26.605  1.00  0.00     0.202 C 
BRANCH  34  35
ATOM     35  C   UNL A   1      40.630  28.900  26.817  1.00  0.00     0.261 C 
BRANCH  35  36
ATOM     36  O   UNL A   1      39.389  28.578  27.503  1.00  0.00    -0.460 OA
BRANCH  36  37
ATOM     37  C   UNL A   1      39.423  28.232  28.846  1.00  0.00     0.338 C 
ATOM     38  O   UNL A   1      39.383  27.064  29.206  1.00  0.00    -0.246 OA
BRANCH  37  39
ATOM     39  C   UNL A   1      39.838  29.376  29.721  1.00  0.00     0.060 A 
ATOM     40  C   UNL A   1      40.151  30.714  29.441  1.00  0.00     0.016 A 
ATOM     41  C   UNL A   1      39.934  29.066  31.024  1.00  0.00     0.016 A 
ATOM     42  C   UNL A   1      40.637  31.664  30.477  1.00  0.00     0.010 A 
ATOM     43  C   UNL A   1      40.578  29.956  31.878  1.00  0.00     0.010 A 
ATOM     44  C   UNL A   1      40.840  31.313  31.814  1.00  0.00    -0.014 A 
BRANCH  44  45
ATOM     45  C   UNL A   1      41.443  32.119  33.074  1.00  0.00     0.031 A 
ATOM     46  C   UNL A   1      40.797  33.016  34.357  1.00  0.00     0.074 A 
ATOM     47  C   UNL A   1      42.791  32.050  33.114  1.00  0.00     0.049 A 
ATOM     48  N   UNL A   1      41.425  34.018  34.955  1.00  0.00    -0.248 NA
ATOM     49  C   UNL A   1      39.447  32.939  35.047  1.00  0.00     0.031 C 
ATOM     50  C   UNL A   1      43.700  32.445  34.180  1.00  0.00     0.029 A 
ATOM     51  N   UNL A   1      43.636  31.743  32.044  1.00  0.00    -0.354 N 
ATOM     52  C   UNL A   1      40.627  34.461  36.028  1.00  0.00     0.074 A 
ATOM     53  C   UNL A   1      39.320  34.047  35.749  1.00  0.00     0.031 C 
ATOM     54  C   UNL A   1      44.915  32.651  33.641  1.00  0.00     0.029 A 
ATOM     55  C   UNL A   1      44.775  32.531  32.197  1.00  0.00     0.049 A 
ATOM     56  H   UNL A   1      43.460  31.096  31.322  1.00  0.00     0.167 HD
ATOM     57  C   UNL A   1      41.082  34.928  37.227  1.00  0.00     0.031 A 
ATOM     58  C   UNL A   1      45.053  33.488  31.268  1.00  0.00     0.031 A 
ATOM     59  C   UNL A   1      42.447  35.342  37.061  1.00  0.00     0.049 A 
ATOM     60  C   UNL A   1      45.068  34.873  31.877  1.00  0.00     0.074 A 
ATOM     61  C   UNL A   1      43.665  34.758  37.336  1.00  0.00     0.029 A 
ATOM     62  N   UNL A   1      42.671  36.330  36.116  1.00  0.00    -0.354 N 
ATOM     63  N   UNL A   1      44.602  35.154  33.067  1.00  0.00    -0.248 NA
ATOM     64  C   UNL A   1      45.635  36.044  31.221  1.00  0.00     0.031 C 
ATOM     65  C   UNL A   1      44.590  35.271  36.373  1.00  0.00     0.029 A 
ATOM     66  C   UNL A   1      43.940  36.215  35.590  1.00  0.00     0.049 A 
ATOM     67  H   UNL A   1      42.017  37.018  35.858  1.00  0.00     0.167 HD
ATOM     68  C   UNL A   1      44.758  36.485  33.329  1.00  0.00     0.074 A 
ATOM     69  C   UNL A   1      45.436  36.996  32.151  1.00  0.00     0.031 C 
ATOM     70  C   UNL A   1      44.304  37.079  34.472  1.00  0.00     0.031 A 
BRANCH  57  71
ATOM     71  C   UNL A   1      40.290  34.865  38.557  1.00  0.00    -0.014 A 
ATOM     72  C   UNL A   1      40.430  33.768  39.432  1.00  0.00     0.010 A 
ATOM     73  C   UNL A   1      39.304  35.804  38.962  1.00  0.00     0.010 A 
ATOM     74  C   UNL A   1      39.654  33.635  40.616  1.00  0.00     0.020 A 
ATOM     75  C   UNL A   1      38.563  35.716  40.154  1.00  0.00     0.020 A 
ATOM     76  C   UNL A   1      38.727  34.616  40.973  1.00  0.00     0.054 A 
BRANCH  76  77
ATOM     77  S   UNL A   1      37.701  34.442  42.464  1.00  0.00     0.124 S 
ATOM     78  O   UNL A   1      36.375  34.193  41.902  1.00  0.00    -0.237 OA
ATOM     79  O   UNL A   1      38.318  33.313  43.153  1.00  0.00    -0.237 OA
ATOM     80  O   UNL A   1      37.846  35.730  43.142  1.00  0.00    -0.744 OA
ENDBRANCH  76  77
ENDBRANCH  57  71
BRANCH  58  81
ATOM     81  C   UNL A   1      44.721  33.071  29.857  1.00  0.00    -0.014 A 
ATOM     82  C   UNL A   1      43.597  33.703  29.266  1.00  0.00     0.010 A 
ATOM     83  C   UNL A   1      45.616  32.411  28.996  1.00  0.00     0.010 A 
ATOM     84  C   UNL A   1      43.461  33.826  27.878  1.00  0.00     0.020 A 
ATOM     85  C   UNL A   1      45.462  32.502  27.587  1.00  0.00     0.020 A 
ATOM     86  C   UNL A   1      44.421  33.266  27.043  1.00  0.00     0.054 A 
BRANCH  86  87
ATOM     87  S   UNL A   1      44.366  33.727  25.277  1.00  0.00     0.124 S 
ATOM     88  O   UNL A   1      44.078  32.454  24.625  1.00  0.00    -0.237 OA
ATOM     89  O   UNL A   1      43.276  34.703  25.249  1.00  0.00    -0.237 OA
ATOM     90  O   UNL A   1      45.699  34.271  25.027  1.00  0.00    -0.744 OA
ENDBRANCH  86  87
ENDBRANCH  58  81
BRANCH  70  91
ATOM     91  C   UNL A   1      44.136  38.571  34.637  1.00  0.00    -0.014 A 
ATOM     92  C   UNL A   1      44.832  39.324  35.595  1.00  0.00     0.010 A 
ATOM     93  C   UNL A   1      43.369  39.288  33.688  1.00  0.00     0.010 A 
ATOM     94  C   UNL A   1      44.687  40.714  35.673  1.00  0.00     0.020 A 
ATOM     95  C   UNL A   1      43.274  40.680  33.712  1.00  0.00     0.020 A 
ATOM     96  C   UNL A   1      43.899  41.382  34.738  1.00  0.00     0.054 A 
BRANCH  96  97
ATOM     97  S   UNL A   1      43.685  43.174  34.838  1.00  0.00     0.124 S 
ATOM     98  O   UNL A   1      43.781  43.560  33.432  1.00  0.00    -0.237 OA
ATOM     99  O   UNL A   1      42.361  43.325  35.437  1.00  0.00    -0.237 OA
ATOM    100  O   UNL A   1      44.797  43.597  35.684  1.00  0.00    -0.744 OA
ENDBRANCH  96  97
ENDBRANCH  70  91
ENDBRANCH  44  45
ENDBRANCH  37  39
ENDBRANCH  36  37
ENDBRANCH  35  36
ENDBRANCH  34  35
ENDBRANCH  33  34
ENDBRANCH  32  33
ENDBRANCH  31  32
ENDBRANCH   1  31
TORSDOF 26
ENDMDL
MODEL 2
REMARK VINA RESULT:      -8.3      5.192      9.215
REMARK SMILES Cc1c(NC(=S)NC(=O)CSc2ccc(Cl)cc2)cccc1C(=O)OCCOCCOCCOC(=O)c1ccc(-c2c3nc(c(-c4ccc(S(=O)(=O)[O-])cc4)c4ccc([nH]4)c(-c4ccc(S(=O)(=O)[O-])cc4)c4nc(c(-c5ccc(S(=O)(=O)[O-])cc5)c5ccc2[nH]5)C=C4)C=C3)cc1
REMARK SMILES IDX 28 1 27 2 26 3 25 4 23 5 24 6 22 7 1 8 2 9 3 10 19 11 21 12
REMARK SMILES IDX 20 13 4 14 5 16 6 17 7 18 8 19 9 21 10 22 11 23 12 24 13 25
REMARK SMILES IDX 18 26 14 27 17 28 15 29 16 30 29 31 30 32 31 33 32 34 33 35
REMARK SMILES IDX 34 36 35 37 36 38 37 39 38 40 96 41 39 42 95 43 40 44 41 45
REMARK SMILES IDX 42 46 89 47 43 48 94 49 88 50 90 51 44 52 93 53 87 54 86 55
REMARK SMILES IDX 45 57 75 58 56 59 74 60 57 61 60 62 73 63 91 64 58 65 59 66
REMARK SMILES IDX 72 68 92 69 61 70 46 71 47 72 55 73 48 74 54 75 49 76 50 77
REMARK SMILES IDX 51 78 52 79 53 80 76 81 77 82 85 83 78 84 84 85 79 86 80 87
REMARK SMILES IDX 81 88 82 89 83 90 62 91 63 92 71 93 64 94 70 95 65 96 66 97
REMARK SMILES IDX 67 98 68 99 69 100
REMARK H PARENT 4 15 7 20 90 56 60 67
REMARK Flexibility Score: inf
ROOT
ATOM      1  O   UNL A   1      39.682  28.215  29.569  1.00  0.00    -0.376 OA
ENDROOT
BRANCH   1   2
ATOM      2  C   UNL A   1      39.536  27.668  28.233  1.00  0.00     0.202 C 
BRANCH   2   3
ATOM      3  C   UNL A   1      40.596  28.022  26.941  1.00  0.00     0.261 C 
BRANCH   3   4
ATOM      4  O   UNL A   1      42.262  27.740  26.846  1.00  0.00    -0.460 OA
BRANCH   4   5
ATOM      5  C   UNL A   1      43.149  27.127  25.901  1.00  0.00     0.338 C 
ATOM      6  O   UNL A   1      42.985  26.921  24.697  1.00  0.00    -0.246 OA
BRANCH   5   7
ATOM      7  C   UNL A   1      44.520  26.624  26.139  1.00  0.00     0.065 A 
ATOM      8  C   UNL A   1      43.507  24.795  27.471  1.00  0.00     0.047 C 
ATOM      9  C   UNL A   1      44.647  25.343  26.661  1.00  0.00    -0.013 A 
ATOM     10  C   UNL A   1      45.728  24.541  26.194  1.00  0.00     0.044 A 
ATOM     11  C   UNL A   1      46.820  25.099  25.524  1.00  0.00     0.026 A 
ATOM     12  C   UNL A   1      45.507  27.023  25.193  1.00  0.00     0.016 A 
ATOM     13  C   UNL A   1      46.700  26.355  24.981  1.00  0.00     0.003 A 
BRANCH  10  14
ATOM     14  N   UNL A   1      45.617  23.154  26.340  1.00  0.00    -0.332 N 
ATOM     15  H   UNL A   1      45.806  22.850  27.257  1.00  0.00     0.169 HD
BRANCH  14  16
ATOM     16  C   UNL A   1      45.308  22.149  25.513  1.00  0.00     0.177 C 
ATOM     17  S   UNL A   1      44.316  22.538  24.214  1.00  0.00    -0.040 S 
BRANCH  16  18
ATOM     18  N   UNL A   1      45.685  20.838  25.620  1.00  0.00    -0.302 N 
ATOM     19  C   UNL A   1      45.383  19.519  25.301  1.00  0.00     0.236 C 
ATOM     20  H   UNL A   1      46.520  20.822  26.142  1.00  0.00     0.172 HD
ATOM     21  O   UNL A   1      46.358  18.748  25.284  1.00  0.00    -0.274 OA
BRANCH  19  22
ATOM     22  C   UNL A   1      44.008  18.967  24.980  1.00  0.00     0.175 C 
BRANCH  22  23
ATOM     23  S   UNL A   1      43.056  18.370  26.398  1.00  0.00    -0.116 SA
BRANCH  23  24
ATOM     24  C   UNL A   1      41.925  19.748  26.559  1.00  0.00     0.008 A 
ATOM     25  C   UNL A   1      42.307  20.960  27.148  1.00  0.00     0.016 A 
ATOM     26  C   UNL A   1      40.633  19.613  26.037  1.00  0.00     0.016 A 
ATOM     27  C   UNL A   1      41.409  22.036  27.184  1.00  0.00     0.021 A 
ATOM     28  C   UNL A   1      39.740  20.686  26.071  1.00  0.00     0.021 A 
ATOM     29  C   UNL A   1      40.136  21.897  26.633  1.00  0.00     0.041 A 
ATOM     30  Cl  UNL A   1      39.055  23.234  26.609  1.00  0.00    -0.084 Cl
ENDBRANCH  23  24
ENDBRANCH  22  23
ENDBRANCH  19  22
ENDBRANCH  16  18
ENDBRANCH  14  16
ENDBRANCH  10  14
ENDBRANCH   5   7
ENDBRANCH   4   5
ENDBRANCH   3   4
ENDBRANCH   2   3
ENDBRANCH   1   2
BRANCH   1  31
ATOM     31  C   UNL A   1      38.697  28.179  30.631  1.00  0.00     0.188 C 
BRANCH  31  32
ATOM     32  C   UNL A   1      37.412  29.023  30.691  1.00  0.00     0.188 C 
BRANCH  32  33
ATOM     33  O   UNL A   1      37.008  29.295  32.020  1.00  0.00    -0.376 OA
BRANCH  33  34
ATOM     34  C   UNL A   1      37.844  30.170  32.766  1.00  0.00     0.202 C 
BRANCH  34  35
ATOM     35  C   UNL A   1      37.630  31.688  32.534  1.00  0.00     0.261 C 
BRANCH  35  36
ATOM     36  O   UNL A   1      38.130  32.186  31.263  1.00  0.00    -0.460 OA
BRANCH  36  37
ATOM     37  C   UNL A   1      39.101  33.177  31.254  1.00  0.00     0.338 C 
ATOM     38  O   UNL A   1      38.831  34.338  31.525  1.00  0.00    -0.246 OA
BRANCH  37  39
ATOM     39  C   UNL A   1      40.490  32.616  31.216  1.00  0.00     0.060 A 
ATOM     40  C   UNL A   1      41.680  32.996  31.852  1.00  0.00     0.016 A 
ATOM     41  C   UNL A   1      40.629  31.543  30.419  1.00  0.00     0.016 A 
ATOM     42  C   UNL A   1      42.986  32.334  31.587  1.00  0.00     0.010 A 
ATOM     43  C   UNL A   1      41.912  31.119  30.086  1.00  0.00     0.010 A 
ATOM     44  C   UNL A   1      43.152  31.288  30.677  1.00  0.00    -0.014 A 
BRANCH  44  45
ATOM     45  C   UNL A   1      44.454  30.494  30.154  1.00  0.00     0.031 A 
ATOM     46  C   UNL A   1      45.766  29.709  30.882  1.00  0.00     0.074 A 
ATOM     47  C   UNL A   1      44.496  30.436  28.805  1.00  0.00     0.049 A 
ATOM     48  N   UNL A   1      46.966  29.598  30.331  1.00  0.00    -0.248 NA
ATOM     49  C   UNL A   1      45.902  29.045  32.241  1.00  0.00     0.031 C 
ATOM     50  C   UNL A   1      45.365  29.644  27.947  1.00  0.00     0.029 A 
ATOM     51  N   UNL A   1      43.820  31.279  27.920  1.00  0.00    -0.354 N 
ATOM     52  C   UNL A   1      47.770  28.810  31.179  1.00  0.00     0.074 A 
ATOM     53  C   UNL A   1      47.192  28.879  32.451  1.00  0.00     0.031 C 
ATOM     54  C   UNL A   1      45.401  30.226  26.735  1.00  0.00     0.029 A 
ATOM     55  C   UNL A   1      44.671  31.481  26.835  1.00  0.00     0.049 A 
ATOM     56  H   UNL A   1      42.918  31.656  28.039  1.00  0.00     0.167 HD
ATOM     57  C   UNL A   1      48.730  27.926  30.780  1.00  0.00     0.031 A 
ATOM     58  C   UNL A   1      45.159  32.731  26.595  1.00  0.00     0.031 A 
ATOM     59  C   UNL A   1      49.122  28.260  29.440  1.00  0.00     0.049 A 
ATOM     60  C   UNL A   1      46.669  32.768  26.680  1.00  0.00     0.074 A 
ATOM     61  C   UNL A   1      48.791  27.769  28.194  1.00  0.00     0.029 A 
ATOM     62  N   UNL A   1      49.628  29.536  29.256  1.00  0.00    -0.354 N 
ATOM     63  N   UNL A   1      47.398  31.807  27.188  1.00  0.00    -0.248 NA
ATOM     64  C   UNL A   1      47.486  33.863  26.170  1.00  0.00     0.031 C 
ATOM     65  C   UNL A   1      48.906  28.864  27.282  1.00  0.00     0.029 A 
ATOM     66  C   UNL A   1      49.383  29.971  27.971  1.00  0.00     0.049 A 
ATOM     67  H   UNL A   1      50.098  30.058  29.945  1.00  0.00     0.167 HD
ATOM     68  C   UNL A   1      48.722  32.137  27.121  1.00  0.00     0.074 A 
ATOM     69  C   UNL A   1      48.727  33.424  26.448  1.00  0.00     0.031 C 
ATOM     70  C   UNL A   1      49.713  31.351  27.635  1.00  0.00     0.031 A 
BRANCH  57  71
ATOM     71  C   UNL A   1      49.186  26.690  31.596  1.00  0.00    -0.014 A 
ATOM     72  C   UNL A   1      50.513  26.221  31.522  1.00  0.00     0.010 A 
ATOM     73  C   UNL A   1      48.328  25.871  32.380  1.00  0.00     0.010 A 
ATOM     74  C   UNL A   1      50.942  25.041  32.187  1.00  0.00     0.020 A 
ATOM     75  C   UNL A   1      48.744  24.730  33.086  1.00  0.00     0.020 A 
ATOM     76  C   UNL A   1      50.053  24.303  32.972  1.00  0.00     0.054 A 
BRANCH  76  77
ATOM     77  S   UNL A   1      50.577  22.770  33.798  1.00  0.00     0.124 S 
ATOM     78  O   UNL A   1      51.179  22.016  32.702  1.00  0.00    -0.237 OA
ATOM     79  O   UNL A   1      51.502  23.252  34.819  1.00  0.00    -0.237 OA
ATOM     80  O   UNL A   1      49.329  22.207  34.315  1.00  0.00    -0.744 OA
ENDBRANCH  76  77
ENDBRANCH  57  71
BRANCH  58  81
ATOM     81  C   UNL A   1      44.162  33.828  26.869  1.00  0.00    -0.014 A 
ATOM     82  C   UNL A   1      44.307  34.511  28.104  1.00  0.00     0.010 A 
ATOM     83  C   UNL A   1      43.371  34.444  25.882  1.00  0.00     0.010 A 
ATOM     84  C   UNL A   1      43.838  35.817  28.289  1.00  0.00     0.020 A 
ATOM     85  C   UNL A   1      42.862  35.755  26.078  1.00  0.00     0.020 A 
ATOM     86  C   UNL A   1      43.158  36.453  27.256  1.00  0.00     0.054 A 
BRANCH  86  87
ATOM     87  S   UNL A   1      42.856  38.245  27.432  1.00  0.00     0.124 S 
ATOM     88  O   UNL A   1      41.698  38.459  26.570  1.00  0.00    -0.237 OA
ATOM     89  O   UNL A   1      42.597  38.372  28.867  1.00  0.00    -0.237 OA
ATOM     90  O   UNL A   1      44.103  38.847  26.966  1.00  0.00    -0.744 OA
ENDBRANCH  86  87
ENDBRANCH  58  81
BRANCH  70  91
ATOM     91  C   UNL A   1      51.120  31.836  27.898  1.00  0.00    -0.014 A 
ATOM     92  C   UNL A   1      52.099  31.940  26.899  1.00  0.00     0.010 A 
ATOM     93  C   UNL A   1      51.441  32.366  29.170  1.00  0.00     0.010 A 
ATOM     94  C   UNL A   1      53.372  32.449  27.178  1.00  0.00     0.020 A 
ATOM     95  C   UNL A   1      52.683  32.941  29.442  1.00  0.00     0.020 A 
ATOM     96  C   UNL A   1      53.660  32.935  28.452  1.00  0.00     0.054 A 
BRANCH  96  97
ATOM     97  S   UNL A   1      55.306  33.574  28.834  1.00  0.00     0.124 S 
ATOM     98  O   UNL A   1      55.750  32.644  29.870  1.00  0.00    -0.237 OA
ATOM     99  O   UNL A   1      56.015  33.472  27.560  1.00  0.00    -0.237 OA
ATOM    100  O   UNL A   1      55.041  34.937  29.284  1.00  0.00    -0.744 OA
ENDBRANCH  96  97
ENDBRANCH  70  91
ENDBRANCH  44  45
ENDBRANCH  37  39
ENDBRANCH  36  37
ENDBRANCH  35  36
ENDBRANCH  34  35
ENDBRANCH  33  34
ENDBRANCH  32  33
ENDBRANCH  31  32
ENDBRANCH   1  31
TORSDOF 26
ENDMDL
MODEL 3
REMARK VINA RESULT:      -8.3      4.932      8.895
REMARK SMILES Cc1c(NC(=S)NC(=O)CSc2ccc(Cl)cc2)cccc1C(=O)OCCOCCOCCOC(=O)c1ccc(-c2c3nc(c(-c4ccc(S(=O)(=O)[O-])cc4)c4ccc([nH]4)c(-c4ccc(S(=O)(=O)[O-])cc4)c4nc(c(-c5ccc(S(=O)(=O)[O-])cc5)c5ccc2[nH]5)C=C4)C=C3)cc1
REMARK SMILES IDX 28 1 27 2 26 3 25 4 23 5 24 6 22 7 1 8 2 9 3 10 19 11 21 12
REMARK SMILES IDX 20 13 4 14 5 16 6 17 7 18 8 19 9 21 10 22 11 23 12 24 13 25
REMARK SMILES IDX 18 26 14 27 17 28 15 29 16 30 29 31 30 32 31 33 32 34 33 35
REMARK SMILES IDX 34 36 35 37 36 38 37 39 38 40 96 41 39 42 95 43 40 44 41 45
REMARK SMILES IDX 42 46 89 47 43 48 94 49 88 50 90 51 44 52 93 53 87 54 86 55
REMARK SMILES IDX 45 57 75 58 56 59 74 60 57 61 60 62 73 63 91 64 58 65 59 66
REMARK SMILES IDX 72 68 92 69 61 70 46 71 47 72 55 73 48 74 54 75 49 76 50 77
REMARK SMILES IDX 51 78 52 79 53 80 76 81 77 82 85 83 78 84 84 85 79 86 80 87
REMARK SMILES IDX 81 88 82 89 83 90 62 91 63 92 71 93 64 94 70 95 65 96 66 97
REMARK SMILES IDX 67 98 68 99 69 100
REMARK H PARENT 4 15 7 20 90 56 60 67
REMARK Flexibility Score: inf
ROOT
ATOM      1  O   UNL A   1      47.970  26.103  28.623  1.00  0.00    -0.376 OA
ENDROOT
BRANCH   1   2
ATOM      2  C   UNL A   1      47.043  26.654  29.595  1.00  0.00     0.202 C 
BRANCH   2   3
ATOM      3  C   UNL A   1      45.432  26.118  29.779  1.00  0.00     0.261 C 
BRANCH   3   4
ATOM      4  O   UNL A   1      44.288  25.803  28.573  1.00  0.00    -0.460 OA
BRANCH   4   5
ATOM      5  C   UNL A   1      43.002  25.170  28.515  1.00  0.00     0.338 C 
ATOM      6  O   UNL A   1      42.687  24.016  28.805  1.00  0.00    -0.246 OA
BRANCH   5   7
ATOM      7  C   UNL A   1      41.710  25.779  28.128  1.00  0.00     0.065 A 
ATOM      8  C   UNL A   1      42.089  24.885  25.848  1.00  0.00     0.047 C 
ATOM      9  C   UNL A   1      41.159  25.388  26.914  1.00  0.00    -0.013 A 
ATOM     10  C   UNL A   1      39.743  25.250  26.842  1.00  0.00     0.044 A 
ATOM     11  C   UNL A   1      38.902  25.812  27.806  1.00  0.00     0.026 A 
ATOM     12  C   UNL A   1      40.793  26.029  29.189  1.00  0.00     0.016 A 
ATOM     13  C   UNL A   1      39.427  26.181  29.020  1.00  0.00     0.003 A 
BRANCH  10  14
ATOM     14  N   UNL A   1      39.221  24.446  25.824  1.00  0.00    -0.332 N 
ATOM     15  H   UNL A   1      39.255  24.877  24.940  1.00  0.00     0.169 HD
BRANCH  14  16
ATOM     16  C   UNL A   1      38.686  23.220  25.783  1.00  0.00     0.177 C 
ATOM     17  S   UNL A   1      37.064  23.135  25.355  1.00  0.00    -0.040 S 
BRANCH  16  18
ATOM     18  N   UNL A   1      39.302  22.034  26.076  1.00  0.00    -0.302 N 
ATOM     19  C   UNL A   1      40.467  21.413  26.511  1.00  0.00     0.236 C 
ATOM     20  H   UNL A   1      38.643  21.321  25.910  1.00  0.00     0.172 HD
ATOM     21  O   UNL A   1      40.304  20.297  27.032  1.00  0.00    -0.274 OA
BRANCH  19  22
ATOM     22  C   UNL A   1      41.873  21.973  26.405  1.00  0.00     0.175 C 
BRANCH  22  23
ATOM     23  S   UNL A   1      43.152  20.787  25.928  1.00  0.00    -0.116 SA
BRANCH  23  24
ATOM     24  C   UNL A   1      44.473  21.946  25.585  1.00  0.00     0.008 A 
ATOM     25  C   UNL A   1      44.933  22.188  24.284  1.00  0.00     0.016 A 
ATOM     26  C   UNL A   1      45.028  22.658  26.655  1.00  0.00     0.016 A 
ATOM     27  C   UNL A   1      45.918  23.159  24.058  1.00  0.00     0.021 A 
ATOM     28  C   UNL A   1      46.008  23.626  26.428  1.00  0.00     0.021 A 
ATOM     29  C   UNL A   1      46.441  23.882  25.129  1.00  0.00     0.041 A 
ATOM     30  Cl  UNL A   1      47.596  25.124  24.851  1.00  0.00    -0.084 Cl
ENDBRANCH  23  24
ENDBRANCH  22  23
ENDBRANCH  19  22
ENDBRANCH  16  18
ENDBRANCH  14  16
ENDBRANCH  10  14
ENDBRANCH   5   7
ENDBRANCH   4   5
ENDBRANCH   3   4
ENDBRANCH   2   3
ENDBRANCH   1   2
BRANCH   1  31
ATOM     31  C   UNL A   1      49.416  26.169  28.673  1.00  0.00     0.188 C 
BRANCH  31  32
ATOM     32  C   UNL A   1      50.279  27.336  28.162  1.00  0.00     0.188 C 
BRANCH  32  33
ATOM     33  O   UNL A   1      49.660  28.039  27.102  1.00  0.00    -0.376 OA
BRANCH  33  34
ATOM     34  C   UNL A   1      50.095  29.375  26.892  1.00  0.00     0.202 C 
BRANCH  34  35
ATOM     35  C   UNL A   1      49.035  30.485  27.115  1.00  0.00     0.261 C 
BRANCH  35  36
ATOM     36  O   UNL A   1      47.763  30.254  26.450  1.00  0.00    -0.460 OA
BRANCH  36  37
ATOM     37  C   UNL A   1      46.735  31.172  26.611  1.00  0.00     0.338 C 
ATOM     38  O   UNL A   1      46.743  32.249  26.032  1.00  0.00    -0.246 OA
BRANCH  37  39
ATOM     39  C   UNL A   1      45.528  30.569  27.264  1.00  0.00     0.060 A 
ATOM     40  C   UNL A   1      45.091  29.244  27.403  1.00  0.00     0.016 A 
ATOM     41  C   UNL A   1      44.699  31.466  27.823  1.00  0.00     0.016 A 
ATOM     42  C   UNL A   1      43.788  28.882  28.022  1.00  0.00     0.010 A 
ATOM     43  C   UNL A   1      43.424  31.054  28.201  1.00  0.00     0.010 A 
ATOM     44  C   UNL A   1      42.876  29.821  28.508  1.00  0.00    -0.014 A 
BRANCH  44  45
ATOM     45  C   UNL A   1      41.389  29.685  29.116  1.00  0.00     0.031 A 
ATOM     46  C   UNL A   1      39.815  29.810  28.504  1.00  0.00     0.074 A 
ATOM     47  C   UNL A   1      41.412  29.389  30.434  1.00  0.00     0.049 A 
ATOM     48  N   UNL A   1      38.767  30.197  29.217  1.00  0.00    -0.248 NA
ATOM     49  C   UNL A   1      39.268  29.582  27.105  1.00  0.00     0.031 C 
ATOM     50  C   UNL A   1      40.319  28.976  31.302  1.00  0.00     0.029 A 
ATOM     51  N   UNL A   1      42.482  29.596  31.309  1.00  0.00    -0.354 N 
ATOM     52  C   UNL A   1      37.619  30.092  28.406  1.00  0.00     0.074 A 
ATOM     53  C   UNL A   1      38.064  30.118  27.081  1.00  0.00     0.031 C 
ATOM     54  C   UNL A   1      40.667  29.247  32.572  1.00  0.00     0.029 A 
ATOM     55  C   UNL A   1      41.928  29.972  32.531  1.00  0.00     0.049 A 
ATOM     56  H   UNL A   1      43.439  29.495  31.101  1.00  0.00     0.167 HD
ATOM     57  C   UNL A   1      36.370  29.737  28.826  1.00  0.00     0.031 A 
ATOM     58  C   UNL A   1      42.168  31.224  33.014  1.00  0.00     0.031 A 
ATOM     59  C   UNL A   1      36.295  29.947  30.245  1.00  0.00     0.049 A 
ATOM     60  C   UNL A   1      40.888  32.015  33.174  1.00  0.00     0.074 A 
ATOM     61  C   UNL A   1      36.409  29.122  31.344  1.00  0.00     0.029 A 
ATOM     62  N   UNL A   1      36.527  31.242  30.679  1.00  0.00    -0.354 N 
ATOM     63  N   UNL A   1      39.738  31.660  32.661  1.00  0.00    -0.248 NA
ATOM     64  C   UNL A   1      40.784  33.244  33.951  1.00  0.00     0.031 C 
ATOM     65  C   UNL A   1      36.932  29.926  32.404  1.00  0.00     0.029 A 
ATOM     66  C   UNL A   1      37.045  31.235  31.957  1.00  0.00     0.049 A 
ATOM     67  H   UNL A   1      36.348  32.052  30.151  1.00  0.00     0.167 HD
ATOM     68  C   UNL A   1      38.778  32.578  32.980  1.00  0.00     0.074 A 
ATOM     69  C   UNL A   1      39.479  33.538  33.815  1.00  0.00     0.031 C 
ATOM     70  C   UNL A   1      37.493  32.502  32.526  1.00  0.00     0.031 A 
BRANCH  57  71
ATOM     71  C   UNL A   1      35.293  29.075  27.931  1.00  0.00    -0.014 A 
ATOM     72  C   UNL A   1      35.637  28.486  26.698  1.00  0.00     0.010 A 
ATOM     73  C   UNL A   1      33.896  29.090  28.193  1.00  0.00     0.010 A 
ATOM     74  C   UNL A   1      34.663  27.950  25.812  1.00  0.00     0.020 A 
ATOM     75  C   UNL A   1      32.923  28.519  27.354  1.00  0.00     0.020 A 
ATOM     76  C   UNL A   1      33.309  27.965  26.150  1.00  0.00     0.054 A 
BRANCH  76  77
ATOM     77  S   UNL A   1      32.048  27.317  25.011  1.00  0.00     0.124 S 
ATOM     78  O   UNL A   1      30.810  27.827  25.594  1.00  0.00    -0.237 OA
ATOM     79  O   UNL A   1      32.434  27.904  23.731  1.00  0.00    -0.237 OA
ATOM     80  O   UNL A   1      32.212  25.865  25.096  1.00  0.00    -0.744 OA
ENDBRANCH  76  77
ENDBRANCH  57  71
BRANCH  58  81
ATOM     81  C   UNL A   1      43.566  31.717  32.739  1.00  0.00    -0.014 A 
ATOM     82  C   UNL A   1      44.618  30.982  33.344  1.00  0.00     0.010 A 
ATOM     83  C   UNL A   1      43.908  32.581  31.683  1.00  0.00     0.010 A 
ATOM     84  C   UNL A   1      45.914  30.971  32.814  1.00  0.00     0.020 A 
ATOM     85  C   UNL A   1      45.229  32.600  31.166  1.00  0.00     0.020 A 
ATOM     86  C   UNL A   1      46.203  31.744  31.696  1.00  0.00     0.054 A 
BRANCH  86  87
ATOM     87  S   UNL A   1      47.802  31.448  30.865  1.00  0.00     0.124 S 
ATOM     88  O   UNL A   1      48.729  31.341  31.986  1.00  0.00    -0.237 OA
ATOM     89  O   UNL A   1      47.546  30.199  30.145  1.00  0.00    -0.237 OA
ATOM     90  O   UNL A   1      47.971  32.630  30.023  1.00  0.00    -0.744 OA
ENDBRANCH  86  87
ENDBRANCH  58  81
BRANCH  70  91
ATOM     91  C   UNL A   1      36.519  33.656  32.557  1.00  0.00    -0.014 A 
ATOM     92  C   UNL A   1      36.197  34.423  31.426  1.00  0.00     0.010 A 
ATOM     93  C   UNL A   1      35.765  33.893  33.730  1.00  0.00     0.010 A 
ATOM     94  C   UNL A   1      35.245  35.447  31.489  1.00  0.00     0.020 A 
ATOM     95  C   UNL A   1      34.764  34.864  33.785  1.00  0.00     0.020 A 
ATOM     96  C   UNL A   1      34.543  35.669  32.673  1.00  0.00     0.054 A 
BRANCH  96  97
ATOM     97  S   UNL A   1      33.327  37.001  32.777  1.00  0.00     0.124 S 
ATOM     98  O   UNL A   1      32.116  36.266  33.133  1.00  0.00    -0.237 OA
ATOM     99  O   UNL A   1      33.860  37.868  33.825  1.00  0.00    -0.237 OA
ATOM    100  O   UNL A   1      33.343  37.575  31.434  1.00  0.00    -0.744 OA
ENDBRANCH  96  97
ENDBRANCH  70  91
ENDBRANCH  44  45
ENDBRANCH  37  39
ENDBRANCH  36  37
ENDBRANCH  35  36
ENDBRANCH  34  35
ENDBRANCH  33  34
ENDBRANCH  32  33
ENDBRANCH  31  32
ENDBRANCH   1  31
TORSDOF 26
ENDMDL
