MODEL 1
REMARK VINA RESULT:      -8.5      0.000      0.000
REMARK SMILES CCCC[C@@H](Sc1nc(OCCC2CCCCC2)cc(OCCC2CCCCC2)n1)C(=O)OCCOCCOCCOC(=O)c1ccc(-c2c3nc(c(-c4ccc(S(=O)(=O)[O-])cc4)c4ccc([nH]4)c(-c4ccc(S(=O)(=O)[O-])cc4)c4nc(c(-c5ccc(S(=O)(=O)[O-])cc5)c5ccc2[nH]5)C=C4)C=C3)cc1
REMARK SMILES IDX 36 1 35 2 34 3 33 4 31 5 32 6 5 7 4 8 3 9 2 10 1 11 6 12
REMARK SMILES IDX 7 13 8 14 30 15 9 16 20 17 19 18 10 19 11 20 12 21 13 22
REMARK SMILES IDX 14 23 18 24 15 25 17 26 16 27 21 28 22 29 23 30 24 31 25 32
REMARK SMILES IDX 29 33 26 34 28 35 27 36 37 37 38 38 39 39 40 40 41 41 42 42
REMARK SMILES IDX 43 43 44 44 45 45 46 46 104 47 47 48 103 49 48 50 49 51
REMARK SMILES IDX 50 52 97 53 51 54 102 55 96 56 98 57 52 58 101 59 95 60
REMARK SMILES IDX 94 61 53 63 83 64 64 65 82 66 65 67 68 68 81 69 99 70 66 71
REMARK SMILES IDX 67 72 80 74 100 75 69 76 54 77 55 78 63 79 56 80 62 81 57 82
REMARK SMILES IDX 58 83 59 84 60 85 61 86 84 87 85 88 93 89 86 90 92 91 87 92
REMARK SMILES IDX 88 93 89 94 90 95 91 96 70 97 71 98 79 99 72 100 78 101
REMARK SMILES IDX 73 102 74 103 75 104 76 105 77 106
REMARK H PARENT 98 62 68 73
REMARK Flexibility Score: inf
ROOT
ATOM      1  O   UNL A   1      36.491  22.096  25.734  1.00  0.00    -0.376 OA
ENDROOT
BRANCH   1   2
ATOM      2  C   UNL A   1      36.730  23.488  25.920  1.00  0.00     0.202 C 
BRANCH   2   3
ATOM      3  C   UNL A   1      35.812  24.495  25.209  1.00  0.00     0.261 C 
BRANCH   3   4
ATOM      4  O   UNL A   1      34.487  24.039  24.870  1.00  0.00    -0.462 OA
BRANCH   4   5
ATOM      5  C   UNL A   1      33.506  24.321  25.783  1.00  0.00     0.319 C 
ATOM      6  O   UNL A   1      33.483  23.867  26.923  1.00  0.00    -0.251 OA
BRANCH   5   7
ATOM      7  C   UNL A   1      32.367  25.187  25.213  1.00  0.00     0.164 C 
BRANCH   7   8
ATOM      8  C   UNL A   1      31.074  24.333  24.964  1.00  0.00     0.027 C 
BRANCH   8   9
ATOM      9  C   UNL A   1      30.701  23.129  25.861  1.00  0.00     0.001 C 
BRANCH   9  10
ATOM     10  C   UNL A   1      31.010  21.718  25.346  1.00  0.00    -0.003 C 
ATOM     11  C   UNL A   1      31.987  21.674  24.183  1.00  0.00     0.004 C 
ENDBRANCH   9  10
ENDBRANCH   8   9
ENDBRANCH   7   8
BRANCH   7  12
ATOM     12  S   UNL A   1      32.291  26.547  26.537  1.00  0.00    -0.071 SA
BRANCH  12  13
ATOM     13  C   UNL A   1      32.822  28.112  25.682  1.00  0.00     0.195 A 
ATOM     14  N   UNL A   1      32.044  29.201  25.865  1.00  0.00    -0.187 NA
ATOM     15  N   UNL A   1      34.163  28.242  25.808  1.00  0.00    -0.187 NA
ATOM     16  C   UNL A   1      32.498  29.989  26.832  1.00  0.00     0.221 A 
ATOM     17  C   UNL A   1      34.447  28.930  26.898  1.00  0.00     0.221 A 
ATOM     18  C   UNL A   1      33.397  29.370  27.662  1.00  0.00     0.136 A 
BRANCH  16  19
ATOM     19  O   UNL A   1      32.163  31.370  26.868  1.00  0.00    -0.477 OA
BRANCH  19  20
ATOM     20  C   UNL A   1      30.971  32.359  26.045  1.00  0.00     0.231 C 
BRANCH  20  21
ATOM     21  C   UNL A   1      29.625  31.911  24.456  1.00  0.00     0.045 C 
BRANCH  21  22
ATOM     22  C   UNL A   1      29.421  30.434  23.304  1.00  0.00    -0.008 C 
ATOM     23  C   UNL A   1      30.202  29.057  23.402  1.00  0.00     0.004 C 
ATOM     24  C   UNL A   1      27.944  30.153  22.840  1.00  0.00     0.004 C 
ATOM     25  C   UNL A   1      29.534  27.841  22.770  1.00  0.00     0.000 C 
ATOM     26  C   UNL A   1      27.270  28.805  23.218  1.00  0.00     0.000 C 
ATOM     27  C   UNL A   1      28.198  27.616  23.445  1.00  0.00     0.000 C 
ENDBRANCH  21  22
ENDBRANCH  20  21
ENDBRANCH  19  20
ENDBRANCH  16  19
BRANCH  17  28
ATOM     28  O   UNL A   1      35.733  29.317  27.281  1.00  0.00    -0.477 OA
BRANCH  28  29
ATOM     29  C   UNL A   1      36.008  29.597  28.688  1.00  0.00     0.231 C 
BRANCH  29  30
ATOM     30  C   UNL A   1      37.435  29.263  29.396  1.00  0.00     0.045 C 
BRANCH  30  31
ATOM     31  C   UNL A   1      38.418  28.381  28.598  1.00  0.00    -0.008 C 
ATOM     32  C   UNL A   1      39.382  29.442  27.400  1.00  0.00     0.004 C 
ATOM     33  C   UNL A   1      39.205  26.741  29.077  1.00  0.00     0.004 C 
ATOM     34  C   UNL A   1      40.936  28.761  26.317  1.00  0.00     0.000 C 
ATOM     35  C   UNL A   1      40.708  26.076  28.146  1.00  0.00     0.000 C 
ATOM     36  C   UNL A   1      41.620  27.034  26.771  1.00  0.00     0.000 C 
ENDBRANCH  30  31
ENDBRANCH  29  30
ENDBRANCH  28  29
ENDBRANCH  17  28
ENDBRANCH  12  13
ENDBRANCH   7  12
ENDBRANCH   5   7
ENDBRANCH   4   5
ENDBRANCH   3   4
ENDBRANCH   2   3
ENDBRANCH   1   2
BRANCH   1  37
ATOM     37  C   UNL A   1      37.617  21.238  25.644  1.00  0.00     0.188 C 
BRANCH  37  38
ATOM     38  C   UNL A   1      39.000  21.874  25.787  1.00  0.00     0.188 C 
BRANCH  38  39
ATOM     39  O   UNL A   1      39.880  21.201  26.658  1.00  0.00    -0.376 OA
BRANCH  39  40
ATOM     40  C   UNL A   1      41.278  21.287  26.405  1.00  0.00     0.202 C 
BRANCH  40  41
ATOM     41  C   UNL A   1      42.077  22.536  26.870  1.00  0.00     0.261 C 
BRANCH  41  42
ATOM     42  O   UNL A   1      43.505  22.558  26.661  1.00  0.00    -0.460 OA
BRANCH  42  43
ATOM     43  C   UNL A   1      43.960  23.143  25.524  1.00  0.00     0.338 C 
ATOM     44  O   UNL A   1      43.523  22.955  24.401  1.00  0.00    -0.246 OA
BRANCH  43  45
ATOM     45  C   UNL A   1      44.838  24.293  25.898  1.00  0.00     0.060 A 
ATOM     46  C   UNL A   1      45.073  25.272  24.921  1.00  0.00     0.016 A 
ATOM     47  C   UNL A   1      45.375  24.462  27.174  1.00  0.00     0.016 A 
ATOM     48  C   UNL A   1      45.851  26.400  25.193  1.00  0.00     0.010 A 
ATOM     49  C   UNL A   1      46.194  25.574  27.438  1.00  0.00     0.010 A 
ATOM     50  C   UNL A   1      46.461  26.536  26.443  1.00  0.00    -0.014 A 
BRANCH  50  51
ATOM     51  C   UNL A   1      47.546  27.540  26.633  1.00  0.00     0.031 A 
ATOM     52  C   UNL A   1      47.146  28.981  26.829  1.00  0.00     0.074 A 
ATOM     53  C   UNL A   1      48.850  27.206  26.673  1.00  0.00     0.049 A 
ATOM     54  N   UNL A   1      47.891  30.053  26.898  1.00  0.00    -0.248 NA
ATOM     55  C   UNL A   1      45.702  29.243  26.963  1.00  0.00     0.031 C 
ATOM     56  C   UNL A   1      49.384  25.847  26.595  1.00  0.00     0.029 A 
ATOM     57  N   UNL A   1      49.970  28.000  26.780  1.00  0.00    -0.354 N 
ATOM     58  C   UNL A   1      47.009  31.117  27.050  1.00  0.00     0.074 A 
ATOM     59  C   UNL A   1      45.673  30.564  27.049  1.00  0.00     0.031 C 
ATOM     60  C   UNL A   1      50.729  25.903  26.639  1.00  0.00     0.029 A 
ATOM     61  C   UNL A   1      51.154  27.302  26.697  1.00  0.00     0.049 A 
ATOM     62  H   UNL A   1      49.928  28.975  26.904  1.00  0.00     0.167 HD
ATOM     63  C   UNL A   1      47.282  32.438  27.176  1.00  0.00     0.031 A 
ATOM     64  C   UNL A   1      52.430  27.740  26.635  1.00  0.00     0.031 A 
ATOM     65  C   UNL A   1      48.610  32.991  27.174  1.00  0.00     0.049 A 
ATOM     66  C   UNL A   1      52.709  29.224  26.678  1.00  0.00     0.074 A 
ATOM     67  C   UNL A   1      48.988  34.316  27.296  1.00  0.00     0.029 A 
ATOM     68  N   UNL A   1      49.776  32.253  27.040  1.00  0.00    -0.354 N 
ATOM     69  N   UNL A   1      51.865  30.222  26.805  1.00  0.00    -0.248 NA
ATOM     70  C   UNL A   1      54.116  29.641  26.571  1.00  0.00     0.031 C 
ATOM     71  C   UNL A   1      50.379  34.387  27.170  1.00  0.00     0.029 A 
ATOM     72  C   UNL A   1      50.873  33.098  27.046  1.00  0.00     0.049 A 
ATOM     73  H   UNL A   1      49.818  31.273  26.952  1.00  0.00     0.167 HD
ATOM     74  C   UNL A   1      52.642  31.377  26.826  1.00  0.00     0.074 A 
ATOM     75  C   UNL A   1      54.022  30.956  26.711  1.00  0.00     0.031 C 
ATOM     76  C   UNL A   1      52.246  32.671  26.937  1.00  0.00     0.031 A 
BRANCH  63  77
ATOM     77  C   UNL A   1      46.113  33.385  27.267  1.00  0.00    -0.014 A 
ATOM     78  C   UNL A   1      45.570  33.770  28.506  1.00  0.00     0.010 A 
ATOM     79  C   UNL A   1      45.566  33.920  26.085  1.00  0.00     0.010 A 
ATOM     80  C   UNL A   1      44.478  34.640  28.558  1.00  0.00     0.020 A 
ATOM     81  C   UNL A   1      44.496  34.815  26.134  1.00  0.00     0.020 A 
ATOM     82  C   UNL A   1      43.946  35.156  27.372  1.00  0.00     0.054 A 
BRANCH  82  83
ATOM     83  S   UNL A   1      42.541  36.299  27.472  1.00  0.00     0.124 S 
ATOM     84  O   UNL A   1      42.618  36.748  28.861  1.00  0.00    -0.237 OA
ATOM     85  O   UNL A   1      42.877  37.305  26.468  1.00  0.00    -0.237 OA
ATOM     86  O   UNL A   1      41.388  35.462  27.152  1.00  0.00    -0.744 OA
ENDBRANCH  82  83
ENDBRANCH  63  77
BRANCH  64  87
ATOM     87  C   UNL A   1      53.550  26.766  26.480  1.00  0.00    -0.014 A 
ATOM     88  C   UNL A   1      54.264  26.300  27.599  1.00  0.00     0.010 A 
ATOM     89  C   UNL A   1      53.922  26.311  25.201  1.00  0.00     0.010 A 
ATOM     90  C   UNL A   1      55.332  25.411  27.442  1.00  0.00     0.020 A 
ATOM     91  C   UNL A   1      54.969  25.397  25.042  1.00  0.00     0.020 A 
ATOM     92  C   UNL A   1      55.675  24.961  26.164  1.00  0.00     0.054 A 
BRANCH  92  93
ATOM     93  S   UNL A   1      57.032  23.768  25.990  1.00  0.00     0.124 S 
ATOM     94  O   UNL A   1      56.407  22.528  26.440  1.00  0.00    -0.237 OA
ATOM     95  O   UNL A   1      57.336  23.842  24.564  1.00  0.00    -0.237 OA
ATOM     96  O   UNL A   1      58.071  24.298  26.870  1.00  0.00    -0.744 OA
ENDBRANCH  92  93
ENDBRANCH  64  87
BRANCH  76  97
ATOM     97  C   UNL A   1      53.314  33.734  26.995  1.00  0.00    -0.014 A 
ATOM     98  C   UNL A   1      54.122  33.909  28.133  1.00  0.00     0.010 A 
ATOM     99  C   UNL A   1      53.558  34.528  25.858  1.00  0.00     0.010 A 
ATOM    100  C   UNL A   1      55.132  34.878  28.141  1.00  0.00     0.020 A 
ATOM    101  C   UNL A   1      54.585  35.474  25.851  1.00  0.00     0.020 A 
ATOM    102  C   UNL A   1      55.358  35.652  26.999  1.00  0.00     0.054 A 
BRANCH 102 103
ATOM    103  S   UNL A   1      56.704  36.870  27.021  1.00  0.00     0.124 S 
ATOM    104  O   UNL A   1      56.830  37.161  28.446  1.00  0.00    -0.237 OA
ATOM    105  O   UNL A   1      57.815  36.127  26.430  1.00  0.00    -0.237 OA
ATOM    106  O   UNL A   1      56.193  37.968  26.202  1.00  0.00    -0.744 OA
ENDBRANCH 102 103
ENDBRANCH  76  97
ENDBRANCH  50  51
ENDBRANCH  43  45
ENDBRANCH  42  43
ENDBRANCH  41  42
ENDBRANCH  40  41
ENDBRANCH  39  40
ENDBRANCH  38  39
ENDBRANCH  37  38
ENDBRANCH   1  37
TORSDOF 33
ENDMDL
MODEL 2
REMARK VINA RESULT:      -7.6      4.887     10.839
REMARK SMILES CCCC[C@@H](Sc1nc(OCCC2CCCCC2)cc(OCCC2CCCCC2)n1)C(=O)OCCOCCOCCOC(=O)c1ccc(-c2c3nc(c(-c4ccc(S(=O)(=O)[O-])cc4)c4ccc([nH]4)c(-c4ccc(S(=O)(=O)[O-])cc4)c4nc(c(-c5ccc(S(=O)(=O)[O-])cc5)c5ccc2[nH]5)C=C4)C=C3)cc1
REMARK SMILES IDX 36 1 35 2 34 3 33 4 31 5 32 6 5 7 4 8 3 9 2 10 1 11 6 12
REMARK SMILES IDX 7 13 8 14 30 15 9 16 20 17 19 18 10 19 11 20 12 21 13 22
REMARK SMILES IDX 14 23 18 24 15 25 17 26 16 27 21 28 22 29 23 30 24 31 25 32
REMARK SMILES IDX 29 33 26 34 28 35 27 36 37 37 38 38 39 39 40 40 41 41 42 42
REMARK SMILES IDX 43 43 44 44 45 45 46 46 104 47 47 48 103 49 48 50 49 51
REMARK SMILES IDX 50 52 97 53 51 54 102 55 96 56 98 57 52 58 101 59 95 60
REMARK SMILES IDX 94 61 53 63 83 64 64 65 82 66 65 67 68 68 81 69 99 70 66 71
REMARK SMILES IDX 67 72 80 74 100 75 69 76 54 77 55 78 63 79 56 80 62 81 57 82
REMARK SMILES IDX 58 83 59 84 60 85 61 86 84 87 85 88 93 89 86 90 92 91 87 92
REMARK SMILES IDX 88 93 89 94 90 95 91 96 70 97 71 98 79 99 72 100 78 101
REMARK SMILES IDX 73 102 74 103 75 104 76 105 77 106
REMARK H PARENT 98 62 68 73
REMARK Flexibility Score: inf
ROOT
ATOM      1  O   UNL A   1      46.985  27.077  37.107  1.00  0.00    -0.376 OA
ENDROOT
BRANCH   1   2
ATOM      2  C   UNL A   1      45.972  27.786  36.400  1.00  0.00     0.202 C 
BRANCH   2   3
ATOM      3  C   UNL A   1      44.508  27.611  36.835  1.00  0.00     0.261 C 
BRANCH   3   4
ATOM      4  O   UNL A   1      43.610  27.026  35.872  1.00  0.00    -0.462 OA
BRANCH   4   5
ATOM      5  C   UNL A   1      42.524  27.786  35.529  1.00  0.00     0.319 C 
ATOM      6  O   UNL A   1      41.362  27.457  35.750  1.00  0.00    -0.251 OA
BRANCH   5   7
ATOM      7  C   UNL A   1      42.888  29.057  34.739  1.00  0.00     0.164 C 
BRANCH   7   8
ATOM      8  C   UNL A   1      43.081  28.744  33.214  1.00  0.00     0.027 C 
BRANCH   8   9
ATOM      9  C   UNL A   1      44.477  28.485  32.601  1.00  0.00     0.001 C 
BRANCH   9  10
ATOM     10  C   UNL A   1      45.400  29.688  32.369  1.00  0.00    -0.003 C 
ATOM     11  C   UNL A   1      46.874  29.402  32.602  1.00  0.00     0.004 C 
ENDBRANCH   9  10
ENDBRANCH   8   9
ENDBRANCH   7   8
BRANCH   7  12
ATOM     12  S   UNL A   1      41.441  30.182  35.239  1.00  0.00    -0.071 SA
BRANCH  12  13
ATOM     13  C   UNL A   1      40.733  30.831  33.645  1.00  0.00     0.195 A 
ATOM     14  N   UNL A   1      39.761  30.095  33.064  1.00  0.00    -0.187 NA
ATOM     15  N   UNL A   1      40.555  32.167  33.763  1.00  0.00    -0.187 NA
ATOM     16  C   UNL A   1      38.545  30.529  33.376  1.00  0.00     0.221 A 
ATOM     17  C   UNL A   1      39.342  32.420  34.220  1.00  0.00     0.221 A 
ATOM     18  C   UNL A   1      38.524  31.350  34.474  1.00  0.00     0.136 A 
BRANCH  16  19
ATOM     19  O   UNL A   1      37.434  30.255  32.532  1.00  0.00    -0.477 OA
BRANCH  19  20
ATOM     20  C   UNL A   1      37.251  29.506  30.957  1.00  0.00     0.231 C 
BRANCH  20  21
ATOM     21  C   UNL A   1      38.508  28.165  29.882  1.00  0.00     0.045 C 
BRANCH  21  22
ATOM     22  C   UNL A   1      40.371  27.879  29.844  1.00  0.00    -0.008 C 
ATOM     23  C   UNL A   1      41.134  26.802  28.966  1.00  0.00     0.004 C 
ATOM     24  C   UNL A   1      41.244  29.186  29.926  1.00  0.00     0.004 C 
ATOM     25  C   UNL A   1      42.600  27.084  28.654  1.00  0.00     0.000 C 
ATOM     26  C   UNL A   1      42.185  29.549  28.745  1.00  0.00     0.000 C 
ATOM     27  C   UNL A   1      42.692  28.389  27.893  1.00  0.00     0.000 C 
ENDBRANCH  21  22
ENDBRANCH  20  21
ENDBRANCH  19  20
ENDBRANCH  16  19
BRANCH  17  28
ATOM     28  O   UNL A   1      38.803  33.699  34.377  1.00  0.00    -0.477 OA
BRANCH  28  29
ATOM     29  C   UNL A   1      38.926  34.666  33.289  1.00  0.00     0.231 C 
BRANCH  29  30
ATOM     30  C   UNL A   1      38.890  34.242  31.718  1.00  0.00     0.045 C 
BRANCH  30  31
ATOM     31  C   UNL A   1      37.503  33.952  31.107  1.00  0.00    -0.008 C 
ATOM     32  C   UNL A   1      37.689  33.551  29.292  1.00  0.00     0.004 C 
ATOM     33  C   UNL A   1      35.940  33.322  31.942  1.00  0.00     0.004 C 
ATOM     34  C   UNL A   1      36.178  32.884  28.141  1.00  0.00     0.000 C 
ATOM     35  C   UNL A   1      34.510  32.620  30.927  1.00  0.00     0.000 C 
ATOM     36  C   UNL A   1      34.569  32.368  29.036  1.00  0.00     0.000 C 
ENDBRANCH  30  31
ENDBRANCH  29  30
ENDBRANCH  28  29
ENDBRANCH  17  28
ENDBRANCH  12  13
ENDBRANCH   7  12
ENDBRANCH   5   7
ENDBRANCH   4   5
ENDBRANCH   3   4
ENDBRANCH   2   3
ENDBRANCH   1   2
BRANCH   1  37
ATOM     37  C   UNL A   1      46.891  25.662  37.155  1.00  0.00     0.188 C 
BRANCH  37  38
ATOM     38  C   UNL A   1      46.816  24.915  35.823  1.00  0.00     0.188 C 
BRANCH  38  39
ATOM     39  O   UNL A   1      46.043  23.737  35.840  1.00  0.00    -0.376 OA
BRANCH  39  40
ATOM     40  C   UNL A   1      44.727  23.786  35.299  1.00  0.00     0.202 C 
BRANCH  40  41
ATOM     41  C   UNL A   1      44.480  23.384  33.819  1.00  0.00     0.261 C 
BRANCH  41  42
ATOM     42  O   UNL A   1      44.521  24.413  32.808  1.00  0.00    -0.460 OA
BRANCH  42  43
ATOM     43  C   UNL A   1      44.415  24.020  31.513  1.00  0.00     0.338 C 
ATOM     44  O   UNL A   1      43.527  23.324  31.050  1.00  0.00    -0.246 OA
BRANCH  43  45
ATOM     45  C   UNL A   1      45.351  24.842  30.687  1.00  0.00     0.060 A 
ATOM     46  C   UNL A   1      46.303  25.615  31.367  1.00  0.00     0.016 A 
ATOM     47  C   UNL A   1      45.357  24.823  29.293  1.00  0.00     0.016 A 
ATOM     48  C   UNL A   1      47.242  26.386  30.676  1.00  0.00     0.010 A 
ATOM     49  C   UNL A   1      46.273  25.631  28.595  1.00  0.00     0.010 A 
ATOM     50  C   UNL A   1      47.203  26.440  29.280  1.00  0.00    -0.014 A 
BRANCH  50  51
ATOM     51  C   UNL A   1      47.962  27.498  28.557  1.00  0.00     0.031 A 
ATOM     52  C   UNL A   1      49.366  27.175  28.108  1.00  0.00     0.074 A 
ATOM     53  C   UNL A   1      47.436  28.701  28.263  1.00  0.00     0.049 A 
ATOM     54  N   UNL A   1      50.269  27.951  27.569  1.00  0.00    -0.248 NA
ATOM     55  C   UNL A   1      49.805  25.781  28.296  1.00  0.00     0.031 C 
ATOM     56  C   UNL A   1      46.065  29.123  28.546  1.00  0.00     0.029 A 
ATOM     57  N   UNL A   1      48.007  29.800  27.662  1.00  0.00    -0.354 N 
ATOM     58  C   UNL A   1      51.392  27.151  27.385  1.00  0.00     0.074 A 
ATOM     59  C   UNL A   1      51.061  25.835  27.882  1.00  0.00     0.031 C 
ATOM     60  C   UNL A   1      45.906  30.396  28.135  1.00  0.00     0.029 A 
ATOM     61  C   UNL A   1      47.176  30.897  27.607  1.00  0.00     0.049 A 
ATOM     62  H   UNL A   1      48.924  29.803  27.305  1.00  0.00     0.167 HD
ATOM     63  C   UNL A   1      52.594  27.481  26.854  1.00  0.00     0.031 A 
ATOM     64  C   UNL A   1      47.419  32.166  27.214  1.00  0.00     0.031 A 
ATOM     65  C   UNL A   1      52.927  28.791  26.362  1.00  0.00     0.049 A 
ATOM     66  C   UNL A   1      48.796  32.539  26.716  1.00  0.00     0.074 A 
ATOM     67  C   UNL A   1      54.118  29.222  25.804  1.00  0.00     0.029 A 
ATOM     68  N   UNL A   1      52.072  29.882  26.370  1.00  0.00    -0.354 N 
ATOM     69  N   UNL A   1      49.854  31.778  26.563  1.00  0.00    -0.248 NA
ATOM     70  C   UNL A   1      49.009  33.944  26.336  1.00  0.00     0.031 C 
ATOM     71  C   UNL A   1      54.005  30.590  25.536  1.00  0.00     0.029 A 
ATOM     72  C   UNL A   1      52.718  30.993  25.855  1.00  0.00     0.049 A 
ATOM     73  H   UNL A   1      51.142  29.869  26.694  1.00  0.00     0.167 HD
ATOM     74  C   UNL A   1      50.845  32.604  26.038  1.00  0.00     0.074 A 
ATOM     75  C   UNL A   1      50.258  33.919  25.890  1.00  0.00     0.031 C 
ATOM     76  C   UNL A   1      52.124  32.299  25.704  1.00  0.00     0.031 A 
BRANCH  63  77
ATOM     77  C   UNL A   1      53.661  26.417  26.832  1.00  0.00    -0.014 A 
ATOM     78  C   UNL A   1      54.606  26.298  27.867  1.00  0.00     0.010 A 
ATOM     79  C   UNL A   1      53.699  25.501  25.764  1.00  0.00     0.010 A 
ATOM     80  C   UNL A   1      55.592  25.309  27.812  1.00  0.00     0.020 A 
ATOM     81  C   UNL A   1      54.662  24.490  25.722  1.00  0.00     0.020 A 
ATOM     82  C   UNL A   1      55.615  24.412  26.740  1.00  0.00     0.054 A 
BRANCH  82  83
ATOM     83  S   UNL A   1      56.893  23.127  26.707  1.00  0.00     0.124 S 
ATOM     84  O   UNL A   1      57.800  23.577  27.761  1.00  0.00    -0.237 OA
ATOM     85  O   UNL A   1      56.135  21.915  27.007  1.00  0.00    -0.237 OA
ATOM     86  O   UNL A   1      57.430  23.204  25.350  1.00  0.00    -0.744 OA
ENDBRANCH  82  83
ENDBRANCH  63  77
BRANCH  64  87
ATOM     87  C   UNL A   1      46.348  33.200  27.315  1.00  0.00    -0.014 A 
ATOM     88  C   UNL A   1      46.202  33.980  28.476  1.00  0.00     0.010 A 
ATOM     89  C   UNL A   1      45.452  33.399  26.247  1.00  0.00     0.010 A 
ATOM     90  C   UNL A   1      45.176  34.927  28.573  1.00  0.00     0.020 A 
ATOM     91  C   UNL A   1      44.445  34.367  26.328  1.00  0.00     0.020 A 
ATOM     92  C   UNL A   1      44.306  35.117  27.496  1.00  0.00     0.054 A 
BRANCH  92  93
ATOM     93  S   UNL A   1      43.015  36.387  27.626  1.00  0.00     0.124 S 
ATOM     94  O   UNL A   1      43.595  37.489  26.864  1.00  0.00    -0.237 OA
ATOM     95  O   UNL A   1      41.865  35.730  27.012  1.00  0.00    -0.237 OA
ATOM     96  O   UNL A   1      42.901  36.614  29.065  1.00  0.00    -0.744 OA
ENDBRANCH  92  93
ENDBRANCH  64  87
BRANCH  76  97
ATOM     97  C   UNL A   1      52.974  33.385  25.094  1.00  0.00    -0.014 A 
ATOM     98  C   UNL A   1      53.696  34.294  25.888  1.00  0.00     0.010 A 
ATOM     99  C   UNL A   1      53.104  33.453  23.693  1.00  0.00     0.010 A 
ATOM    100  C   UNL A   1      54.507  35.265  25.293  1.00  0.00     0.020 A 
ATOM    101  C   UNL A   1      53.937  34.401  23.096  1.00  0.00     0.020 A 
ATOM    102  C   UNL A   1      54.624  35.312  23.900  1.00  0.00     0.054 A 
BRANCH 102 103
ATOM    103  S   UNL A   1      55.719  36.553  23.155  1.00  0.00     0.124 S 
ATOM    104  O   UNL A   1      55.260  37.785  23.790  1.00  0.00    -0.237 OA
ATOM    105  O   UNL A   1      57.045  36.092  23.560  1.00  0.00    -0.237 OA
ATOM    106  O   UNL A   1      55.440  36.448  21.724  1.00  0.00    -0.744 OA
ENDBRANCH 102 103
ENDBRANCH  76  97
ENDBRANCH  50  51
ENDBRANCH  43  45
ENDBRANCH  42  43
ENDBRANCH  41  42
ENDBRANCH  40  41
ENDBRANCH  39  40
ENDBRANCH  38  39
ENDBRANCH  37  38
ENDBRANCH   1  37
TORSDOF 33
ENDMDL
MODEL 3
REMARK VINA RESULT:      -7.5      3.624      6.648
REMARK SMILES CCCC[C@@H](Sc1nc(OCCC2CCCCC2)cc(OCCC2CCCCC2)n1)C(=O)OCCOCCOCCOC(=O)c1ccc(-c2c3nc(c(-c4ccc(S(=O)(=O)[O-])cc4)c4ccc([nH]4)c(-c4ccc(S(=O)(=O)[O-])cc4)c4nc(c(-c5ccc(S(=O)(=O)[O-])cc5)c5ccc2[nH]5)C=C4)C=C3)cc1
REMARK SMILES IDX 36 1 35 2 34 3 33 4 31 5 32 6 5 7 4 8 3 9 2 10 1 11 6 12
REMARK SMILES IDX 7 13 8 14 30 15 9 16 20 17 19 18 10 19 11 20 12 21 13 22
REMARK SMILES IDX 14 23 18 24 15 25 17 26 16 27 21 28 22 29 23 30 24 31 25 32
REMARK SMILES IDX 29 33 26 34 28 35 27 36 37 37 38 38 39 39 40 40 41 41 42 42
REMARK SMILES IDX 43 43 44 44 45 45 46 46 104 47 47 48 103 49 48 50 49 51
REMARK SMILES IDX 50 52 97 53 51 54 102 55 96 56 98 57 52 58 101 59 95 60
REMARK SMILES IDX 94 61 53 63 83 64 64 65 82 66 65 67 68 68 81 69 99 70 66 71
REMARK SMILES IDX 67 72 80 74 100 75 69 76 54 77 55 78 63 79 56 80 62 81 57 82
REMARK SMILES IDX 58 83 59 84 60 85 61 86 84 87 85 88 93 89 86 90 92 91 87 92
REMARK SMILES IDX 88 93 89 94 90 95 91 96 70 97 71 98 79 99 72 100 78 101
REMARK SMILES IDX 73 102 74 103 75 104 76 105 77 106
REMARK H PARENT 98 62 68 73
REMARK Flexibility Score: inf
ROOT
ATOM      1  O   UNL A   1      36.346  22.327  25.608  1.00  0.00    -0.376 OA
ENDROOT
BRANCH   1   2
ATOM      2  C   UNL A   1      36.597  23.725  25.717  1.00  0.00     0.202 C 
BRANCH   2   3
ATOM      3  C   UNL A   1      35.590  24.706  25.095  1.00  0.00     0.261 C 
BRANCH   3   4
ATOM      4  O   UNL A   1      34.262  24.202  24.847  1.00  0.00    -0.462 OA
BRANCH   4   5
ATOM      5  C   UNL A   1      33.313  24.536  25.776  1.00  0.00     0.319 C 
ATOM      6  O   UNL A   1      33.312  24.124  26.931  1.00  0.00    -0.251 OA
BRANCH   5   7
ATOM      7  C   UNL A   1      32.174  25.403  25.205  1.00  0.00     0.164 C 
BRANCH   7   8
ATOM      8  C   UNL A   1      30.856  24.570  25.031  1.00  0.00     0.027 C 
BRANCH   8   9
ATOM      9  C   UNL A   1      30.869  23.025  24.948  1.00  0.00     0.001 C 
BRANCH   9  10
ATOM     10  C   UNL A   1      30.385  22.230  26.167  1.00  0.00    -0.003 C 
ATOM     11  C   UNL A   1      29.650  23.060  27.206  1.00  0.00     0.004 C 
ENDBRANCH   9  10
ENDBRANCH   8   9
ENDBRANCH   7   8
BRANCH   7  12
ATOM     12  S   UNL A   1      32.170  26.818  26.473  1.00  0.00    -0.071 SA
BRANCH  12  13
ATOM     13  C   UNL A   1      32.620  28.351  25.519  1.00  0.00     0.195 A 
ATOM     14  N   UNL A   1      31.677  29.314  25.431  1.00  0.00    -0.187 NA
ATOM     15  N   UNL A   1      33.885  28.706  25.842  1.00  0.00    -0.187 NA
ATOM     16  C   UNL A   1      31.835  30.260  26.349  1.00  0.00     0.221 A 
ATOM     17  C   UNL A   1      33.870  29.540  26.865  1.00  0.00     0.221 A 
ATOM     18  C   UNL A   1      32.649  29.883  27.386  1.00  0.00     0.136 A 
BRANCH  16  19
ATOM     19  O   UNL A   1      31.309  31.566  26.151  1.00  0.00    -0.477 OA
BRANCH  19  20
ATOM     20  C   UNL A   1      30.133  32.254  25.046  1.00  0.00     0.231 C 
BRANCH  20  21
ATOM     21  C   UNL A   1      29.057  31.395  23.420  1.00  0.00     0.045 C 
BRANCH  21  22
ATOM     22  C   UNL A   1      28.856  29.632  22.784  1.00  0.00    -0.008 C 
ATOM     23  C   UNL A   1      29.865  28.432  23.020  1.00  0.00     0.004 C 
ATOM     24  C   UNL A   1      27.383  29.079  22.819  1.00  0.00     0.004 C 
ATOM     25  C   UNL A   1      29.291  27.022  22.923  1.00  0.00     0.000 C 
ATOM     26  C   UNL A   1      27.056  27.838  23.695  1.00  0.00     0.000 C 
ATOM     27  C   UNL A   1      28.203  26.868  23.964  1.00  0.00     0.000 C 
ENDBRANCH  21  22
ENDBRANCH  20  21
ENDBRANCH  19  20
ENDBRANCH  16  19
BRANCH  17  28
ATOM     28  O   UNL A   1      34.999  30.166  27.397  1.00  0.00    -0.477 OA
BRANCH  28  29
ATOM     29  C   UNL A   1      36.250  29.419  27.500  1.00  0.00     0.231 C 
BRANCH  29  30
ATOM     30  C   UNL A   1      37.526  29.942  28.365  1.00  0.00     0.045 C 
BRANCH  30  31
ATOM     31  C   UNL A   1      37.225  30.884  29.550  1.00  0.00    -0.008 C 
ATOM     32  C   UNL A   1      37.991  30.195  31.109  1.00  0.00     0.004 C 
ATOM     33  C   UNL A   1      36.869  32.731  29.543  1.00  0.00     0.004 C 
ATOM     34  C   UNL A   1      38.054  31.200  32.852  1.00  0.00     0.000 C 
ATOM     35  C   UNL A   1      36.976  33.747  31.131  1.00  0.00     0.000 C 
ATOM     36  C   UNL A   1      37.567  33.049  32.806  1.00  0.00     0.000 C 
ENDBRANCH  30  31
ENDBRANCH  29  30
ENDBRANCH  28  29
ENDBRANCH  17  28
ENDBRANCH  12  13
ENDBRANCH   7  12
ENDBRANCH   5   7
ENDBRANCH   4   5
ENDBRANCH   3   4
ENDBRANCH   2   3
ENDBRANCH   1   2
BRANCH   1  37
ATOM     37  C   UNL A   1      37.435  21.442  25.814  1.00  0.00     0.188 C 
BRANCH  37  38
ATOM     38  C   UNL A   1      38.828  22.059  25.956  1.00  0.00     0.188 C 
BRANCH  38  39
ATOM     39  O   UNL A   1      39.771  21.257  26.628  1.00  0.00    -0.376 OA
BRANCH  39  40
ATOM     40  C   UNL A   1      41.109  21.237  26.141  1.00  0.00     0.202 C 
BRANCH  40  41
ATOM     41  C   UNL A   1      42.219  22.030  26.883  1.00  0.00     0.261 C 
BRANCH  41  42
ATOM     42  O   UNL A   1      43.593  21.827  26.489  1.00  0.00    -0.460 OA
BRANCH  42  43
ATOM     43  C   UNL A   1      44.024  22.473  25.375  1.00  0.00     0.338 C 
ATOM     44  O   UNL A   1      43.542  22.368  24.260  1.00  0.00    -0.246 OA
BRANCH  43  45
ATOM     45  C   UNL A   1      44.946  23.573  25.789  1.00  0.00     0.060 A 
ATOM     46  C   UNL A   1      44.598  24.881  25.420  1.00  0.00     0.016 A 
ATOM     47  C   UNL A   1      46.086  23.365  26.565  1.00  0.00     0.016 A 
ATOM     48  C   UNL A   1      45.381  25.976  25.795  1.00  0.00     0.010 A 
ATOM     49  C   UNL A   1      46.900  24.459  26.907  1.00  0.00     0.010 A 
ATOM     50  C   UNL A   1      46.569  25.769  26.501  1.00  0.00    -0.014 A 
BRANCH  50  51
ATOM     51  C   UNL A   1      47.568  26.869  26.612  1.00  0.00     0.031 A 
ATOM     52  C   UNL A   1      48.495  27.099  25.444  1.00  0.00     0.074 A 
ATOM     53  C   UNL A   1      47.646  27.678  27.686  1.00  0.00     0.049 A 
ATOM     54  N   UNL A   1      49.518  27.906  25.336  1.00  0.00    -0.248 NA
ATOM     55  C   UNL A   1      48.227  26.303  24.234  1.00  0.00     0.031 C 
ATOM     56  C   UNL A   1      46.758  27.641  28.846  1.00  0.00     0.029 A 
ATOM     57  N   UNL A   1      48.532  28.691  27.975  1.00  0.00    -0.354 N 
ATOM     58  C   UNL A   1      50.035  27.692  24.063  1.00  0.00     0.074 A 
ATOM     59  C   UNL A   1      49.222  26.670  23.441  1.00  0.00     0.031 C 
ATOM     60  C   UNL A   1      47.155  28.576  29.730  1.00  0.00     0.029 A 
ATOM     61  C   UNL A   1      48.354  29.244  29.223  1.00  0.00     0.049 A 
ATOM     62  H   UNL A   1      49.229  28.992  27.347  1.00  0.00     0.167 HD
ATOM     63  C   UNL A   1      51.093  28.288  23.463  1.00  0.00     0.031 A 
ATOM     64  C   UNL A   1      49.093  30.153  29.895  1.00  0.00     0.031 A 
ATOM     65  C   UNL A   1      51.905  29.302  24.080  1.00  0.00     0.049 A 
ATOM     66  C   UNL A   1      50.327  30.735  29.246  1.00  0.00     0.074 A 
ATOM     67  C   UNL A   1      52.997  29.967  23.551  1.00  0.00     0.029 A 
ATOM     68  N   UNL A   1      51.718  29.797  25.361  1.00  0.00    -0.354 N 
ATOM     69  N   UNL A   1      50.815  30.512  28.048  1.00  0.00    -0.248 NA
ATOM     70  C   UNL A   1      51.109  31.694  30.042  1.00  0.00     0.031 C 
ATOM     71  C   UNL A   1      53.511  30.815  24.537  1.00  0.00     0.029 A 
ATOM     72  C   UNL A   1      52.692  30.737  25.652  1.00  0.00     0.049 A 
ATOM     73  H   UNL A   1      50.998  29.521  25.975  1.00  0.00     0.167 HD
ATOM     74  C   UNL A   1      51.939  31.327  27.937  1.00  0.00     0.074 A 
ATOM     75  C   UNL A   1      52.053  32.055  29.183  1.00  0.00     0.031 C 
ATOM     76  C   UNL A   1      52.795  31.463  26.893  1.00  0.00     0.031 A 
BRANCH  63  77
ATOM     77  C   UNL A   1      51.469  27.813  22.083  1.00  0.00    -0.014 A 
ATOM     78  C   UNL A   1      52.520  26.901  21.877  1.00  0.00     0.010 A 
ATOM     79  C   UNL A   1      50.733  28.270  20.973  1.00  0.00     0.010 A 
ATOM     80  C   UNL A   1      52.854  26.489  20.584  1.00  0.00     0.020 A 
ATOM     81  C   UNL A   1      51.042  27.834  19.682  1.00  0.00     0.020 A 
ATOM     82  C   UNL A   1      52.114  26.959  19.494  1.00  0.00     0.054 A 
BRANCH  82  83
ATOM     83  S   UNL A   1      52.557  26.391  17.830  1.00  0.00     0.124 S 
ATOM     84  O   UNL A   1      53.493  25.306  18.122  1.00  0.00    -0.237 OA
ATOM     85  O   UNL A   1      51.269  25.976  17.281  1.00  0.00    -0.237 OA
ATOM     86  O   UNL A   1      53.149  27.571  17.205  1.00  0.00    -0.744 OA
ENDBRANCH  82  83
ENDBRANCH  63  77
BRANCH  64  87
ATOM     87  C   UNL A   1      48.716  30.545  31.285  1.00  0.00    -0.014 A 
ATOM     88  C   UNL A   1      49.367  29.980  32.398  1.00  0.00     0.010 A 
ATOM     89  C   UNL A   1      47.685  31.478  31.505  1.00  0.00     0.010 A 
ATOM     90  C   UNL A   1      48.987  30.331  33.698  1.00  0.00     0.020 A 
ATOM     91  C   UNL A   1      47.324  31.855  32.802  1.00  0.00     0.020 A 
ATOM     92  C   UNL A   1      47.970  31.270  33.892  1.00  0.00     0.054 A 
BRANCH  92  93
ATOM     93  S   UNL A   1      47.530  31.747  35.587  1.00  0.00     0.124 S 
ATOM     94  O   UNL A   1      46.348  32.577  35.372  1.00  0.00    -0.237 OA
ATOM     95  O   UNL A   1      47.288  30.456  36.224  1.00  0.00    -0.237 OA
ATOM     96  O   UNL A   1      48.715  32.457  36.063  1.00  0.00    -0.744 OA
ENDBRANCH  92  93
ENDBRANCH  64  87
BRANCH  76  97
ATOM     97  C   UNL A   1      53.908  32.473  27.020  1.00  0.00    -0.014 A 
ATOM     98  C   UNL A   1      55.107  32.172  27.690  1.00  0.00     0.010 A 
ATOM     99  C   UNL A   1      53.775  33.728  26.395  1.00  0.00     0.010 A 
ATOM    100  C   UNL A   1      56.137  33.116  27.757  1.00  0.00     0.020 A 
ATOM    101  C   UNL A   1      54.813  34.661  26.432  1.00  0.00     0.020 A 
ATOM    102  C   UNL A   1      55.984  34.354  27.125  1.00  0.00     0.054 A 
BRANCH 102 103
ATOM    103  S   UNL A   1      57.354  35.544  27.187  1.00  0.00     0.124 S 
ATOM    104  O   UNL A   1      58.504  34.674  27.418  1.00  0.00    -0.237 OA
ATOM    105  O   UNL A   1      57.292  36.169  25.869  1.00  0.00    -0.237 OA
ATOM    106  O   UNL A   1      57.002  36.420  28.303  1.00  0.00    -0.744 OA
ENDBRANCH 102 103
ENDBRANCH  76  97
ENDBRANCH  50  51
ENDBRANCH  43  45
ENDBRANCH  42  43
ENDBRANCH  41  42
ENDBRANCH  40  41
ENDBRANCH  39  40
ENDBRANCH  38  39
ENDBRANCH  37  38
ENDBRANCH   1  37
TORSDOF 33
ENDMDL
