MODEL 1
REMARK VINA RESULT:      -9.5      0.000      0.000
REMARK SMILES O=C(OCCOCCOCCOC(=O)[C@H]1C=NC2=C(CCCC2)C1=O)c1ccc(-c2c3nc(c(-c4ccc(S(=O)(=O)[O-])cc4)c4ccc([nH]4)c(-c4ccc(S(=O)(=O)[O-])cc4)c4nc(c(-c5ccc(S(=O)(=O)[O-])cc5)c5ccc2[nH]5)C=C4)C=C3)cc1
REMARK SMILES IDX 6 1 5 2 4 3 3 4 2 5 1 6 26 7 27 8 85 9 28 10 84 11 29 12
REMARK SMILES IDX 30 13 31 14 78 15 32 16 83 17 77 18 79 19 33 20 82 21 76 22
REMARK SMILES IDX 75 23 34 25 64 26 45 27 63 28 46 29 49 30 62 31 80 32 47 33
REMARK SMILES IDX 48 34 61 36 81 37 50 38 35 39 36 40 44 41 37 42 43 43 38 44
REMARK SMILES IDX 39 45 40 46 41 47 42 48 65 49 66 50 74 51 67 52 73 53 68 54
REMARK SMILES IDX 69 55 70 56 71 57 72 58 51 59 52 60 60 61 53 62 59 63 54 64
REMARK SMILES IDX 55 65 56 66 57 67 58 68 7 69 8 70 9 71 10 72 11 73 12 74
REMARK SMILES IDX 13 75 14 76 15 77 16 78 24 79 17 80 19 81 25 82 18 83 20 84
REMARK SMILES IDX 23 85 21 86 22 87
REMARK H PARENT 79 24 49 35
REMARK Flexibility Score: inf
ROOT
ATOM      1  O   UNL A   1      32.922  28.884  24.482  1.00  0.00    -0.376 OA
ENDROOT
BRANCH   1   2
ATOM      2  C   UNL A   1      32.420  29.304  25.759  1.00  0.00     0.202 C 
BRANCH   2   3
ATOM      3  C   UNL A   1      33.357  29.148  26.982  1.00  0.00     0.261 C 
BRANCH   3   4
ATOM      4  O   UNL A   1      33.504  30.323  27.800  1.00  0.00    -0.460 OA
BRANCH   4   5
ATOM      5  C   UNL A   1      34.630  30.984  28.172  1.00  0.00     0.338 C 
ATOM      6  O   UNL A   1      34.572  32.210  28.267  1.00  0.00    -0.246 OA
BRANCH   5   7
ATOM      7  C   UNL A   1      35.955  30.322  28.403  1.00  0.00     0.060 A 
ATOM      8  C   UNL A   1      36.363  29.743  29.604  1.00  0.00     0.016 A 
ATOM      9  C   UNL A   1      36.841  30.244  27.313  1.00  0.00     0.016 A 
ATOM     10  C   UNL A   1      37.629  29.200  29.766  1.00  0.00     0.010 A 
ATOM     11  C   UNL A   1      38.108  29.661  27.453  1.00  0.00     0.010 A 
ATOM     12  C   UNL A   1      38.520  29.179  28.702  1.00  0.00    -0.014 A 
BRANCH  12  13
ATOM     13  C   UNL A   1      39.931  28.850  28.985  1.00  0.00     0.031 A 
ATOM     14  C   UNL A   1      40.802  29.948  29.524  1.00  0.00     0.074 A 
ATOM     15  C   UNL A   1      40.382  27.584  28.911  1.00  0.00     0.049 A 
ATOM     16  N   UNL A   1      42.078  29.933  29.794  1.00  0.00    -0.248 NA
ATOM     17  C   UNL A   1      40.132  31.223  29.844  1.00  0.00     0.031 C 
ATOM     18  C   UNL A   1      39.571  26.405  28.599  1.00  0.00     0.029 A 
ATOM     19  N   UNL A   1      41.643  27.075  29.082  1.00  0.00    -0.354 N 
ATOM     20  C   UNL A   1      42.355  31.180  30.342  1.00  0.00     0.074 A 
ATOM     21  C   UNL A   1      41.135  31.951  30.309  1.00  0.00     0.031 C 
ATOM     22  C   UNL A   1      40.369  25.326  28.522  1.00  0.00     0.029 A 
ATOM     23  C   UNL A   1      41.745  25.749  28.732  1.00  0.00     0.049 A 
ATOM     24  H   UNL A   1      42.400  27.606  29.423  1.00  0.00     0.167 HD
ATOM     25  C   UNL A   1      43.524  31.625  30.857  1.00  0.00     0.031 A 
ATOM     26  C   UNL A   1      42.839  24.995  28.524  1.00  0.00     0.031 A 
ATOM     27  C   UNL A   1      44.729  30.846  30.844  1.00  0.00     0.049 A 
ATOM     28  C   UNL A   1      44.175  25.604  28.810  1.00  0.00     0.074 A 
ATOM     29  C   UNL A   1      45.985  31.184  31.308  1.00  0.00     0.029 A 
ATOM     30  N   UNL A   1      44.823  29.564  30.317  1.00  0.00    -0.354 N 
ATOM     31  N   UNL A   1      44.447  26.808  29.255  1.00  0.00    -0.248 NA
ATOM     32  C   UNL A   1      45.346  24.747  28.598  1.00  0.00     0.031 C 
ATOM     33  C   UNL A   1      46.854  30.130  31.002  1.00  0.00     0.029 A 
ATOM     34  C   UNL A   1      46.124  29.110  30.410  1.00  0.00     0.049 A 
ATOM     35  H   UNL A   1      44.073  29.054  29.934  1.00  0.00     0.167 HD
ATOM     36  C   UNL A   1      45.821  26.833  29.442  1.00  0.00     0.074 A 
ATOM     37  C   UNL A   1      46.323  25.538  29.019  1.00  0.00     0.031 C 
ATOM     38  C   UNL A   1      46.590  27.821  29.960  1.00  0.00     0.031 A 
BRANCH  25  39
ATOM     39  C   UNL A   1      43.542  33.019  31.420  1.00  0.00    -0.014 A 
ATOM     40  C   UNL A   1      43.747  34.140  30.593  1.00  0.00     0.010 A 
ATOM     41  C   UNL A   1      43.372  33.212  32.802  1.00  0.00     0.010 A 
ATOM     42  C   UNL A   1      43.822  35.423  31.144  1.00  0.00     0.020 A 
ATOM     43  C   UNL A   1      43.421  34.496  33.353  1.00  0.00     0.020 A 
ATOM     44  C   UNL A   1      43.664  35.592  32.523  1.00  0.00     0.054 A 
BRANCH  44  45
ATOM     45  S   UNL A   1      43.765  37.267  33.211  1.00  0.00     0.124 S 
ATOM     46  O   UNL A   1      42.561  37.325  34.037  1.00  0.00    -0.237 OA
ATOM     47  O   UNL A   1      45.027  37.235  33.945  1.00  0.00    -0.237 OA
ATOM     48  O   UNL A   1      43.754  38.128  32.032  1.00  0.00    -0.744 OA
ENDBRANCH  44  45
ENDBRANCH  25  39
BRANCH  26  49
ATOM     49  C   UNL A   1      42.733  23.650  27.900  1.00  0.00    -0.014 A 
ATOM     50  C   UNL A   1      42.435  22.501  28.647  1.00  0.00     0.010 A 
ATOM     51  C   UNL A   1      42.956  23.529  26.518  1.00  0.00     0.010 A 
ATOM     52  C   UNL A   1      42.341  21.254  28.013  1.00  0.00     0.020 A 
ATOM     53  C   UNL A   1      42.848  22.292  25.880  1.00  0.00     0.020 A 
ATOM     54  C   UNL A   1      42.542  21.159  26.632  1.00  0.00     0.054 A 
BRANCH  54  55
ATOM     55  S   UNL A   1      42.337  19.560  25.795  1.00  0.00     0.124 S 
ATOM     56  O   UNL A   1      42.646  18.617  26.864  1.00  0.00    -0.237 OA
ATOM     57  O   UNL A   1      40.941  19.594  25.365  1.00  0.00    -0.237 OA
ATOM     58  O   UNL A   1      43.315  19.626  24.711  1.00  0.00    -0.744 OA
ENDBRANCH  54  55
ENDBRANCH  26  49
BRANCH  38  59
ATOM     59  C   UNL A   1      48.039  27.500  30.171  1.00  0.00    -0.014 A 
ATOM     60  C   UNL A   1      48.500  26.928  31.366  1.00  0.00     0.010 A 
ATOM     61  C   UNL A   1      48.943  27.752  29.122  1.00  0.00     0.010 A 
ATOM     62  C   UNL A   1      49.856  26.638  31.520  1.00  0.00     0.020 A 
ATOM     63  C   UNL A   1      50.291  27.432  29.260  1.00  0.00     0.020 A 
ATOM     64  C   UNL A   1      50.741  26.889  30.465  1.00  0.00     0.054 A 
BRANCH  64  65
ATOM     65  S   UNL A   1      52.486  26.452  30.669  1.00  0.00     0.124 S 
ATOM     66  O   UNL A   1      52.918  26.274  29.285  1.00  0.00    -0.237 OA
ATOM     67  O   UNL A   1      53.030  27.622  31.353  1.00  0.00    -0.237 OA
ATOM     68  O   UNL A   1      52.447  25.232  31.472  1.00  0.00    -0.744 OA
ENDBRANCH  64  65
ENDBRANCH  38  59
ENDBRANCH  12  13
ENDBRANCH   5   7
ENDBRANCH   4   5
ENDBRANCH   3   4
ENDBRANCH   2   3
ENDBRANCH   1   2
BRANCH   1  69
ATOM     69  C   UNL A   1      31.955  28.201  23.686  1.00  0.00     0.188 C 
BRANCH  69  70
ATOM     70  C   UNL A   1      30.662  27.811  24.399  1.00  0.00     0.188 C 
BRANCH  70  71
ATOM     71  O   UNL A   1      30.234  26.463  24.356  1.00  0.00    -0.376 OA
BRANCH  71  72
ATOM     72  C   UNL A   1      31.077  25.471  24.923  1.00  0.00     0.202 C 
BRANCH  72  73
ATOM     73  C   UNL A   1      31.479  24.208  24.130  1.00  0.00     0.261 C 
BRANCH  73  74
ATOM     74  O   UNL A   1      32.871  23.872  24.058  1.00  0.00    -0.462 OA
BRANCH  74  75
ATOM     75  C   UNL A   1      33.310  23.013  25.017  1.00  0.00     0.322 C 
ATOM     76  O   UNL A   1      33.268  23.245  26.224  1.00  0.00    -0.251 OA
BRANCH  75  77
ATOM     77  C   UNL A   1      33.829  21.726  24.443  1.00  0.00     0.212 C 
ATOM     78  C   UNL A   1      35.191  21.323  24.912  1.00  0.00     0.107 C 
ATOM     79  C   UNL A   1      32.862  20.595  24.603  1.00  0.00     0.180 C 
ATOM     80  N   UNL A   1      35.614  20.102  25.003  1.00  0.00    -0.264 NA
ATOM     81  C   UNL A   1      33.426  19.230  24.470  1.00  0.00     0.018 C 
ATOM     82  O   UNL A   1      31.659  20.762  24.782  1.00  0.00    -0.293 OA
ATOM     83  C   UNL A   1      34.747  19.084  24.682  1.00  0.00     0.047 C 
ATOM     84  C   UNL A   1      32.498  18.118  24.087  1.00  0.00     0.041 C 
ATOM     85  C   UNL A   1      35.398  17.716  24.623  1.00  0.00     0.056 C 
ATOM     86  C   UNL A   1      33.266  16.907  23.555  1.00  0.00     0.005 C 
ATOM     87  C   UNL A   1      34.420  16.549  24.483  1.00  0.00     0.007 C 
ENDBRANCH  75  77
ENDBRANCH  74  75
ENDBRANCH  73  74
ENDBRANCH  72  73
ENDBRANCH  71  72
ENDBRANCH  70  71
ENDBRANCH  69  70
ENDBRANCH   1  69
TORSDOF 20
ENDMDL
MODEL 2
REMARK VINA RESULT:      -9.4      3.312      8.401
REMARK SMILES O=C(OCCOCCOCCOC(=O)[C@H]1C=NC2=C(CCCC2)C1=O)c1ccc(-c2c3nc(c(-c4ccc(S(=O)(=O)[O-])cc4)c4ccc([nH]4)c(-c4ccc(S(=O)(=O)[O-])cc4)c4nc(c(-c5ccc(S(=O)(=O)[O-])cc5)c5ccc2[nH]5)C=C4)C=C3)cc1
REMARK SMILES IDX 6 1 5 2 4 3 3 4 2 5 1 6 26 7 27 8 85 9 28 10 84 11 29 12
REMARK SMILES IDX 30 13 31 14 78 15 32 16 83 17 77 18 79 19 33 20 82 21 76 22
REMARK SMILES IDX 75 23 34 25 64 26 45 27 63 28 46 29 49 30 62 31 80 32 47 33
REMARK SMILES IDX 48 34 61 36 81 37 50 38 35 39 36 40 44 41 37 42 43 43 38 44
REMARK SMILES IDX 39 45 40 46 41 47 42 48 65 49 66 50 74 51 67 52 73 53 68 54
REMARK SMILES IDX 69 55 70 56 71 57 72 58 51 59 52 60 60 61 53 62 59 63 54 64
REMARK SMILES IDX 55 65 56 66 57 67 58 68 7 69 8 70 9 71 10 72 11 73 12 74
REMARK SMILES IDX 13 75 14 76 15 77 16 78 24 79 17 80 19 81 25 82 18 83 20 84
REMARK SMILES IDX 23 85 21 86 22 87
REMARK H PARENT 79 24 49 35
REMARK Flexibility Score: inf
ROOT
ATOM      1  O   UNL A   1      38.224  21.604  26.099  1.00  0.00    -0.376 OA
ENDROOT
BRANCH   1   2
ATOM      2  C   UNL A   1      39.517  21.108  25.724  1.00  0.00     0.202 C 
BRANCH   2   3
ATOM      3  C   UNL A   1      39.864  19.650  26.112  1.00  0.00     0.261 C 
BRANCH   3   4
ATOM      4  O   UNL A   1      41.152  19.184  25.673  1.00  0.00    -0.460 OA
BRANCH   4   5
ATOM      5  C   UNL A   1      42.392  19.645  25.983  1.00  0.00     0.338 C 
ATOM      6  O   UNL A   1      43.297  18.821  26.108  1.00  0.00    -0.246 OA
BRANCH   5   7
ATOM      7  C   UNL A   1      42.709  21.085  26.252  1.00  0.00     0.060 A 
ATOM      8  C   UNL A   1      42.938  22.052  25.274  1.00  0.00     0.016 A 
ATOM      9  C   UNL A   1      42.740  21.504  27.595  1.00  0.00     0.016 A 
ATOM     10  C   UNL A   1      43.288  23.355  25.595  1.00  0.00     0.010 A 
ATOM     11  C   UNL A   1      43.051  22.828  27.931  1.00  0.00     0.010 A 
ATOM     12  C   UNL A   1      43.373  23.747  26.923  1.00  0.00    -0.014 A 
BRANCH  12  13
ATOM     13  C   UNL A   1      44.007  25.045  27.225  1.00  0.00     0.031 A 
ATOM     14  C   UNL A   1      43.105  26.178  27.625  1.00  0.00     0.074 A 
ATOM     15  C   UNL A   1      45.345  25.172  27.292  1.00  0.00     0.049 A 
ATOM     16  N   UNL A   1      43.405  27.421  27.880  1.00  0.00    -0.248 NA
ATOM     17  C   UNL A   1      41.678  25.852  27.804  1.00  0.00     0.031 C 
ATOM     18  C   UNL A   1      46.315  24.086  27.127  1.00  0.00     0.029 A 
ATOM     19  N   UNL A   1      46.127  26.276  27.506  1.00  0.00    -0.354 N 
ATOM     20  C   UNL A   1      42.214  28.016  28.278  1.00  0.00     0.074 A 
ATOM     21  C   UNL A   1      41.174  27.020  28.170  1.00  0.00     0.031 C 
ATOM     22  C   UNL A   1      47.559  24.593  27.166  1.00  0.00     0.029 A 
ATOM     23  C   UNL A   1      47.468  26.037  27.309  1.00  0.00     0.049 A 
ATOM     24  H   UNL A   1      45.766  27.152  27.774  1.00  0.00     0.167 HD
ATOM     25  C   UNL A   1      42.017  29.277  28.724  1.00  0.00     0.031 A 
ATOM     26  C   UNL A   1      48.487  26.906  27.177  1.00  0.00     0.031 A 
ATOM     27  C   UNL A   1      43.066  30.255  28.787  1.00  0.00     0.049 A 
ATOM     28  C   UNL A   1      48.198  28.361  27.376  1.00  0.00     0.074 A 
ATOM     29  C   UNL A   1      42.999  31.572  29.195  1.00  0.00     0.029 A 
ATOM     30  N   UNL A   1      44.380  30.012  28.410  1.00  0.00    -0.354 N 
ATOM     31  N   UNL A   1      47.058  28.935  27.676  1.00  0.00    -0.248 NA
ATOM     32  C   UNL A   1      49.335  29.278  27.250  1.00  0.00     0.031 C 
ATOM     33  C   UNL A   1      44.261  32.146  29.001  1.00  0.00     0.029 A 
ATOM     34  C   UNL A   1      45.129  31.166  28.539  1.00  0.00     0.049 A 
ATOM     35  H   UNL A   1      44.728  29.147  28.097  1.00  0.00     0.167 HD
ATOM     36  C   UNL A   1      47.352  30.280  27.843  1.00  0.00     0.074 A 
ATOM     37  C   UNL A   1      48.768  30.434  27.566  1.00  0.00     0.031 C 
ATOM     38  C   UNL A   1      46.534  31.286  28.235  1.00  0.00     0.031 A 
BRANCH  25  39
ATOM     39  C   UNL A   1      40.618  29.656  29.123  1.00  0.00    -0.014 A 
ATOM     40  C   UNL A   1      40.254  29.790  30.477  1.00  0.00     0.010 A 
ATOM     41  C   UNL A   1      39.644  29.863  28.131  1.00  0.00     0.010 A 
ATOM     42  C   UNL A   1      38.933  30.083  30.830  1.00  0.00     0.020 A 
ATOM     43  C   UNL A   1      38.328  30.181  28.479  1.00  0.00     0.020 A 
ATOM     44  C   UNL A   1      37.977  30.271  29.828  1.00  0.00     0.054 A 
BRANCH  44  45
ATOM     45  S   UNL A   1      36.271  30.652  30.313  1.00  0.00     0.124 S 
ATOM     46  O   UNL A   1      36.362  32.072  30.643  1.00  0.00    -0.237 OA
ATOM     47  O   UNL A   1      35.517  30.335  29.104  1.00  0.00    -0.237 OA
ATOM     48  O   UNL A   1      36.026  29.764  31.447  1.00  0.00    -0.744 OA
ENDBRANCH  44  45
ENDBRANCH  25  39
BRANCH  26  49
ATOM     49  C   UNL A   1      49.823  26.451  26.713  1.00  0.00    -0.014 A 
ATOM     50  C   UNL A   1      50.765  25.886  27.585  1.00  0.00     0.010 A 
ATOM     51  C   UNL A   1      50.156  26.611  25.356  1.00  0.00     0.010 A 
ATOM     52  C   UNL A   1      52.011  25.467  27.099  1.00  0.00     0.020 A 
ATOM     53  C   UNL A   1      51.390  26.181  24.866  1.00  0.00     0.020 A 
ATOM     54  C   UNL A   1      52.314  25.612  25.741  1.00  0.00     0.054 A 
BRANCH  54  55
ATOM     55  S   UNL A   1      53.894  24.992  25.094  1.00  0.00     0.124 S 
ATOM     56  O   UNL A   1      53.579  23.596  24.815  1.00  0.00    -0.237 OA
ATOM     57  O   UNL A   1      54.120  25.836  23.923  1.00  0.00    -0.237 OA
ATOM     58  O   UNL A   1      54.818  25.220  26.203  1.00  0.00    -0.744 OA
ENDBRANCH  54  55
ENDBRANCH  26  49
BRANCH  38  59
ATOM     59  C   UNL A   1      47.177  32.621  28.464  1.00  0.00    -0.014 A 
ATOM     60  C   UNL A   1      47.754  32.958  29.698  1.00  0.00     0.010 A 
ATOM     61  C   UNL A   1      47.227  33.535  27.396  1.00  0.00     0.010 A 
ATOM     62  C   UNL A   1      48.349  34.208  29.869  1.00  0.00     0.020 A 
ATOM     63  C   UNL A   1      47.850  34.770  27.553  1.00  0.00     0.020 A 
ATOM     64  C   UNL A   1      48.396  35.104  28.795  1.00  0.00     0.054 A 
BRANCH  64  65
ATOM     65  S   UNL A   1      49.223  36.698  29.025  1.00  0.00     0.124 S 
ATOM     66  O   UNL A   1      50.426  36.312  29.756  1.00  0.00    -0.237 OA
ATOM     67  O   UNL A   1      49.437  37.148  27.652  1.00  0.00    -0.237 OA
ATOM     68  O   UNL A   1      48.255  37.484  29.787  1.00  0.00    -0.744 OA
ENDBRANCH  64  65
ENDBRANCH  38  59
ENDBRANCH  12  13
ENDBRANCH   5   7
ENDBRANCH   4   5
ENDBRANCH   3   4
ENDBRANCH   2   3
ENDBRANCH   1   2
BRANCH   1  69
ATOM     69  C   UNL A   1      37.220  21.385  25.109  1.00  0.00     0.188 C 
BRANCH  69  70
ATOM     70  C   UNL A   1      35.810  21.839  25.480  1.00  0.00     0.188 C 
BRANCH  70  71
ATOM     71  O   UNL A   1      34.709  21.310  24.766  1.00  0.00    -0.376 OA
BRANCH  71  72
ATOM     72  C   UNL A   1      33.653  20.714  25.503  1.00  0.00     0.202 C 
BRANCH  72  73
ATOM     73  C   UNL A   1      32.173  20.990  25.157  1.00  0.00     0.261 C 
BRANCH  73  74
ATOM     74  O   UNL A   1      31.657  22.304  25.407  1.00  0.00    -0.462 OA
BRANCH  74  75
ATOM     75  C   UNL A   1      31.547  23.102  24.311  1.00  0.00     0.322 C 
ATOM     76  O   UNL A   1      31.517  22.686  23.154  1.00  0.00    -0.251 OA
BRANCH  75  77
ATOM     77  C   UNL A   1      31.436  24.557  24.667  1.00  0.00     0.212 C 
ATOM     78  C   UNL A   1      30.436  24.877  25.731  1.00  0.00     0.107 C 
ATOM     79  C   UNL A   1      32.762  25.171  24.990  1.00  0.00     0.180 C 
ATOM     80  N   UNL A   1      30.517  25.879  26.550  1.00  0.00    -0.264 NA
ATOM     81  C   UNL A   1      32.725  26.443  25.751  1.00  0.00     0.018 C 
ATOM     82  O   UNL A   1      33.830  24.697  24.613  1.00  0.00    -0.293 OA
ATOM     83  C   UNL A   1      31.617  26.699  26.471  1.00  0.00     0.047 C 
ATOM     84  C   UNL A   1      33.904  27.362  25.647  1.00  0.00     0.041 C 
ATOM     85  C   UNL A   1      31.516  27.949  27.324  1.00  0.00     0.056 C 
ATOM     86  C   UNL A   1      33.546  28.781  26.090  1.00  0.00     0.005 C 
ATOM     87  C   UNL A   1      32.806  28.762  27.422  1.00  0.00     0.007 C 
ENDBRANCH  75  77
ENDBRANCH  74  75
ENDBRANCH  73  74
ENDBRANCH  72  73
ENDBRANCH  71  72
ENDBRANCH  70  71
ENDBRANCH  69  70
ENDBRANCH   1  69
TORSDOF 20
ENDMDL
MODEL 3
REMARK VINA RESULT:      -9.3      3.789      9.262
REMARK SMILES O=C(OCCOCCOCCOC(=O)[C@H]1C=NC2=C(CCCC2)C1=O)c1ccc(-c2c3nc(c(-c4ccc(S(=O)(=O)[O-])cc4)c4ccc([nH]4)c(-c4ccc(S(=O)(=O)[O-])cc4)c4nc(c(-c5ccc(S(=O)(=O)[O-])cc5)c5ccc2[nH]5)C=C4)C=C3)cc1
REMARK SMILES IDX 6 1 5 2 4 3 3 4 2 5 1 6 26 7 27 8 85 9 28 10 84 11 29 12
REMARK SMILES IDX 30 13 31 14 78 15 32 16 83 17 77 18 79 19 33 20 82 21 76 22
REMARK SMILES IDX 75 23 34 25 64 26 45 27 63 28 46 29 49 30 62 31 80 32 47 33
REMARK SMILES IDX 48 34 61 36 81 37 50 38 35 39 36 40 44 41 37 42 43 43 38 44
REMARK SMILES IDX 39 45 40 46 41 47 42 48 65 49 66 50 74 51 67 52 73 53 68 54
REMARK SMILES IDX 69 55 70 56 71 57 72 58 51 59 52 60 60 61 53 62 59 63 54 64
REMARK SMILES IDX 55 65 56 66 57 67 58 68 7 69 8 70 9 71 10 72 11 73 12 74
REMARK SMILES IDX 13 75 14 76 15 77 16 78 24 79 17 80 19 81 25 82 18 83 20 84
REMARK SMILES IDX 23 85 21 86 22 87
REMARK H PARENT 79 24 49 35
REMARK Flexibility Score: inf
ROOT
ATOM      1  O   UNL A   1      41.884  20.161  27.611  1.00  0.00    -0.376 OA
ENDROOT
BRANCH   1   2
ATOM      2  C   UNL A   1      42.403  18.843  27.382  1.00  0.00     0.202 C 
BRANCH   2   3
ATOM      3  C   UNL A   1      42.756  18.458  25.924  1.00  0.00     0.261 C 
BRANCH   3   4
ATOM      4  O   UNL A   1      44.021  18.949  25.446  1.00  0.00    -0.460 OA
BRANCH   4   5
ATOM      5  C   UNL A   1      44.288  19.992  24.618  1.00  0.00     0.338 C 
ATOM      6  O   UNL A   1      44.526  19.741  23.437  1.00  0.00    -0.246 OA
BRANCH   5   7
ATOM      7  C   UNL A   1      44.384  21.418  25.068  1.00  0.00     0.060 A 
ATOM      8  C   UNL A   1      44.219  22.531  24.245  1.00  0.00     0.016 A 
ATOM      9  C   UNL A   1      44.619  21.654  26.435  1.00  0.00     0.016 A 
ATOM     10  C   UNL A   1      44.383  23.826  24.716  1.00  0.00     0.010 A 
ATOM     11  C   UNL A   1      44.745  22.958  26.931  1.00  0.00     0.010 A 
ATOM     12  C   UNL A   1      44.672  24.049  26.054  1.00  0.00    -0.014 A 
BRANCH  12  13
ATOM     13  C   UNL A   1      45.105  25.402  26.455  1.00  0.00     0.031 A 
ATOM     14  C   UNL A   1      44.042  26.361  26.910  1.00  0.00     0.074 A 
ATOM     15  C   UNL A   1      46.409  25.718  26.559  1.00  0.00     0.049 A 
ATOM     16  N   UNL A   1      44.152  27.614  27.254  1.00  0.00    -0.248 NA
ATOM     17  C   UNL A   1      42.676  25.818  27.037  1.00  0.00     0.031 C 
ATOM     18  C   UNL A   1      47.529  24.799  26.342  1.00  0.00     0.029 A 
ATOM     19  N   UNL A   1      47.018  26.907  26.862  1.00  0.00    -0.354 N 
ATOM     20  C   UNL A   1      42.882  27.999  27.665  1.00  0.00     0.074 A 
ATOM     21  C   UNL A   1      42.001  26.872  27.470  1.00  0.00     0.031 C 
ATOM     22  C   UNL A   1      48.685  25.479  26.440  1.00  0.00     0.029 A 
ATOM     23  C   UNL A   1      48.381  26.881  26.677  1.00  0.00     0.049 A 
ATOM     24  H   UNL A   1      46.529  27.701  27.180  1.00  0.00     0.167 HD
ATOM     25  C   UNL A   1      42.498  29.184  28.190  1.00  0.00     0.031 A 
ATOM     26  C   UNL A   1      49.262  27.896  26.624  1.00  0.00     0.031 A 
ATOM     27  C   UNL A   1      43.390  30.298  28.340  1.00  0.00     0.049 A 
ATOM     28  C   UNL A   1      48.760  29.276  26.914  1.00  0.00     0.074 A 
ATOM     29  C   UNL A   1      43.126  31.560  28.833  1.00  0.00     0.029 A 
ATOM     30  N   UNL A   1      44.730  30.277  27.975  1.00  0.00    -0.354 N 
ATOM     31  N   UNL A   1      47.545  29.655  27.228  1.00  0.00    -0.248 NA
ATOM     32  C   UNL A   1      49.751  30.355  26.873  1.00  0.00     0.031 C 
ATOM     33  C   UNL A   1      44.292  32.324  28.705  1.00  0.00     0.029 A 
ATOM     34  C   UNL A   1      45.299  31.516  28.196  1.00  0.00     0.049 A 
ATOM     35  H   UNL A   1      45.205  29.495  27.612  1.00  0.00     0.167 HD
ATOM     36  C   UNL A   1      47.636  31.014  27.489  1.00  0.00     0.074 A 
ATOM     37  C   UNL A   1      49.017  31.392  27.253  1.00  0.00     0.031 C 
ATOM     38  C   UNL A   1      46.674  31.860  27.931  1.00  0.00     0.031 A 
BRANCH  25  39
ATOM     39  C   UNL A   1      41.053  29.327  28.585  1.00  0.00    -0.014 A 
ATOM     40  C   UNL A   1      40.027  29.321  27.620  1.00  0.00     0.010 A 
ATOM     41  C   UNL A   1      40.716  29.489  29.940  1.00  0.00     0.010 A 
ATOM     42  C   UNL A   1      38.696  29.517  28.001  1.00  0.00     0.020 A 
ATOM     43  C   UNL A   1      39.383  29.660  30.326  1.00  0.00     0.020 A 
ATOM     44  C   UNL A   1      38.384  29.691  29.352  1.00  0.00     0.054 A 
BRANCH  44  45
ATOM     45  S   UNL A   1      36.649  29.942  29.818  1.00  0.00     0.124 S 
ATOM     46  O   UNL A   1      35.946  29.474  28.627  1.00  0.00    -0.237 OA
ATOM     47  O   UNL A   1      36.511  29.097  31.001  1.00  0.00    -0.237 OA
ATOM     48  O   UNL A   1      36.560  31.378  30.069  1.00  0.00    -0.744 OA
ENDBRANCH  44  45
ENDBRANCH  25  39
BRANCH  26  49
ATOM     49  C   UNL A   1      50.655  27.674  26.159  1.00  0.00    -0.014 A 
ATOM     50  C   UNL A   1      51.709  27.416  27.049  1.00  0.00     0.010 A 
ATOM     51  C   UNL A   1      50.925  27.743  24.781  1.00  0.00     0.010 A 
ATOM     52  C   UNL A   1      53.007  27.208  26.562  1.00  0.00     0.020 A 
ATOM     53  C   UNL A   1      52.214  27.522  24.292  1.00  0.00     0.020 A 
ATOM     54  C   UNL A   1      53.250  27.257  25.185  1.00  0.00     0.054 A 
BRANCH  54  55
ATOM     55  S   UNL A   1      54.913  26.904  24.546  1.00  0.00     0.124 S 
ATOM     56  O   UNL A   1      54.966  25.448  24.632  1.00  0.00    -0.237 OA
ATOM     57  O   UNL A   1      54.867  27.456  23.195  1.00  0.00    -0.237 OA
ATOM     58  O   UNL A   1      55.784  27.621  25.475  1.00  0.00    -0.744 OA
ENDBRANCH  54  55
ENDBRANCH  26  49
BRANCH  38  59
ATOM     59  C   UNL A   1      47.112  33.255  28.262  1.00  0.00    -0.014 A 
ATOM     60  C   UNL A   1      47.622  33.587  29.526  1.00  0.00     0.010 A 
ATOM     61  C   UNL A   1      47.036  34.240  27.259  1.00  0.00     0.010 A 
ATOM     62  C   UNL A   1      48.025  34.896  29.792  1.00  0.00     0.020 A 
ATOM     63  C   UNL A   1      47.469  35.539  27.511  1.00  0.00     0.020 A 
ATOM     64  C   UNL A   1      47.949  35.862  28.782  1.00  0.00     0.054 A 
BRANCH  64  65
ATOM     65  S   UNL A   1      48.529  37.540  29.135  1.00  0.00     0.124 S 
ATOM     66  O   UNL A   1      49.235  37.357  30.400  1.00  0.00    -0.237 OA
ATOM     67  O   UNL A   1      49.373  37.835  27.980  1.00  0.00    -0.237 OA
ATOM     68  O   UNL A   1      47.298  38.323  29.215  1.00  0.00    -0.744 OA
ENDBRANCH  64  65
ENDBRANCH  38  59
ENDBRANCH  12  13
ENDBRANCH   5   7
ENDBRANCH   4   5
ENDBRANCH   3   4
ENDBRANCH   2   3
ENDBRANCH   1   2
BRANCH   1  69
ATOM     69  C   UNL A   1      40.946  20.585  26.623  1.00  0.00     0.188 C 
BRANCH  69  70
ATOM     70  C   UNL A   1      40.861  22.091  26.390  1.00  0.00     0.188 C 
BRANCH  70  71
ATOM     71  O   UNL A   1      40.080  22.879  27.271  1.00  0.00    -0.376 OA
BRANCH  71  72
ATOM     72  C   UNL A   1      39.129  23.772  26.711  1.00  0.00     0.202 C 
BRANCH  72  73
ATOM     73  C   UNL A   1      37.907  23.254  25.922  1.00  0.00     0.261 C 
BRANCH  73  74
ATOM     74  O   UNL A   1      36.601  23.537  26.440  1.00  0.00    -0.462 OA
BRANCH  74  75
ATOM     75  C   UNL A   1      35.566  23.042  25.709  1.00  0.00     0.322 C 
ATOM     76  O   UNL A   1      35.001  21.976  25.947  1.00  0.00    -0.251 OA
BRANCH  75  77
ATOM     77  C   UNL A   1      35.163  23.956  24.588  1.00  0.00     0.212 C 
ATOM     78  C   UNL A   1      34.909  23.282  23.277  1.00  0.00     0.107 C 
ATOM     79  C   UNL A   1      34.014  24.843  24.955  1.00  0.00     0.180 C 
ATOM     80  N   UNL A   1      34.089  23.710  22.369  1.00  0.00    -0.264 NA
ATOM     81  C   UNL A   1      33.276  25.457  23.825  1.00  0.00     0.018 C 
ATOM     82  O   UNL A   1      33.714  25.103  26.116  1.00  0.00    -0.293 OA
ATOM     83  C   UNL A   1      33.363  24.849  22.628  1.00  0.00     0.047 C 
ATOM     84  C   UNL A   1      32.509  26.717  24.086  1.00  0.00     0.041 C 
ATOM     85  C   UNL A   1      32.596  25.375  21.430  1.00  0.00     0.056 C 
ATOM     86  C   UNL A   1      32.195  27.458  22.786  1.00  0.00     0.005 C 
ATOM     87  C   UNL A   1      31.618  26.506  21.746  1.00  0.00     0.007 C 
ENDBRANCH  75  77
ENDBRANCH  74  75
ENDBRANCH  73  74
ENDBRANCH  72  73
ENDBRANCH  71  72
ENDBRANCH  70  71
ENDBRANCH  69  70
ENDBRANCH   1  69
TORSDOF 20
ENDMDL
