MODEL 1
REMARK VINA RESULT:     -10.0      0.000      0.000
REMARK SMILES O=C(C[C@@H](NS(=O)(=O)c1ccc2c(c1)OCCO2)c1ccccc1)OCCOCCOCCOC(=O)c1ccc(-c2c3nc(c(-c4ccc(S(=O)(=O)[O-])cc4)c4ccc([nH]4)c(-c4ccc(S(=O)(=O)[O-])cc4)c4nc(c(-c5ccc(S(=O)(=O)[O-])cc5)c5ccc2[nH]5)C=C4)C=C3)cc1
REMARK SMILES IDX 29 1 28 2 27 3 26 4 25 5 2 6 1 7 3 8 4 9 5 10 6 12 7 13 8 14
REMARK SMILES IDX 9 15 10 16 14 17 11 18 13 19 12 20 15 21 18 22 16 23 17 24
REMARK SMILES IDX 19 25 20 26 24 27 21 28 23 29 22 30 30 31 31 32 32 33 33 34
REMARK SMILES IDX 34 35 35 36 36 37 37 38 38 39 96 40 39 41 95 42 40 43 41 44
REMARK SMILES IDX 42 45 89 46 43 47 94 48 88 49 90 50 44 51 93 52 87 53 86 54
REMARK SMILES IDX 45 56 75 57 56 58 74 59 57 60 60 61 73 62 91 63 58 64 59 65
REMARK SMILES IDX 72 67 92 68 61 69 46 70 47 71 55 72 48 73 54 74 49 75 50 76
REMARK SMILES IDX 51 77 52 78 53 79 76 80 77 81 85 82 78 83 84 84 79 85 80 86
REMARK SMILES IDX 81 87 82 88 83 89 62 90 63 91 71 92 64 93 70 94 65 95 66 96
REMARK SMILES IDX 67 97 68 98 69 99
REMARK H PARENT 5 11 90 55 60 66
REMARK Flexibility Score: inf
ROOT
ATOM      1  C   UNL A   1      36.286  21.407  25.765  1.00  0.00     0.188 C 
ENDROOT
BRANCH   1   2
ATOM      2  O   UNL A   1      35.879  22.763  25.755  1.00  0.00    -0.376 OA
BRANCH   2   3
ATOM      3  C   UNL A   1      35.235  23.316  26.903  1.00  0.00     0.202 C 
BRANCH   3   4
ATOM      4  C   UNL A   1      34.095  22.549  27.593  1.00  0.00     0.261 C 
BRANCH   4   5
ATOM      5  O   UNL A   1      33.174  21.870  26.694  1.00  0.00    -0.463 OA
BRANCH   5   6
ATOM      6  C   UNL A   1      32.078  22.510  26.210  1.00  0.00     0.307 C 
ATOM      7  O   UNL A   1      31.683  23.570  26.676  1.00  0.00    -0.252 OA
BRANCH   6   8
ATOM      8  C   UNL A   1      31.399  21.790  25.069  1.00  0.00     0.147 C 
BRANCH   8   9
ATOM      9  C   UNL A   1      32.269  21.560  23.808  1.00  0.00     0.111 C 
BRANCH   9  10
ATOM     10  N   UNL A   1      33.495  22.390  23.883  1.00  0.00    -0.203 NA
ATOM     11  H   UNL A   1      34.281  21.744  23.809  1.00  0.00     0.142 HD
BRANCH  10  12
ATOM     12  S   UNL A   1      33.806  23.628  22.801  1.00  0.00     0.241 S 
ATOM     13  O   UNL A   1      35.235  23.826  22.757  1.00  0.00    -0.207 OA
ATOM     14  O   UNL A   1      33.056  23.266  21.614  1.00  0.00    -0.207 OA
BRANCH  12  15
ATOM     15  C   UNL A   1      33.022  25.051  23.475  1.00  0.00     0.086 A 
ATOM     16  C   UNL A   1      33.471  25.634  24.665  1.00  0.00     0.026 A 
ATOM     17  C   UNL A   1      32.021  25.649  22.712  1.00  0.00     0.072 A 
ATOM     18  C   UNL A   1      32.972  26.880  25.046  1.00  0.00     0.052 A 
ATOM     19  C   UNL A   1      31.535  26.889  23.098  1.00  0.00     0.162 A 
ATOM     20  C   UNL A   1      32.018  27.515  24.252  1.00  0.00     0.161 A 
ATOM     21  O   UNL A   1      30.609  27.463  22.268  1.00  0.00    -0.486 OA
ATOM     22  O   UNL A   1      31.636  28.771  24.643  1.00  0.00    -0.486 OA
ATOM     23  C   UNL A   1      30.686  28.887  22.381  1.00  0.00     0.271 C 
ATOM     24  C   UNL A   1      30.577  29.303  23.839  1.00  0.00     0.271 C 
ENDBRANCH  12  15
ENDBRANCH  10  12
ENDBRANCH   9  10
BRANCH   9  25
ATOM     25  C   UNL A   1      32.600  20.078  23.641  1.00  0.00    -0.029 A 
ATOM     26  C   UNL A   1      33.400  19.363  24.555  1.00  0.00     0.005 A 
ATOM     27  C   UNL A   1      32.160  19.401  22.491  1.00  0.00     0.005 A 
ATOM     28  C   UNL A   1      33.736  18.024  24.332  1.00  0.00     0.000 A 
ATOM     29  C   UNL A   1      32.510  18.066  22.262  1.00  0.00     0.000 A 
ATOM     30  C   UNL A   1      33.293  17.378  23.184  1.00  0.00     0.000 A 
ENDBRANCH   9  25
ENDBRANCH   8   9
ENDBRANCH   6   8
ENDBRANCH   5   6
ENDBRANCH   4   5
ENDBRANCH   3   4
ENDBRANCH   2   3
ENDBRANCH   1   2
BRANCH   1  31
ATOM     31  C   UNL A   1      37.661  21.146  25.144  1.00  0.00     0.188 C 
BRANCH  31  32
ATOM     32  O   UNL A   1      37.914  19.825  24.685  1.00  0.00    -0.376 OA
BRANCH  32  33
ATOM     33  C   UNL A   1      38.812  19.014  25.450  1.00  0.00     0.202 C 
BRANCH  33  34
ATOM     34  C   UNL A   1      40.025  19.682  26.113  1.00  0.00     0.261 C 
BRANCH  34  35
ATOM     35  O   UNL A   1      41.245  19.470  25.373  1.00  0.00    -0.460 OA
BRANCH  35  36
ATOM     36  C   UNL A   1      42.388  19.699  26.064  1.00  0.00     0.338 C 
ATOM     37  O   UNL A   1      43.295  18.908  26.268  1.00  0.00    -0.246 OA
BRANCH  36  38
ATOM     38  C   UNL A   1      42.484  21.112  26.464  1.00  0.00     0.060 A 
ATOM     39  C   UNL A   1      42.595  22.087  25.463  1.00  0.00     0.016 A 
ATOM     40  C   UNL A   1      42.664  21.446  27.807  1.00  0.00     0.016 A 
ATOM     41  C   UNL A   1      42.938  23.399  25.800  1.00  0.00     0.010 A 
ATOM     42  C   UNL A   1      43.024  22.754  28.139  1.00  0.00     0.010 A 
ATOM     43  C   UNL A   1      43.206  23.723  27.135  1.00  0.00    -0.014 A 
BRANCH  43  44
ATOM     44  C   UNL A   1      43.864  25.004  27.490  1.00  0.00     0.031 A 
ATOM     45  C   UNL A   1      43.013  26.136  27.993  1.00  0.00     0.074 A 
ATOM     46  C   UNL A   1      45.182  25.185  27.306  1.00  0.00     0.049 A 
ATOM     47  N   UNL A   1      43.332  27.388  28.192  1.00  0.00    -0.248 NA
ATOM     48  C   UNL A   1      41.613  25.809  28.310  1.00  0.00     0.031 C 
ATOM     49  C   UNL A   1      46.126  24.154  26.882  1.00  0.00     0.029 A 
ATOM     50  N   UNL A   1      45.945  26.320  27.418  1.00  0.00    -0.354 N 
ATOM     51  C   UNL A   1      42.169  28.006  28.637  1.00  0.00     0.074 A 
ATOM     52  C   UNL A   1      41.137  26.992  28.670  1.00  0.00     0.031 C 
ATOM     53  C   UNL A   1      47.336  24.716  26.717  1.00  0.00     0.029 A 
ATOM     54  C   UNL A   1      47.239  26.150  26.990  1.00  0.00     0.049 A 
ATOM     55  H   UNL A   1      45.599  27.173  27.770  1.00  0.00     0.167 HD
ATOM     56  C   UNL A   1      41.974  29.303  28.979  1.00  0.00     0.031 A 
ATOM     57  C   UNL A   1      48.221  27.054  26.796  1.00  0.00     0.031 A 
ATOM     58  C   UNL A   1      42.993  30.315  28.917  1.00  0.00     0.049 A 
ATOM     59  C   UNL A   1      47.970  28.506  27.101  1.00  0.00     0.074 A 
ATOM     60  C   UNL A   1      42.898  31.655  29.250  1.00  0.00     0.029 A 
ATOM     61  N   UNL A   1      44.291  30.101  28.480  1.00  0.00    -0.354 N 
ATOM     62  N   UNL A   1      46.871  29.077  27.534  1.00  0.00    -0.248 NA
ATOM     63  C   UNL A   1      49.091  29.434  26.899  1.00  0.00     0.031 C 
ATOM     64  C   UNL A   1      44.128  32.262  28.967  1.00  0.00     0.029 A 
ATOM     65  C   UNL A   1      45.002  31.289  28.509  1.00  0.00     0.049 A 
ATOM     66  H   UNL A   1      44.654  29.233  28.190  1.00  0.00     0.167 HD
ATOM     67  C   UNL A   1      47.177  30.426  27.686  1.00  0.00     0.074 A 
ATOM     68  C   UNL A   1      48.563  30.586  27.295  1.00  0.00     0.031 C 
ATOM     69  C   UNL A   1      46.383  31.435  28.122  1.00  0.00     0.031 A 
BRANCH  56  70
ATOM     70  C   UNL A   1      40.584  29.697  29.393  1.00  0.00    -0.014 A 
ATOM     71  C   UNL A   1      39.557  29.858  28.444  1.00  0.00     0.010 A 
ATOM     72  C   UNL A   1      40.304  29.927  30.752  1.00  0.00     0.010 A 
ATOM     73  C   UNL A   1      38.292  30.300  28.841  1.00  0.00     0.020 A 
ATOM     74  C   UNL A   1      39.033  30.344  31.155  1.00  0.00     0.020 A 
ATOM     75  C   UNL A   1      38.043  30.554  30.193  1.00  0.00     0.054 A 
BRANCH  75  76
ATOM     76  S   UNL A   1      36.404  31.155  30.683  1.00  0.00     0.124 S 
ATOM     77  O   UNL A   1      35.707  29.908  30.986  1.00  0.00    -0.237 OA
ATOM     78  O   UNL A   1      36.700  32.003  31.834  1.00  0.00    -0.237 OA
ATOM     79  O   UNL A   1      35.926  31.864  29.498  1.00  0.00    -0.744 OA
ENDBRANCH  75  76
ENDBRANCH  56  70
BRANCH  57  80
ATOM     80  C   UNL A   1      49.524  26.597  26.245  1.00  0.00    -0.014 A 
ATOM     81  C   UNL A   1      49.833  26.779  24.887  1.00  0.00     0.010 A 
ATOM     82  C   UNL A   1      50.487  26.027  27.098  1.00  0.00     0.010 A 
ATOM     83  C   UNL A   1      51.089  26.410  24.394  1.00  0.00     0.020 A 
ATOM     84  C   UNL A   1      51.749  25.675  26.614  1.00  0.00     0.020 A 
ATOM     85  C   UNL A   1      52.042  25.869  25.262  1.00  0.00     0.054 A 
BRANCH  85  86
ATOM     86  S   UNL A   1      53.700  25.494  24.628  1.00  0.00     0.124 S 
ATOM     87  O   UNL A   1      54.551  26.267  25.527  1.00  0.00    -0.237 OA
ATOM     88  O   UNL A   1      53.776  24.043  24.774  1.00  0.00    -0.237 OA
ATOM     89  O   UNL A   1      53.650  25.970  23.247  1.00  0.00    -0.744 OA
ENDBRANCH  85  86
ENDBRANCH  57  80
BRANCH  69  90
ATOM     90  C   UNL A   1      46.994  32.805  28.248  1.00  0.00    -0.014 A 
ATOM     91  C   UNL A   1      47.064  33.679  27.149  1.00  0.00     0.010 A 
ATOM     92  C   UNL A   1      47.418  33.256  29.512  1.00  0.00     0.010 A 
ATOM     93  C   UNL A   1      47.558  34.977  27.312  1.00  0.00     0.020 A 
ATOM     94  C   UNL A   1      47.893  34.559  29.682  1.00  0.00     0.020 A 
ATOM     95  C   UNL A   1      47.966  35.410  28.578  1.00  0.00     0.054 A 
BRANCH  95  96
ATOM     96  S   UNL A   1      48.533  37.122  28.780  1.00  0.00     0.124 S 
ATOM     97  O   UNL A   1      48.950  37.466  27.424  1.00  0.00    -0.237 OA
ATOM     98  O   UNL A   1      47.335  37.804  29.262  1.00  0.00    -0.237 OA
ATOM     99  O   UNL A   1      49.615  37.014  29.757  1.00  0.00    -0.744 OA
ENDBRANCH  95  96
ENDBRANCH  69  90
ENDBRANCH  43  44
ENDBRANCH  36  38
ENDBRANCH  35  36
ENDBRANCH  34  35
ENDBRANCH  33  34
ENDBRANCH  32  33
ENDBRANCH  31  32
ENDBRANCH   1  31
TORSDOF 25
ENDMDL
MODEL 2
REMARK VINA RESULT:      -9.2      2.502      9.148
REMARK SMILES O=C(C[C@@H](NS(=O)(=O)c1ccc2c(c1)OCCO2)c1ccccc1)OCCOCCOCCOC(=O)c1ccc(-c2c3nc(c(-c4ccc(S(=O)(=O)[O-])cc4)c4ccc([nH]4)c(-c4ccc(S(=O)(=O)[O-])cc4)c4nc(c(-c5ccc(S(=O)(=O)[O-])cc5)c5ccc2[nH]5)C=C4)C=C3)cc1
REMARK SMILES IDX 29 1 28 2 27 3 26 4 25 5 2 6 1 7 3 8 4 9 5 10 6 12 7 13 8 14
REMARK SMILES IDX 9 15 10 16 14 17 11 18 13 19 12 20 15 21 18 22 16 23 17 24
REMARK SMILES IDX 19 25 20 26 24 27 21 28 23 29 22 30 30 31 31 32 32 33 33 34
REMARK SMILES IDX 34 35 35 36 36 37 37 38 38 39 96 40 39 41 95 42 40 43 41 44
REMARK SMILES IDX 42 45 89 46 43 47 94 48 88 49 90 50 44 51 93 52 87 53 86 54
REMARK SMILES IDX 45 56 75 57 56 58 74 59 57 60 60 61 73 62 91 63 58 64 59 65
REMARK SMILES IDX 72 67 92 68 61 69 46 70 47 71 55 72 48 73 54 74 49 75 50 76
REMARK SMILES IDX 51 77 52 78 53 79 76 80 77 81 85 82 78 83 84 84 79 85 80 86
REMARK SMILES IDX 81 87 82 88 83 89 62 90 63 91 71 92 64 93 70 94 65 95 66 96
REMARK SMILES IDX 67 97 68 98 69 99
REMARK H PARENT 5 11 90 55 60 66
REMARK Flexibility Score: inf
ROOT
ATOM      1  C   UNL A   1      34.798  30.863  27.590  1.00  0.00     0.188 C 
ENDROOT
BRANCH   1   2
ATOM      2  O   UNL A   1      33.635  31.623  27.318  1.00  0.00    -0.376 OA
BRANCH   2   3
ATOM      3  C   UNL A   1      32.371  30.967  27.216  1.00  0.00     0.202 C 
BRANCH   3   4
ATOM      4  C   UNL A   1      31.946  30.312  25.892  1.00  0.00     0.261 C 
BRANCH   4   5
ATOM      5  O   UNL A   1      32.303  28.908  25.754  1.00  0.00    -0.463 OA
BRANCH   5   6
ATOM      6  C   UNL A   1      33.006  28.474  24.675  1.00  0.00     0.307 C 
ATOM      7  O   UNL A   1      33.930  27.678  24.776  1.00  0.00    -0.252 OA
BRANCH   6   8
ATOM      8  C   UNL A   1      32.551  29.069  23.364  1.00  0.00     0.147 C 
BRANCH   8   9
ATOM      9  C   UNL A   1      31.624  28.173  22.505  1.00  0.00     0.111 C 
BRANCH   9  10
ATOM     10  N   UNL A   1      31.882  26.745  22.809  1.00  0.00    -0.203 NA
ATOM     11  H   UNL A   1      30.969  26.291  22.836  1.00  0.00     0.142 HD
BRANCH  10  12
ATOM     12  S   UNL A   1      32.850  25.784  21.840  1.00  0.00     0.241 S 
ATOM     13  O   UNL A   1      32.059  25.355  20.712  1.00  0.00    -0.207 OA
ATOM     14  O   UNL A   1      34.063  26.559  21.661  1.00  0.00    -0.207 OA
BRANCH  12  15
ATOM     15  C   UNL A   1      33.283  24.398  22.833  1.00  0.00     0.086 A 
ATOM     16  C   UNL A   1      32.451  23.276  22.918  1.00  0.00     0.026 A 
ATOM     17  C   UNL A   1      34.543  24.408  23.426  1.00  0.00     0.072 A 
ATOM     18  C   UNL A   1      32.929  22.117  23.530  1.00  0.00     0.052 A 
ATOM     19  C   UNL A   1      35.009  23.249  24.028  1.00  0.00     0.162 A 
ATOM     20  C   UNL A   1      34.215  22.098  24.069  1.00  0.00     0.161 A 
ATOM     21  O   UNL A   1      36.284  23.294  24.526  1.00  0.00    -0.486 OA
ATOM     22  O   UNL A   1      34.646  20.903  24.578  1.00  0.00    -0.486 OA
ATOM     23  C   UNL A   1      36.851  21.981  24.503  1.00  0.00     0.271 C 
ATOM     24  C   UNL A   1      35.929  20.999  25.208  1.00  0.00     0.271 C 
ENDBRANCH  12  15
ENDBRANCH  10  12
ENDBRANCH   9  10
BRANCH   9  25
ATOM     25  C   UNL A   1      30.158  28.541  22.724  1.00  0.00    -0.029 A 
ATOM     26  C   UNL A   1      29.224  27.658  23.305  1.00  0.00     0.005 A 
ATOM     27  C   UNL A   1      29.684  29.781  22.264  1.00  0.00     0.005 A 
ATOM     28  C   UNL A   1      27.876  28.007  23.427  1.00  0.00     0.000 A 
ATOM     29  C   UNL A   1      28.332  30.122  22.374  1.00  0.00     0.000 A 
ATOM     30  C   UNL A   1      27.430  29.238  22.959  1.00  0.00     0.000 A 
ENDBRANCH   9  25
ENDBRANCH   8   9
ENDBRANCH   6   8
ENDBRANCH   5   6
ENDBRANCH   4   5
ENDBRANCH   3   4
ENDBRANCH   2   3
ENDBRANCH   1   2
BRANCH   1  31
ATOM     31  C   UNL A   1      35.869  31.599  28.401  1.00  0.00     0.188 C 
BRANCH  31  32
ATOM     32  O   UNL A   1      35.669  31.670  29.807  1.00  0.00    -0.376 OA
BRANCH  32  33
ATOM     33  C   UNL A   1      36.639  31.038  30.650  1.00  0.00     0.202 C 
BRANCH  33  34
ATOM     34  C   UNL A   1      36.726  29.506  30.651  1.00  0.00     0.261 C 
BRANCH  34  35
ATOM     35  O   UNL A   1      38.018  29.026  30.223  1.00  0.00    -0.460 OA
BRANCH  35  36
ATOM     36  C   UNL A   1      38.132  28.775  28.897  1.00  0.00     0.338 C 
ATOM     37  O   UNL A   1      37.264  28.353  28.151  1.00  0.00    -0.246 OA
BRANCH  36  38
ATOM     38  C   UNL A   1      39.449  29.199  28.395  1.00  0.00     0.060 A 
ATOM     39  C   UNL A   1      39.716  29.077  27.024  1.00  0.00     0.016 A 
ATOM     40  C   UNL A   1      40.467  29.523  29.292  1.00  0.00     0.016 A 
ATOM     41  C   UNL A   1      41.021  29.228  26.549  1.00  0.00     0.010 A 
ATOM     42  C   UNL A   1      41.774  29.657  28.817  1.00  0.00     0.010 A 
ATOM     43  C   UNL A   1      42.063  29.466  27.453  1.00  0.00    -0.014 A 
BRANCH  43  44
ATOM     44  C   UNL A   1      43.479  29.327  27.036  1.00  0.00     0.031 A 
ATOM     45  C   UNL A   1      43.980  27.970  26.626  1.00  0.00     0.074 A 
ATOM     46  C   UNL A   1      44.326  30.368  27.084  1.00  0.00     0.049 A 
ATOM     47  N   UNL A   1      45.203  27.571  26.399  1.00  0.00    -0.248 NA
ATOM     48  C   UNL A   1      42.959  26.923  26.454  1.00  0.00     0.031 C 
ATOM     49  C   UNL A   1      43.957  31.744  27.405  1.00  0.00     0.029 A 
ATOM     50  N   UNL A   1      45.685  30.415  26.897  1.00  0.00    -0.354 N 
ATOM     51  C   UNL A   1      45.106  26.222  26.077  1.00  0.00     0.074 A 
ATOM     52  C   UNL A   1      43.704  25.870  26.148  1.00  0.00     0.031 C 
ATOM     53  C   UNL A   1      45.071  32.494  27.447  1.00  0.00     0.029 A 
ATOM     54  C   UNL A   1      46.232  31.641  27.189  1.00  0.00     0.049 A 
ATOM     55  H   UNL A   1      46.215  29.646  26.585  1.00  0.00     0.167 HD
ATOM     56  C   UNL A   1      46.094  25.351  25.760  1.00  0.00     0.031 A 
ATOM     57  C   UNL A   1      47.522  32.021  27.284  1.00  0.00     0.031 A 
ATOM     58  C   UNL A   1      47.490  25.695  25.720  1.00  0.00     0.049 A 
ATOM     59  C   UNL A   1      48.616  31.025  27.010  1.00  0.00     0.074 A 
ATOM     60  C   UNL A   1      48.567  24.887  25.402  1.00  0.00     0.029 A 
ATOM     61  N   UNL A   1      48.002  26.948  26.021  1.00  0.00    -0.354 N 
ATOM     62  N   UNL A   1      48.512  29.756  26.693  1.00  0.00    -0.248 NA
ATOM     63  C   UNL A   1      50.000  31.512  27.098  1.00  0.00     0.031 C 
ATOM     64  C   UNL A   1      49.737  25.641  25.558  1.00  0.00     0.029 A 
ATOM     65  C   UNL A   1      49.383  26.931  25.921  1.00  0.00     0.049 A 
ATOM     66  H   UNL A   1      47.464  27.734  26.269  1.00  0.00     0.167 HD
ATOM     67  C   UNL A   1      49.815  29.300  26.514  1.00  0.00     0.074 A 
ATOM     68  C   UNL A   1      50.689  30.428  26.761  1.00  0.00     0.031 C 
ATOM     69  C   UNL A   1      50.243  28.061  26.165  1.00  0.00     0.031 A 
BRANCH  56  70
ATOM     70  C   UNL A   1      45.689  23.929  25.492  1.00  0.00    -0.014 A 
ATOM     71  C   UNL A   1      45.739  22.952  26.504  1.00  0.00     0.010 A 
ATOM     72  C   UNL A   1      45.268  23.558  24.203  1.00  0.00     0.010 A 
ATOM     73  C   UNL A   1      45.432  21.620  26.215  1.00  0.00     0.020 A 
ATOM     74  C   UNL A   1      44.936  22.232  23.916  1.00  0.00     0.020 A 
ATOM     75  C   UNL A   1      45.047  21.266  24.919  1.00  0.00     0.054 A 
BRANCH  75  76
ATOM     76  S   UNL A   1      44.682  19.527  24.557  1.00  0.00     0.124 S 
ATOM     77  O   UNL A   1      43.240  19.471  24.784  1.00  0.00    -0.237 OA
ATOM     78  O   UNL A   1      45.103  19.389  23.166  1.00  0.00    -0.237 OA
ATOM     79  O   UNL A   1      45.494  18.794  25.526  1.00  0.00    -0.744 OA
ENDBRANCH  75  76
ENDBRANCH  56  70
BRANCH  57  80
ATOM     80  C   UNL A   1      47.835  33.415  27.696  1.00  0.00    -0.014 A 
ATOM     81  C   UNL A   1      48.044  33.733  29.049  1.00  0.00     0.010 A 
ATOM     82  C   UNL A   1      47.983  34.420  26.723  1.00  0.00     0.010 A 
ATOM     83  C   UNL A   1      48.407  35.033  29.419  1.00  0.00     0.020 A 
ATOM     84  C   UNL A   1      48.364  35.713  27.087  1.00  0.00     0.020 A 
ATOM     85  C   UNL A   1      48.574  36.011  28.435  1.00  0.00     0.054 A 
BRANCH  85  86
ATOM     86  S   UNL A   1      49.149  37.662  28.923  1.00  0.00     0.124 S 
ATOM     87  O   UNL A   1      49.993  38.036  27.793  1.00  0.00    -0.237 OA
ATOM     88  O   UNL A   1      47.899  38.407  29.054  1.00  0.00    -0.237 OA
ATOM     89  O   UNL A   1      49.852  37.418  30.180  1.00  0.00    -0.744 OA
ENDBRANCH  85  86
ENDBRANCH  57  80
BRANCH  69  90
ATOM     90  C   UNL A   1      51.722  27.855  25.981  1.00  0.00    -0.014 A 
ATOM     91  C   UNL A   1      52.330  27.996  24.721  1.00  0.00     0.010 A 
ATOM     92  C   UNL A   1      52.529  27.609  27.108  1.00  0.00     0.010 A 
ATOM     93  C   UNL A   1      53.718  27.883  24.591  1.00  0.00     0.020 A 
ATOM     94  C   UNL A   1      53.917  27.517  26.985  1.00  0.00     0.020 A 
ATOM     95  C   UNL A   1      54.503  27.648  25.724  1.00  0.00     0.054 A 
BRANCH  95  96
ATOM     96  S   UNL A   1      56.307  27.580  25.544  1.00  0.00     0.124 S 
ATOM     97  O   UNL A   1      56.576  28.760  24.727  1.00  0.00    -0.237 OA
ATOM     98  O   UNL A   1      56.773  27.653  26.926  1.00  0.00    -0.237 OA
ATOM     99  O   UNL A   1      56.540  26.297  24.883  1.00  0.00    -0.744 OA
ENDBRANCH  95  96
ENDBRANCH  69  90
ENDBRANCH  43  44
ENDBRANCH  36  38
ENDBRANCH  35  36
ENDBRANCH  34  35
ENDBRANCH  33  34
ENDBRANCH  32  33
ENDBRANCH  31  32
ENDBRANCH   1  31
TORSDOF 25
ENDMDL
MODEL 3
REMARK VINA RESULT:      -8.8      2.418      9.456
REMARK SMILES O=C(C[C@@H](NS(=O)(=O)c1ccc2c(c1)OCCO2)c1ccccc1)OCCOCCOCCOC(=O)c1ccc(-c2c3nc(c(-c4ccc(S(=O)(=O)[O-])cc4)c4ccc([nH]4)c(-c4ccc(S(=O)(=O)[O-])cc4)c4nc(c(-c5ccc(S(=O)(=O)[O-])cc5)c5ccc2[nH]5)C=C4)C=C3)cc1
REMARK SMILES IDX 29 1 28 2 27 3 26 4 25 5 2 6 1 7 3 8 4 9 5 10 6 12 7 13 8 14
REMARK SMILES IDX 9 15 10 16 14 17 11 18 13 19 12 20 15 21 18 22 16 23 17 24
REMARK SMILES IDX 19 25 20 26 24 27 21 28 23 29 22 30 30 31 31 32 32 33 33 34
REMARK SMILES IDX 34 35 35 36 36 37 37 38 38 39 96 40 39 41 95 42 40 43 41 44
REMARK SMILES IDX 42 45 89 46 43 47 94 48 88 49 90 50 44 51 93 52 87 53 86 54
REMARK SMILES IDX 45 56 75 57 56 58 74 59 57 60 60 61 73 62 91 63 58 64 59 65
REMARK SMILES IDX 72 67 92 68 61 69 46 70 47 71 55 72 48 73 54 74 49 75 50 76
REMARK SMILES IDX 51 77 52 78 53 79 76 80 77 81 85 82 78 83 84 84 79 85 80 86
REMARK SMILES IDX 81 87 82 88 83 89 62 90 63 91 71 92 64 93 70 94 65 95 66 96
REMARK SMILES IDX 67 97 68 98 69 99
REMARK H PARENT 5 11 90 55 60 66
REMARK Flexibility Score: inf
ROOT
ATOM      1  C   UNL A   1      33.794  34.290  31.987  1.00  0.00     0.188 C 
ENDROOT
BRANCH   1   2
ATOM      2  O   UNL A   1      34.104  33.960  30.646  1.00  0.00    -0.376 OA
BRANCH   2   3
ATOM      3  C   UNL A   1      33.782  34.879  29.600  1.00  0.00     0.202 C 
BRANCH   3   4
ATOM      4  C   UNL A   1      33.653  34.384  28.151  1.00  0.00     0.261 C 
BRANCH   4   5
ATOM      5  O   UNL A   1      32.546  33.472  27.904  1.00  0.00    -0.463 OA
BRANCH   5   6
ATOM      6  C   UNL A   1      32.757  32.273  27.300  1.00  0.00     0.307 C 
ATOM      7  O   UNL A   1      33.815  31.667  27.403  1.00  0.00    -0.252 OA
BRANCH   6   8
ATOM      8  C   UNL A   1      31.581  31.776  26.493  1.00  0.00     0.147 C 
BRANCH   8   9
ATOM      9  C   UNL A   1      31.738  30.363  25.876  1.00  0.00     0.111 C 
BRANCH   9  10
ATOM     10  N   UNL A   1      31.423  29.332  26.893  1.00  0.00    -0.203 NA
ATOM     11  H   UNL A   1      30.646  28.789  26.516  1.00  0.00     0.142 HD
BRANCH  10  12
ATOM     12  S   UNL A   1      32.555  28.218  27.421  1.00  0.00     0.241 S 
ATOM     13  O   UNL A   1      33.800  28.918  27.627  1.00  0.00    -0.207 OA
ATOM     14  O   UNL A   1      31.894  27.517  28.504  1.00  0.00    -0.207 OA
BRANCH  12  15
ATOM     15  C   UNL A   1      32.727  27.062  26.106  1.00  0.00     0.086 A 
ATOM     16  C   UNL A   1      33.984  26.597  25.706  1.00  0.00     0.026 A 
ATOM     17  C   UNL A   1      31.558  26.531  25.567  1.00  0.00     0.072 A 
ATOM     18  C   UNL A   1      34.065  25.522  24.820  1.00  0.00     0.052 A 
ATOM     19  C   UNL A   1      31.649  25.460  24.690  1.00  0.00     0.162 A 
ATOM     20  C   UNL A   1      32.896  24.943  24.327  1.00  0.00     0.161 A 
ATOM     21  O   UNL A   1      30.464  24.931  24.253  1.00  0.00    -0.486 OA
ATOM     22  O   UNL A   1      33.051  23.841  23.529  1.00  0.00    -0.486 OA
ATOM     23  C   UNL A   1      30.648  23.547  23.940  1.00  0.00     0.271 C 
ATOM     24  C   UNL A   1      31.813  23.377  22.979  1.00  0.00     0.271 C 
ENDBRANCH  12  15
ENDBRANCH  10  12
ENDBRANCH   9  10
BRANCH   9  25
ATOM     25  C   UNL A   1      30.867  30.214  24.632  1.00  0.00    -0.029 A 
ATOM     26  C   UNL A   1      31.075  29.208  23.665  1.00  0.00     0.005 A 
ATOM     27  C   UNL A   1      29.855  31.157  24.384  1.00  0.00     0.005 A 
ATOM     28  C   UNL A   1      30.297  29.145  22.505  1.00  0.00     0.000 A 
ATOM     29  C   UNL A   1      29.088  31.101  23.215  1.00  0.00     0.000 A 
ATOM     30  C   UNL A   1      29.306  30.095  22.280  1.00  0.00     0.000 A 
ENDBRANCH   9  25
ENDBRANCH   8   9
ENDBRANCH   6   8
ENDBRANCH   5   6
ENDBRANCH   4   5
ENDBRANCH   3   4
ENDBRANCH   2   3
ENDBRANCH   1   2
BRANCH   1  31
ATOM     31  C   UNL A   1      34.208  33.235  33.017  1.00  0.00     0.188 C 
BRANCH  31  32
ATOM     32  O   UNL A   1      35.490  33.391  33.611  1.00  0.00    -0.376 OA
BRANCH  32  33
ATOM     33  C   UNL A   1      36.451  32.349  33.405  1.00  0.00     0.202 C 
BRANCH  33  34
ATOM     34  C   UNL A   1      36.676  31.827  31.979  1.00  0.00     0.261 C 
BRANCH  34  35
ATOM     35  O   UNL A   1      36.331  30.433  31.841  1.00  0.00    -0.460 OA
BRANCH  35  36
ATOM     36  C   UNL A   1      37.313  29.559  32.166  1.00  0.00     0.338 C 
ATOM     37  O   UNL A   1      37.221  28.590  32.903  1.00  0.00    -0.246 OA
BRANCH  36  38
ATOM     38  C   UNL A   1      38.540  29.842  31.406  1.00  0.00     0.060 A 
ATOM     39  C   UNL A   1      38.452  29.972  30.013  1.00  0.00     0.016 A 
ATOM     40  C   UNL A   1      39.783  29.781  32.038  1.00  0.00     0.016 A 
ATOM     41  C   UNL A   1      39.614  29.989  29.237  1.00  0.00     0.010 A 
ATOM     42  C   UNL A   1      40.942  29.781  31.259  1.00  0.00     0.010 A 
ATOM     43  C   UNL A   1      40.861  29.840  29.855  1.00  0.00    -0.014 A 
BRANCH  43  44
ATOM     44  C   UNL A   1      42.076  29.546  29.057  1.00  0.00     0.031 A 
ATOM     45  C   UNL A   1      42.292  28.143  28.563  1.00  0.00     0.074 A 
ATOM     46  C   UNL A   1      43.006  30.488  28.830  1.00  0.00     0.049 A 
ATOM     47  N   UNL A   1      43.350  27.611  28.010  1.00  0.00    -0.248 NA
ATOM     48  C   UNL A   1      41.160  27.214  28.721  1.00  0.00     0.031 C 
ATOM     49  C   UNL A   1      42.892  31.896  29.201  1.00  0.00     0.029 A 
ATOM     50  N   UNL A   1      44.252  30.385  28.263  1.00  0.00    -0.354 N 
ATOM     51  C   UNL A   1      43.023  26.282  27.771  1.00  0.00     0.074 A 
ATOM     52  C   UNL A   1      41.671  26.086  28.248  1.00  0.00     0.031 C 
ATOM     53  C   UNL A   1      44.044  32.518  28.901  1.00  0.00     0.029 A 
ATOM     54  C   UNL A   1      44.986  31.543  28.350  1.00  0.00     0.049 A 
ATOM     55  H   UNL A   1      44.587  29.563  27.837  1.00  0.00     0.167 HD
ATOM     56  C   UNL A   1      43.782  25.308  27.212  1.00  0.00     0.031 A 
ATOM     57  C   UNL A   1      46.282  31.779  28.062  1.00  0.00     0.031 A 
ATOM     58  C   UNL A   1      45.135  25.496  26.767  1.00  0.00     0.049 A 
ATOM     59  C   UNL A   1      47.140  30.669  27.519  1.00  0.00     0.074 A 
ATOM     60  C   UNL A   1      45.985  24.575  26.180  1.00  0.00     0.029 A 
ATOM     61  N   UNL A   1      45.842  26.685  26.871  1.00  0.00    -0.354 N 
ATOM     62  N   UNL A   1      46.816  29.420  27.284  1.00  0.00    -0.248 NA
ATOM     63  C   UNL A   1      48.534  31.001  27.195  1.00  0.00     0.031 C 
ATOM     64  C   UNL A   1      47.224  25.195  25.974  1.00  0.00     0.029 A 
ATOM     65  C   UNL A   1      47.127  26.516  26.384  1.00  0.00     0.049 A 
ATOM     66  H   UNL A   1      45.483  27.525  27.238  1.00  0.00     0.167 HD
ATOM     67  C   UNL A   1      47.958  28.823  26.756  1.00  0.00     0.074 A 
ATOM     68  C   UNL A   1      48.981  29.848  26.710  1.00  0.00     0.031 C 
ATOM     69  C   UNL A   1      48.135  27.545  26.338  1.00  0.00     0.031 A 
BRANCH  56  70
ATOM     70  C   UNL A   1      43.169  23.939  27.115  1.00  0.00    -0.014 A 
ATOM     71  C   UNL A   1      43.084  23.095  28.238  1.00  0.00     0.010 A 
ATOM     72  C   UNL A   1      42.686  23.482  25.876  1.00  0.00     0.010 A 
ATOM     73  C   UNL A   1      42.582  21.797  28.109  1.00  0.00     0.020 A 
ATOM     74  C   UNL A   1      42.160  22.194  25.748  1.00  0.00     0.020 A 
ATOM     75  C   UNL A   1      42.137  21.350  26.861  1.00  0.00     0.054 A 
BRANCH  75  76
ATOM     76  S   UNL A   1      41.517  19.653  26.709  1.00  0.00     0.124 S 
ATOM     77  O   UNL A   1      42.686  18.871  27.105  1.00  0.00    -0.237 OA
ATOM     78  O   UNL A   1      40.400  19.630  27.649  1.00  0.00    -0.237 OA
ATOM     79  O   UNL A   1      41.144  19.546  25.300  1.00  0.00    -0.744 OA
ENDBRANCH  75  76
ENDBRANCH  56  70
BRANCH  57  80
ATOM     80  C   UNL A   1      46.845  33.130  28.326  1.00  0.00    -0.014 A 
ATOM     81  C   UNL A   1      47.453  33.426  29.557  1.00  0.00     0.010 A 
ATOM     82  C   UNL A   1      46.826  34.109  27.315  1.00  0.00     0.010 A 
ATOM     83  C   UNL A   1      48.042  34.677  29.770  1.00  0.00     0.020 A 
ATOM     84  C   UNL A   1      47.430  35.351  27.517  1.00  0.00     0.020 A 
ATOM     85  C   UNL A   1      48.035  35.628  28.745  1.00  0.00     0.054 A 
BRANCH  85  86
ATOM     86  S   UNL A   1      48.896  37.205  29.000  1.00  0.00     0.124 S 
ATOM     87  O   UNL A   1      48.165  38.098  28.109  1.00  0.00    -0.237 OA
ATOM     88  O   UNL A   1      48.709  37.441  30.429  1.00  0.00    -0.237 OA
ATOM     89  O   UNL A   1      50.272  36.908  28.603  1.00  0.00    -0.744 OA
ENDBRANCH  85  86
ENDBRANCH  57  80
BRANCH  69  90
ATOM     90  C   UNL A   1      49.469  27.178  25.747  1.00  0.00    -0.014 A 
ATOM     91  C   UNL A   1      49.947  27.794  24.577  1.00  0.00     0.010 A 
ATOM     92  C   UNL A   1      50.297  26.267  26.430  1.00  0.00     0.010 A 
ATOM     93  C   UNL A   1      51.226  27.497  24.096  1.00  0.00     0.020 A 
ATOM     94  C   UNL A   1      51.583  25.984  25.963  1.00  0.00     0.020 A 
ATOM     95  C   UNL A   1      52.037  26.597  24.794  1.00  0.00     0.054 A 
BRANCH  95  96
ATOM     96  S   UNL A   1      53.720  26.284  24.192  1.00  0.00     0.124 S 
ATOM     97  O   UNL A   1      54.115  25.123  24.984  1.00  0.00    -0.237 OA
ATOM     98  O   UNL A   1      53.512  26.033  22.768  1.00  0.00    -0.237 OA
ATOM     99  O   UNL A   1      54.434  27.522  24.501  1.00  0.00    -0.744 OA
ENDBRANCH  95  96
ENDBRANCH  69  90
ENDBRANCH  43  44
ENDBRANCH  36  38
ENDBRANCH  35  36
ENDBRANCH  34  35
ENDBRANCH  33  34
ENDBRANCH  32  33
ENDBRANCH  31  32
ENDBRANCH   1  31
TORSDOF 25
ENDMDL
