MODEL 1
REMARK VINA RESULT:      -9.6      0.000      0.000
REMARK SMILES CC[C@@H]1CC(=O)N(Cc2ccc(C(=O)OCCOCCOCCOC(=O)c3ccc(-c4c5nc(c(-c6ccc(S(=O)(=O)[O-])cc6)c6ccc([nH]6)c(-c6ccc(S(=O)(=O)[O-])cc6)c6nc(c(-c7ccc(S(=O)(=O)[O-])cc7)c7ccc4[nH]7)C=C6)C=C5)cc3)cn2)C1
REMARK SMILES IDX 19 1 18 2 17 3 16 4 15 5 13 6 14 7 12 8 9 9 10 10 88 11
REMARK SMILES IDX 11 12 87 13 8 14 7 15 3 16 4 17 89 18 5 19 6 20 2 21 1 22
REMARK SMILES IDX 20 23 21 24 22 25 23 26 24 27 25 28 26 29 27 30 28 31 86 32
REMARK SMILES IDX 29 33 85 34 30 35 31 36 32 37 79 38 33 39 84 40 78 41 80 42
REMARK SMILES IDX 34 43 83 44 77 45 76 46 35 48 65 49 46 50 64 51 47 52 50 53
REMARK SMILES IDX 63 54 81 55 48 56 49 57 62 59 82 60 51 61 36 62 37 63 45 64
REMARK SMILES IDX 38 65 44 66 39 67 40 68 41 69 42 70 43 71 66 72 67 73 75 74
REMARK SMILES IDX 68 75 74 76 69 77 70 78 71 79 72 80 73 81 52 82 53 83 61 84
REMARK SMILES IDX 54 85 60 86 55 87 56 88 57 89 58 90 59 91
REMARK H PARENT 80 47 50 58
REMARK Flexibility Score: inf
ROOT
ATOM      1  C   UNL A   1      32.823  29.353  24.523  1.00  0.00     0.188 C 
ENDROOT
BRANCH   1   2
ATOM      2  O   UNL A   1      31.917  28.389  24.009  1.00  0.00    -0.376 OA
BRANCH   2   3
ATOM      3  C   UNL A   1      31.209  27.533  24.893  1.00  0.00     0.202 C 
BRANCH   3   4
ATOM      4  C   UNL A   1      31.961  26.624  25.871  1.00  0.00     0.261 C 
BRANCH   4   5
ATOM      5  O   UNL A   1      31.138  26.100  26.922  1.00  0.00    -0.460 OA
BRANCH   5   6
ATOM      6  C   UNL A   1      30.301  25.101  26.550  1.00  0.00     0.339 C 
ATOM      7  O   UNL A   1      29.081  25.116  26.592  1.00  0.00    -0.246 OA
BRANCH   6   8
ATOM      8  C   UNL A   1      31.061  23.996  25.944  1.00  0.00     0.078 A 
ATOM      9  C   UNL A   1      32.665  21.980  24.985  1.00  0.00     0.060 A 
ATOM     10  C   UNL A   1      31.708  22.548  24.140  1.00  0.00     0.026 A 
ATOM     11  N   UNL A   1      32.772  22.333  26.287  1.00  0.00    -0.259 NA
ATOM     12  C   UNL A   1      30.905  23.581  24.623  1.00  0.00     0.019 A 
ATOM     13  C   UNL A   1      31.975  23.327  26.741  1.00  0.00     0.127 A 
BRANCH   9  14
ATOM     14  C   UNL A   1      33.787  21.133  24.407  1.00  0.00     0.175 C 
BRANCH  14  15
ATOM     15  N   UNL A   1      35.045  21.878  24.429  1.00  0.00    -0.336 N 
ATOM     16  C   UNL A   1      37.266  22.478  24.909  1.00  0.00     0.017 C 
ATOM     17  C   UNL A   1      36.890  22.988  23.513  1.00  0.00     0.105 C 
ATOM     18  C   UNL A   1      36.177  21.460  25.213  1.00  0.00     0.124 C 
ATOM     19  C   UNL A   1      35.395  22.782  23.438  1.00  0.00     0.223 C 
ATOM     20  O   UNL A   1      34.661  23.289  22.609  1.00  0.00    -0.275 OA
BRANCH  16  21
ATOM     21  C   UNL A   1      37.318  23.607  25.947  1.00  0.00     0.002 C 
ATOM     22  C   UNL A   1      38.753  23.895  26.371  1.00  0.00     0.004 C 
ENDBRANCH  16  21
ENDBRANCH  14  15
ENDBRANCH   9  14
ENDBRANCH   6   8
ENDBRANCH   5   6
ENDBRANCH   4   5
ENDBRANCH   3   4
ENDBRANCH   2   3
ENDBRANCH   1   2
BRANCH   1  23
ATOM     23  C   UNL A   1      32.436  30.202  25.751  1.00  0.00     0.188 C 
BRANCH  23  24
ATOM     24  O   UNL A   1      33.197  30.053  26.924  1.00  0.00    -0.376 OA
BRANCH  24  25
ATOM     25  C   UNL A   1      33.637  31.184  27.657  1.00  0.00     0.202 C 
BRANCH  25  26
ATOM     26  C   UNL A   1      34.998  31.356  28.360  1.00  0.00     0.261 C 
BRANCH  26  27
ATOM     27  O   UNL A   1      35.648  30.202  28.886  1.00  0.00    -0.460 OA
BRANCH  27  28
ATOM     28  C   UNL A   1      36.393  30.411  30.000  1.00  0.00     0.338 C 
ATOM     29  O   UNL A   1      35.986  30.582  31.135  1.00  0.00    -0.246 OA
BRANCH  28  30
ATOM     30  C   UNL A   1      37.813  30.219  29.654  1.00  0.00     0.060 A 
ATOM     31  C   UNL A   1      38.158  30.052  28.308  1.00  0.00     0.016 A 
ATOM     32  C   UNL A   1      38.788  30.175  30.652  1.00  0.00     0.016 A 
ATOM     33  C   UNL A   1      39.486  29.814  27.955  1.00  0.00     0.010 A 
ATOM     34  C   UNL A   1      40.115  29.918  30.298  1.00  0.00     0.010 A 
ATOM     35  C   UNL A   1      40.465  29.707  28.952  1.00  0.00    -0.014 A 
BRANCH  35  36
ATOM     36  C   UNL A   1      41.818  29.209  28.608  1.00  0.00     0.031 A 
ATOM     37  C   UNL A   1      42.965  30.182  28.609  1.00  0.00     0.074 A 
ATOM     38  C   UNL A   1      42.027  27.913  28.312  1.00  0.00     0.049 A 
ATOM     39  N   UNL A   1      44.222  29.982  28.308  1.00  0.00    -0.248 NA
ATOM     40  C   UNL A   1      42.651  31.565  29.002  1.00  0.00     0.031 C 
ATOM     41  C   UNL A   1      41.009  26.865  28.324  1.00  0.00     0.029 A 
ATOM     42  N   UNL A   1      43.178  27.263  27.941  1.00  0.00    -0.354 N 
ATOM     43  C   UNL A   1      44.849  31.211  28.471  1.00  0.00     0.074 A 
ATOM     44  C   UNL A   1      43.828  32.158  28.868  1.00  0.00     0.031 C 
ATOM     45  C   UNL A   1      41.579  25.700  27.968  1.00  0.00     0.029 A 
ATOM     46  C   UNL A   1      42.994  25.927  27.673  1.00  0.00     0.049 A 
ATOM     47  H   UNL A   1      44.052  27.710  27.873  1.00  0.00     0.167 HD
ATOM     48  C   UNL A   1      46.156  31.525  28.310  1.00  0.00     0.031 A 
ATOM     49  C   UNL A   1      43.863  25.000  27.224  1.00  0.00     0.031 A 
ATOM     50  C   UNL A   1      47.165  30.589  27.892  1.00  0.00     0.049 A 
ATOM     51  C   UNL A   1      45.297  25.392  26.970  1.00  0.00     0.074 A 
ATOM     52  C   UNL A   1      48.518  30.809  27.702  1.00  0.00     0.029 A 
ATOM     53  N   UNL A   1      46.930  29.256  27.589  1.00  0.00    -0.354 N 
ATOM     54  N   UNL A   1      45.878  26.555  27.144  1.00  0.00    -0.248 NA
ATOM     55  C   UNL A   1      46.192  24.341  26.465  1.00  0.00     0.031 C 
ATOM     56  C   UNL A   1      49.091  29.623  27.231  1.00  0.00     0.029 A 
ATOM     57  C   UNL A   1      48.108  28.647  27.188  1.00  0.00     0.049 A 
ATOM     58  H   UNL A   1      46.056  28.809  27.650  1.00  0.00     0.167 HD
ATOM     59  C   UNL A   1      47.214  26.367  26.799  1.00  0.00     0.074 A 
ATOM     60  C   UNL A   1      47.355  24.978  26.417  1.00  0.00     0.031 C 
ATOM     61  C   UNL A   1      48.234  27.263  26.806  1.00  0.00     0.031 A 
BRANCH  48  62
ATOM     62  C   UNL A   1      46.556  32.956  28.552  1.00  0.00    -0.014 A 
ATOM     63  C   UNL A   1      46.521  33.907  27.517  1.00  0.00     0.010 A 
ATOM     64  C   UNL A   1      46.956  33.359  29.839  1.00  0.00     0.010 A 
ATOM     65  C   UNL A   1      46.922  35.226  27.754  1.00  0.00     0.020 A 
ATOM     66  C   UNL A   1      47.330  34.682  30.087  1.00  0.00     0.020 A 
ATOM     67  C   UNL A   1      47.330  35.603  29.037  1.00  0.00     0.054 A 
BRANCH  67  68
ATOM     68  S   UNL A   1      47.837  37.321  29.319  1.00  0.00     0.124 S 
ATOM     69  O   UNL A   1      47.405  37.540  30.697  1.00  0.00    -0.237 OA
ATOM     70  O   UNL A   1      49.283  37.268  29.116  1.00  0.00    -0.237 OA
ATOM     71  O   UNL A   1      47.096  38.073  28.309  1.00  0.00    -0.744 OA
ENDBRANCH  67  68
ENDBRANCH  48  62
BRANCH  49  72
ATOM     72  C   UNL A   1      43.400  23.608  26.968  1.00  0.00    -0.014 A 
ATOM     73  C   UNL A   1      43.188  22.715  28.033  1.00  0.00     0.010 A 
ATOM     74  C   UNL A   1      43.173  23.166  25.652  1.00  0.00     0.010 A 
ATOM     75  C   UNL A   1      42.773  21.402  27.786  1.00  0.00     0.020 A 
ATOM     76  C   UNL A   1      42.733  21.863  25.402  1.00  0.00     0.020 A 
ATOM     77  C   UNL A   1      42.547  20.985  26.471  1.00  0.00     0.054 A 
BRANCH  77  78
ATOM     78  S   UNL A   1      41.967  19.291  26.175  1.00  0.00     0.124 S 
ATOM     79  O   UNL A   1      40.541  19.494  25.942  1.00  0.00    -0.237 OA
ATOM     80  O   UNL A   1      42.748  18.888  25.009  1.00  0.00    -0.237 OA
ATOM     81  O   UNL A   1      42.305  18.593  27.413  1.00  0.00    -0.744 OA
ENDBRANCH  77  78
ENDBRANCH  49  72
BRANCH  61  82
ATOM     82  C   UNL A   1      49.603  26.764  26.422  1.00  0.00    -0.014 A 
ATOM     83  C   UNL A   1      50.340  25.919  27.271  1.00  0.00     0.010 A 
ATOM     84  C   UNL A   1      50.136  27.104  25.165  1.00  0.00     0.010 A 
ATOM     85  C   UNL A   1      51.599  25.451  26.884  1.00  0.00     0.020 A 
ATOM     86  C   UNL A   1      51.382  26.616  24.762  1.00  0.00     0.020 A 
ATOM     87  C   UNL A   1      52.112  25.803  25.631  1.00  0.00     0.054 A 
BRANCH  87  88
ATOM     88  S   UNL A   1      53.731  25.152  25.134  1.00  0.00     0.124 S 
ATOM     89  O   UNL A   1      53.779  25.500  23.717  1.00  0.00    -0.237 OA
ATOM     90  O   UNL A   1      54.652  25.890  25.995  1.00  0.00    -0.237 OA
ATOM     91  O   UNL A   1      53.633  23.722  25.422  1.00  0.00    -0.744 OA
ENDBRANCH  87  88
ENDBRANCH  61  82
ENDBRANCH  35  36
ENDBRANCH  28  30
ENDBRANCH  27  28
ENDBRANCH  26  27
ENDBRANCH  25  26
ENDBRANCH  24  25
ENDBRANCH  23  24
ENDBRANCH   1  23
TORSDOF 23
ENDMDL
MODEL 2
REMARK VINA RESULT:      -9.3      5.855     11.669
REMARK SMILES CC[C@@H]1CC(=O)N(Cc2ccc(C(=O)OCCOCCOCCOC(=O)c3ccc(-c4c5nc(c(-c6ccc(S(=O)(=O)[O-])cc6)c6ccc([nH]6)c(-c6ccc(S(=O)(=O)[O-])cc6)c6nc(c(-c7ccc(S(=O)(=O)[O-])cc7)c7ccc4[nH]7)C=C6)C=C5)cc3)cn2)C1
REMARK SMILES IDX 19 1 18 2 17 3 16 4 15 5 13 6 14 7 12 8 9 9 10 10 88 11
REMARK SMILES IDX 11 12 87 13 8 14 7 15 3 16 4 17 89 18 5 19 6 20 2 21 1 22
REMARK SMILES IDX 20 23 21 24 22 25 23 26 24 27 25 28 26 29 27 30 28 31 86 32
REMARK SMILES IDX 29 33 85 34 30 35 31 36 32 37 79 38 33 39 84 40 78 41 80 42
REMARK SMILES IDX 34 43 83 44 77 45 76 46 35 48 65 49 46 50 64 51 47 52 50 53
REMARK SMILES IDX 63 54 81 55 48 56 49 57 62 59 82 60 51 61 36 62 37 63 45 64
REMARK SMILES IDX 38 65 44 66 39 67 40 68 41 69 42 70 43 71 66 72 67 73 75 74
REMARK SMILES IDX 68 75 74 76 69 77 70 78 71 79 72 80 73 81 52 82 53 83 61 84
REMARK SMILES IDX 54 85 60 86 55 87 56 88 57 89 58 90 59 91
REMARK H PARENT 80 47 50 58
REMARK Flexibility Score: inf
ROOT
ATOM      1  C   UNL A   1      40.009  21.523  26.882  1.00  0.00     0.188 C 
ENDROOT
BRANCH   1   2
ATOM      2  O   UNL A   1      39.301  21.812  25.687  1.00  0.00    -0.376 OA
BRANCH   2   3
ATOM      3  C   UNL A   1      38.114  21.100  25.371  1.00  0.00     0.202 C 
BRANCH   3   4
ATOM      4  C   UNL A   1      36.924  21.814  24.718  1.00  0.00     0.261 C 
BRANCH   4   5
ATOM      5  O   UNL A   1      35.771  21.905  25.565  1.00  0.00    -0.460 OA
BRANCH   5   6
ATOM      6  C   UNL A   1      34.619  21.451  25.014  1.00  0.00     0.339 C 
ATOM      7  O   UNL A   1      34.389  20.314  24.635  1.00  0.00    -0.246 OA
BRANCH   6   8
ATOM      8  C   UNL A   1      33.588  22.501  25.045  1.00  0.00     0.078 A 
ATOM      9  C   UNL A   1      31.801  24.577  25.288  1.00  0.00     0.060 A 
ATOM     10  C   UNL A   1      31.357  23.353  24.780  1.00  0.00     0.026 A 
ATOM     11  N   UNL A   1      33.103  24.799  25.586  1.00  0.00    -0.259 NA
ATOM     12  C   UNL A   1      32.260  22.296  24.673  1.00  0.00     0.019 A 
ATOM     13  C   UNL A   1      33.966  23.767  25.461  1.00  0.00     0.127 A 
BRANCH   9  14
ATOM     14  C   UNL A   1      30.799  25.615  25.763  1.00  0.00     0.175 C 
BRANCH  14  15
ATOM     15  N   UNL A   1      31.348  26.960  25.596  1.00  0.00    -0.336 N 
ATOM     16  C   UNL A   1      31.986  28.994  24.606  1.00  0.00     0.017 C 
ATOM     17  C   UNL A   1      31.621  29.234  26.076  1.00  0.00     0.105 C 
ATOM     18  C   UNL A   1      31.392  27.623  24.319  1.00  0.00     0.124 C 
ATOM     19  C   UNL A   1      31.496  27.844  26.654  1.00  0.00     0.223 C 
ATOM     20  O   UNL A   1      31.475  27.580  27.843  1.00  0.00    -0.275 OA
BRANCH  16  21
ATOM     21  C   UNL A   1      33.501  29.037  24.368  1.00  0.00     0.002 C 
ATOM     22  C   UNL A   1      33.861  28.423  23.021  1.00  0.00     0.004 C 
ENDBRANCH  16  21
ENDBRANCH  14  15
ENDBRANCH   9  14
ENDBRANCH   6   8
ENDBRANCH   5   6
ENDBRANCH   4   5
ENDBRANCH   3   4
ENDBRANCH   2   3
ENDBRANCH   1   2
BRANCH   1  23
ATOM     23  C   UNL A   1      40.955  20.306  26.946  1.00  0.00     0.188 C 
BRANCH  23  24
ATOM     24  O   UNL A   1      41.907  20.155  25.923  1.00  0.00    -0.376 OA
BRANCH  24  25
ATOM     25  C   UNL A   1      43.084  20.945  25.898  1.00  0.00     0.202 C 
BRANCH  25  26
ATOM     26  C   UNL A   1      43.213  22.395  25.390  1.00  0.00     0.261 C 
BRANCH  26  27
ATOM     27  O   UNL A   1      42.734  23.455  26.214  1.00  0.00    -0.460 OA
BRANCH  27  28
ATOM     28  C   UNL A   1      43.179  24.693  25.885  1.00  0.00     0.338 C 
ATOM     29  O   UNL A   1      43.783  25.014  24.878  1.00  0.00    -0.246 OA
BRANCH  28  30
ATOM     30  C   UNL A   1      42.654  25.654  26.872  1.00  0.00     0.060 A 
ATOM     31  C   UNL A   1      43.183  26.950  26.893  1.00  0.00     0.016 A 
ATOM     32  C   UNL A   1      41.670  25.270  27.785  1.00  0.00     0.016 A 
ATOM     33  C   UNL A   1      42.744  27.864  27.850  1.00  0.00     0.010 A 
ATOM     34  C   UNL A   1      41.246  26.181  28.755  1.00  0.00     0.010 A 
ATOM     35  C   UNL A   1      41.802  27.472  28.810  1.00  0.00    -0.014 A 
BRANCH  35  36
ATOM     36  C   UNL A   1      41.523  28.349  29.972  1.00  0.00     0.031 A 
ATOM     37  C   UNL A   1      42.388  28.220  31.196  1.00  0.00     0.074 A 
ATOM     38  C   UNL A   1      40.528  29.254  29.937  1.00  0.00     0.049 A 
ATOM     39  N   UNL A   1      42.309  28.853  32.338  1.00  0.00    -0.248 NA
ATOM     40  C   UNL A   1      43.488  27.245  31.121  1.00  0.00     0.031 C 
ATOM     41  C   UNL A   1      39.653  29.509  28.795  1.00  0.00     0.029 A 
ATOM     42  N   UNL A   1      40.088  30.127  30.902  1.00  0.00    -0.354 N 
ATOM     43  C   UNL A   1      43.344  28.352  33.118  1.00  0.00     0.074 A 
ATOM     44  C   UNL A   1      44.018  27.342  32.331  1.00  0.00     0.031 C 
ATOM     45  C   UNL A   1      38.774  30.471  29.126  1.00  0.00     0.029 A 
ATOM     46  C   UNL A   1      39.004  30.876  30.513  1.00  0.00     0.049 A 
ATOM     47  H   UNL A   1      40.510  30.209  31.787  1.00  0.00     0.167 HD
ATOM     48  C   UNL A   1      43.705  28.704  34.374  1.00  0.00     0.031 A 
ATOM     49  C   UNL A   1      38.271  31.772  31.203  1.00  0.00     0.031 A 
ATOM     50  C   UNL A   1      43.020  29.692  35.165  1.00  0.00     0.049 A 
ATOM     51  C   UNL A   1      38.639  32.088  32.631  1.00  0.00     0.074 A 
ATOM     52  C   UNL A   1      43.310  30.120  36.449  1.00  0.00     0.029 A 
ATOM     53  N   UNL A   1      41.899  30.397  34.751  1.00  0.00    -0.354 N 
ATOM     54  N   UNL A   1      39.631  31.617  33.350  1.00  0.00    -0.248 NA
ATOM     55  C   UNL A   1      37.792  33.059  33.336  1.00  0.00     0.031 C 
ATOM     56  C   UNL A   1      42.332  31.045  36.831  1.00  0.00     0.029 A 
ATOM     57  C   UNL A   1      41.470  31.240  35.764  1.00  0.00     0.049 A 
ATOM     58  H   UNL A   1      41.472  30.312  33.869  1.00  0.00     0.167 HD
ATOM     59  C   UNL A   1      39.544  32.261  34.582  1.00  0.00     0.074 A 
ATOM     60  C   UNL A   1      38.410  33.158  34.506  1.00  0.00     0.031 C 
ATOM     61  C   UNL A   1      40.337  32.125  35.675  1.00  0.00     0.031 A 
BRANCH  48  62
ATOM     62  C   UNL A   1      44.878  27.982  34.983  1.00  0.00    -0.014 A 
ATOM     63  C   UNL A   1      44.694  26.846  35.791  1.00  0.00     0.010 A 
ATOM     64  C   UNL A   1      46.184  28.435  34.726  1.00  0.00     0.010 A 
ATOM     65  C   UNL A   1      45.793  26.203  36.369  1.00  0.00     0.020 A 
ATOM     66  C   UNL A   1      47.287  27.779  35.278  1.00  0.00     0.020 A 
ATOM     67  C   UNL A   1      47.083  26.679  36.113  1.00  0.00     0.054 A 
BRANCH  67  68
ATOM     68  S   UNL A   1      48.492  25.822  36.868  1.00  0.00     0.124 S 
ATOM     69  O   UNL A   1      48.736  24.745  35.913  1.00  0.00    -0.237 OA
ATOM     70  O   UNL A   1      49.516  26.864  36.914  1.00  0.00    -0.237 OA
ATOM     71  O   UNL A   1      47.983  25.395  38.169  1.00  0.00    -0.744 OA
ENDBRANCH  67  68
ENDBRANCH  48  62
BRANCH  49  72
ATOM     72  C   UNL A   1      37.098  32.429  30.560  1.00  0.00    -0.014 A 
ATOM     73  C   UNL A   1      35.847  31.789  30.525  1.00  0.00     0.010 A 
ATOM     74  C   UNL A   1      37.231  33.701  29.973  1.00  0.00     0.010 A 
ATOM     75  C   UNL A   1      34.755  32.401  29.901  1.00  0.00     0.020 A 
ATOM     76  C   UNL A   1      36.136  34.328  29.372  1.00  0.00     0.020 A 
ATOM     77  C   UNL A   1      34.907  33.668  29.330  1.00  0.00     0.054 A 
BRANCH  77  78
ATOM     78  S   UNL A   1      33.466  34.464  28.564  1.00  0.00     0.124 S 
ATOM     79  O   UNL A   1      34.080  35.565  27.830  1.00  0.00    -0.237 OA
ATOM     80  O   UNL A   1      32.909  33.389  27.746  1.00  0.00    -0.237 OA
ATOM     81  O   UNL A   1      32.644  34.855  29.707  1.00  0.00    -0.744 OA
ENDBRANCH  77  78
ENDBRANCH  49  72
BRANCH  61  82
ATOM     82  C   UNL A   1      40.031  32.993  36.870  1.00  0.00    -0.014 A 
ATOM     83  C   UNL A   1      39.164  32.558  37.888  1.00  0.00     0.010 A 
ATOM     84  C   UNL A   1      40.666  34.241  36.999  1.00  0.00     0.010 A 
ATOM     85  C   UNL A   1      38.913  33.371  38.998  1.00  0.00     0.020 A 
ATOM     86  C   UNL A   1      40.440  35.045  38.119  1.00  0.00     0.020 A 
ATOM     87  C   UNL A   1      39.552  34.610  39.105  1.00  0.00     0.054 A 
BRANCH  87  88
ATOM     88  S   UNL A   1      39.240  35.631  40.573  1.00  0.00     0.124 S 
ATOM     89  O   UNL A   1      39.193  36.975  40.005  1.00  0.00    -0.237 OA
ATOM     90  O   UNL A   1      37.966  35.110  41.062  1.00  0.00    -0.237 OA
ATOM     91  O   UNL A   1      40.388  35.359  41.435  1.00  0.00    -0.744 OA
ENDBRANCH  87  88
ENDBRANCH  61  82
ENDBRANCH  35  36
ENDBRANCH  28  30
ENDBRANCH  27  28
ENDBRANCH  26  27
ENDBRANCH  25  26
ENDBRANCH  24  25
ENDBRANCH  23  24
ENDBRANCH   1  23
TORSDOF 23
ENDMDL
MODEL 3
REMARK VINA RESULT:      -9.2      1.821      2.476
REMARK SMILES CC[C@@H]1CC(=O)N(Cc2ccc(C(=O)OCCOCCOCCOC(=O)c3ccc(-c4c5nc(c(-c6ccc(S(=O)(=O)[O-])cc6)c6ccc([nH]6)c(-c6ccc(S(=O)(=O)[O-])cc6)c6nc(c(-c7ccc(S(=O)(=O)[O-])cc7)c7ccc4[nH]7)C=C6)C=C5)cc3)cn2)C1
REMARK SMILES IDX 19 1 18 2 17 3 16 4 15 5 13 6 14 7 12 8 9 9 10 10 88 11
REMARK SMILES IDX 11 12 87 13 8 14 7 15 3 16 4 17 89 18 5 19 6 20 2 21 1 22
REMARK SMILES IDX 20 23 21 24 22 25 23 26 24 27 25 28 26 29 27 30 28 31 86 32
REMARK SMILES IDX 29 33 85 34 30 35 31 36 32 37 79 38 33 39 84 40 78 41 80 42
REMARK SMILES IDX 34 43 83 44 77 45 76 46 35 48 65 49 46 50 64 51 47 52 50 53
REMARK SMILES IDX 63 54 81 55 48 56 49 57 62 59 82 60 51 61 36 62 37 63 45 64
REMARK SMILES IDX 38 65 44 66 39 67 40 68 41 69 42 70 43 71 66 72 67 73 75 74
REMARK SMILES IDX 68 75 74 76 69 77 70 78 71 79 72 80 73 81 52 82 53 83 61 84
REMARK SMILES IDX 54 85 60 86 55 87 56 88 57 89 58 90 59 91
REMARK H PARENT 80 47 50 58
REMARK Flexibility Score: inf
ROOT
ATOM      1  C   UNL A   1      32.615  28.654  24.726  1.00  0.00     0.188 C 
ENDROOT
BRANCH   1   2
ATOM      2  O   UNL A   1      31.313  29.089  25.084  1.00  0.00    -0.376 OA
BRANCH   2   3
ATOM      3  C   UNL A   1      30.303  29.213  24.093  1.00  0.00     0.202 C 
BRANCH   3   4
ATOM      4  C   UNL A   1      30.409  28.446  22.770  1.00  0.00     0.261 C 
BRANCH   4   5
ATOM      5  O   UNL A   1      30.240  27.028  22.910  1.00  0.00    -0.460 OA
BRANCH   5   6
ATOM      6  C   UNL A   1      31.023  26.275  22.100  1.00  0.00     0.339 C 
ATOM      7  O   UNL A   1      31.503  26.611  21.029  1.00  0.00    -0.246 OA
BRANCH   6   8
ATOM      8  C   UNL A   1      31.348  24.994  22.748  1.00  0.00     0.078 A 
ATOM      9  C   UNL A   1      31.874  22.707  24.180  1.00  0.00     0.060 A 
ATOM     10  C   UNL A   1      32.567  22.938  22.989  1.00  0.00     0.026 A 
ATOM     11  N   UNL A   1      30.891  23.533  24.610  1.00  0.00    -0.259 NA
ATOM     12  C   UNL A   1      32.311  24.106  22.272  1.00  0.00     0.019 A 
ATOM     13  C   UNL A   1      30.647  24.653  23.893  1.00  0.00     0.127 A 
BRANCH   9  14
ATOM     14  C   UNL A   1      32.373  21.662  25.164  1.00  0.00     0.175 C 
BRANCH  14  15
ATOM     15  N   UNL A   1      33.774  21.914  25.500  1.00  0.00    -0.336 N 
ATOM     16  C   UNL A   1      35.687  22.833  26.510  1.00  0.00     0.017 C 
ATOM     17  C   UNL A   1      35.946  21.360  26.170  1.00  0.00     0.105 C 
ATOM     18  C   UNL A   1      34.173  22.951  26.415  1.00  0.00     0.124 C 
ATOM     19  C   UNL A   1      34.771  20.972  25.303  1.00  0.00     0.223 C 
ATOM     20  O   UNL A   1      34.715  19.973  24.609  1.00  0.00    -0.275 OA
BRANCH  16  21
ATOM     21  C   UNL A   1      36.410  23.787  25.550  1.00  0.00     0.002 C 
ATOM     22  C   UNL A   1      37.871  23.960  25.946  1.00  0.00     0.004 C 
ENDBRANCH  16  21
ENDBRANCH  14  15
ENDBRANCH   9  14
ENDBRANCH   6   8
ENDBRANCH   5   6
ENDBRANCH   4   5
ENDBRANCH   3   4
ENDBRANCH   2   3
ENDBRANCH   1   2
BRANCH   1  23
ATOM     23  C   UNL A   1      33.292  27.509  25.506  1.00  0.00     0.188 C 
BRANCH  23  24
ATOM     24  O   UNL A   1      34.120  27.849  26.591  1.00  0.00    -0.376 OA
BRANCH  24  25
ATOM     25  C   UNL A   1      33.844  28.986  27.392  1.00  0.00     0.202 C 
BRANCH  25  26
ATOM     26  C   UNL A   1      34.874  29.960  27.997  1.00  0.00     0.261 C 
BRANCH  26  27
ATOM     27  O   UNL A   1      36.262  29.696  27.805  1.00  0.00    -0.460 OA
BRANCH  27  28
ATOM     28  C   UNL A   1      36.984  29.528  28.941  1.00  0.00     0.338 C 
ATOM     29  O   UNL A   1      36.572  29.563  30.086  1.00  0.00    -0.246 OA
BRANCH  28  30
ATOM     30  C   UNL A   1      38.346  29.108  28.568  1.00  0.00     0.060 A 
ATOM     31  C   UNL A   1      39.152  28.505  29.542  1.00  0.00     0.016 A 
ATOM     32  C   UNL A   1      38.833  29.333  27.279  1.00  0.00     0.016 A 
ATOM     33  C   UNL A   1      40.463  28.145  29.233  1.00  0.00     0.010 A 
ATOM     34  C   UNL A   1      40.153  28.990  26.979  1.00  0.00     0.010 A 
ATOM     35  C   UNL A   1      40.983  28.422  27.962  1.00  0.00    -0.014 A 
BRANCH  35  36
ATOM     36  C   UNL A   1      42.436  28.276  27.710  1.00  0.00     0.031 A 
ATOM     37  C   UNL A   1      43.339  29.443  28.004  1.00  0.00     0.074 A 
ATOM     38  C   UNL A   1      42.949  27.123  27.242  1.00  0.00     0.049 A 
ATOM     39  N   UNL A   1      44.629  29.557  27.830  1.00  0.00    -0.248 NA
ATOM     40  C   UNL A   1      42.697  30.641  28.569  1.00  0.00     0.031 C 
ATOM     41  C   UNL A   1      42.187  25.907  26.965  1.00  0.00     0.029 A 
ATOM     42  N   UNL A   1      44.241  26.795  26.915  1.00  0.00    -0.354 N 
ATOM     43  C   UNL A   1      44.956  30.838  28.258  1.00  0.00     0.074 A 
ATOM     44  C   UNL A   1      43.723  31.473  28.673  1.00  0.00     0.031 C 
ATOM     45  C   UNL A   1      43.027  24.964  26.502  1.00  0.00     0.029 A 
ATOM     46  C   UNL A   1      44.377  25.520  26.420  1.00  0.00     0.049 A 
ATOM     47  H   UNL A   1      44.998  27.414  27.026  1.00  0.00     0.167 HD
ATOM     48  C   UNL A   1      46.171  31.432  28.309  1.00  0.00     0.031 A 
ATOM     49  C   UNL A   1      45.463  24.883  25.940  1.00  0.00     0.031 A 
ATOM     50  C   UNL A   1      47.393  30.809  27.874  1.00  0.00     0.049 A 
ATOM     51  C   UNL A   1      46.793  25.594  25.926  1.00  0.00     0.074 A 
ATOM     52  C   UNL A   1      48.676  31.327  27.887  1.00  0.00     0.029 A 
ATOM     53  N   UNL A   1      47.482  29.532  27.339  1.00  0.00    -0.354 N 
ATOM     54  N   UNL A   1      47.089  26.800  26.350  1.00  0.00    -0.248 NA
ATOM     55  C   UNL A   1      47.935  24.853  25.375  1.00  0.00     0.031 C 
ATOM     56  C   UNL A   1      49.532  30.384  27.308  1.00  0.00     0.029 A 
ATOM     57  C   UNL A   1      48.794  29.255  26.993  1.00  0.00     0.049 A 
ATOM     58  H   UNL A   1      46.725  28.915  27.222  1.00  0.00     0.167 HD
ATOM     59  C   UNL A   1      48.458  26.949  26.145  1.00  0.00     0.074 A 
ATOM     60  C   UNL A   1      48.931  25.708  25.568  1.00  0.00     0.031 C 
ATOM     61  C   UNL A   1      49.252  28.016  26.416  1.00  0.00     0.031 A 
BRANCH  48  62
ATOM     62  C   UNL A   1      46.227  32.847  28.820  1.00  0.00    -0.014 A 
ATOM     63  C   UNL A   1      46.087  33.942  27.949  1.00  0.00     0.010 A 
ATOM     64  C   UNL A   1      46.402  33.085  30.195  1.00  0.00     0.010 A 
ATOM     65  C   UNL A   1      46.168  35.250  28.437  1.00  0.00     0.020 A 
ATOM     66  C   UNL A   1      46.455  34.390  30.691  1.00  0.00     0.020 A 
ATOM     67  C   UNL A   1      46.357  35.464  29.805  1.00  0.00     0.054 A 
BRANCH  67  68
ATOM     68  S   UNL A   1      46.450  37.171  30.414  1.00  0.00     0.124 S 
ATOM     69  O   UNL A   1      45.629  37.104  31.620  1.00  0.00    -0.237 OA
ATOM     70  O   UNL A   1      47.883  37.355  30.639  1.00  0.00    -0.237 OA
ATOM     71  O   UNL A   1      45.888  37.961  29.322  1.00  0.00    -0.744 OA
ENDBRANCH  67  68
ENDBRANCH  48  62
BRANCH  49  72
ATOM     72  C   UNL A   1      45.340  23.494  25.414  1.00  0.00    -0.014 A 
ATOM     73  C   UNL A   1      44.934  23.263  24.088  1.00  0.00     0.010 A 
ATOM     74  C   UNL A   1      45.625  22.394  26.242  1.00  0.00     0.010 A 
ATOM     75  C   UNL A   1      44.799  21.957  23.605  1.00  0.00     0.020 A 
ATOM     76  C   UNL A   1      45.518  21.087  25.756  1.00  0.00     0.020 A 
ATOM     77  C   UNL A   1      45.094  20.877  24.443  1.00  0.00     0.054 A 
BRANCH  77  78
ATOM     78  S   UNL A   1      44.956  19.192  23.783  1.00  0.00     0.124 S 
ATOM     79  O   UNL A   1      46.354  18.787  23.686  1.00  0.00    -0.237 OA
ATOM     80  O   UNL A   1      44.170  18.513  24.811  1.00  0.00    -0.237 OA
ATOM     81  O   UNL A   1      44.269  19.379  22.507  1.00  0.00    -0.744 OA
ENDBRANCH  77  78
ENDBRANCH  49  72
BRANCH  61  82
ATOM     82  C   UNL A   1      50.725  27.879  26.127  1.00  0.00    -0.014 A 
ATOM     83  C   UNL A   1      51.611  27.343  27.077  1.00  0.00     0.010 A 
ATOM     84  C   UNL A   1      51.218  28.245  24.861  1.00  0.00     0.010 A 
ATOM     85  C   UNL A   1      52.971  27.206  26.778  1.00  0.00     0.020 A 
ATOM     86  C   UNL A   1      52.570  28.084  24.548  1.00  0.00     0.020 A 
ATOM     87  C   UNL A   1      53.441  27.579  25.515  1.00  0.00     0.054 A 
BRANCH  87  88
ATOM     88  S   UNL A   1      55.202  27.355  25.137  1.00  0.00     0.124 S 
ATOM     89  O   UNL A   1      55.157  26.413  24.023  1.00  0.00    -0.237 OA
ATOM     90  O   UNL A   1      55.632  28.709  24.799  1.00  0.00    -0.237 OA
ATOM     91  O   UNL A   1      55.759  26.825  26.380  1.00  0.00    -0.744 OA
ENDBRANCH  87  88
ENDBRANCH  61  82
ENDBRANCH  35  36
ENDBRANCH  28  30
ENDBRANCH  27  28
ENDBRANCH  26  27
ENDBRANCH  25  26
ENDBRANCH  24  25
ENDBRANCH  23  24
ENDBRANCH   1  23
TORSDOF 23
ENDMDL
