MODEL 1
REMARK VINA RESULT:      -9.9      0.000      0.000
REMARK SMILES O=C(CCN1C(=O)S/C(=C\c2ccc(F)cc2)C1=O)Nc1ccc(O)cc1C(=O)OCCOCCOCCOC(=O)c1ccc(-c2c3nc(c(-c4ccc(S(=O)(=O)[O-])cc4)c4ccc([nH]4)c(-c4ccc(S(=O)(=O)[O-])cc4)c4nc(c(-c5ccc(S(=O)(=O)[O-])cc5)c5ccc2[nH]5)C=C4)C=C3)cc1
REMARK SMILES IDX 34 1 33 2 32 3 31 4 30 5 28 6 29 7 27 8 21 9 22 10 23 11
REMARK SMILES IDX 26 12 24 13 20 14 1 15 2 16 3 18 4 19 5 20 6 21 18 22 7 23
REMARK SMILES IDX 8 24 9 25 19 26 10 27 11 28 12 29 17 30 13 31 16 32 14 33
REMARK SMILES IDX 15 34 25 35 35 37 36 38 37 39 38 40 39 41 40 42 41 43 42 44
REMARK SMILES IDX 43 45 101 46 44 47 100 48 45 49 46 50 47 51 94 52 48 53
REMARK SMILES IDX 99 54 93 55 95 56 49 57 98 58 92 59 91 60 50 62 80 63 61 64
REMARK SMILES IDX 79 65 62 66 65 67 78 68 96 69 63 70 64 71 77 73 97 74 66 75
REMARK SMILES IDX 51 76 52 77 60 78 53 79 59 80 54 81 55 82 56 83 57 84 58 85
REMARK SMILES IDX 81 86 82 87 90 88 83 89 89 90 84 91 85 92 86 93 87 94 88 95
REMARK SMILES IDX 67 96 68 97 76 98 69 99 75 100 70 101 71 102 72 103 73 104
REMARK SMILES IDX 74 105
REMARK H PARENT 20 17 25 36 95 61 65 72
REMARK Flexibility Score: inf
ROOT
ATOM      1  C   UNL A   1      39.815  21.135  26.638  1.00  0.00     0.188 C 
ENDROOT
BRANCH   1   2
ATOM      2  O   UNL A   1      39.233  21.701  25.472  1.00  0.00    -0.376 OA
BRANCH   2   3
ATOM      3  C   UNL A   1      38.060  22.454  25.746  1.00  0.00     0.202 C 
BRANCH   3   4
ATOM      4  C   UNL A   1      36.982  22.259  24.684  1.00  0.00     0.261 C 
BRANCH   4   5
ATOM      5  O   UNL A   1      36.498  23.430  23.991  1.00  0.00    -0.460 OA
BRANCH   5   6
ATOM      6  C   UNL A   1      35.537  24.206  24.551  1.00  0.00     0.340 C 
ATOM      7  O   UNL A   1      35.605  24.698  25.664  1.00  0.00    -0.246 OA
BRANCH   6   8
ATOM      8  C   UNL A   1      34.445  24.496  23.569  1.00  0.00     0.087 A 
ATOM      9  C   UNL A   1      33.545  23.532  23.045  1.00  0.00     0.056 A 
ATOM     10  C   UNL A   1      32.587  23.951  22.110  1.00  0.00     0.031 A 
ATOM     11  C   UNL A   1      32.544  25.274  21.661  1.00  0.00     0.048 A 
ATOM     12  C   UNL A   1      34.385  25.825  23.116  1.00  0.00     0.064 A 
ATOM     13  C   UNL A   1      33.451  26.196  22.157  1.00  0.00     0.116 A 
BRANCH   9  14
ATOM     14  N   UNL A   1      33.626  22.186  23.477  1.00  0.00    -0.325 N 
ATOM     15  O   UNL A   1      31.933  21.120  22.313  1.00  0.00    -0.275 OA
ATOM     16  C   UNL A   1      32.805  21.123  23.181  1.00  0.00     0.226 C 
ATOM     17  H   UNL A   1      34.378  21.981  24.078  1.00  0.00     0.169 HD
BRANCH  16  18
ATOM     18  C   UNL A   1      32.955  19.892  24.077  1.00  0.00     0.122 C 
BRANCH  18  19
ATOM     19  C   UNL A   1      32.717  20.021  25.579  1.00  0.00     0.140 C 
BRANCH  19  20
ATOM     20  N   UNL A   1      32.530  21.353  26.174  1.00  0.00    -0.268 N 
ATOM     21  C   UNL A   1      33.562  21.908  26.896  1.00  0.00     0.293 C 
ATOM     22  C   UNL A   1      31.432  22.163  26.007  1.00  0.00     0.268 C 
ATOM     23  O   UNL A   1      34.630  21.382  27.172  1.00  0.00    -0.261 OA
ATOM     24  S   UNL A   1      33.188  23.575  27.334  1.00  0.00    -0.022 SA
ATOM     25  C   UNL A   1      31.786  23.569  26.354  1.00  0.00     0.083 C 
ATOM     26  O   UNL A   1      30.338  21.837  25.575  1.00  0.00    -0.268 OA
ATOM     27  C   UNL A   1      31.149  24.579  25.746  1.00  0.00     0.029 C 
BRANCH  27  28
ATOM     28  C   UNL A   1      31.477  26.014  25.691  1.00  0.00    -0.024 A 
ATOM     29  C   UNL A   1      32.627  26.534  26.303  1.00  0.00     0.011 A 
ATOM     30  C   UNL A   1      30.746  26.843  24.834  1.00  0.00     0.011 A 
ATOM     31  C   UNL A   1      33.058  27.839  26.051  1.00  0.00     0.040 A 
ATOM     32  C   UNL A   1      31.165  28.155  24.592  1.00  0.00     0.040 A 
ATOM     33  C   UNL A   1      32.321  28.639  25.194  1.00  0.00     0.123 A 
ATOM     34  F   UNL A   1      32.740  29.881  24.928  1.00  0.00    -0.207 F 
ENDBRANCH  27  28
ENDBRANCH  19  20
ENDBRANCH  18  19
ENDBRANCH  16  18
ENDBRANCH   9  14
BRANCH  13  35
ATOM     35  O   UNL A   1      33.470  27.484  21.721  1.00  0.00    -0.508 OA
ATOM     36  H   UNL A   1      34.261  27.983  21.771  1.00  0.00     0.293 HD
ENDBRANCH  13  35
ENDBRANCH   6   8
ENDBRANCH   5   6
ENDBRANCH   4   5
ENDBRANCH   3   4
ENDBRANCH   2   3
ENDBRANCH   1   2
BRANCH   1  37
ATOM     37  C   UNL A   1      40.775  22.087  27.376  1.00  0.00     0.188 C 
BRANCH  37  38
ATOM     38  O   UNL A   1      41.756  22.775  26.624  1.00  0.00    -0.376 OA
BRANCH  38  39
ATOM     39  C   UNL A   1      42.453  23.877  27.189  1.00  0.00     0.202 C 
BRANCH  39  40
ATOM     40  C   UNL A   1      43.163  25.008  26.405  1.00  0.00     0.261 C 
BRANCH  40  41
ATOM     41  O   UNL A   1      42.774  26.357  26.660  1.00  0.00    -0.460 OA
BRANCH  41  42
ATOM     42  C   UNL A   1      41.473  26.655  26.426  1.00  0.00     0.338 C 
ATOM     43  O   UNL A   1      40.754  26.175  25.565  1.00  0.00    -0.246 OA
BRANCH  42  44
ATOM     44  C   UNL A   1      40.982  27.468  27.562  1.00  0.00     0.060 A 
ATOM     45  C   UNL A   1      41.399  28.805  27.648  1.00  0.00     0.016 A 
ATOM     46  C   UNL A   1      40.069  26.949  28.485  1.00  0.00     0.016 A 
ATOM     47  C   UNL A   1      40.944  29.612  28.687  1.00  0.00     0.010 A 
ATOM     48  C   UNL A   1      39.641  27.749  29.549  1.00  0.00     0.010 A 
ATOM     49  C   UNL A   1      40.118  29.065  29.678  1.00  0.00    -0.014 A 
BRANCH  49  50
ATOM     50  C   UNL A   1      40.058  29.748  30.991  1.00  0.00     0.031 A 
ATOM     51  C   UNL A   1      41.171  29.446  31.963  1.00  0.00     0.074 A 
ATOM     52  C   UNL A   1      39.099  30.636  31.305  1.00  0.00     0.049 A 
ATOM     53  N   UNL A   1      41.396  29.941  33.151  1.00  0.00    -0.248 NA
ATOM     54  C   UNL A   1      42.170  28.454  31.525  1.00  0.00     0.031 C 
ATOM     55  C   UNL A   1      37.995  31.042  30.438  1.00  0.00     0.029 A 
ATOM     56  N   UNL A   1      38.912  31.363  32.454  1.00  0.00    -0.354 N 
ATOM     57  C   UNL A   1      42.562  29.327  33.594  1.00  0.00     0.074 A 
ATOM     58  C   UNL A   1      42.981  28.402  32.567  1.00  0.00     0.031 C 
ATOM     59  C   UNL A   1      37.238  31.944  31.093  1.00  0.00     0.029 A 
ATOM     60  C   UNL A   1      37.797  32.166  32.426  1.00  0.00     0.049 A 
ATOM     61  H   UNL A   1      39.520  31.313  33.227  1.00  0.00     0.167 HD
ATOM     62  C   UNL A   1      43.235  29.519  34.752  1.00  0.00     0.031 A 
ATOM     63  C   UNL A   1      37.292  32.982  33.373  1.00  0.00     0.031 A 
ATOM     64  C   UNL A   1      42.801  30.408  35.790  1.00  0.00     0.049 A 
ATOM     65  C   UNL A   1      38.020  33.129  34.686  1.00  0.00     0.074 A 
ATOM     66  C   UNL A   1      43.399  30.665  37.010  1.00  0.00     0.029 A 
ATOM     67  N   UNL A   1      41.649  31.178  35.735  1.00  0.00    -0.354 N 
ATOM     68  N   UNL A   1      39.138  32.565  35.080  1.00  0.00    -0.248 NA
ATOM     69  C   UNL A   1      37.426  34.040  35.676  1.00  0.00     0.031 C 
ATOM     70  C   UNL A   1      42.584  31.560  37.712  1.00  0.00     0.029 A 
ATOM     71  C   UNL A   1      41.510  31.901  36.904  1.00  0.00     0.049 A 
ATOM     72  H   UNL A   1      41.024  31.205  34.974  1.00  0.00     0.167 HD
ATOM     73  C   UNL A   1      39.400  33.082  36.346  1.00  0.00     0.074 A 
ATOM     74  C   UNL A   1      38.326  34.006  36.649  1.00  0.00     0.031 C 
ATOM     75  C   UNL A   1      40.437  32.822  37.181  1.00  0.00     0.031 A 
BRANCH  62  76
ATOM     76  C   UNL A   1      44.488  28.714  34.953  1.00  0.00    -0.014 A 
ATOM     77  C   UNL A   1      44.437  27.413  35.485  1.00  0.00     0.010 A 
ATOM     78  C   UNL A   1      45.734  29.270  34.613  1.00  0.00     0.010 A 
ATOM     79  C   UNL A   1      45.613  26.696  35.710  1.00  0.00     0.020 A 
ATOM     80  C   UNL A   1      46.911  28.545  34.813  1.00  0.00     0.020 A 
ATOM     81  C   UNL A   1      46.844  27.269  35.377  1.00  0.00     0.054 A 
BRANCH  81  82
ATOM     82  S   UNL A   1      48.358  26.314  35.667  1.00  0.00     0.124 S 
ATOM     83  O   UNL A   1      48.283  26.060  37.104  1.00  0.00    -0.237 OA
ATOM     84  O   UNL A   1      48.168  25.144  34.812  1.00  0.00    -0.237 OA
ATOM     85  O   UNL A   1      49.424  27.219  35.248  1.00  0.00    -0.744 OA
ENDBRANCH  81  82
ENDBRANCH  62  76
BRANCH  63  86
ATOM     86  C   UNL A   1      36.028  33.730  33.121  1.00  0.00    -0.014 A 
ATOM     87  C   UNL A   1      34.777  33.119  33.326  1.00  0.00     0.010 A 
ATOM     88  C   UNL A   1      36.072  35.056  32.653  1.00  0.00     0.010 A 
ATOM     89  C   UNL A   1      33.595  33.814  33.048  1.00  0.00     0.020 A 
ATOM     90  C   UNL A   1      34.892  35.761  32.397  1.00  0.00     0.020 A 
ATOM     91  C   UNL A   1      33.660  35.131  32.584  1.00  0.00     0.054 A 
BRANCH  91  92
ATOM     92  S   UNL A   1      32.114  36.027  32.266  1.00  0.00     0.124 S 
ATOM     93  O   UNL A   1      32.271  37.210  33.104  1.00  0.00    -0.237 OA
ATOM     94  O   UNL A   1      32.174  36.260  30.824  1.00  0.00    -0.237 OA
ATOM     95  O   UNL A   1      31.081  35.087  32.694  1.00  0.00    -0.744 OA
ENDBRANCH  91  92
ENDBRANCH  63  86
BRANCH  75  96
ATOM     96  C   UNL A   1      40.497  33.586  38.477  1.00  0.00    -0.014 A 
ATOM     97  C   UNL A   1      41.142  34.831  38.568  1.00  0.00     0.010 A 
ATOM     98  C   UNL A   1      39.840  33.068  39.609  1.00  0.00     0.010 A 
ATOM     99  C   UNL A   1      41.165  35.525  39.780  1.00  0.00     0.020 A 
ATOM    100  C   UNL A   1      39.837  33.773  40.815  1.00  0.00     0.020 A 
ATOM    101  C   UNL A   1      40.515  34.990  40.897  1.00  0.00     0.054 A 
BRANCH 101 102
ATOM    102  S   UNL A   1      40.530  35.923  42.452  1.00  0.00     0.124 S 
ATOM    103  O   UNL A   1      41.412  35.111  43.285  1.00  0.00    -0.237 OA
ATOM    104  O   UNL A   1      41.068  37.220  42.045  1.00  0.00    -0.237 OA
ATOM    105  O   UNL A   1      39.127  35.939  42.859  1.00  0.00    -0.744 OA
ENDBRANCH 101 102
ENDBRANCH  75  96
ENDBRANCH  49  50
ENDBRANCH  42  44
ENDBRANCH  41  42
ENDBRANCH  40  41
ENDBRANCH  39  40
ENDBRANCH  38  39
ENDBRANCH  37  38
ENDBRANCH   1  37
TORSDOF 26
ENDMDL
MODEL 2
REMARK VINA RESULT:      -9.4     10.743     18.410
REMARK SMILES O=C(CCN1C(=O)S/C(=C\c2ccc(F)cc2)C1=O)Nc1ccc(O)cc1C(=O)OCCOCCOCCOC(=O)c1ccc(-c2c3nc(c(-c4ccc(S(=O)(=O)[O-])cc4)c4ccc([nH]4)c(-c4ccc(S(=O)(=O)[O-])cc4)c4nc(c(-c5ccc(S(=O)(=O)[O-])cc5)c5ccc2[nH]5)C=C4)C=C3)cc1
REMARK SMILES IDX 34 1 33 2 32 3 31 4 30 5 28 6 29 7 27 8 21 9 22 10 23 11
REMARK SMILES IDX 26 12 24 13 20 14 1 15 2 16 3 18 4 19 5 20 6 21 18 22 7 23
REMARK SMILES IDX 8 24 9 25 19 26 10 27 11 28 12 29 17 30 13 31 16 32 14 33
REMARK SMILES IDX 15 34 25 35 35 37 36 38 37 39 38 40 39 41 40 42 41 43 42 44
REMARK SMILES IDX 43 45 101 46 44 47 100 48 45 49 46 50 47 51 94 52 48 53
REMARK SMILES IDX 99 54 93 55 95 56 49 57 98 58 92 59 91 60 50 62 80 63 61 64
REMARK SMILES IDX 79 65 62 66 65 67 78 68 96 69 63 70 64 71 77 73 97 74 66 75
REMARK SMILES IDX 51 76 52 77 60 78 53 79 59 80 54 81 55 82 56 83 57 84 58 85
REMARK SMILES IDX 81 86 82 87 90 88 83 89 89 90 84 91 85 92 86 93 87 94 88 95
REMARK SMILES IDX 67 96 68 97 76 98 69 99 75 100 70 101 71 102 72 103 73 104
REMARK SMILES IDX 74 105
REMARK H PARENT 20 17 25 36 95 61 65 72
REMARK Flexibility Score: inf
ROOT
ATOM      1  C   UNL A   1      42.042  41.164  25.353  1.00  0.00     0.188 C 
ENDROOT
BRANCH   1   2
ATOM      2  O   UNL A   1      42.362  41.780  24.113  1.00  0.00    -0.376 OA
BRANCH   2   3
ATOM      3  C   UNL A   1      41.396  42.736  23.702  1.00  0.00     0.202 C 
BRANCH   3   4
ATOM      4  C   UNL A   1      41.849  43.534  22.483  1.00  0.00     0.261 C 
BRANCH   4   5
ATOM      5  O   UNL A   1      43.198  43.330  22.007  1.00  0.00    -0.460 OA
BRANCH   5   6
ATOM      6  C   UNL A   1      43.416  42.696  20.829  1.00  0.00     0.340 C 
ATOM      7  O   UNL A   1      42.986  41.593  20.545  1.00  0.00    -0.246 OA
BRANCH   6   8
ATOM      8  C   UNL A   1      44.137  43.589  19.867  1.00  0.00     0.087 A 
ATOM      9  C   UNL A   1      45.462  44.066  20.037  1.00  0.00     0.056 A 
ATOM     10  C   UNL A   1      45.996  44.920  19.061  1.00  0.00     0.031 A 
ATOM     11  C   UNL A   1      45.231  45.337  17.968  1.00  0.00     0.048 A 
ATOM     12  C   UNL A   1      43.382  44.009  18.759  1.00  0.00     0.064 A 
ATOM     13  C   UNL A   1      43.927  44.889  17.833  1.00  0.00     0.116 A 
BRANCH   9  14
ATOM     14  N   UNL A   1      46.213  43.670  21.171  1.00  0.00    -0.325 N 
ATOM     15  O   UNL A   1      47.624  42.023  20.363  1.00  0.00    -0.275 OA
ATOM     16  C   UNL A   1      47.139  42.661  21.296  1.00  0.00     0.226 C 
ATOM     17  H   UNL A   1      46.048  44.192  21.989  1.00  0.00     0.169 HD
BRANCH  16  18
ATOM     18  C   UNL A   1      47.510  42.267  22.727  1.00  0.00     0.122 C 
BRANCH  18  19
ATOM     19  C   UNL A   1      46.408  41.870  23.706  1.00  0.00     0.140 C 
BRANCH  19  20
ATOM     20  N   UNL A   1      46.241  42.622  24.959  1.00  0.00    -0.268 N 
ATOM     21  C   UNL A   1      45.636  43.858  24.915  1.00  0.00     0.293 C 
ATOM     22  C   UNL A   1      46.556  42.170  26.218  1.00  0.00     0.268 C 
ATOM     23  O   UNL A   1      45.268  44.459  23.918  1.00  0.00    -0.261 OA
ATOM     24  S   UNL A   1      45.363  44.474  26.545  1.00  0.00    -0.022 SA
ATOM     25  C   UNL A   1      45.840  42.985  27.240  1.00  0.00     0.083 C 
ATOM     26  O   UNL A   1      47.254  41.209  26.500  1.00  0.00    -0.268 OA
ATOM     27  C   UNL A   1      45.502  42.427  28.411  1.00  0.00     0.029 C 
BRANCH  27  28
ATOM     28  C   UNL A   1      44.576  42.897  29.455  1.00  0.00    -0.024 A 
ATOM     29  C   UNL A   1      43.670  42.031  30.087  1.00  0.00     0.011 A 
ATOM     30  C   UNL A   1      44.747  44.181  29.983  1.00  0.00     0.011 A 
ATOM     31  C   UNL A   1      42.969  42.420  31.230  1.00  0.00     0.040 A 
ATOM     32  C   UNL A   1      44.033  44.580  31.118  1.00  0.00     0.040 A 
ATOM     33  C   UNL A   1      43.159  43.694  31.737  1.00  0.00     0.123 A 
ATOM     34  F   UNL A   1      42.509  44.067  32.846  1.00  0.00    -0.207 F 
ENDBRANCH  27  28
ENDBRANCH  19  20
ENDBRANCH  18  19
ENDBRANCH  16  18
ENDBRANCH   9  14
BRANCH  13  35
ATOM     35  O   UNL A   1      43.135  45.298  16.806  1.00  0.00    -0.508 OA
ATOM     36  H   UNL A   1      43.236  46.160  16.451  1.00  0.00     0.293 HD
ENDBRANCH  13  35
ENDBRANCH   6   8
ENDBRANCH   5   6
ENDBRANCH   4   5
ENDBRANCH   3   4
ENDBRANCH   2   3
ENDBRANCH   1   2
BRANCH   1  37
ATOM     37  C   UNL A   1      43.260  40.561  26.078  1.00  0.00     0.188 C 
BRANCH  37  38
ATOM     38  O   UNL A   1      43.178  39.228  26.544  1.00  0.00    -0.376 OA
BRANCH  38  39
ATOM     39  C   UNL A   1      42.751  38.956  27.873  1.00  0.00     0.202 C 
BRANCH  39  40
ATOM     40  C   UNL A   1      43.568  38.216  28.960  1.00  0.00     0.261 C 
BRANCH  40  41
ATOM     41  O   UNL A   1      44.809  37.618  28.587  1.00  0.00    -0.460 OA
BRANCH  41  42
ATOM     42  C   UNL A   1      45.537  37.080  29.595  1.00  0.00     0.338 C 
ATOM     43  O   UNL A   1      45.673  37.529  30.721  1.00  0.00    -0.246 OA
BRANCH  42  44
ATOM     44  C   UNL A   1      45.926  35.710  29.192  1.00  0.00     0.060 A 
ATOM     45  C   UNL A   1      45.843  35.371  27.833  1.00  0.00     0.016 A 
ATOM     46  C   UNL A   1      46.436  34.797  30.120  1.00  0.00     0.016 A 
ATOM     47  C   UNL A   1      46.222  34.101  27.406  1.00  0.00     0.010 A 
ATOM     48  C   UNL A   1      46.780  33.510  29.697  1.00  0.00     0.010 A 
ATOM     49  C   UNL A   1      46.626  33.146  28.348  1.00  0.00    -0.014 A 
BRANCH  49  50
ATOM     50  C   UNL A   1      46.537  31.716  27.973  1.00  0.00     0.031 A 
ATOM     51  C   UNL A   1      45.180  31.069  28.087  1.00  0.00     0.074 A 
ATOM     52  C   UNL A   1      47.588  31.021  27.502  1.00  0.00     0.049 A 
ATOM     53  N   UNL A   1      44.806  29.856  27.776  1.00  0.00    -0.248 NA
ATOM     54  C   UNL A   1      44.095  31.915  28.619  1.00  0.00     0.031 C 
ATOM     55  C   UNL A   1      48.938  31.544  27.308  1.00  0.00     0.029 A 
ATOM     56  N   UNL A   1      47.669  29.713  27.096  1.00  0.00    -0.354 N 
ATOM     57  C   UNL A   1      43.448  29.800  28.066  1.00  0.00     0.074 A 
ATOM     58  C   UNL A   1      43.068  31.083  28.608  1.00  0.00     0.031 C 
ATOM     59  C   UNL A   1      49.719  30.558  26.825  1.00  0.00     0.029 A 
ATOM     60  C   UNL A   1      48.927  29.337  26.690  1.00  0.00     0.049 A 
ATOM     61  H   UNL A   1      46.898  29.101  27.096  1.00  0.00     0.167 HD
ATOM     62  C   UNL A   1      42.585  28.773  27.892  1.00  0.00     0.031 A 
ATOM     63  C   UNL A   1      49.379  28.141  26.262  1.00  0.00     0.031 A 
ATOM     64  C   UNL A   1      42.967  27.485  27.391  1.00  0.00     0.049 A 
ATOM     65  C   UNL A   1      48.414  26.987  26.142  1.00  0.00     0.074 A 
ATOM     66  C   UNL A   1      42.175  26.368  27.191  1.00  0.00     0.029 A 
ATOM     67  N   UNL A   1      44.257  27.136  27.022  1.00  0.00    -0.354 N 
ATOM     68  N   UNL A   1      47.125  26.956  26.391  1.00  0.00    -0.248 NA
ATOM     69  C   UNL A   1      48.963  25.710  25.661  1.00  0.00     0.031 C 
ATOM     70  C   UNL A   1      42.997  25.330  26.740  1.00  0.00     0.029 A 
ATOM     71  C   UNL A   1      44.288  25.818  26.608  1.00  0.00     0.049 A 
ATOM     72  H   UNL A   1      45.035  27.739  27.051  1.00  0.00     0.167 HD
ATOM     73  C   UNL A   1      46.704  25.671  26.062  1.00  0.00     0.074 A 
ATOM     74  C   UNL A   1      47.873  24.957  25.592  1.00  0.00     0.031 C 
ATOM     75  C   UNL A   1      45.462  25.129  26.135  1.00  0.00     0.031 A 
BRANCH  62  76
ATOM     76  C   UNL A   1      41.154  29.010  28.288  1.00  0.00    -0.014 A 
ATOM     77  C   UNL A   1      40.142  29.124  27.318  1.00  0.00     0.010 A 
ATOM     78  C   UNL A   1      40.819  29.128  29.649  1.00  0.00     0.010 A 
ATOM     79  C   UNL A   1      38.826  29.391  27.699  1.00  0.00     0.020 A 
ATOM     80  C   UNL A   1      39.499  29.370  30.035  1.00  0.00     0.020 A 
ATOM     81  C   UNL A   1      38.514  29.517  29.056  1.00  0.00     0.054 A 
BRANCH  81  82
ATOM     82  S   UNL A   1      36.796  29.852  29.528  1.00  0.00     0.124 S 
ATOM     83  O   UNL A   1      36.064  29.385  28.352  1.00  0.00    -0.237 OA
ATOM     84  O   UNL A   1      36.630  29.042  30.733  1.00  0.00    -0.237 OA
ATOM     85  O   UNL A   1      36.771  31.296  29.745  1.00  0.00    -0.744 OA
ENDBRANCH  81  82
ENDBRANCH  62  76
BRANCH  63  86
ATOM     86  C   UNL A   1      50.816  27.964  25.913  1.00  0.00    -0.014 A 
ATOM     87  C   UNL A   1      51.260  28.116  24.587  1.00  0.00     0.010 A 
ATOM     88  C   UNL A   1      51.749  27.620  26.909  1.00  0.00     0.010 A 
ATOM     89  C   UNL A   1      52.604  27.907  24.260  1.00  0.00     0.020 A 
ATOM     90  C   UNL A   1      53.097  27.433  26.590  1.00  0.00     0.020 A 
ATOM     91  C   UNL A   1      53.514  27.566  25.264  1.00  0.00     0.054 A 
BRANCH  91  92
ATOM     92  S   UNL A   1      55.261  27.337  24.825  1.00  0.00     0.124 S 
ATOM     93  O   UNL A   1      55.809  26.767  26.050  1.00  0.00    -0.237 OA
ATOM     94  O   UNL A   1      55.183  26.428  23.683  1.00  0.00    -0.237 OA
ATOM     95  O   UNL A   1      55.712  28.689  24.505  1.00  0.00    -0.744 OA
ENDBRANCH  91  92
ENDBRANCH  63  86
BRANCH  75  96
ATOM     96  C   UNL A   1      45.287  23.717  25.645  1.00  0.00    -0.014 A 
ATOM     97  C   UNL A   1      45.439  22.617  26.506  1.00  0.00     0.010 A 
ATOM     98  C   UNL A   1      44.904  23.496  24.309  1.00  0.00     0.010 A 
ATOM     99  C   UNL A   1      45.252  21.317  26.028  1.00  0.00     0.020 A 
ATOM    100  C   UNL A   1      44.690  22.200  23.835  1.00  0.00     0.020 A 
ATOM    101  C   UNL A   1      44.882  21.117  24.694  1.00  0.00     0.054 A 
BRANCH 101 102
ATOM    102  S   UNL A   1      44.614  19.424  24.102  1.00  0.00     0.124 S 
ATOM    103  O   UNL A   1      43.392  19.046  24.807  1.00  0.00    -0.237 OA
ATOM    104  O   UNL A   1      44.477  19.604  22.658  1.00  0.00    -0.237 OA
ATOM    105  O   UNL A   1      45.821  18.716  24.523  1.00  0.00    -0.744 OA
ENDBRANCH 101 102
ENDBRANCH  75  96
ENDBRANCH  49  50
ENDBRANCH  42  44
ENDBRANCH  41  42
ENDBRANCH  40  41
ENDBRANCH  39  40
ENDBRANCH  38  39
ENDBRANCH  37  38
ENDBRANCH   1  37
TORSDOF 26
ENDMDL
MODEL 3
REMARK VINA RESULT:      -9.3      1.783      7.508
REMARK SMILES O=C(CCN1C(=O)S/C(=C\c2ccc(F)cc2)C1=O)Nc1ccc(O)cc1C(=O)OCCOCCOCCOC(=O)c1ccc(-c2c3nc(c(-c4ccc(S(=O)(=O)[O-])cc4)c4ccc([nH]4)c(-c4ccc(S(=O)(=O)[O-])cc4)c4nc(c(-c5ccc(S(=O)(=O)[O-])cc5)c5ccc2[nH]5)C=C4)C=C3)cc1
REMARK SMILES IDX 34 1 33 2 32 3 31 4 30 5 28 6 29 7 27 8 21 9 22 10 23 11
REMARK SMILES IDX 26 12 24 13 20 14 1 15 2 16 3 18 4 19 5 20 6 21 18 22 7 23
REMARK SMILES IDX 8 24 9 25 19 26 10 27 11 28 12 29 17 30 13 31 16 32 14 33
REMARK SMILES IDX 15 34 25 35 35 37 36 38 37 39 38 40 39 41 40 42 41 43 42 44
REMARK SMILES IDX 43 45 101 46 44 47 100 48 45 49 46 50 47 51 94 52 48 53
REMARK SMILES IDX 99 54 93 55 95 56 49 57 98 58 92 59 91 60 50 62 80 63 61 64
REMARK SMILES IDX 79 65 62 66 65 67 78 68 96 69 63 70 64 71 77 73 97 74 66 75
REMARK SMILES IDX 51 76 52 77 60 78 53 79 59 80 54 81 55 82 56 83 57 84 58 85
REMARK SMILES IDX 81 86 82 87 90 88 83 89 89 90 84 91 85 92 86 93 87 94 88 95
REMARK SMILES IDX 67 96 68 97 76 98 69 99 75 100 70 101 71 102 72 103 73 104
REMARK SMILES IDX 74 105
REMARK H PARENT 20 17 25 36 95 61 65 72
REMARK Flexibility Score: inf
ROOT
ATOM      1  C   UNL A   1      39.851  21.276  26.160  1.00  0.00     0.188 C 
ENDROOT
BRANCH   1   2
ATOM      2  O   UNL A   1      39.067  22.185  25.400  1.00  0.00    -0.376 OA
BRANCH   2   3
ATOM      3  C   UNL A   1      37.713  22.244  25.827  1.00  0.00     0.202 C 
BRANCH   3   4
ATOM      4  C   UNL A   1      36.731  22.144  24.664  1.00  0.00     0.261 C 
BRANCH   4   5
ATOM      5  O   UNL A   1      36.372  23.365  23.979  1.00  0.00    -0.460 OA
BRANCH   5   6
ATOM      6  C   UNL A   1      35.442  24.197  24.508  1.00  0.00     0.340 C 
ATOM      7  O   UNL A   1      35.523  24.719  25.606  1.00  0.00    -0.246 OA
BRANCH   6   8
ATOM      8  C   UNL A   1      34.369  24.502  23.510  1.00  0.00     0.087 A 
ATOM      9  C   UNL A   1      33.464  23.550  22.972  1.00  0.00     0.056 A 
ATOM     10  C   UNL A   1      32.526  23.982  22.022  1.00  0.00     0.031 A 
ATOM     11  C   UNL A   1      32.508  25.305  21.573  1.00  0.00     0.048 A 
ATOM     12  C   UNL A   1      34.333  25.831  23.056  1.00  0.00     0.064 A 
ATOM     13  C   UNL A   1      33.419  26.215  22.083  1.00  0.00     0.116 A 
BRANCH   9  14
ATOM     14  N   UNL A   1      33.520  22.202  23.404  1.00  0.00    -0.325 N 
ATOM     15  O   UNL A   1      31.738  21.192  22.327  1.00  0.00    -0.275 OA
ATOM     16  C   UNL A   1      32.650  21.167  23.151  1.00  0.00     0.226 C 
ATOM     17  H   UNL A   1      34.292  21.974  23.969  1.00  0.00     0.169 HD
BRANCH  16  18
ATOM     18  C   UNL A   1      32.802  19.934  24.044  1.00  0.00     0.122 C 
BRANCH  18  19
ATOM     19  C   UNL A   1      32.582  20.063  25.548  1.00  0.00     0.140 C 
BRANCH  19  20
ATOM     20  N   UNL A   1      32.427  21.396  26.150  1.00  0.00    -0.268 N 
ATOM     21  C   UNL A   1      33.467  21.918  26.886  1.00  0.00     0.293 C 
ATOM     22  C   UNL A   1      31.355  22.238  25.976  1.00  0.00     0.268 C 
ATOM     23  O   UNL A   1      34.516  21.360  27.170  1.00  0.00    -0.261 OA
ATOM     24  S   UNL A   1      33.136  23.592  27.330  1.00  0.00    -0.022 SA
ATOM     25  C   UNL A   1      31.744  23.632  26.335  1.00  0.00     0.083 C 
ATOM     26  O   UNL A   1      30.257  21.946  25.531  1.00  0.00    -0.268 OA
ATOM     27  C   UNL A   1      31.142  24.663  25.727  1.00  0.00     0.029 C 
BRANCH  27  28
ATOM     28  C   UNL A   1      31.511  26.088  25.684  1.00  0.00    -0.024 A 
ATOM     29  C   UNL A   1      32.610  26.590  26.398  1.00  0.00     0.011 A 
ATOM     30  C   UNL A   1      30.889  26.920  24.748  1.00  0.00     0.011 A 
ATOM     31  C   UNL A   1      33.097  27.879  26.170  1.00  0.00     0.040 A 
ATOM     32  C   UNL A   1      31.363  28.218  24.530  1.00  0.00     0.040 A 
ATOM     33  C   UNL A   1      32.468  28.682  25.235  1.00  0.00     0.123 A 
ATOM     34  F   UNL A   1      32.942  29.910  24.993  1.00  0.00    -0.207 F 
ENDBRANCH  27  28
ENDBRANCH  19  20
ENDBRANCH  18  19
ENDBRANCH  16  18
ENDBRANCH   9  14
BRANCH  13  35
ATOM     35  O   UNL A   1      33.462  27.503  21.648  1.00  0.00    -0.508 OA
ATOM     36  H   UNL A   1      34.233  27.829  21.226  1.00  0.00     0.293 HD
ENDBRANCH  13  35
ENDBRANCH   6   8
ENDBRANCH   5   6
ENDBRANCH   4   5
ENDBRANCH   3   4
ENDBRANCH   2   3
ENDBRANCH   1   2
BRANCH   1  37
ATOM     37  C   UNL A   1      41.299  21.747  26.388  1.00  0.00     0.188 C 
BRANCH  37  38
ATOM     38  O   UNL A   1      41.894  22.596  25.426  1.00  0.00    -0.376 OA
BRANCH  38  39
ATOM     39  C   UNL A   1      42.988  23.431  25.782  1.00  0.00     0.202 C 
BRANCH  39  40
ATOM     40  C   UNL A   1      43.464  24.689  25.017  1.00  0.00     0.261 C 
BRANCH  40  41
ATOM     41  O   UNL A   1      43.613  25.909  25.742  1.00  0.00    -0.460 OA
BRANCH  41  42
ATOM     42  C   UNL A   1      42.475  26.610  25.967  1.00  0.00     0.338 C 
ATOM     43  O   UNL A   1      41.426  26.521  25.351  1.00  0.00    -0.246 OA
BRANCH  42  44
ATOM     44  C   UNL A   1      42.624  27.315  27.260  1.00  0.00     0.060 A 
ATOM     45  C   UNL A   1      42.073  26.720  28.405  1.00  0.00     0.016 A 
ATOM     46  C   UNL A   1      43.357  28.501  27.360  1.00  0.00     0.016 A 
ATOM     47  C   UNL A   1      42.210  27.336  29.646  1.00  0.00     0.010 A 
ATOM     48  C   UNL A   1      43.462  29.139  28.600  1.00  0.00     0.010 A 
ATOM     49  C   UNL A   1      42.845  28.582  29.734  1.00  0.00    -0.014 A 
BRANCH  49  50
ATOM     50  C   UNL A   1      42.550  29.434  30.909  1.00  0.00     0.031 A 
ATOM     51  C   UNL A   1      41.279  30.243  30.856  1.00  0.00     0.074 A 
ATOM     52  C   UNL A   1      43.333  29.462  32.002  1.00  0.00     0.049 A 
ATOM     53  N   UNL A   1      40.751  31.026  31.760  1.00  0.00    -0.248 NA
ATOM     54  C   UNL A   1      40.494  30.147  29.611  1.00  0.00     0.031 C 
ATOM     55  C   UNL A   1      44.563  28.697  32.190  1.00  0.00     0.029 A 
ATOM     56  N   UNL A   1      43.193  30.172  33.168  1.00  0.00    -0.354 N 
ATOM     57  C   UNL A   1      39.574  31.504  31.196  1.00  0.00     0.074 A 
ATOM     58  C   UNL A   1      39.478  30.954  29.864  1.00  0.00     0.031 C 
ATOM     59  C   UNL A   1      45.072  28.985  33.403  1.00  0.00     0.029 A 
ATOM     60  C   UNL A   1      44.211  29.964  34.067  1.00  0.00     0.049 A 
ATOM     61  H   UNL A   1      42.435  30.774  33.344  1.00  0.00     0.167 HD
ATOM     62  C   UNL A   1      38.645  32.324  31.739  1.00  0.00     0.031 A 
ATOM     63  C   UNL A   1      44.419  30.506  35.284  1.00  0.00     0.031 A 
ATOM     64  C   UNL A   1      38.756  32.902  33.046  1.00  0.00     0.049 A 
ATOM     65  C   UNL A   1      43.405  31.475  35.843  1.00  0.00     0.074 A 
ATOM     66  C   UNL A   1      37.880  33.760  33.686  1.00  0.00     0.029 A 
ATOM     67  N   UNL A   1      39.818  32.691  33.911  1.00  0.00    -0.354 N 
ATOM     68  N   UNL A   1      42.281  31.894  35.311  1.00  0.00    -0.248 NA
ATOM     69  C   UNL A   1      43.680  32.026  37.178  1.00  0.00     0.031 C 
ATOM     70  C   UNL A   1      38.435  34.101  34.924  1.00  0.00     0.029 A 
ATOM     71  C   UNL A   1      39.628  33.412  35.074  1.00  0.00     0.049 A 
ATOM     72  H   UNL A   1      40.593  32.112  33.723  1.00  0.00     0.167 HD
ATOM     73  C   UNL A   1      41.698  32.728  36.261  1.00  0.00     0.074 A 
ATOM     74  C   UNL A   1      42.591  32.750  37.401  1.00  0.00     0.031 C 
ATOM     75  C   UNL A   1      40.527  33.411  36.201  1.00  0.00     0.031 A 
BRANCH  62  76
ATOM     76  C   UNL A   1      37.453  32.662  30.887  1.00  0.00    -0.014 A 
ATOM     77  C   UNL A   1      36.234  31.977  31.040  1.00  0.00     0.010 A 
ATOM     78  C   UNL A   1      37.557  33.673  29.915  1.00  0.00     0.010 A 
ATOM     79  C   UNL A   1      35.151  32.270  30.209  1.00  0.00     0.020 A 
ATOM     80  C   UNL A   1      36.467  33.986  29.100  1.00  0.00     0.020 A 
ATOM     81  C   UNL A   1      35.276  33.270  29.240  1.00  0.00     0.054 A 
BRANCH  81  82
ATOM     82  S   UNL A   1      33.852  33.642  28.181  1.00  0.00     0.124 S 
ATOM     83  O   UNL A   1      32.912  34.226  29.136  1.00  0.00    -0.237 OA
ATOM     84  O   UNL A   1      34.413  34.572  27.204  1.00  0.00    -0.237 OA
ATOM     85  O   UNL A   1      33.469  32.339  27.646  1.00  0.00    -0.744 OA
ENDBRANCH  81  82
ENDBRANCH  62  76
BRANCH  63  86
ATOM     86  C   UNL A   1      45.636  30.152  36.066  1.00  0.00    -0.014 A 
ATOM     87  C   UNL A   1      45.636  29.050  36.940  1.00  0.00     0.010 A 
ATOM     88  C   UNL A   1      46.802  30.932  35.953  1.00  0.00     0.010 A 
ATOM     89  C   UNL A   1      46.770  28.749  37.702  1.00  0.00     0.020 A 
ATOM     90  C   UNL A   1      47.944  30.620  36.695  1.00  0.00     0.020 A 
ATOM     91  C   UNL A   1      47.917  29.536  37.575  1.00  0.00     0.054 A 
BRANCH  91  92
ATOM     92  S   UNL A   1      49.390  29.104  38.544  1.00  0.00     0.124 S 
ATOM     93  O   UNL A   1      50.036  28.115  37.689  1.00  0.00    -0.237 OA
ATOM     94  O   UNL A   1      50.080  30.388  38.660  1.00  0.00    -0.237 OA
ATOM     95  O   UNL A   1      48.837  28.589  39.794  1.00  0.00    -0.744 OA
ENDBRANCH  91  92
ENDBRANCH  63  86
BRANCH  75  96
ATOM     96  C   UNL A   1      40.112  34.193  37.419  1.00  0.00    -0.014 A 
ATOM     97  C   UNL A   1      39.280  33.633  38.403  1.00  0.00     0.010 A 
ATOM     98  C   UNL A   1      40.617  35.493  37.604  1.00  0.00     0.010 A 
ATOM     99  C   UNL A   1      38.927  34.376  39.532  1.00  0.00     0.020 A 
ATOM    100  C   UNL A   1      40.289  36.229  38.745  1.00  0.00     0.020 A 
ATOM    101  C   UNL A   1      39.431  35.671  39.694  1.00  0.00     0.054 A 
BRANCH 101 102
ATOM    102  S   UNL A   1      38.985  36.606  41.183  1.00  0.00     0.124 S 
ATOM    103  O   UNL A   1      40.272  36.729  41.861  1.00  0.00    -0.237 OA
ATOM    104  O   UNL A   1      38.443  37.847  40.635  1.00  0.00    -0.237 OA
ATOM    105  O   UNL A   1      38.008  35.749  41.850  1.00  0.00    -0.744 OA
ENDBRANCH 101 102
ENDBRANCH  75  96
ENDBRANCH  49  50
ENDBRANCH  42  44
ENDBRANCH  41  42
ENDBRANCH  40  41
ENDBRANCH  39  40
ENDBRANCH  38  39
ENDBRANCH  37  38
ENDBRANCH   1  37
TORSDOF 26
ENDMDL
