MODEL 1
REMARK VINA RESULT:     -10.0      0.000      0.000
REMARK SMILES CS(=O)(=O)c1ccc(N2N=C(C(=O)OCCOCCOCCOC(=O)c3ccc(-c4c5nc(c(-c6ccc(S(=O)(=O)[O-])cc6)c6ccc([nH]6)c(-c6ccc(S(=O)(=O)[O-])cc6)c6nc(c(-c7ccc(S(=O)(=O)[O-])cc7)c7ccc4[nH]7)C=C6)C=C5)cc3)C[C@H]2c2cccs2)cc1
REMARK SMILES IDX 19 1 18 2 17 3 16 4 15 5 14 6 12 7 13 8 11 9 9 10 10 11
REMARK SMILES IDX 87 12 86 13 8 14 5 15 6 16 94 17 7 18 93 19 2 20 1 21 3 22
REMARK SMILES IDX 4 23 88 24 89 25 92 26 90 27 91 28 20 29 21 30 22 31 23 32
REMARK SMILES IDX 24 33 25 34 26 35 27 36 85 37 28 38 84 39 29 40 30 41 31 42
REMARK SMILES IDX 78 43 32 44 83 45 77 46 79 47 33 48 82 49 76 50 75 51 34 53
REMARK SMILES IDX 64 54 45 55 63 56 46 57 49 58 62 59 80 60 47 61 48 62 61 64
REMARK SMILES IDX 81 65 50 66 35 67 36 68 44 69 37 70 43 71 38 72 39 73 40 74
REMARK SMILES IDX 41 75 42 76 65 77 66 78 74 79 67 80 73 81 68 82 69 83 70 84
REMARK SMILES IDX 71 85 72 86 51 87 52 88 60 89 53 90 59 91 54 92 55 93 56 94
REMARK SMILES IDX 57 95 58 96
REMARK H PARENT 79 52 49 63
REMARK Flexibility Score: inf
ROOT
ATOM      1  C   UNL A   1      33.438  27.845  25.769  1.00  0.00     0.188 C 
ENDROOT
BRANCH   1   2
ATOM      2  C   UNL A   1      31.919  28.100  25.799  1.00  0.00     0.188 C 
BRANCH   2   3
ATOM      3  O   UNL A   1      31.063  27.220  25.072  1.00  0.00    -0.376 OA
BRANCH   3   4
ATOM      4  C   UNL A   1      30.755  27.517  23.712  1.00  0.00     0.202 C 
BRANCH   4   5
ATOM      5  C   UNL A   1      31.726  27.016  22.637  1.00  0.00     0.261 C 
BRANCH   5   6
ATOM      6  O   UNL A   1      31.806  25.583  22.615  1.00  0.00    -0.459 OA
BRANCH   6   7
ATOM      7  C   UNL A   1      33.028  25.088  22.348  1.00  0.00     0.354 C 
ATOM      8  O   UNL A   1      33.629  25.112  21.290  1.00  0.00    -0.245 OA
BRANCH   7   9
ATOM      9  C   UNL A   1      33.631  24.537  23.612  1.00  0.00     0.148 C 
ATOM     10  N   UNL A   1      35.037  23.730  24.976  1.00  0.00    -0.256 N 
ATOM     11  N   UNL A   1      34.903  24.296  23.737  1.00  0.00    -0.169 NA
ATOM     12  C   UNL A   1      33.737  23.273  25.507  1.00  0.00     0.154 C 
ATOM     13  C   UNL A   1      32.794  24.278  24.825  1.00  0.00     0.099 C 
BRANCH  10  14
ATOM     14  C   UNL A   1      36.253  23.146  25.310  1.00  0.00     0.060 A 
ATOM     15  C   UNL A   1      38.736  21.997  25.986  1.00  0.00     0.067 A 
ATOM     16  C   UNL A   1      38.410  23.278  26.442  1.00  0.00     0.022 A 
ATOM     17  C   UNL A   1      37.842  21.292  25.183  1.00  0.00     0.022 A 
ATOM     18  C   UNL A   1      37.175  23.844  26.103  1.00  0.00     0.029 A 
ATOM     19  C   UNL A   1      36.617  21.877  24.841  1.00  0.00     0.029 A 
BRANCH  15  20
ATOM     20  S   UNL A   1      40.297  21.312  26.491  1.00  0.00     0.175 S 
ATOM     21  C   UNL A   1      41.568  22.282  25.731  1.00  0.00     0.163 C 
ATOM     22  O   UNL A   1      40.372  19.991  25.889  1.00  0.00    -0.224 OA
ATOM     23  O   UNL A   1      40.396  21.497  27.922  1.00  0.00    -0.224 OA
ENDBRANCH  15  20
ENDBRANCH  10  14
BRANCH  12  24
ATOM     24  C   UNL A   1      33.355  21.819  25.243  1.00  0.00     0.030 A 
ATOM     25  C   UNL A   1      33.526  20.745  26.104  1.00  0.00     0.017 A 
ATOM     26  S   UNL A   1      32.662  21.291  23.758  1.00  0.00    -0.147 S 
ATOM     27  C   UNL A   1      33.081  19.512  25.546  1.00  0.00     0.012 A 
ATOM     28  C   UNL A   1      32.564  19.674  24.282  1.00  0.00     0.065 A 
ENDBRANCH  12  24
ENDBRANCH   7   9
ENDBRANCH   6   7
ENDBRANCH   5   6
ENDBRANCH   4   5
ENDBRANCH   3   4
ENDBRANCH   2   3
ENDBRANCH   1   2
BRANCH   1  29
ATOM     29  O   UNL A   1      34.228  28.986  26.052  1.00  0.00    -0.376 OA
BRANCH  29  30
ATOM     30  C   UNL A   1      34.275  29.405  27.409  1.00  0.00     0.202 C 
BRANCH  30  31
ATOM     31  C   UNL A   1      35.588  30.020  27.918  1.00  0.00     0.261 C 
BRANCH  31  32
ATOM     32  O   UNL A   1      36.712  29.129  28.009  1.00  0.00    -0.460 OA
BRANCH  32  33
ATOM     33  C   UNL A   1      37.394  29.106  29.178  1.00  0.00     0.338 C 
ATOM     34  O   UNL A   1      36.930  28.936  30.291  1.00  0.00    -0.246 OA
BRANCH  33  35
ATOM     35  C   UNL A   1      38.836  29.115  28.848  1.00  0.00     0.060 A 
ATOM     36  C   UNL A   1      39.228  29.177  27.504  1.00  0.00     0.016 A 
ATOM     37  C   UNL A   1      39.797  29.085  29.863  1.00  0.00     0.016 A 
ATOM     38  C   UNL A   1      40.585  29.185  27.173  1.00  0.00     0.010 A 
ATOM     39  C   UNL A   1      41.154  29.075  29.528  1.00  0.00     0.010 A 
ATOM     40  C   UNL A   1      41.555  29.097  28.181  1.00  0.00    -0.014 A 
BRANCH  40  41
ATOM     41  C   UNL A   1      42.974  28.851  27.827  1.00  0.00     0.031 A 
ATOM     42  C   UNL A   1      43.970  29.960  28.044  1.00  0.00     0.074 A 
ATOM     43  C   UNL A   1      43.381  27.669  27.332  1.00  0.00     0.049 A 
ATOM     44  N   UNL A   1      45.256  29.981  27.807  1.00  0.00    -0.248 NA
ATOM     45  C   UNL A   1      43.438  31.212  28.605  1.00  0.00     0.031 C 
ATOM     46  C   UNL A   1      42.529  26.500  27.120  1.00  0.00     0.029 A 
ATOM     47  N   UNL A   1      44.625  27.259  26.921  1.00  0.00    -0.354 N 
ATOM     48  C   UNL A   1      45.687  31.246  28.188  1.00  0.00     0.074 A 
ATOM     49  C   UNL A   1      44.521  31.974  28.640  1.00  0.00     0.031 C 
ATOM     50  C   UNL A   1      43.280  25.500  26.625  1.00  0.00     0.029 A 
ATOM     51  C   UNL A   1      44.655  25.966  26.458  1.00  0.00     0.049 A 
ATOM     52  H   UNL A   1      45.421  27.837  26.956  1.00  0.00     0.167 HD
ATOM     53  C   UNL A   1      46.942  31.759  28.168  1.00  0.00     0.031 A 
ATOM     54  C   UNL A   1      45.675  25.245  25.950  1.00  0.00     0.031 A 
ATOM     55  C   UNL A   1      48.096  31.047  27.690  1.00  0.00     0.049 A 
ATOM     56  C   UNL A   1      47.045  25.868  25.848  1.00  0.00     0.074 A 
ATOM     57  C   UNL A   1      49.411  31.475  27.638  1.00  0.00     0.029 A 
ATOM     58  N   UNL A   1      48.073  29.763  27.167  1.00  0.00    -0.354 N 
ATOM     59  N   UNL A   1      47.443  27.059  26.230  1.00  0.00    -0.248 NA
ATOM     60  C   UNL A   1      48.104  25.045  25.246  1.00  0.00     0.031 C 
ATOM     61  C   UNL A   1      50.174  30.471  27.030  1.00  0.00     0.029 A 
ATOM     62  C   UNL A   1      49.343  29.395  26.756  1.00  0.00     0.049 A 
ATOM     63  H   UNL A   1      47.271  29.196  27.097  1.00  0.00     0.167 HD
ATOM     64  C   UNL A   1      48.804  27.114  25.947  1.00  0.00     0.074 A 
ATOM     65  C   UNL A   1      49.161  25.837  25.361  1.00  0.00     0.031 C 
ATOM     66  C   UNL A   1      49.683  28.126  26.162  1.00  0.00     0.031 A 
BRANCH  53  67
ATOM     67  C   UNL A   1      47.104  33.183  28.631  1.00  0.00    -0.014 A 
ATOM     68  C   UNL A   1      47.496  33.482  29.949  1.00  0.00     0.010 A 
ATOM     69  C   UNL A   1      46.841  34.237  27.739  1.00  0.00     0.010 A 
ATOM     70  C   UNL A   1      47.563  34.809  30.382  1.00  0.00     0.020 A 
ATOM     71  C   UNL A   1      46.933  35.565  28.160  1.00  0.00     0.020 A 
ATOM     72  C   UNL A   1      47.268  35.843  29.487  1.00  0.00     0.054 A 
BRANCH  72  73
ATOM     73  S   UNL A   1      47.334  37.556  30.080  1.00  0.00     0.124 S 
ATOM     74  O   UNL A   1      46.519  38.249  29.085  1.00  0.00    -0.237 OA
ATOM     75  O   UNL A   1      46.749  37.460  31.414  1.00  0.00    -0.237 OA
ATOM     76  O   UNL A   1      48.759  37.877  30.050  1.00  0.00    -0.744 OA
ENDBRANCH  72  73
ENDBRANCH  53  67
BRANCH  54  77
ATOM     77  C   UNL A   1      45.445  23.844  25.502  1.00  0.00    -0.014 A 
ATOM     78  C   UNL A   1      45.630  22.773  26.393  1.00  0.00     0.010 A 
ATOM     79  C   UNL A   1      45.036  23.573  24.183  1.00  0.00     0.010 A 
ATOM     80  C   UNL A   1      45.417  21.455  25.973  1.00  0.00     0.020 A 
ATOM     81  C   UNL A   1      44.800  22.259  23.766  1.00  0.00     0.020 A 
ATOM     82  C   UNL A   1      45.001  21.207  24.662  1.00  0.00     0.054 A 
BRANCH  82  83
ATOM     83  S   UNL A   1      44.672  19.495  24.157  1.00  0.00     0.124 S 
ATOM     84  O   UNL A   1      43.453  19.187  24.897  1.00  0.00    -0.237 OA
ATOM     85  O   UNL A   1      44.519  19.614  22.709  1.00  0.00    -0.237 OA
ATOM     86  O   UNL A   1      45.866  18.775  24.591  1.00  0.00    -0.744 OA
ENDBRANCH  82  83
ENDBRANCH  54  77
BRANCH  66  87
ATOM     87  C   UNL A   1      51.123  27.887  25.788  1.00  0.00    -0.014 A 
ATOM     88  C   UNL A   1      51.603  28.186  24.502  1.00  0.00     0.010 A 
ATOM     89  C   UNL A   1      52.019  27.402  26.759  1.00  0.00     0.010 A 
ATOM     90  C   UNL A   1      52.949  27.972  24.183  1.00  0.00     0.020 A 
ATOM     91  C   UNL A   1      53.369  27.212  26.451  1.00  0.00     0.020 A 
ATOM     92  C   UNL A   1      53.822  27.484  25.159  1.00  0.00     0.054 A 
BRANCH  92  93
ATOM     93  S   UNL A   1      55.571  27.250  24.733  1.00  0.00     0.124 S 
ATOM     94  O   UNL A   1      56.077  26.539  25.903  1.00  0.00    -0.237 OA
ATOM     95  O   UNL A   1      55.500  26.464  23.503  1.00  0.00    -0.237 OA
ATOM     96  O   UNL A   1      56.072  28.612  24.565  1.00  0.00    -0.744 OA
ENDBRANCH  92  93
ENDBRANCH  66  87
ENDBRANCH  40  41
ENDBRANCH  33  35
ENDBRANCH  32  33
ENDBRANCH  31  32
ENDBRANCH  30  31
ENDBRANCH  29  30
ENDBRANCH   1  29
TORSDOF 23
ENDMDL
MODEL 2
REMARK VINA RESULT:      -9.8      2.017      8.239
REMARK SMILES CS(=O)(=O)c1ccc(N2N=C(C(=O)OCCOCCOCCOC(=O)c3ccc(-c4c5nc(c(-c6ccc(S(=O)(=O)[O-])cc6)c6ccc([nH]6)c(-c6ccc(S(=O)(=O)[O-])cc6)c6nc(c(-c7ccc(S(=O)(=O)[O-])cc7)c7ccc4[nH]7)C=C6)C=C5)cc3)C[C@H]2c2cccs2)cc1
REMARK SMILES IDX 19 1 18 2 17 3 16 4 15 5 14 6 12 7 13 8 11 9 9 10 10 11
REMARK SMILES IDX 87 12 86 13 8 14 5 15 6 16 94 17 7 18 93 19 2 20 1 21 3 22
REMARK SMILES IDX 4 23 88 24 89 25 92 26 90 27 91 28 20 29 21 30 22 31 23 32
REMARK SMILES IDX 24 33 25 34 26 35 27 36 85 37 28 38 84 39 29 40 30 41 31 42
REMARK SMILES IDX 78 43 32 44 83 45 77 46 79 47 33 48 82 49 76 50 75 51 34 53
REMARK SMILES IDX 64 54 45 55 63 56 46 57 49 58 62 59 80 60 47 61 48 62 61 64
REMARK SMILES IDX 81 65 50 66 35 67 36 68 44 69 37 70 43 71 38 72 39 73 40 74
REMARK SMILES IDX 41 75 42 76 65 77 66 78 74 79 67 80 73 81 68 82 69 83 70 84
REMARK SMILES IDX 71 85 72 86 51 87 52 88 60 89 53 90 59 91 54 92 55 93 56 94
REMARK SMILES IDX 57 95 58 96
REMARK H PARENT 79 52 49 63
REMARK Flexibility Score: inf
ROOT
ATOM      1  C   UNL A   1      32.531  28.968  26.801  1.00  0.00     0.188 C 
ENDROOT
BRANCH   1   2
ATOM      2  C   UNL A   1      32.089  29.659  25.496  1.00  0.00     0.188 C 
BRANCH   2   3
ATOM      3  O   UNL A   1      31.012  29.090  24.753  1.00  0.00    -0.376 OA
BRANCH   3   4
ATOM      4  C   UNL A   1      31.009  29.207  23.332  1.00  0.00     0.202 C 
BRANCH   4   5
ATOM      5  C   UNL A   1      32.031  28.376  22.547  1.00  0.00     0.261 C 
BRANCH   5   6
ATOM      6  O   UNL A   1      32.165  27.051  23.082  1.00  0.00    -0.459 OA
BRANCH   6   7
ATOM      7  C   UNL A   1      33.228  26.362  22.630  1.00  0.00     0.354 C 
ATOM      8  O   UNL A   1      33.905  26.594  21.645  1.00  0.00    -0.245 OA
BRANCH   7   9
ATOM      9  C   UNL A   1      33.549  25.249  23.592  1.00  0.00     0.148 C 
ATOM     10  N   UNL A   1      33.873  23.307  24.374  1.00  0.00    -0.256 N 
ATOM     11  N   UNL A   1      33.674  24.011  23.217  1.00  0.00    -0.169 NA
ATOM     12  C   UNL A   1      33.502  24.102  25.562  1.00  0.00     0.154 C 
ATOM     13  C   UNL A   1      33.790  25.521  25.043  1.00  0.00     0.099 C 
BRANCH  10  14
ATOM     14  C   UNL A   1      33.809  21.920  24.326  1.00  0.00     0.060 A 
ATOM     15  C   UNL A   1      33.719  19.105  24.224  1.00  0.00     0.067 A 
ATOM     16  C   UNL A   1      34.826  19.750  24.785  1.00  0.00     0.022 A 
ATOM     17  C   UNL A   1      32.666  19.851  23.699  1.00  0.00     0.022 A 
ATOM     18  C   UNL A   1      34.864  21.149  24.833  1.00  0.00     0.029 A 
ATOM     19  C   UNL A   1      32.726  21.249  23.741  1.00  0.00     0.029 A 
BRANCH  15  20
ATOM     20  S   UNL A   1      33.704  17.327  24.237  1.00  0.00     0.175 S 
ATOM     21  C   UNL A   1      32.527  16.818  25.456  1.00  0.00     0.163 C 
ATOM     22  O   UNL A   1      35.010  16.917  24.727  1.00  0.00    -0.224 OA
ATOM     23  O   UNL A   1      33.214  16.900  22.944  1.00  0.00    -0.224 OA
ENDBRANCH  15  20
ENDBRANCH  10  14
BRANCH  12  24
ATOM     24  C   UNL A   1      32.079  23.935  26.090  1.00  0.00     0.030 A 
ATOM     25  C   UNL A   1      31.528  22.792  26.647  1.00  0.00     0.017 A 
ATOM     26  S   UNL A   1      30.907  25.195  26.025  1.00  0.00    -0.147 S 
ATOM     27  C   UNL A   1      30.163  22.962  27.023  1.00  0.00     0.012 A 
ATOM     28  C   UNL A   1      29.711  24.233  26.761  1.00  0.00     0.065 A 
ENDBRANCH  12  24
ENDBRANCH   7   9
ENDBRANCH   6   7
ENDBRANCH   5   6
ENDBRANCH   4   5
ENDBRANCH   3   4
ENDBRANCH   2   3
ENDBRANCH   1   2
BRANCH   1  29
ATOM     29  O   UNL A   1      33.778  29.414  27.303  1.00  0.00    -0.376 OA
BRANCH  29  30
ATOM     30  C   UNL A   1      33.874  30.793  27.634  1.00  0.00     0.202 C 
BRANCH  30  31
ATOM     31  C   UNL A   1      34.698  31.171  28.875  1.00  0.00     0.261 C 
BRANCH  31  32
ATOM     32  O   UNL A   1      36.115  30.947  28.787  1.00  0.00    -0.460 OA
BRANCH  32  33
ATOM     33  C   UNL A   1      36.695  30.235  29.781  1.00  0.00     0.338 C 
ATOM     34  O   UNL A   1      36.130  29.669  30.699  1.00  0.00    -0.246 OA
BRANCH  33  35
ATOM     35  C   UNL A   1      38.128  30.087  29.440  1.00  0.00     0.060 A 
ATOM     36  C   UNL A   1      38.493  29.878  28.103  1.00  0.00     0.016 A 
ATOM     37  C   UNL A   1      39.107  30.176  30.434  1.00  0.00     0.016 A 
ATOM     38  C   UNL A   1      39.840  29.736  27.763  1.00  0.00     0.010 A 
ATOM     39  C   UNL A   1      40.452  30.014  30.093  1.00  0.00     0.010 A 
ATOM     40  C   UNL A   1      40.824  29.766  28.761  1.00  0.00    -0.014 A 
BRANCH  40  41
ATOM     41  C   UNL A   1      42.216  29.365  28.443  1.00  0.00     0.031 A 
ATOM     42  C   UNL A   1      42.485  27.929  28.079  1.00  0.00     0.074 A 
ATOM     43  C   UNL A   1      43.226  30.254  28.466  1.00  0.00     0.049 A 
ATOM     44  N   UNL A   1      43.614  27.347  27.768  1.00  0.00    -0.248 NA
ATOM     45  C   UNL A   1      41.318  27.032  28.063  1.00  0.00     0.031 C 
ATOM     46  C   UNL A   1      43.093  31.681  28.754  1.00  0.00     0.029 A 
ATOM     47  N   UNL A   1      44.568  30.079  28.234  1.00  0.00    -0.354 N 
ATOM     48  C   UNL A   1      43.295  26.016  27.522  1.00  0.00     0.074 A 
ATOM     49  C   UNL A   1      41.874  25.871  27.751  1.00  0.00     0.031 C 
ATOM     50  C   UNL A   1      44.308  32.254  28.674  1.00  0.00     0.029 A 
ATOM     51  C   UNL A   1      45.304  31.232  28.359  1.00  0.00     0.049 A 
ATOM     52  H   UNL A   1      44.965  29.209  28.001  1.00  0.00     0.167 HD
ATOM     53  C   UNL A   1      44.110  25.004  27.136  1.00  0.00     0.031 A 
ATOM     54  C   UNL A   1      46.632  31.437  28.240  1.00  0.00     0.031 A 
ATOM     55  C   UNL A   1      45.528  25.141  26.937  1.00  0.00     0.049 A 
ATOM     56  C   UNL A   1      47.533  30.275  27.903  1.00  0.00     0.074 A 
ATOM     57  C   UNL A   1      46.437  24.178  26.536  1.00  0.00     0.029 A 
ATOM     58  N   UNL A   1      46.245  26.310  27.139  1.00  0.00    -0.354 N 
ATOM     59  N   UNL A   1      47.216  29.027  27.654  1.00  0.00    -0.248 NA
ATOM     60  C   UNL A   1      48.974  30.556  27.830  1.00  0.00     0.031 C 
ATOM     61  C   UNL A   1      47.714  24.752  26.552  1.00  0.00     0.029 A 
ATOM     62  C   UNL A   1      47.592  26.087  26.906  1.00  0.00     0.049 A 
ATOM     63  H   UNL A   1      45.855  27.173  27.408  1.00  0.00     0.167 HD
ATOM     64  C   UNL A   1      48.413  28.381  27.360  1.00  0.00     0.074 A 
ATOM     65  C   UNL A   1      49.461  29.378  27.464  1.00  0.00     0.031 C 
ATOM     66  C   UNL A   1      48.626  27.084  27.026  1.00  0.00     0.031 A 
BRANCH  53  67
ATOM     67  C   UNL A   1      43.477  23.649  26.961  1.00  0.00    -0.014 A 
ATOM     68  C   UNL A   1      43.264  22.795  28.059  1.00  0.00     0.010 A 
ATOM     69  C   UNL A   1      43.106  23.217  25.676  1.00  0.00     0.010 A 
ATOM     70  C   UNL A   1      42.749  21.510  27.865  1.00  0.00     0.020 A 
ATOM     71  C   UNL A   1      42.566  21.944  25.481  1.00  0.00     0.020 A 
ATOM     72  C   UNL A   1      42.416  21.088  26.574  1.00  0.00     0.054 A 
BRANCH  72  73
ATOM     73  S   UNL A   1      41.775  19.406  26.343  1.00  0.00     0.124 S 
ATOM     74  O   UNL A   1      40.345  19.651  26.175  1.00  0.00    -0.237 OA
ATOM     75  O   UNL A   1      42.480  18.953  25.147  1.00  0.00    -0.237 OA
ATOM     76  O   UNL A   1      42.149  18.722  27.579  1.00  0.00    -0.744 OA
ENDBRANCH  72  73
ENDBRANCH  53  67
BRANCH  54  77
ATOM     77  C   UNL A   1      47.195  32.801  28.435  1.00  0.00    -0.014 A 
ATOM     78  C   UNL A   1      47.332  33.675  27.343  1.00  0.00     0.010 A 
ATOM     79  C   UNL A   1      47.591  33.236  29.713  1.00  0.00     0.010 A 
ATOM     80  C   UNL A   1      47.865  34.957  27.523  1.00  0.00     0.020 A 
ATOM     81  C   UNL A   1      48.102  34.524  29.901  1.00  0.00     0.020 A 
ATOM     82  C   UNL A   1      48.243  35.374  28.803  1.00  0.00     0.054 A 
BRANCH  82  83
ATOM     83  S   UNL A   1      48.873  37.062  29.023  1.00  0.00     0.124 S 
ATOM     84  O   UNL A   1      50.191  36.823  29.603  1.00  0.00    -0.237 OA
ATOM     85  O   UNL A   1      48.870  37.584  27.658  1.00  0.00    -0.237 OA
ATOM     86  O   UNL A   1      47.898  37.678  29.919  1.00  0.00    -0.744 OA
ENDBRANCH  82  83
ENDBRANCH  54  77
BRANCH  66  87
ATOM     87  C   UNL A   1      50.042  26.668  26.718  1.00  0.00    -0.014 A 
ATOM     88  C   UNL A   1      50.908  26.220  27.729  1.00  0.00     0.010 A 
ATOM     89  C   UNL A   1      50.493  26.681  25.385  1.00  0.00     0.010 A 
ATOM     90  C   UNL A   1      52.213  25.824  27.418  1.00  0.00     0.020 A 
ATOM     91  C   UNL A   1      51.787  26.260  25.067  1.00  0.00     0.020 A 
ATOM     92  C   UNL A   1      52.645  25.849  26.088  1.00  0.00     0.054 A 
BRANCH  92  93
ATOM     93  S   UNL A   1      54.329  25.294  25.703  1.00  0.00     0.124 S 
ATOM     94  O   UNL A   1      54.083  24.179  24.794  1.00  0.00    -0.237 OA
ATOM     95  O   UNL A   1      54.927  26.480  25.092  1.00  0.00    -0.237 OA
ATOM     96  O   UNL A   1      54.881  24.928  27.005  1.00  0.00    -0.744 OA
ENDBRANCH  92  93
ENDBRANCH  66  87
ENDBRANCH  40  41
ENDBRANCH  33  35
ENDBRANCH  32  33
ENDBRANCH  31  32
ENDBRANCH  30  31
ENDBRANCH  29  30
ENDBRANCH   1  29
TORSDOF 23
ENDMDL
MODEL 3
REMARK VINA RESULT:      -9.2      1.836      8.264
REMARK SMILES CS(=O)(=O)c1ccc(N2N=C(C(=O)OCCOCCOCCOC(=O)c3ccc(-c4c5nc(c(-c6ccc(S(=O)(=O)[O-])cc6)c6ccc([nH]6)c(-c6ccc(S(=O)(=O)[O-])cc6)c6nc(c(-c7ccc(S(=O)(=O)[O-])cc7)c7ccc4[nH]7)C=C6)C=C5)cc3)C[C@H]2c2cccs2)cc1
REMARK SMILES IDX 19 1 18 2 17 3 16 4 15 5 14 6 12 7 13 8 11 9 9 10 10 11
REMARK SMILES IDX 87 12 86 13 8 14 5 15 6 16 94 17 7 18 93 19 2 20 1 21 3 22
REMARK SMILES IDX 4 23 88 24 89 25 92 26 90 27 91 28 20 29 21 30 22 31 23 32
REMARK SMILES IDX 24 33 25 34 26 35 27 36 85 37 28 38 84 39 29 40 30 41 31 42
REMARK SMILES IDX 78 43 32 44 83 45 77 46 79 47 33 48 82 49 76 50 75 51 34 53
REMARK SMILES IDX 64 54 45 55 63 56 46 57 49 58 62 59 80 60 47 61 48 62 61 64
REMARK SMILES IDX 81 65 50 66 35 67 36 68 44 69 37 70 43 71 38 72 39 73 40 74
REMARK SMILES IDX 41 75 42 76 65 77 66 78 74 79 67 80 73 81 68 82 69 83 70 84
REMARK SMILES IDX 71 85 72 86 51 87 52 88 60 89 53 90 59 91 54 92 55 93 56 94
REMARK SMILES IDX 57 95 58 96
REMARK H PARENT 79 52 49 63
REMARK Flexibility Score: inf
ROOT
ATOM      1  C   UNL A   1      32.889  28.831  27.076  1.00  0.00     0.188 C 
ENDROOT
BRANCH   1   2
ATOM      2  C   UNL A   1      32.714  29.281  25.612  1.00  0.00     0.188 C 
BRANCH   2   3
ATOM      3  O   UNL A   1      31.612  28.765  24.866  1.00  0.00    -0.376 OA
BRANCH   3   4
ATOM      4  C   UNL A   1      31.279  29.364  23.616  1.00  0.00     0.202 C 
BRANCH   4   5
ATOM      5  C   UNL A   1      31.627  28.588  22.340  1.00  0.00     0.261 C 
BRANCH   5   6
ATOM      6  O   UNL A   1      31.810  27.188  22.600  1.00  0.00    -0.459 OA
BRANCH   6   7
ATOM      7  C   UNL A   1      33.054  26.728  22.377  1.00  0.00     0.354 C 
ATOM      8  O   UNL A   1      33.873  27.144  21.578  1.00  0.00    -0.245 OA
BRANCH   7   9
ATOM      9  C   UNL A   1      33.359  25.620  23.349  1.00  0.00     0.148 C 
ATOM     10  N   UNL A   1      33.634  23.680  24.156  1.00  0.00    -0.256 N 
ATOM     11  N   UNL A   1      33.432  24.372  22.992  1.00  0.00    -0.169 NA
ATOM     12  C   UNL A   1      33.319  24.506  25.339  1.00  0.00     0.154 C 
ATOM     13  C   UNL A   1      33.644  25.906  24.790  1.00  0.00     0.099 C 
BRANCH  10  14
ATOM     14  C   UNL A   1      33.521  22.295  24.133  1.00  0.00     0.060 A 
ATOM     15  C   UNL A   1      33.252  19.490  24.082  1.00  0.00     0.067 A 
ATOM     16  C   UNL A   1      32.381  20.291  23.336  1.00  0.00     0.022 A 
ATOM     17  C   UNL A   1      34.244  20.077  24.865  1.00  0.00     0.022 A 
ATOM     18  C   UNL A   1      32.520  21.684  23.365  1.00  0.00     0.029 A 
ATOM     19  C   UNL A   1      34.361  21.472  24.895  1.00  0.00     0.029 A 
BRANCH  15  20
ATOM     20  S   UNL A   1      33.058  17.727  23.966  1.00  0.00     0.175 S 
ATOM     21  C   UNL A   1      34.604  16.995  24.420  1.00  0.00     0.163 C 
ATOM     22  O   UNL A   1      32.862  17.435  22.556  1.00  0.00    -0.224 OA
ATOM     23  O   UNL A   1      32.079  17.344  24.960  1.00  0.00    -0.224 OA
ENDBRANCH  15  20
ENDBRANCH  10  14
BRANCH  12  24
ATOM     24  C   UNL A   1      31.904  24.397  25.902  1.00  0.00     0.030 A 
ATOM     25  C   UNL A   1      30.908  25.359  25.839  1.00  0.00     0.017 A 
ATOM     26  S   UNL A   1      31.347  23.014  26.763  1.00  0.00    -0.147 S 
ATOM     27  C   UNL A   1      29.703  24.951  26.482  1.00  0.00     0.012 A 
ATOM     28  C   UNL A   1      29.801  23.684  27.004  1.00  0.00     0.065 A 
ENDBRANCH  12  24
ENDBRANCH   7   9
ENDBRANCH   6   7
ENDBRANCH   5   6
ENDBRANCH   4   5
ENDBRANCH   3   4
ENDBRANCH   2   3
ENDBRANCH   1   2
BRANCH   1  29
ATOM     29  O   UNL A   1      34.207  28.966  27.574  1.00  0.00    -0.376 OA
BRANCH  29  30
ATOM     30  C   UNL A   1      34.866  30.196  27.303  1.00  0.00     0.202 C 
BRANCH  30  31
ATOM     31  C   UNL A   1      36.157  30.497  28.081  1.00  0.00     0.261 C 
BRANCH  31  32
ATOM     32  O   UNL A   1      37.318  29.740  27.701  1.00  0.00    -0.460 OA
BRANCH  32  33
ATOM     33  C   UNL A   1      38.018  29.137  28.689  1.00  0.00     0.338 C 
ATOM     34  O   UNL A   1      37.568  28.456  29.593  1.00  0.00    -0.246 OA
BRANCH  33  35
ATOM     35  C   UNL A   1      39.455  29.276  28.361  1.00  0.00     0.060 A 
ATOM     36  C   UNL A   1      39.880  29.041  27.047  1.00  0.00     0.016 A 
ATOM     37  C   UNL A   1      40.373  29.660  29.343  1.00  0.00     0.016 A 
ATOM     38  C   UNL A   1      41.232  29.168  26.718  1.00  0.00     0.010 A 
ATOM     39  C   UNL A   1      41.728  29.767  29.015  1.00  0.00     0.010 A 
ATOM     40  C   UNL A   1      42.168  29.495  27.709  1.00  0.00    -0.014 A 
BRANCH  40  41
ATOM     41  C   UNL A   1      43.620  29.382  27.425  1.00  0.00     0.031 A 
ATOM     42  C   UNL A   1      44.160  28.054  26.965  1.00  0.00     0.074 A 
ATOM     43  C   UNL A   1      44.446  30.434  27.561  1.00  0.00     0.049 A 
ATOM     44  N   UNL A   1      45.386  27.715  26.662  1.00  0.00    -0.248 NA
ATOM     45  C   UNL A   1      43.180  26.964  26.829  1.00  0.00     0.031 C 
ATOM     46  C   UNL A   1      44.043  31.784  27.951  1.00  0.00     0.029 A 
ATOM     47  N   UNL A   1      45.804  30.526  27.378  1.00  0.00    -0.354 N 
ATOM     48  C   UNL A   1      45.327  26.373  26.302  1.00  0.00     0.074 A 
ATOM     49  C   UNL A   1      43.950  25.954  26.455  1.00  0.00     0.031 C 
ATOM     50  C   UNL A   1      45.133  32.573  27.970  1.00  0.00     0.029 A 
ATOM     51  C   UNL A   1      46.310  31.779  27.623  1.00  0.00     0.049 A 
ATOM     52  H   UNL A   1      46.362  29.765  27.097  1.00  0.00     0.167 HD
ATOM     53  C   UNL A   1      46.325  25.562  25.877  1.00  0.00     0.031 A 
ATOM     54  C   UNL A   1      47.580  32.231  27.581  1.00  0.00     0.031 A 
ATOM     55  C   UNL A   1      47.699  25.969  25.754  1.00  0.00     0.049 A 
ATOM     56  C   UNL A   1      48.691  31.285  27.197  1.00  0.00     0.074 A 
ATOM     57  C   UNL A   1      48.783  25.225  25.323  1.00  0.00     0.029 A 
ATOM     58  N   UNL A   1      48.181  27.229  26.076  1.00  0.00    -0.354 N 
ATOM     59  N   UNL A   1      48.617  30.025  26.840  1.00  0.00    -0.248 NA
ATOM     60  C   UNL A   1      50.057  31.828  27.211  1.00  0.00     0.031 C 
ATOM     61  C   UNL A   1      49.931  26.018  25.440  1.00  0.00     0.029 A 
ATOM     62  C   UNL A   1      49.553  27.274  25.888  1.00  0.00     0.049 A 
ATOM     63  H   UNL A   1      47.630  27.981  26.392  1.00  0.00     0.167 HD
ATOM     64  C   UNL A   1      49.922  29.634  26.553  1.00  0.00     0.074 A 
ATOM     65  C   UNL A   1      50.763  30.792  26.779  1.00  0.00     0.031 C 
ATOM     66  C   UNL A   1      50.381  28.429  26.130  1.00  0.00     0.031 A 
BRANCH  53  67
ATOM     67  C   UNL A   1      45.959  24.133  25.571  1.00  0.00    -0.014 A 
ATOM     68  C   UNL A   1      45.859  23.673  24.244  1.00  0.00     0.010 A 
ATOM     69  C   UNL A   1      45.694  23.244  26.627  1.00  0.00     0.010 A 
ATOM     70  C   UNL A   1      45.440  22.367  23.980  1.00  0.00     0.020 A 
ATOM     71  C   UNL A   1      45.301  21.928  26.366  1.00  0.00     0.020 A 
ATOM     72  C   UNL A   1      45.151  21.506  25.044  1.00  0.00     0.054 A 
BRANCH  72  73
ATOM     73  S   UNL A   1      44.582  19.823  24.676  1.00  0.00     0.124 S 
ATOM     74  O   UNL A   1      45.609  19.011  25.325  1.00  0.00    -0.237 OA
ATOM     75  O   UNL A   1      43.262  19.783  25.301  1.00  0.00    -0.237 OA
ATOM     76  O   UNL A   1      44.578  19.771  23.216  1.00  0.00    -0.744 OA
ENDBRANCH  72  73
ENDBRANCH  53  67
BRANCH  54  77
ATOM     77  C   UNL A   1      47.875  33.654  27.904  1.00  0.00    -0.014 A 
ATOM     78  C   UNL A   1      48.162  34.038  29.225  1.00  0.00     0.010 A 
ATOM     79  C   UNL A   1      47.875  34.632  26.892  1.00  0.00     0.010 A 
ATOM     80  C   UNL A   1      48.436  35.376  29.531  1.00  0.00     0.020 A 
ATOM     81  C   UNL A   1      48.171  35.966  27.190  1.00  0.00     0.020 A 
ATOM     82  C   UNL A   1      48.442  36.331  28.510  1.00  0.00     0.054 A 
BRANCH  82  83
ATOM     83  S   UNL A   1      48.860  38.049  28.920  1.00  0.00     0.124 S 
ATOM     84  O   UNL A   1      49.460  38.523  27.677  1.00  0.00    -0.237 OA
ATOM     85  O   UNL A   1      47.559  38.623  29.252  1.00  0.00    -0.237 OA
ATOM     86  O   UNL A   1      49.780  37.918  30.048  1.00  0.00    -0.744 OA
ENDBRANCH  82  83
ENDBRANCH  54  77
BRANCH  66  87
ATOM     87  C   UNL A   1      51.858  28.305  25.856  1.00  0.00    -0.014 A 
ATOM     88  C   UNL A   1      52.397  28.631  24.600  1.00  0.00     0.010 A 
ATOM     89  C   UNL A   1      52.724  27.904  26.890  1.00  0.00     0.010 A 
ATOM     90  C   UNL A   1      53.774  28.524  24.373  1.00  0.00     0.020 A 
ATOM     91  C   UNL A   1      54.102  27.822  26.674  1.00  0.00     0.020 A 
ATOM     92  C   UNL A   1      54.617  28.118  25.411  1.00  0.00     0.054 A 
BRANCH  92  93
ATOM     93  S   UNL A   1      56.403  28.024  25.105  1.00  0.00     0.124 S 
ATOM     94  O   UNL A   1      56.512  26.802  24.313  1.00  0.00    -0.237 OA
ATOM     95  O   UNL A   1      56.672  29.265  24.383  1.00  0.00    -0.237 OA
ATOM     96  O   UNL A   1      56.982  27.953  26.445  1.00  0.00    -0.744 OA
ENDBRANCH  92  93
ENDBRANCH  66  87
ENDBRANCH  40  41
ENDBRANCH  33  35
ENDBRANCH  32  33
ENDBRANCH  31  32
ENDBRANCH  30  31
ENDBRANCH  29  30
ENDBRANCH   1  29
TORSDOF 23
ENDMDL
