MODEL 1
REMARK VINA RESULT:      -9.4      0.000      0.000
REMARK SMILES NS(=O)(=O)c1ccc(-c2coc(=O)n2-c2ccc(C(=O)OCCOCCOCCOC(=O)c3ccc(-c4c5nc(c(-c6ccc(S(=O)(=O)[O-])cc6)c6ccc([nH]6)c(-c6ccc(S(=O)(=O)[O-])cc6)c6nc(c(-c7ccc(S(=O)(=O)[O-])cc7)c7ccc4[nH]7)C=C6)C=C5)cc3)cc2)cc1
REMARK SMILES IDX 25 1 24 2 23 3 22 4 21 5 19 6 20 7 18 8 15 9 16 10 94 11
REMARK SMILES IDX 17 12 93 13 14 14 9 15 10 16 11 17 12 18 13 19 8 20 5 21
REMARK SMILES IDX 6 22 96 23 7 24 95 25 2 26 3 27 4 28 1 29 26 32 27 33 28 34
REMARK SMILES IDX 29 35 30 36 31 37 32 38 33 39 34 40 92 41 35 42 91 43 36 44
REMARK SMILES IDX 37 45 38 46 85 47 39 48 90 49 84 50 86 51 40 52 89 53 83 54
REMARK SMILES IDX 82 55 41 57 71 58 52 59 70 60 53 61 56 62 69 63 87 64 54 65
REMARK SMILES IDX 55 66 68 68 88 69 57 70 42 71 43 72 51 73 44 74 50 75 45 76
REMARK SMILES IDX 46 77 47 78 48 79 49 80 72 81 73 82 81 83 74 84 80 85 75 86
REMARK SMILES IDX 76 87 77 88 78 89 79 90 58 91 59 92 67 93 60 94 66 95 61 96
REMARK SMILES IDX 62 97 63 98 64 99 65 100
REMARK H PARENT 1 30 1 31 86 56 56 67
REMARK Flexibility Score: inf
ROOT
ATOM      1  C   UNL A   1      39.285  29.369  30.207  1.00  0.00     0.188 C 
ENDROOT
BRANCH   1   2
ATOM      2  O   UNL A   1      40.458  28.780  30.727  1.00  0.00    -0.376 OA
BRANCH   2   3
ATOM      3  C   UNL A   1      40.970  27.575  30.183  1.00  0.00     0.202 C 
BRANCH   3   4
ATOM      4  C   UNL A   1      42.070  27.507  29.102  1.00  0.00     0.261 C 
BRANCH   4   5
ATOM      5  O   UNL A   1      41.947  26.489  28.105  1.00  0.00    -0.460 OA
BRANCH   5   6
ATOM      6  C   UNL A   1      40.841  26.544  27.330  1.00  0.00     0.338 C 
ATOM      7  O   UNL A   1      40.399  27.519  26.744  1.00  0.00    -0.246 OA
BRANCH   6   8
ATOM      8  C   UNL A   1      40.301  25.179  27.132  1.00  0.00     0.060 A 
ATOM      9  C   UNL A   1      39.463  22.564  26.628  1.00  0.00     0.053 A 
ATOM     10  C   UNL A   1      40.656  22.782  27.319  1.00  0.00     0.028 A 
ATOM     11  C   UNL A   1      38.640  23.654  26.299  1.00  0.00     0.028 A 
ATOM     12  C   UNL A   1      41.093  24.092  27.533  1.00  0.00     0.018 A 
ATOM     13  C   UNL A   1      39.041  24.962  26.574  1.00  0.00     0.018 A 
BRANCH   9  14
ATOM     14  N   UNL A   1      39.182  21.288  26.100  1.00  0.00    -0.242 N 
ATOM     15  C   UNL A   1      38.035  20.897  25.466  1.00  0.00     0.095 A 
ATOM     16  C   UNL A   1      38.220  19.628  25.120  1.00  0.00     0.228 A 
ATOM     17  O   UNL A   1      39.463  19.113  25.478  1.00  0.00    -0.415 OA
ATOM     18  C   UNL A   1      40.082  20.222  26.065  1.00  0.00     0.424 A 
ATOM     19  O   UNL A   1      41.228  20.197  26.471  1.00  0.00    -0.223 OA
BRANCH  15  20
ATOM     20  C   UNL A   1      36.951  21.783  25.045  1.00  0.00     0.002 A 
ATOM     21  C   UNL A   1      34.923  23.523  24.197  1.00  0.00     0.082 A 
ATOM     22  C   UNL A   1      35.942  23.177  23.313  1.00  0.00     0.022 A 
ATOM     23  C   UNL A   1      34.906  23.006  25.498  1.00  0.00     0.022 A 
ATOM     24  C   UNL A   1      36.945  22.303  23.737  1.00  0.00     0.012 A 
ATOM     25  C   UNL A   1      35.915  22.132  25.917  1.00  0.00     0.012 A 
BRANCH  21  26
ATOM     26  S   UNL A   1      33.647  24.652  23.725  1.00  0.00     0.238 S 
ATOM     27  O   UNL A   1      32.372  23.989  23.877  1.00  0.00    -0.207 OA
ATOM     28  O   UNL A   1      34.049  25.301  22.501  1.00  0.00    -0.207 OA
BRANCH  26  29
ATOM     29  N   UNL A   1      33.669  25.844  24.909  1.00  0.00    -0.225 NA
ATOM     30  H   UNL A   1      33.681  25.407  25.831  1.00  0.00     0.137 HD
ATOM     31  H   UNL A   1      32.836  26.426  24.820  1.00  0.00     0.137 HD
ENDBRANCH  26  29
ENDBRANCH  21  26
ENDBRANCH  15  20
ENDBRANCH   9  14
ENDBRANCH   6   8
ENDBRANCH   5   6
ENDBRANCH   4   5
ENDBRANCH   3   4
ENDBRANCH   2   3
ENDBRANCH   1   2
BRANCH   1  32
ATOM     32  C   UNL A   1      38.266  28.536  29.394  1.00  0.00     0.188 C 
BRANCH  32  33
ATOM     33  O   UNL A   1      37.005  29.105  29.113  1.00  0.00    -0.376 OA
BRANCH  33  34
ATOM     34  C   UNL A   1      36.635  29.650  27.855  1.00  0.00     0.202 C 
BRANCH  34  35
ATOM     35  C   UNL A   1      35.870  30.950  27.615  1.00  0.00     0.261 C 
BRANCH  35  36
ATOM     36  O   UNL A   1      36.043  31.935  28.600  1.00  0.00    -0.460 OA
BRANCH  36  37
ATOM     37  C   UNL A   1      34.907  32.228  29.264  1.00  0.00     0.338 C 
ATOM     38  O   UNL A   1      33.798  32.401  28.786  1.00  0.00    -0.246 OA
BRANCH  37  39
ATOM     39  C   UNL A   1      35.222  32.321  30.692  1.00  0.00     0.060 A 
ATOM     40  C   UNL A   1      35.341  33.619  31.188  1.00  0.00     0.016 A 
ATOM     41  C   UNL A   1      35.869  31.221  31.263  1.00  0.00     0.016 A 
ATOM     42  C   UNL A   1      36.436  33.881  31.967  1.00  0.00     0.010 A 
ATOM     43  C   UNL A   1      36.972  31.486  32.020  1.00  0.00     0.010 A 
ATOM     44  C   UNL A   1      37.307  32.822  32.227  1.00  0.00    -0.014 A 
BRANCH  44  45
ATOM     45  C   UNL A   1      38.633  33.121  32.699  1.00  0.00     0.031 A 
ATOM     46  C   UNL A   1      39.510  33.587  31.613  1.00  0.00     0.074 A 
ATOM     47  C   UNL A   1      38.928  33.089  34.013  1.00  0.00     0.049 A 
ATOM     48  N   UNL A   1      40.458  32.930  31.035  1.00  0.00    -0.248 NA
ATOM     49  C   UNL A   1      39.115  34.825  30.918  1.00  0.00     0.031 C 
ATOM     50  C   UNL A   1      38.036  32.910  35.165  1.00  0.00     0.029 A 
ATOM     51  N   UNL A   1      40.121  33.331  34.604  1.00  0.00    -0.354 N 
ATOM     52  C   UNL A   1      40.923  33.780  30.043  1.00  0.00     0.074 A 
ATOM     53  C   UNL A   1      39.899  34.771  29.844  1.00  0.00     0.031 C 
ATOM     54  C   UNL A   1      38.677  33.308  36.291  1.00  0.00     0.029 A 
ATOM     55  C   UNL A   1      40.053  33.639  35.956  1.00  0.00     0.049 A 
ATOM     56  H   UNL A   1      40.972  33.292  34.112  1.00  0.00     0.167 HD
ATOM     57  C   UNL A   1      42.233  33.804  29.681  1.00  0.00     0.031 A 
ATOM     58  C   UNL A   1      41.047  34.210  36.689  1.00  0.00     0.031 A 
ATOM     59  C   UNL A   1      42.940  32.651  30.176  1.00  0.00     0.049 A 
ATOM     60  C   UNL A   1      42.308  34.008  35.922  1.00  0.00     0.074 A 
ATOM     61  C   UNL A   1      42.844  31.291  29.956  1.00  0.00     0.029 A 
ATOM     62  N   UNL A   1      43.620  32.800  31.365  1.00  0.00    -0.354 N 
ATOM     63  N   UNL A   1      42.818  32.828  35.691  1.00  0.00    -0.248 NA
ATOM     64  C   UNL A   1      42.704  35.046  34.979  1.00  0.00     0.031 C 
ATOM     65  C   UNL A   1      43.056  30.695  31.234  1.00  0.00     0.029 A 
ATOM     66  C   UNL A   1      43.343  31.708  32.152  1.00  0.00     0.049 A 
ATOM     67  H   UNL A   1      44.201  33.556  31.609  1.00  0.00     0.167 HD
ATOM     68  C   UNL A   1      43.243  32.866  34.368  1.00  0.00     0.074 A 
ATOM     69  C   UNL A   1      43.215  34.284  34.005  1.00  0.00     0.031 C 
ATOM     70  C   UNL A   1      43.290  31.734  33.601  1.00  0.00     0.031 A 
BRANCH  57  71
ATOM     71  C   UNL A   1      42.932  35.065  29.245  1.00  0.00    -0.014 A 
ATOM     72  C   UNL A   1      43.258  36.027  30.217  1.00  0.00     0.010 A 
ATOM     73  C   UNL A   1      43.060  35.454  27.892  1.00  0.00     0.010 A 
ATOM     74  C   UNL A   1      43.632  37.326  29.851  1.00  0.00     0.020 A 
ATOM     75  C   UNL A   1      43.477  36.728  27.515  1.00  0.00     0.020 A 
ATOM     76  C   UNL A   1      43.727  37.669  28.500  1.00  0.00     0.054 A 
BRANCH  76  77
ATOM     77  S   UNL A   1      44.102  39.375  28.038  1.00  0.00     0.124 S 
ATOM     78  O   UNL A   1      43.281  39.550  26.844  1.00  0.00    -0.237 OA
ATOM     79  O   UNL A   1      43.670  40.115  29.220  1.00  0.00    -0.237 OA
ATOM     80  O   UNL A   1      45.545  39.359  27.810  1.00  0.00    -0.744 OA
ENDBRANCH  76  77
ENDBRANCH  57  71
BRANCH  58  81
ATOM     81  C   UNL A   1      40.898  35.259  37.739  1.00  0.00    -0.014 A 
ATOM     82  C   UNL A   1      39.699  35.981  37.903  1.00  0.00     0.010 A 
ATOM     83  C   UNL A   1      41.856  35.357  38.770  1.00  0.00     0.010 A 
ATOM     84  C   UNL A   1      39.452  36.729  39.072  1.00  0.00     0.020 A 
ATOM     85  C   UNL A   1      41.619  36.099  39.935  1.00  0.00     0.020 A 
ATOM     86  C   UNL A   1      40.409  36.768  40.091  1.00  0.00     0.054 A 
BRANCH  86  87
ATOM     87  S   UNL A   1      40.023  37.594  41.666  1.00  0.00     0.124 S 
ATOM     88  O   UNL A   1      39.453  38.863  41.224  1.00  0.00    -0.237 OA
ATOM     89  O   UNL A   1      39.088  36.665  42.294  1.00  0.00    -0.237 OA
ATOM     90  O   UNL A   1      41.324  37.697  42.328  1.00  0.00    -0.744 OA
ENDBRANCH  86  87
ENDBRANCH  58  81
BRANCH  70  91
ATOM     91  C   UNL A   1      43.045  30.400  34.281  1.00  0.00    -0.014 A 
ATOM     92  C   UNL A   1      44.078  29.556  34.745  1.00  0.00     0.010 A 
ATOM     93  C   UNL A   1      41.723  30.078  34.626  1.00  0.00     0.010 A 
ATOM     94  C   UNL A   1      43.789  28.416  35.515  1.00  0.00     0.020 A 
ATOM     95  C   UNL A   1      41.429  28.956  35.405  1.00  0.00     0.020 A 
ATOM     96  C   UNL A   1      42.462  28.125  35.841  1.00  0.00     0.054 A 
BRANCH  96  97
ATOM     97  S   UNL A   1      42.089  26.682  36.882  1.00  0.00     0.124 S 
ATOM     98  O   UNL A   1      42.277  25.567  35.959  1.00  0.00    -0.237 OA
ATOM     99  O   UNL A   1      43.079  26.787  37.953  1.00  0.00    -0.237 OA
ATOM    100  O   UNL A   1      40.707  26.908  37.306  1.00  0.00    -0.744 OA
ENDBRANCH  96  97
ENDBRANCH  70  91
ENDBRANCH  44  45
ENDBRANCH  37  39
ENDBRANCH  36  37
ENDBRANCH  35  36
ENDBRANCH  34  35
ENDBRANCH  33  34
ENDBRANCH  32  33
ENDBRANCH   1  32
TORSDOF 24
ENDMDL
MODEL 2
REMARK VINA RESULT:      -9.2      4.762      8.902
REMARK SMILES NS(=O)(=O)c1ccc(-c2coc(=O)n2-c2ccc(C(=O)OCCOCCOCCOC(=O)c3ccc(-c4c5nc(c(-c6ccc(S(=O)(=O)[O-])cc6)c6ccc([nH]6)c(-c6ccc(S(=O)(=O)[O-])cc6)c6nc(c(-c7ccc(S(=O)(=O)[O-])cc7)c7ccc4[nH]7)C=C6)C=C5)cc3)cc2)cc1
REMARK SMILES IDX 25 1 24 2 23 3 22 4 21 5 19 6 20 7 18 8 15 9 16 10 94 11
REMARK SMILES IDX 17 12 93 13 14 14 9 15 10 16 11 17 12 18 13 19 8 20 5 21
REMARK SMILES IDX 6 22 96 23 7 24 95 25 2 26 3 27 4 28 1 29 26 32 27 33 28 34
REMARK SMILES IDX 29 35 30 36 31 37 32 38 33 39 34 40 92 41 35 42 91 43 36 44
REMARK SMILES IDX 37 45 38 46 85 47 39 48 90 49 84 50 86 51 40 52 89 53 83 54
REMARK SMILES IDX 82 55 41 57 71 58 52 59 70 60 53 61 56 62 69 63 87 64 54 65
REMARK SMILES IDX 55 66 68 68 88 69 57 70 42 71 43 72 51 73 44 74 50 75 45 76
REMARK SMILES IDX 46 77 47 78 48 79 49 80 72 81 73 82 81 83 74 84 80 85 75 86
REMARK SMILES IDX 76 87 77 88 78 89 79 90 58 91 59 92 67 93 60 94 66 95 61 96
REMARK SMILES IDX 62 97 63 98 64 99 65 100
REMARK H PARENT 1 30 1 31 86 56 56 67
REMARK Flexibility Score: inf
ROOT
ATOM      1  C   UNL A   1      50.298  31.106  28.389  1.00  0.00     0.188 C 
ENDROOT
BRANCH   1   2
ATOM      2  O   UNL A   1      51.065  29.960  28.694  1.00  0.00    -0.376 OA
BRANCH   2   3
ATOM      3  C   UNL A   1      51.198  28.904  27.758  1.00  0.00     0.202 C 
BRANCH   3   4
ATOM      4  C   UNL A   1      51.732  27.497  28.105  1.00  0.00     0.261 C 
BRANCH   4   5
ATOM      5  O   UNL A   1      50.769  26.448  28.250  1.00  0.00    -0.460 OA
BRANCH   5   6
ATOM      6  C   UNL A   1      50.682  25.572  27.225  1.00  0.00     0.338 C 
ATOM      7  O   UNL A   1      51.572  24.863  26.784  1.00  0.00    -0.246 OA
BRANCH   6   8
ATOM      8  C   UNL A   1      49.272  25.447  26.792  1.00  0.00     0.060 A 
ATOM      9  C   UNL A   1      46.611  25.436  25.947  1.00  0.00     0.053 A 
ATOM     10  C   UNL A   1      47.612  25.841  25.062  1.00  0.00     0.028 A 
ATOM     11  C   UNL A   1      46.962  24.927  27.209  1.00  0.00     0.028 A 
ATOM     12  C   UNL A   1      48.937  25.885  25.501  1.00  0.00     0.018 A 
ATOM     13  C   UNL A   1      48.293  24.905  27.625  1.00  0.00     0.018 A 
BRANCH   9  14
ATOM     14  N   UNL A   1      45.261  25.712  25.652  1.00  0.00    -0.242 N 
ATOM     15  C   UNL A   1      44.334  24.837  25.158  1.00  0.00     0.095 A 
ATOM     16  C   UNL A   1      43.198  25.519  25.060  1.00  0.00     0.228 A 
ATOM     17  O   UNL A   1      43.289  26.844  25.480  1.00  0.00    -0.415 OA
ATOM     18  C   UNL A   1      44.620  26.926  25.904  1.00  0.00     0.424 A 
ATOM     19  O   UNL A   1      45.091  27.932  26.399  1.00  0.00    -0.223 OA
BRANCH  15  20
ATOM     20  C   UNL A   1      44.517  23.393  25.017  1.00  0.00     0.002 A 
ATOM     21  C   UNL A   1      44.858  20.632  24.669  1.00  0.00     0.082 A 
ATOM     22  C   UNL A   1      45.365  21.510  23.714  1.00  0.00     0.022 A 
ATOM     23  C   UNL A   1      44.187  21.120  25.797  1.00  0.00     0.022 A 
ATOM     24  C   UNL A   1      45.200  22.885  23.896  1.00  0.00     0.012 A 
ATOM     25  C   UNL A   1      44.024  22.499  25.972  1.00  0.00     0.012 A 
BRANCH  21  26
ATOM     26  S   UNL A   1      45.008  18.882  24.473  1.00  0.00     0.238 S 
ATOM     27  O   UNL A   1      43.699  18.291  24.630  1.00  0.00    -0.207 OA
ATOM     28  O   UNL A   1      46.159  18.440  25.222  1.00  0.00    -0.207 OA
BRANCH  26  29
ATOM     29  N   UNL A   1      45.400  18.664  22.853  1.00  0.00    -0.225 NA
ATOM     30  H   UNL A   1      44.902  19.351  22.288  1.00  0.00     0.137 HD
ATOM     31  H   UNL A   1      45.129  17.724  22.562  1.00  0.00     0.137 HD
ENDBRANCH  26  29
ENDBRANCH  21  26
ENDBRANCH  15  20
ENDBRANCH   9  14
ENDBRANCH   6   8
ENDBRANCH   5   6
ENDBRANCH   4   5
ENDBRANCH   3   4
ENDBRANCH   2   3
ENDBRANCH   1   2
BRANCH   1  32
ATOM     32  C   UNL A   1      49.303  31.696  29.416  1.00  0.00     0.188 C 
BRANCH  32  33
ATOM     33  O   UNL A   1      48.822  33.007  29.208  1.00  0.00    -0.376 OA
BRANCH  33  34
ATOM     34  C   UNL A   1      48.287  33.835  30.230  1.00  0.00     0.202 C 
BRANCH  34  35
ATOM     35  C   UNL A   1      47.804  35.276  30.076  1.00  0.00     0.261 C 
BRANCH  35  36
ATOM     36  O   UNL A   1      46.681  35.444  29.250  1.00  0.00    -0.460 OA
BRANCH  36  37
ATOM     37  C   UNL A   1      46.126  36.669  29.351  1.00  0.00     0.338 C 
ATOM     38  O   UNL A   1      46.697  37.744  29.289  1.00  0.00    -0.246 OA
BRANCH  37  39
ATOM     39  C   UNL A   1      44.686  36.501  29.568  1.00  0.00     0.060 A 
ATOM     40  C   UNL A   1      44.269  36.630  30.892  1.00  0.00     0.016 A 
ATOM     41  C   UNL A   1      43.993  35.746  28.616  1.00  0.00     0.016 A 
ATOM     42  C   UNL A   1      43.422  35.663  31.366  1.00  0.00     0.010 A 
ATOM     43  C   UNL A   1      43.169  34.771  29.092  1.00  0.00     0.010 A 
ATOM     44  C   UNL A   1      43.024  34.666  30.474  1.00  0.00    -0.014 A 
BRANCH  44  45
ATOM     45  C   UNL A   1      42.466  33.450  31.005  1.00  0.00     0.031 A 
ATOM     46  C   UNL A   1      43.315  32.284  30.711  1.00  0.00     0.074 A 
ATOM     47  C   UNL A   1      41.369  33.469  31.785  1.00  0.00     0.049 A 
ATOM     48  N   UNL A   1      43.098  31.356  29.842  1.00  0.00    -0.248 NA
ATOM     49  C   UNL A   1      44.681  32.295  31.263  1.00  0.00     0.031 C 
ATOM     50  C   UNL A   1      40.644  34.616  32.346  1.00  0.00     0.029 A 
ATOM     51  N   UNL A   1      40.726  32.418  32.343  1.00  0.00    -0.354 N 
ATOM     52  C   UNL A   1      44.218  30.540  29.907  1.00  0.00     0.074 A 
ATOM     53  C   UNL A   1      45.241  31.308  30.565  1.00  0.00     0.031 C 
ATOM     54  C   UNL A   1      39.843  34.188  33.352  1.00  0.00     0.029 A 
ATOM     55  C   UNL A   1      39.902  32.736  33.413  1.00  0.00     0.049 A 
ATOM     56  H   UNL A   1      40.834  31.497  32.014  1.00  0.00     0.167 HD
ATOM     57  C   UNL A   1      44.135  29.198  29.710  1.00  0.00     0.031 A 
ATOM     58  C   UNL A   1      39.401  31.851  34.318  1.00  0.00     0.031 A 
ATOM     59  C   UNL A   1      42.882  28.829  29.104  1.00  0.00     0.049 A 
ATOM     60  C   UNL A   1      39.506  30.502  33.692  1.00  0.00     0.074 A 
ATOM     61  C   UNL A   1      42.276  29.104  27.894  1.00  0.00     0.029 A 
ATOM     62  N   UNL A   1      41.876  28.420  29.953  1.00  0.00    -0.354 N 
ATOM     63  N   UNL A   1      38.842  30.163  32.620  1.00  0.00    -0.248 NA
ATOM     64  C   UNL A   1      40.719  29.733  33.938  1.00  0.00     0.031 C 
ATOM     65  C   UNL A   1      40.898  29.290  28.206  1.00  0.00     0.029 A 
ATOM     66  C   UNL A   1      40.717  29.049  29.570  1.00  0.00     0.049 A 
ATOM     67  H   UNL A   1      41.972  27.789  30.701  1.00  0.00     0.167 HD
ATOM     68  C   UNL A   1      39.746  29.449  31.842  1.00  0.00     0.074 A 
ATOM     69  C   UNL A   1      40.863  29.152  32.741  1.00  0.00     0.031 C 
ATOM     70  C   UNL A   1      39.649  29.425  30.478  1.00  0.00     0.031 A 
BRANCH  57  71
ATOM     71  C   UNL A   1      45.009  28.214  30.443  1.00  0.00    -0.014 A 
ATOM     72  C   UNL A   1      44.946  28.169  31.846  1.00  0.00     0.010 A 
ATOM     73  C   UNL A   1      46.067  27.507  29.827  1.00  0.00     0.010 A 
ATOM     74  C   UNL A   1      45.925  27.501  32.593  1.00  0.00     0.020 A 
ATOM     75  C   UNL A   1      47.019  26.800  30.557  1.00  0.00     0.020 A 
ATOM     76  C   UNL A   1      46.962  26.832  31.940  1.00  0.00     0.054 A 
BRANCH  76  77
ATOM     77  S   UNL A   1      48.280  26.069  32.911  1.00  0.00     0.124 S 
ATOM     78  O   UNL A   1      49.357  25.970  31.931  1.00  0.00    -0.237 OA
ATOM     79  O   UNL A   1      48.480  27.045  33.978  1.00  0.00    -0.237 OA
ATOM     80  O   UNL A   1      47.701  24.796  33.337  1.00  0.00    -0.744 OA
ENDBRANCH  76  77
ENDBRANCH  57  71
BRANCH  58  81
ATOM     81  C   UNL A   1      39.264  32.052  35.789  1.00  0.00    -0.014 A 
ATOM     82  C   UNL A   1      40.370  32.379  36.600  1.00  0.00     0.010 A 
ATOM     83  C   UNL A   1      37.981  32.195  36.359  1.00  0.00     0.010 A 
ATOM     84  C   UNL A   1      40.193  32.874  37.909  1.00  0.00     0.020 A 
ATOM     85  C   UNL A   1      37.798  32.684  37.660  1.00  0.00     0.020 A 
ATOM     86  C   UNL A   1      38.905  33.041  38.424  1.00  0.00     0.054 A 
BRANCH  86  87
ATOM     87  S   UNL A   1      38.672  33.833  40.046  1.00  0.00     0.124 S 
ATOM     88  O   UNL A   1      38.832  35.249  39.729  1.00  0.00    -0.237 OA
ATOM     89  O   UNL A   1      37.322  33.417  40.415  1.00  0.00    -0.237 OA
ATOM     90  O   UNL A   1      39.738  33.258  40.866  1.00  0.00    -0.744 OA
ENDBRANCH  86  87
ENDBRANCH  58  81
BRANCH  70  91
ATOM     91  C   UNL A   1      38.418  30.041  29.839  1.00  0.00    -0.014 A 
ATOM     92  C   UNL A   1      37.278  29.298  29.458  1.00  0.00     0.010 A 
ATOM     93  C   UNL A   1      38.342  31.441  29.790  1.00  0.00     0.010 A 
ATOM     94  C   UNL A   1      36.106  29.944  29.028  1.00  0.00     0.020 A 
ATOM     95  C   UNL A   1      37.174  32.091  29.379  1.00  0.00     0.020 A 
ATOM     96  C   UNL A   1      36.064  31.340  28.993  1.00  0.00     0.054 A 
BRANCH  96  97
ATOM     97  S   UNL A   1      34.532  32.179  28.488  1.00  0.00     0.124 S 
ATOM     98  O   UNL A   1      34.008  32.676  29.757  1.00  0.00    -0.237 OA
ATOM     99  O   UNL A   1      35.011  33.203  27.560  1.00  0.00    -0.237 OA
ATOM    100  O   UNL A   1      33.742  31.116  27.867  1.00  0.00    -0.744 OA
ENDBRANCH  96  97
ENDBRANCH  70  91
ENDBRANCH  44  45
ENDBRANCH  37  39
ENDBRANCH  36  37
ENDBRANCH  35  36
ENDBRANCH  34  35
ENDBRANCH  33  34
ENDBRANCH  32  33
ENDBRANCH   1  32
TORSDOF 24
ENDMDL
MODEL 3
REMARK VINA RESULT:      -9.2      5.663     11.643
REMARK SMILES NS(=O)(=O)c1ccc(-c2coc(=O)n2-c2ccc(C(=O)OCCOCCOCCOC(=O)c3ccc(-c4c5nc(c(-c6ccc(S(=O)(=O)[O-])cc6)c6ccc([nH]6)c(-c6ccc(S(=O)(=O)[O-])cc6)c6nc(c(-c7ccc(S(=O)(=O)[O-])cc7)c7ccc4[nH]7)C=C6)C=C5)cc3)cc2)cc1
REMARK SMILES IDX 25 1 24 2 23 3 22 4 21 5 19 6 20 7 18 8 15 9 16 10 94 11
REMARK SMILES IDX 17 12 93 13 14 14 9 15 10 16 11 17 12 18 13 19 8 20 5 21
REMARK SMILES IDX 6 22 96 23 7 24 95 25 2 26 3 27 4 28 1 29 26 32 27 33 28 34
REMARK SMILES IDX 29 35 30 36 31 37 32 38 33 39 34 40 92 41 35 42 91 43 36 44
REMARK SMILES IDX 37 45 38 46 85 47 39 48 90 49 84 50 86 51 40 52 89 53 83 54
REMARK SMILES IDX 82 55 41 57 71 58 52 59 70 60 53 61 56 62 69 63 87 64 54 65
REMARK SMILES IDX 55 66 68 68 88 69 57 70 42 71 43 72 51 73 44 74 50 75 45 76
REMARK SMILES IDX 46 77 47 78 48 79 49 80 72 81 73 82 81 83 74 84 80 85 75 86
REMARK SMILES IDX 76 87 77 88 78 89 79 90 58 91 59 92 67 93 60 94 66 95 61 96
REMARK SMILES IDX 62 97 63 98 64 99 65 100
REMARK H PARENT 1 30 1 31 86 56 56 67
REMARK Flexibility Score: inf
ROOT
ATOM      1  C   UNL A   1      38.765  30.850  31.660  1.00  0.00     0.188 C 
ENDROOT
BRANCH   1   2
ATOM      2  O   UNL A   1      38.173  31.343  30.476  1.00  0.00    -0.376 OA
BRANCH   2   3
ATOM      3  C   UNL A   1      38.682  30.981  29.203  1.00  0.00     0.202 C 
BRANCH   3   4
ATOM      4  C   UNL A   1      38.655  29.547  28.631  1.00  0.00     0.261 C 
BRANCH   4   5
ATOM      5  O   UNL A   1      39.801  29.113  27.894  1.00  0.00    -0.460 OA
BRANCH   5   6
ATOM      6  C   UNL A   1      40.548  28.143  28.468  1.00  0.00     0.338 C 
ATOM      7  O   UNL A   1      41.312  28.263  29.411  1.00  0.00    -0.246 OA
BRANCH   6   8
ATOM      8  C   UNL A   1      40.182  26.827  27.897  1.00  0.00     0.060 A 
ATOM      9  C   UNL A   1      39.610  24.248  26.992  1.00  0.00     0.053 A 
ATOM     10  C   UNL A   1      39.135  24.660  28.238  1.00  0.00     0.028 A 
ATOM     11  C   UNL A   1      40.266  25.169  26.158  1.00  0.00     0.028 A 
ATOM     12  C   UNL A   1      39.458  25.935  28.706  1.00  0.00     0.018 A 
ATOM     13  C   UNL A   1      40.529  26.468  26.596  1.00  0.00     0.018 A 
BRANCH   9  14
ATOM     14  N   UNL A   1      39.600  22.880  26.655  1.00  0.00    -0.242 N 
ATOM     15  C   UNL A   1      38.601  22.200  26.015  1.00  0.00     0.095 A 
ATOM     16  C   UNL A   1      39.029  20.949  25.887  1.00  0.00     0.228 A 
ATOM     17  O   UNL A   1      40.303  20.726  26.404  1.00  0.00    -0.415 OA
ATOM     18  C   UNL A   1      40.667  22.002  26.848  1.00  0.00     0.424 A 
ATOM     19  O   UNL A   1      41.758  22.244  27.329  1.00  0.00    -0.223 OA
BRANCH  15  20
ATOM     20  C   UNL A   1      37.426  22.804  25.389  1.00  0.00     0.002 A 
ATOM     21  C   UNL A   1      35.214  23.970  24.122  1.00  0.00     0.082 A 
ATOM     22  C   UNL A   1      36.043  23.115  23.400  1.00  0.00     0.022 A 
ATOM     23  C   UNL A   1      35.476  24.245  25.470  1.00  0.00     0.022 A 
ATOM     24  C   UNL A   1      37.139  22.530  24.038  1.00  0.00     0.012 A 
ATOM     25  C   UNL A   1      36.577  23.656  26.102  1.00  0.00     0.012 A 
BRANCH  21  26
ATOM     26  S   UNL A   1      33.833  24.766  23.356  1.00  0.00     0.238 S 
ATOM     27  O   UNL A   1      33.762  24.333  21.980  1.00  0.00    -0.207 OA
ATOM     28  O   UNL A   1      33.844  26.157  23.738  1.00  0.00    -0.207 OA
BRANCH  26  29
ATOM     29  N   UNL A   1      32.484  24.094  24.100  1.00  0.00    -0.225 NA
ATOM     30  H   UNL A   1      32.767  23.638  24.968  1.00  0.00     0.137 HD
ATOM     31  H   UNL A   1      32.060  23.407  23.477  1.00  0.00     0.137 HD
ENDBRANCH  26  29
ENDBRANCH  21  26
ENDBRANCH  15  20
ENDBRANCH   9  14
ENDBRANCH   6   8
ENDBRANCH   5   6
ENDBRANCH   4   5
ENDBRANCH   3   4
ENDBRANCH   2   3
ENDBRANCH   1   2
BRANCH   1  32
ATOM     32  C   UNL A   1      40.160  31.334  32.116  1.00  0.00     0.188 C 
BRANCH  32  33
ATOM     33  O   UNL A   1      41.210  30.393  32.181  1.00  0.00    -0.376 OA
BRANCH  33  34
ATOM     34  C   UNL A   1      41.500  29.593  33.318  1.00  0.00     0.202 C 
BRANCH  34  35
ATOM     35  C   UNL A   1      40.548  28.622  34.014  1.00  0.00     0.261 C 
BRANCH  35  36
ATOM     36  O   UNL A   1      41.133  27.420  34.446  1.00  0.00    -0.460 OA
BRANCH  36  37
ATOM     37  C   UNL A   1      41.612  27.485  35.705  1.00  0.00     0.338 C 
ATOM     38  O   UNL A   1      41.165  28.142  36.630  1.00  0.00    -0.246 OA
BRANCH  37  39
ATOM     39  C   UNL A   1      42.798  26.628  35.788  1.00  0.00     0.060 A 
ATOM     40  C   UNL A   1      43.957  27.265  36.229  1.00  0.00     0.016 A 
ATOM     41  C   UNL A   1      42.811  25.496  34.967  1.00  0.00     0.016 A 
ATOM     42  C   UNL A   1      45.096  27.040  35.502  1.00  0.00     0.010 A 
ATOM     43  C   UNL A   1      43.938  25.289  34.229  1.00  0.00     0.010 A 
ATOM     44  C   UNL A   1      45.003  26.168  34.417  1.00  0.00    -0.014 A 
BRANCH  44  45
ATOM     45  C   UNL A   1      46.039  26.197  33.419  1.00  0.00     0.031 A 
ATOM     46  C   UNL A   1      47.300  25.628  33.923  1.00  0.00     0.074 A 
ATOM     47  C   UNL A   1      45.780  26.583  32.156  1.00  0.00     0.049 A 
ATOM     48  N   UNL A   1      48.368  26.268  34.261  1.00  0.00    -0.248 NA
ATOM     49  C   UNL A   1      47.278  24.216  34.341  1.00  0.00     0.031 C 
ATOM     50  C   UNL A   1      44.492  26.888  31.520  1.00  0.00     0.029 A 
ATOM     51  N   UNL A   1      46.644  26.674  31.119  1.00  0.00    -0.354 N 
ATOM     52  C   UNL A   1      49.233  25.290  34.730  1.00  0.00     0.074 A 
ATOM     53  C   UNL A   1      48.424  24.135  35.013  1.00  0.00     0.031 C 
ATOM     54  C   UNL A   1      44.646  26.871  30.173  1.00  0.00     0.029 A 
ATOM     55  C   UNL A   1      46.054  26.687  29.863  1.00  0.00     0.049 A 
ATOM     56  H   UNL A   1      47.619  26.726  31.246  1.00  0.00     0.167 HD
ATOM     57  C   UNL A   1      50.577  25.384  34.553  1.00  0.00     0.031 A 
ATOM     58  C   UNL A   1      46.696  26.466  28.683  1.00  0.00     0.031 A 
ATOM     59  C   UNL A   1      50.970  26.716  34.170  1.00  0.00     0.049 A 
ATOM     60  C   UNL A   1      48.148  26.673  28.946  1.00  0.00     0.074 A 
ATOM     61  C   UNL A   1      50.904  27.954  34.779  1.00  0.00     0.029 A 
ATOM     62  N   UNL A   1      51.120  26.958  32.823  1.00  0.00    -0.354 N 
ATOM     63  N   UNL A   1      48.650  27.830  29.288  1.00  0.00    -0.248 NA
ATOM     64  C   UNL A   1      48.938  25.515  29.344  1.00  0.00     0.031 C 
ATOM     65  C   UNL A   1      50.556  28.860  33.735  1.00  0.00     0.029 A 
ATOM     66  C   UNL A   1      50.499  28.149  32.534  1.00  0.00     0.049 A 
ATOM     67  H   UNL A   1      51.590  26.380  32.180  1.00  0.00     0.167 HD
ATOM     68  C   UNL A   1      49.572  27.546  30.288  1.00  0.00     0.074 A 
ATOM     69  C   UNL A   1      49.761  26.095  30.226  1.00  0.00     0.031 C 
ATOM     70  C   UNL A   1      49.868  28.458  31.264  1.00  0.00     0.031 A 
BRANCH  57  71
ATOM     71  C   UNL A   1      51.453  24.179  34.326  1.00  0.00    -0.014 A 
ATOM     72  C   UNL A   1      51.283  23.433  33.147  1.00  0.00     0.010 A 
ATOM     73  C   UNL A   1      52.261  23.606  35.334  1.00  0.00     0.010 A 
ATOM     74  C   UNL A   1      51.845  22.157  33.012  1.00  0.00     0.020 A 
ATOM     75  C   UNL A   1      52.864  22.359  35.193  1.00  0.00     0.020 A 
ATOM     76  C   UNL A   1      52.622  21.626  34.043  1.00  0.00     0.054 A 
BRANCH  76  77
ATOM     77  S   UNL A   1      53.249  19.937  33.907  1.00  0.00     0.124 S 
ATOM     78  O   UNL A   1      53.669  19.885  32.510  1.00  0.00    -0.237 OA
ATOM     79  O   UNL A   1      54.323  19.928  34.894  1.00  0.00    -0.237 OA
ATOM     80  O   UNL A   1      52.090  19.112  34.244  1.00  0.00    -0.744 OA
ENDBRANCH  76  77
ENDBRANCH  57  71
BRANCH  58  81
ATOM     81  C   UNL A   1      46.188  25.685  27.519  1.00  0.00    -0.014 A 
ATOM     82  C   UNL A   1      47.041  24.882  26.734  1.00  0.00     0.010 A 
ATOM     83  C   UNL A   1      44.799  25.511  27.345  1.00  0.00     0.010 A 
ATOM     84  C   UNL A   1      46.523  23.914  25.850  1.00  0.00     0.020 A 
ATOM     85  C   UNL A   1      44.276  24.551  26.468  1.00  0.00     0.020 A 
ATOM     86  C   UNL A   1      45.140  23.742  25.737  1.00  0.00     0.054 A 
BRANCH  86  87
ATOM     87  S   UNL A   1      44.475  22.383  24.725  1.00  0.00     0.124 S 
ATOM     88  O   UNL A   1      45.369  22.384  23.571  1.00  0.00    -0.237 OA
ATOM     89  O   UNL A   1      44.594  21.232  25.616  1.00  0.00    -0.237 OA
ATOM     90  O   UNL A   1      43.102  22.803  24.445  1.00  0.00    -0.744 OA
ENDBRANCH  86  87
ENDBRANCH  58  81
BRANCH  70  91
ATOM     91  C   UNL A   1      49.307  29.861  31.124  1.00  0.00    -0.014 A 
ATOM     92  C   UNL A   1      49.936  30.886  30.384  1.00  0.00     0.010 A 
ATOM     93  C   UNL A   1      48.010  30.094  31.608  1.00  0.00     0.010 A 
ATOM     94  C   UNL A   1      49.287  32.111  30.151  1.00  0.00     0.020 A 
ATOM     95  C   UNL A   1      47.352  31.304  31.366  1.00  0.00     0.020 A 
ATOM     96  C   UNL A   1      47.996  32.310  30.645  1.00  0.00     0.054 A 
BRANCH  96  97
ATOM     97  S   UNL A   1      47.133  33.873  30.300  1.00  0.00     0.124 S 
ATOM     98  O   UNL A   1      47.397  34.075  28.879  1.00  0.00    -0.237 OA
ATOM     99  O   UNL A   1      45.747  33.563  30.646  1.00  0.00    -0.237 OA
ATOM    100  O   UNL A   1      47.783  34.832  31.193  1.00  0.00    -0.744 OA
ENDBRANCH  96  97
ENDBRANCH  70  91
ENDBRANCH  44  45
ENDBRANCH  37  39
ENDBRANCH  36  37
ENDBRANCH  35  36
ENDBRANCH  34  35
ENDBRANCH  33  34
ENDBRANCH  32  33
ENDBRANCH   1  32
TORSDOF 24
ENDMDL
