MODEL 1
REMARK VINA RESULT:      -9.7      0.000      0.000
REMARK SMILES C[C@@H]1CN(c2ccc(N)cc2C(=O)OCCOCCOCCOC(=O)c2ccc(-c3c4nc(c(-c5ccc(S(=O)(=O)[O-])cc5)c5ccc([nH]5)c(-c5ccc(S(=O)(=O)[O-])cc5)c5nc(c(-c6ccc(S(=O)(=O)[O-])cc6)c6ccc3[nH]6)C=C5)C=C4)cc2)C[C@H]1C
REMARK SMILES IDX 19 1 18 2 17 3 16 4 15 5 14 6 12 7 13 8 11 9 5 10 6 11 7 12
REMARK SMILES IDX 10 13 8 14 4 15 1 16 2 17 3 18 87 19 86 20 88 21 9 22 20 25
REMARK SMILES IDX 21 26 22 27 23 28 24 29 25 30 26 31 27 32 85 33 28 34 84 35
REMARK SMILES IDX 29 36 30 37 31 38 78 39 32 40 83 41 77 42 79 43 33 44 82 45
REMARK SMILES IDX 76 46 75 47 34 49 64 50 45 51 63 52 46 53 49 54 62 55 80 56
REMARK SMILES IDX 47 57 48 58 61 60 81 61 50 62 35 63 36 64 44 65 37 66 43 67
REMARK SMILES IDX 38 68 39 69 40 70 41 71 42 72 65 73 66 74 74 75 67 76 73 77
REMARK SMILES IDX 68 78 69 79 70 80 71 81 72 82 51 83 52 84 60 85 53 86 59 87
REMARK SMILES IDX 54 88 55 89 56 90 57 91 58 92
REMARK H PARENT 9 23 9 24 79 48 49 59
REMARK Flexibility Score: inf
ROOT
ATOM      1  C   UNL A   1      34.775  21.504  26.227  1.00  0.00     0.188 C 
ENDROOT
BRANCH   1   2
ATOM      2  C   UNL A   1      34.136  22.901  26.392  1.00  0.00     0.188 C 
BRANCH   2   3
ATOM      3  O   UNL A   1      33.020  23.255  25.592  1.00  0.00    -0.376 OA
BRANCH   3   4
ATOM      4  C   UNL A   1      32.930  24.571  25.067  1.00  0.00     0.202 C 
BRANCH   4   5
ATOM      5  C   UNL A   1      33.122  24.852  23.571  1.00  0.00     0.261 C 
BRANCH   5   6
ATOM      6  O   UNL A   1      32.374  25.973  23.086  1.00  0.00    -0.460 OA
BRANCH   6   7
ATOM      7  C   UNL A   1      33.071  27.122  22.895  1.00  0.00     0.340 C 
ATOM      8  O   UNL A   1      33.721  27.411  21.902  1.00  0.00    -0.246 OA
BRANCH   7   9
ATOM      9  C   UNL A   1      32.812  28.085  23.990  1.00  0.00     0.085 A 
ATOM     10  C   UNL A   1      31.649  28.870  24.120  1.00  0.00     0.051 A 
ATOM     11  C   UNL A   1      31.648  29.787  25.193  1.00  0.00     0.029 A 
ATOM     12  C   UNL A   1      32.731  29.933  26.070  1.00  0.00     0.027 A 
ATOM     13  C   UNL A   1      33.906  28.242  24.875  1.00  0.00     0.043 A 
ATOM     14  C   UNL A   1      33.870  29.154  25.925  1.00  0.00     0.032 A 
BRANCH  10  15
ATOM     15  N   UNL A   1      30.545  28.845  23.294  1.00  0.00    -0.370 N 
ATOM     16  C   UNL A   1      26.856  28.485  23.296  1.00  0.00     0.010 C 
ATOM     17  C   UNL A   1      28.261  28.560  22.717  1.00  0.00     0.010 C 
ATOM     18  C   UNL A   1      29.342  28.111  23.716  1.00  0.00     0.120 C 
ATOM     19  C   UNL A   1      28.720  29.983  22.366  1.00  0.00     0.010 C 
ATOM     20  C   UNL A   1      30.235  29.790  22.228  1.00  0.00     0.120 C 
ATOM     21  C   UNL A   1      28.092  30.567  21.115  1.00  0.00     0.010 C 
ENDBRANCH  10  15
BRANCH  14  22
ATOM     22  N   UNL A   1      34.990  29.384  26.704  1.00  0.00    -0.399 N 
ATOM     23  H   UNL A   1      35.836  29.658  26.282  1.00  0.00     0.156 HD
ATOM     24  H   UNL A   1      34.941  29.272  27.681  1.00  0.00     0.156 HD
ENDBRANCH  14  22
ENDBRANCH   7   9
ENDBRANCH   6   7
ENDBRANCH   5   6
ENDBRANCH   4   5
ENDBRANCH   3   4
ENDBRANCH   2   3
ENDBRANCH   1   2
BRANCH   1  25
ATOM     25  O   UNL A   1      35.196  21.112  24.940  1.00  0.00    -0.376 OA
BRANCH  25  26
ATOM     26  C   UNL A   1      36.463  21.503  24.442  1.00  0.00     0.202 C 
BRANCH  26  27
ATOM     27  C   UNL A   1      37.802  21.465  25.208  1.00  0.00     0.261 C 
BRANCH  27  28
ATOM     28  O   UNL A   1      38.107  22.531  26.107  1.00  0.00    -0.460 OA
BRANCH  28  29
ATOM     29  C   UNL A   1      39.424  22.731  26.351  1.00  0.00     0.338 C 
ATOM     30  O   UNL A   1      40.351  21.994  26.043  1.00  0.00    -0.246 OA
BRANCH  29  31
ATOM     31  C   UNL A   1      39.608  24.087  26.895  1.00  0.00     0.060 A 
ATOM     32  C   UNL A   1      40.259  25.048  26.109  1.00  0.00     0.016 A 
ATOM     33  C   UNL A   1      39.165  24.403  28.181  1.00  0.00     0.016 A 
ATOM     34  C   UNL A   1      40.492  26.325  26.618  1.00  0.00     0.010 A 
ATOM     35  C   UNL A   1      39.422  25.677  28.698  1.00  0.00     0.010 A 
ATOM     36  C   UNL A   1      40.114  26.633  27.931  1.00  0.00    -0.014 A 
BRANCH  36  37
ATOM     37  C   UNL A   1      40.595  27.887  28.561  1.00  0.00     0.031 A 
ATOM     38  C   UNL A   1      42.022  27.948  29.038  1.00  0.00     0.074 A 
ATOM     39  C   UNL A   1      39.787  28.953  28.704  1.00  0.00     0.049 A 
ATOM     40  N   UNL A   1      42.646  28.913  29.661  1.00  0.00    -0.248 NA
ATOM     41  C   UNL A   1      42.853  26.758  28.785  1.00  0.00     0.031 C 
ATOM     42  C   UNL A   1      38.398  29.031  28.254  1.00  0.00     0.029 A 
ATOM     43  N   UNL A   1      40.021  30.176  29.285  1.00  0.00    -0.354 N 
ATOM     44  C   UNL A   1      43.933  28.442  29.893  1.00  0.00     0.074 A 
ATOM     45  C   UNL A   1      43.997  27.099  29.360  1.00  0.00     0.031 C 
ATOM     46  C   UNL A   1      37.896  30.231  28.595  1.00  0.00     0.029 A 
ATOM     47  C   UNL A   1      38.915  30.993  29.315  1.00  0.00     0.049 A 
ATOM     48  H   UNL A   1      40.898  30.442  29.645  1.00  0.00     0.167 HD
ATOM     49  C   UNL A   1      44.968  29.071  30.499  1.00  0.00     0.031 A 
ATOM     50  C   UNL A   1      38.738  32.203  29.884  1.00  0.00     0.031 A 
ATOM     51  C   UNL A   1      44.901  30.406  31.029  1.00  0.00     0.049 A 
ATOM     52  C   UNL A   1      39.895  32.862  30.597  1.00  0.00     0.074 A 
ATOM     53  C   UNL A   1      45.911  31.144  31.621  1.00  0.00     0.029 A 
ATOM     54  N   UNL A   1      43.764  31.197  31.047  1.00  0.00    -0.354 N 
ATOM     55  N   UNL A   1      41.122  32.425  30.759  1.00  0.00    -0.248 NA
ATOM     56  C   UNL A   1      39.645  34.183  31.192  1.00  0.00     0.031 C 
ATOM     57  C   UNL A   1      45.367  32.354  32.061  1.00  0.00     0.029 A 
ATOM     58  C   UNL A   1      44.037  32.402  31.673  1.00  0.00     0.049 A 
ATOM     59  H   UNL A   1      42.890  30.941  30.671  1.00  0.00     0.167 HD
ATOM     60  C   UNL A   1      41.796  33.432  31.446  1.00  0.00     0.074 A 
ATOM     61  C   UNL A   1      40.847  34.506  31.650  1.00  0.00     0.031 C 
ATOM     62  C   UNL A   1      43.086  33.467  31.866  1.00  0.00     0.031 A 
BRANCH  49  63
ATOM     63  C   UNL A   1      46.257  28.309  30.664  1.00  0.00    -0.014 A 
ATOM     64  C   UNL A   1      46.535  27.578  31.832  1.00  0.00     0.010 A 
ATOM     65  C   UNL A   1      47.172  28.268  29.596  1.00  0.00     0.010 A 
ATOM     66  C   UNL A   1      47.717  26.837  31.935  1.00  0.00     0.020 A 
ATOM     67  C   UNL A   1      48.339  27.505  29.684  1.00  0.00     0.020 A 
ATOM     68  C   UNL A   1      48.608  26.801  30.858  1.00  0.00     0.054 A 
BRANCH  68  69
ATOM     69  S   UNL A   1      50.103  25.784  30.999  1.00  0.00     0.124 S 
ATOM     70  O   UNL A   1      51.108  26.773  31.380  1.00  0.00    -0.237 OA
ATOM     71  O   UNL A   1      49.739  24.826  32.040  1.00  0.00    -0.237 OA
ATOM     72  O   UNL A   1      50.265  25.215  29.663  1.00  0.00    -0.744 OA
ENDBRANCH  68  69
ENDBRANCH  49  63
BRANCH  50  73
ATOM     73  C   UNL A   1      37.402  32.863  29.845  1.00  0.00    -0.014 A 
ATOM     74  C   UNL A   1      36.967  33.553  28.700  1.00  0.00     0.010 A 
ATOM     75  C   UNL A   1      36.567  32.830  30.977  1.00  0.00     0.010 A 
ATOM     76  C   UNL A   1      35.740  34.225  28.700  1.00  0.00     0.020 A 
ATOM     77  C   UNL A   1      35.325  33.472  30.970  1.00  0.00     0.020 A 
ATOM     78  C   UNL A   1      34.928  34.180  29.837  1.00  0.00     0.054 A 
BRANCH  78  79
ATOM     79  S   UNL A   1      33.329  35.040  29.806  1.00  0.00     0.124 S 
ATOM     80  O   UNL A   1      33.714  36.380  29.373  1.00  0.00    -0.237 OA
ATOM     81  O   UNL A   1      32.570  34.254  28.836  1.00  0.00    -0.237 OA
ATOM     82  O   UNL A   1      32.859  34.938  31.185  1.00  0.00    -0.744 OA
ENDBRANCH  78  79
ENDBRANCH  50  73
BRANCH  62  83
ATOM     83  C   UNL A   1      43.570  34.724  32.543  1.00  0.00    -0.014 A 
ATOM     84  C   UNL A   1      44.036  35.828  31.806  1.00  0.00     0.010 A 
ATOM     85  C   UNL A   1      43.504  34.820  33.946  1.00  0.00     0.010 A 
ATOM     86  C   UNL A   1      44.465  36.986  32.461  1.00  0.00     0.020 A 
ATOM     87  C   UNL A   1      43.900  35.988  34.603  1.00  0.00     0.020 A 
ATOM     88  C   UNL A   1      44.395  37.058  33.856  1.00  0.00     0.054 A 
BRANCH  88  89
ATOM     89  S   UNL A   1      44.929  38.583  34.680  1.00  0.00     0.124 S 
ATOM     90  O   UNL A   1      45.254  39.444  33.546  1.00  0.00    -0.237 OA
ATOM     91  O   UNL A   1      43.743  38.967  35.442  1.00  0.00    -0.237 OA
ATOM     92  O   UNL A   1      46.071  38.161  35.487  1.00  0.00    -0.744 OA
ENDBRANCH  88  89
ENDBRANCH  62  83
ENDBRANCH  36  37
ENDBRANCH  29  31
ENDBRANCH  28  29
ENDBRANCH  27  28
ENDBRANCH  26  27
ENDBRANCH  25  26
ENDBRANCH   1  25
TORSDOF 22
ENDMDL
MODEL 2
REMARK VINA RESULT:      -9.4      2.900      9.873
REMARK SMILES C[C@@H]1CN(c2ccc(N)cc2C(=O)OCCOCCOCCOC(=O)c2ccc(-c3c4nc(c(-c5ccc(S(=O)(=O)[O-])cc5)c5ccc([nH]5)c(-c5ccc(S(=O)(=O)[O-])cc5)c5nc(c(-c6ccc(S(=O)(=O)[O-])cc6)c6ccc3[nH]6)C=C5)C=C4)cc2)C[C@H]1C
REMARK SMILES IDX 19 1 18 2 17 3 16 4 15 5 14 6 12 7 13 8 11 9 5 10 6 11 7 12
REMARK SMILES IDX 10 13 8 14 4 15 1 16 2 17 3 18 87 19 86 20 88 21 9 22 20 25
REMARK SMILES IDX 21 26 22 27 23 28 24 29 25 30 26 31 27 32 85 33 28 34 84 35
REMARK SMILES IDX 29 36 30 37 31 38 78 39 32 40 83 41 77 42 79 43 33 44 82 45
REMARK SMILES IDX 76 46 75 47 34 49 64 50 45 51 63 52 46 53 49 54 62 55 80 56
REMARK SMILES IDX 47 57 48 58 61 60 81 61 50 62 35 63 36 64 44 65 37 66 43 67
REMARK SMILES IDX 38 68 39 69 40 70 41 71 42 72 65 73 66 74 74 75 67 76 73 77
REMARK SMILES IDX 68 78 69 79 70 80 71 81 72 82 51 83 52 84 60 85 53 86 59 87
REMARK SMILES IDX 54 88 55 89 56 90 57 91 58 92
REMARK H PARENT 9 23 9 24 79 48 49 59
REMARK Flexibility Score: inf
ROOT
ATOM      1  C   UNL A   1      31.166  28.060  25.674  1.00  0.00     0.188 C 
ENDROOT
BRANCH   1   2
ATOM      2  C   UNL A   1      30.838  26.900  24.708  1.00  0.00     0.188 C 
BRANCH   2   3
ATOM      3  O   UNL A   1      30.943  25.561  25.164  1.00  0.00    -0.376 OA
BRANCH   3   4
ATOM      4  C   UNL A   1      32.164  25.115  25.735  1.00  0.00     0.202 C 
BRANCH   4   5
ATOM      5  C   UNL A   1      32.268  23.757  26.443  1.00  0.00     0.261 C 
BRANCH   5   6
ATOM      6  O   UNL A   1      33.567  23.475  26.976  1.00  0.00    -0.460 OA
BRANCH   6   7
ATOM      7  C   UNL A   1      33.975  22.182  26.907  1.00  0.00     0.340 C 
ATOM      8  O   UNL A   1      33.390  21.218  27.377  1.00  0.00    -0.246 OA
BRANCH   7   9
ATOM      9  C   UNL A   1      35.159  22.047  26.027  1.00  0.00     0.085 A 
ATOM     10  C   UNL A   1      35.386  20.985  25.130  1.00  0.00     0.051 A 
ATOM     11  C   UNL A   1      36.623  21.011  24.452  1.00  0.00     0.029 A 
ATOM     12  C   UNL A   1      37.583  22.011  24.660  1.00  0.00     0.027 A 
ATOM     13  C   UNL A   1      36.136  23.051  26.238  1.00  0.00     0.043 A 
ATOM     14  C   UNL A   1      37.345  23.049  25.549  1.00  0.00     0.032 A 
BRANCH  10  15
ATOM     15  N   UNL A   1      34.538  19.926  24.880  1.00  0.00    -0.370 N 
ATOM     16  C   UNL A   1      32.025  18.654  22.472  1.00  0.00     0.010 C 
ATOM     17  C   UNL A   1      32.823  18.725  23.765  1.00  0.00     0.010 C 
ATOM     18  C   UNL A   1      33.325  20.145  24.079  1.00  0.00     0.120 C 
ATOM     19  C   UNL A   1      34.130  17.921  23.741  1.00  0.00     0.010 C 
ATOM     20  C   UNL A   1      34.873  18.509  24.947  1.00  0.00     0.120 C 
ATOM     21  C   UNL A   1      33.959  16.417  23.841  1.00  0.00     0.010 C 
ENDBRANCH  10  15
BRANCH  14  22
ATOM     22  N   UNL A   1      38.337  23.963  25.854  1.00  0.00    -0.399 N 
ATOM     23  H   UNL A   1      38.545  24.169  26.794  1.00  0.00     0.156 HD
ATOM     24  H   UNL A   1      38.834  24.410  25.131  1.00  0.00     0.156 HD
ENDBRANCH  14  22
ENDBRANCH   7   9
ENDBRANCH   6   7
ENDBRANCH   5   6
ENDBRANCH   4   5
ENDBRANCH   3   4
ENDBRANCH   2   3
ENDBRANCH   1   2
BRANCH   1  25
ATOM     25  O   UNL A   1      31.481  29.318  25.124  1.00  0.00    -0.376 OA
BRANCH  25  26
ATOM     26  C   UNL A   1      32.638  30.020  25.539  1.00  0.00     0.202 C 
BRANCH  26  27
ATOM     27  C   UNL A   1      32.860  30.692  26.911  1.00  0.00     0.261 C 
BRANCH  27  28
ATOM     28  O   UNL A   1      33.795  30.106  27.817  1.00  0.00    -0.460 OA
BRANCH  28  29
ATOM     29  C   UNL A   1      34.651  30.970  28.413  1.00  0.00     0.338 C 
ATOM     30  O   UNL A   1      34.378  32.056  28.906  1.00  0.00    -0.246 OA
BRANCH  29  31
ATOM     31  C   UNL A   1      35.966  30.320  28.551  1.00  0.00     0.060 A 
ATOM     32  C   UNL A   1      36.343  29.819  29.804  1.00  0.00     0.016 A 
ATOM     33  C   UNL A   1      36.831  30.229  27.460  1.00  0.00     0.016 A 
ATOM     34  C   UNL A   1      37.602  29.245  29.977  1.00  0.00     0.010 A 
ATOM     35  C   UNL A   1      38.102  29.674  27.641  1.00  0.00     0.010 A 
ATOM     36  C   UNL A   1      38.505  29.208  28.907  1.00  0.00    -0.014 A 
BRANCH  36  37
ATOM     37  C   UNL A   1      39.923  28.849  29.152  1.00  0.00     0.031 A 
ATOM     38  C   UNL A   1      40.837  29.893  29.738  1.00  0.00     0.074 A 
ATOM     39  C   UNL A   1      40.393  27.621  28.867  1.00  0.00     0.049 A 
ATOM     40  N   UNL A   1      42.117  29.825  29.990  1.00  0.00    -0.248 NA
ATOM     41  C   UNL A   1      40.225  31.189  30.078  1.00  0.00     0.031 C 
ATOM     42  C   UNL A   1      39.603  26.515  28.329  1.00  0.00     0.029 A 
ATOM     43  N   UNL A   1      41.661  27.105  28.980  1.00  0.00    -0.354 N 
ATOM     44  C   UNL A   1      42.469  31.071  30.496  1.00  0.00     0.074 A 
ATOM     45  C   UNL A   1      41.272  31.882  30.501  1.00  0.00     0.031 C 
ATOM     46  C   UNL A   1      40.410  25.455  28.139  1.00  0.00     0.029 A 
ATOM     47  C   UNL A   1      41.777  25.818  28.510  1.00  0.00     0.049 A 
ATOM     48  H   UNL A   1      42.415  27.609  29.363  1.00  0.00     0.167 HD
ATOM     49  C   UNL A   1      43.682  31.502  30.918  1.00  0.00     0.031 A 
ATOM     50  C   UNL A   1      42.866  25.034  28.367  1.00  0.00     0.031 A 
ATOM     51  C   UNL A   1      44.872  30.693  30.910  1.00  0.00     0.049 A 
ATOM     52  C   UNL A   1      44.215  25.557  28.798  1.00  0.00     0.074 A 
ATOM     53  C   UNL A   1      46.137  31.028  31.359  1.00  0.00     0.029 A 
ATOM     54  N   UNL A   1      44.950  29.400  30.420  1.00  0.00    -0.354 N 
ATOM     55  N   UNL A   1      44.520  26.719  29.327  1.00  0.00    -0.248 NA
ATOM     56  C   UNL A   1      45.364  24.656  28.626  1.00  0.00     0.031 C 
ATOM     57  C   UNL A   1      46.997  29.964  31.075  1.00  0.00     0.029 A 
ATOM     58  C   UNL A   1      46.251  28.935  30.521  1.00  0.00     0.049 A 
ATOM     59  H   UNL A   1      44.193  28.887  30.053  1.00  0.00     0.167 HD
ATOM     60  C   UNL A   1      45.889  26.673  29.579  1.00  0.00     0.074 A 
ATOM     61  C   UNL A   1      46.348  25.365  29.163  1.00  0.00     0.031 C 
ATOM     62  C   UNL A   1      46.695  27.628  30.109  1.00  0.00     0.031 A 
BRANCH  49  63
ATOM     63  C   UNL A   1      43.801  32.929  31.383  1.00  0.00    -0.014 A 
ATOM     64  C   UNL A   1      44.310  33.937  30.545  1.00  0.00     0.010 A 
ATOM     65  C   UNL A   1      43.324  33.276  32.660  1.00  0.00     0.010 A 
ATOM     66  C   UNL A   1      44.358  35.263  30.986  1.00  0.00     0.020 A 
ATOM     67  C   UNL A   1      43.343  34.605  33.093  1.00  0.00     0.020 A 
ATOM     68  C   UNL A   1      43.870  35.589  32.256  1.00  0.00     0.054 A 
BRANCH  68  69
ATOM     69  S   UNL A   1      43.891  37.326  32.777  1.00  0.00     0.124 S 
ATOM     70  O   UNL A   1      45.254  37.474  33.281  1.00  0.00    -0.237 OA
ATOM     71  O   UNL A   1      43.602  38.035  31.532  1.00  0.00    -0.237 OA
ATOM     72  O   UNL A   1      42.841  37.399  33.789  1.00  0.00    -0.744 OA
ENDBRANCH  68  69
ENDBRANCH  49  63
BRANCH  50  73
ATOM     73  C   UNL A   1      42.742  23.683  27.750  1.00  0.00    -0.014 A 
ATOM     74  C   UNL A   1      42.401  22.560  28.526  1.00  0.00     0.010 A 
ATOM     75  C   UNL A   1      43.000  23.508  26.378  1.00  0.00     0.010 A 
ATOM     76  C   UNL A   1      42.355  21.287  27.949  1.00  0.00     0.020 A 
ATOM     77  C   UNL A   1      42.922  22.242  25.790  1.00  0.00     0.020 A 
ATOM     78  C   UNL A   1      42.617  21.137  26.584  1.00  0.00     0.054 A 
BRANCH  78  79
ATOM     79  S   UNL A   1      42.528  19.479  25.851  1.00  0.00     0.124 S 
ATOM     80  O   UNL A   1      41.115  19.378  25.499  1.00  0.00    -0.237 OA
ATOM     81  O   UNL A   1      43.455  19.583  24.727  1.00  0.00    -0.237 OA
ATOM     82  O   UNL A   1      42.968  18.602  26.934  1.00  0.00    -0.744 OA
ENDBRANCH  78  79
ENDBRANCH  50  73
BRANCH  62  83
ATOM     83  C   UNL A   1      48.147  27.281  30.324  1.00  0.00    -0.014 A 
ATOM     84  C   UNL A   1      49.157  27.783  29.483  1.00  0.00     0.010 A 
ATOM     85  C   UNL A   1      48.509  26.479  31.422  1.00  0.00     0.010 A 
ATOM     86  C   UNL A   1      50.497  27.456  29.715  1.00  0.00     0.020 A 
ATOM     87  C   UNL A   1      49.849  26.178  31.677  1.00  0.00     0.020 A 
ATOM     88  C   UNL A   1      50.834  26.654  30.811  1.00  0.00     0.054 A 
BRANCH  88  89
ATOM     89  S   UNL A   1      52.582  26.269  31.108  1.00  0.00     0.124 S 
ATOM     90  O   UNL A   1      52.491  25.118  32.002  1.00  0.00    -0.237 OA
ATOM     91  O   UNL A   1      53.079  25.984  29.764  1.00  0.00    -0.237 OA
ATOM     92  O   UNL A   1      53.108  27.489  31.716  1.00  0.00    -0.744 OA
ENDBRANCH  88  89
ENDBRANCH  62  83
ENDBRANCH  36  37
ENDBRANCH  29  31
ENDBRANCH  28  29
ENDBRANCH  27  28
ENDBRANCH  26  27
ENDBRANCH  25  26
ENDBRANCH   1  25
TORSDOF 22
ENDMDL
MODEL 3
REMARK VINA RESULT:      -9.4      3.867      9.214
REMARK SMILES C[C@@H]1CN(c2ccc(N)cc2C(=O)OCCOCCOCCOC(=O)c2ccc(-c3c4nc(c(-c5ccc(S(=O)(=O)[O-])cc5)c5ccc([nH]5)c(-c5ccc(S(=O)(=O)[O-])cc5)c5nc(c(-c6ccc(S(=O)(=O)[O-])cc6)c6ccc3[nH]6)C=C5)C=C4)cc2)C[C@H]1C
REMARK SMILES IDX 19 1 18 2 17 3 16 4 15 5 14 6 12 7 13 8 11 9 5 10 6 11 7 12
REMARK SMILES IDX 10 13 8 14 4 15 1 16 2 17 3 18 87 19 86 20 88 21 9 22 20 25
REMARK SMILES IDX 21 26 22 27 23 28 24 29 25 30 26 31 27 32 85 33 28 34 84 35
REMARK SMILES IDX 29 36 30 37 31 38 78 39 32 40 83 41 77 42 79 43 33 44 82 45
REMARK SMILES IDX 76 46 75 47 34 49 64 50 45 51 63 52 46 53 49 54 62 55 80 56
REMARK SMILES IDX 47 57 48 58 61 60 81 61 50 62 35 63 36 64 44 65 37 66 43 67
REMARK SMILES IDX 38 68 39 69 40 70 41 71 42 72 65 73 66 74 74 75 67 76 73 77
REMARK SMILES IDX 68 78 69 79 70 80 71 81 72 82 51 83 52 84 60 85 53 86 59 87
REMARK SMILES IDX 54 88 55 89 56 90 57 91 58 92
REMARK H PARENT 9 23 9 24 79 48 49 59
REMARK Flexibility Score: inf
ROOT
ATOM      1  C   UNL A   1      38.102  23.042  26.156  1.00  0.00     0.188 C 
ENDROOT
BRANCH   1   2
ATOM      2  C   UNL A   1      37.911  21.809  25.246  1.00  0.00     0.188 C 
BRANCH   2   3
ATOM      3  O   UNL A   1      36.967  21.863  24.188  1.00  0.00    -0.376 OA
BRANCH   3   4
ATOM      4  C   UNL A   1      35.750  22.570  24.377  1.00  0.00     0.202 C 
BRANCH   4   5
ATOM      5  C   UNL A   1      34.966  23.147  23.191  1.00  0.00     0.261 C 
BRANCH   5   6
ATOM      6  O   UNL A   1      34.488  24.481  23.401  1.00  0.00    -0.460 OA
BRANCH   6   7
ATOM      7  C   UNL A   1      33.475  24.888  22.594  1.00  0.00     0.340 C 
ATOM      8  O   UNL A   1      33.155  24.380  21.530  1.00  0.00    -0.246 OA
BRANCH   7   9
ATOM      9  C   UNL A   1      32.671  25.946  23.248  1.00  0.00     0.085 A 
ATOM     10  C   UNL A   1      31.904  25.775  24.417  1.00  0.00     0.051 A 
ATOM     11  C   UNL A   1      31.145  26.894  24.820  1.00  0.00     0.029 A 
ATOM     12  C   UNL A   1      31.128  28.099  24.104  1.00  0.00     0.027 A 
ATOM     13  C   UNL A   1      32.645  27.164  22.525  1.00  0.00     0.043 A 
ATOM     14  C   UNL A   1      31.887  28.249  22.952  1.00  0.00     0.032 A 
BRANCH  10  15
ATOM     15  N   UNL A   1      31.807  24.626  25.174  1.00  0.00    -0.370 N 
ATOM     16  C   UNL A   1      32.025  20.931  24.985  1.00  0.00     0.010 C 
ATOM     17  C   UNL A   1      31.716  22.292  25.590  1.00  0.00     0.010 C 
ATOM     18  C   UNL A   1      31.418  23.364  24.527  1.00  0.00     0.120 C 
ATOM     19  C   UNL A   1      32.888  22.918  26.358  1.00  0.00     0.010 C 
ATOM     20  C   UNL A   1      32.437  24.381  26.466  1.00  0.00     0.120 C 
ATOM     21  C   UNL A   1      33.172  22.297  27.713  1.00  0.00     0.010 C 
ENDBRANCH  10  15
BRANCH  14  22
ATOM     22  N   UNL A   1      31.774  29.387  22.173  1.00  0.00    -0.399 N 
ATOM     23  H   UNL A   1      31.026  29.478  21.539  1.00  0.00     0.156 HD
ATOM     24  H   UNL A   1      32.443  30.105  22.250  1.00  0.00     0.156 HD
ENDBRANCH  14  22
ENDBRANCH   7   9
ENDBRANCH   6   7
ENDBRANCH   5   6
ENDBRANCH   4   5
ENDBRANCH   3   4
ENDBRANCH   2   3
ENDBRANCH   1   2
BRANCH   1  25
ATOM     25  O   UNL A   1      39.409  23.374  26.564  1.00  0.00    -0.376 OA
BRANCH  25  26
ATOM     26  C   UNL A   1      40.462  22.434  26.456  1.00  0.00     0.202 C 
BRANCH  26  27
ATOM     27  C   UNL A   1      41.959  22.751  26.258  1.00  0.00     0.261 C 
BRANCH  27  28
ATOM     28  O   UNL A   1      42.554  23.772  27.059  1.00  0.00    -0.460 OA
BRANCH  28  29
ATOM     29  C   UNL A   1      42.558  25.012  26.516  1.00  0.00     0.338 C 
ATOM     30  O   UNL A   1      42.748  25.304  25.343  1.00  0.00    -0.246 OA
BRANCH  29  31
ATOM     31  C   UNL A   1      42.109  25.980  27.533  1.00  0.00     0.060 A 
ATOM     32  C   UNL A   1      42.866  27.140  27.741  1.00  0.00     0.016 A 
ATOM     33  C   UNL A   1      40.965  25.732  28.292  1.00  0.00     0.016 A 
ATOM     34  C   UNL A   1      42.494  28.049  28.732  1.00  0.00     0.010 A 
ATOM     35  C   UNL A   1      40.607  26.632  29.301  1.00  0.00     0.010 A 
ATOM     36  C   UNL A   1      41.387  27.779  29.545  1.00  0.00    -0.014 A 
BRANCH  36  37
ATOM     37  C   UNL A   1      41.148  28.596  30.760  1.00  0.00     0.031 A 
ATOM     38  C   UNL A   1      40.019  29.591  30.745  1.00  0.00     0.074 A 
ATOM     39  C   UNL A   1      41.912  28.455  31.859  1.00  0.00     0.049 A 
ATOM     40  N   UNL A   1      39.655  30.444  31.666  1.00  0.00    -0.248 NA
ATOM     41  C   UNL A   1      39.194  29.634  29.525  1.00  0.00     0.031 C 
ATOM     42  C   UNL A   1      43.013  27.505  32.010  1.00  0.00     0.029 A 
ATOM     43  N   UNL A   1      41.883  29.129  33.056  1.00  0.00    -0.354 N 
ATOM     44  C   UNL A   1      38.576  31.139  31.132  1.00  0.00     0.074 A 
ATOM     45  C   UNL A   1      38.353  30.621  29.800  1.00  0.00     0.031 C 
ATOM     46  C   UNL A   1      43.568  27.671  33.224  1.00  0.00     0.029 A 
ATOM     47  C   UNL A   1      42.885  28.760  33.922  1.00  0.00     0.049 A 
ATOM     48  H   UNL A   1      41.208  29.812  33.273  1.00  0.00     0.167 HD
ATOM     49  C   UNL A   1      37.838  32.123  31.698  1.00  0.00     0.031 A 
ATOM     50  C   UNL A   1      43.231  29.263  35.125  1.00  0.00     0.031 A 
ATOM     51  C   UNL A   1      38.063  32.638  33.022  1.00  0.00     0.049 A 
ATOM     52  C   UNL A   1      42.422  30.394  35.713  1.00  0.00     0.074 A 
ATOM     53  C   UNL A   1      37.339  33.604  33.699  1.00  0.00     0.029 A 
ATOM     54  N   UNL A   1      39.090  32.245  33.863  1.00  0.00    -0.354 N 
ATOM     55  N   UNL A   1      41.370  31.003  35.217  1.00  0.00    -0.248 NA
ATOM     56  C   UNL A   1      42.839  30.897  37.030  1.00  0.00     0.031 C 
ATOM     57  C   UNL A   1      37.972  33.846  34.922  1.00  0.00     0.029 A 
ATOM     58  C   UNL A   1      39.043  32.975  35.039  1.00  0.00     0.049 A 
ATOM     59  H   UNL A   1      39.757  31.549  33.656  1.00  0.00     0.167 HD
ATOM     60  C   UNL A   1      40.983  31.936  36.176  1.00  0.00     0.074 A 
ATOM     61  C   UNL A   1      41.901  31.798  37.287  1.00  0.00     0.031 C 
ATOM     62  C   UNL A   1      39.959  32.825  36.142  1.00  0.00     0.031 A 
BRANCH  49  63
ATOM     63  C   UNL A   1      36.742  32.746  30.875  1.00  0.00    -0.014 A 
ATOM     64  C   UNL A   1      35.401  32.344  31.010  1.00  0.00     0.010 A 
ATOM     65  C   UNL A   1      37.054  33.805  30.003  1.00  0.00     0.010 A 
ATOM     66  C   UNL A   1      34.397  32.977  30.271  1.00  0.00     0.020 A 
ATOM     67  C   UNL A   1      36.050  34.460  29.286  1.00  0.00     0.020 A 
ATOM     68  C   UNL A   1      34.727  34.035  29.417  1.00  0.00     0.054 A 
BRANCH  68  69
ATOM     69  S   UNL A   1      33.396  34.875  28.517  1.00  0.00     0.124 S 
ATOM     70  O   UNL A   1      32.783  35.683  29.569  1.00  0.00    -0.237 OA
ATOM     71  O   UNL A   1      34.125  35.624  27.496  1.00  0.00    -0.237 OA
ATOM     72  O   UNL A   1      32.571  33.780  28.012  1.00  0.00    -0.744 OA
ENDBRANCH  68  69
ENDBRANCH  49  63
BRANCH  50  73
ATOM     73  C   UNL A   1      44.424  28.734  35.845  1.00  0.00    -0.014 A 
ATOM     74  C   UNL A   1      44.309  27.665  36.751  1.00  0.00     0.010 A 
ATOM     75  C   UNL A   1      45.684  29.328  35.650  1.00  0.00     0.010 A 
ATOM     76  C   UNL A   1      45.423  27.223  37.472  1.00  0.00     0.020 A 
ATOM     77  C   UNL A   1      46.808  28.867  36.343  1.00  0.00     0.020 A 
ATOM     78  C   UNL A   1      46.666  27.828  37.263  1.00  0.00     0.054 A 
BRANCH  78  79
ATOM     79  S   UNL A   1      48.103  27.223  38.191  1.00  0.00     0.124 S 
ATOM     80  O   UNL A   1      49.047  28.326  38.042  1.00  0.00    -0.237 OA
ATOM     81  O   UNL A   1      47.554  27.035  39.532  1.00  0.00    -0.237 OA
ATOM     82  O   UNL A   1      48.466  25.990  37.496  1.00  0.00    -0.744 OA
ENDBRANCH  78  79
ENDBRANCH  50  73
BRANCH  62  83
ATOM     83  C   UNL A   1      39.736  33.686  37.360  1.00  0.00    -0.014 A 
ATOM     84  C   UNL A   1      40.274  34.982  37.456  1.00  0.00     0.010 A 
ATOM     85  C   UNL A   1      38.926  33.204  38.405  1.00  0.00     0.010 A 
ATOM     86  C   UNL A   1      40.039  35.763  38.592  1.00  0.00     0.020 A 
ATOM     87  C   UNL A   1      38.661  33.994  39.527  1.00  0.00     0.020 A 
ATOM     88  C   UNL A   1      39.234  35.263  39.621  1.00  0.00     0.054 A 
BRANCH  88  89
ATOM     89  S   UNL A   1      38.919  36.307  41.070  1.00  0.00     0.124 S 
ATOM     90  O   UNL A   1      38.614  37.596  40.455  1.00  0.00    -0.237 OA
ATOM     91  O   UNL A   1      37.792  35.634  41.711  1.00  0.00    -0.237 OA
ATOM     92  O   UNL A   1      40.174  36.256  41.816  1.00  0.00    -0.744 OA
ENDBRANCH  88  89
ENDBRANCH  62  83
ENDBRANCH  36  37
ENDBRANCH  29  31
ENDBRANCH  28  29
ENDBRANCH  27  28
ENDBRANCH  26  27
ENDBRANCH  25  26
ENDBRANCH   1  25
TORSDOF 22
ENDMDL
