MODEL 1
REMARK VINA RESULT:     -12.6      0.000      0.000
REMARK SMILES Cc1ccc([C@@]23C[C@@H]4C[C@@H](C[C@@](C(=O)N5CCC(C(=O)OCCOCCOCCOC(=O)c6ccc(-c7c8nc(c(-c9ccc(S(=O)(=O)[O-])cc9)c9ccc([nH]9)c(-c9ccc(S(=O)(=O)[O-])cc9)c9nc(c(-c%10ccc(S(=O)(=O)[O-])cc%10)c%10ccc7[nH]%10)C=C9)C=C8)cc6)CC5)(C4)C2)C3)cc1
REMARK SMILES IDX 26 1 25 2 24 3 23 4 22 5 21 6 19 7 20 8 18 9 13 10 14 11
REMARK SMILES IDX 15 12 16 13 94 14 17 15 93 16 12 17 6 18 7 19 96 20 97 21
REMARK SMILES IDX 8 22 10 23 9 24 95 25 11 26 5 27 1 28 2 29 3 30 99 31 4 32
REMARK SMILES IDX 98 33 27 34 28 35 29 36 30 37 31 38 32 39 33 40 34 41 92 42
REMARK SMILES IDX 35 43 91 44 36 45 37 46 38 47 85 48 39 49 90 50 84 51 86 52
REMARK SMILES IDX 40 53 89 54 83 55 82 56 41 58 71 59 52 60 70 61 53 62 56 63
REMARK SMILES IDX 69 64 87 65 54 66 55 67 68 69 88 70 57 71 42 72 43 73 51 74
REMARK SMILES IDX 44 75 50 76 45 77 46 78 47 79 48 80 49 81 72 82 73 83 81 84
REMARK SMILES IDX 74 85 80 86 75 87 76 88 77 89 78 90 79 91 58 92 59 93 67 94
REMARK SMILES IDX 60 95 66 96 61 97 62 98 63 99 64 100 65 101
REMARK H PARENT 86 57 56 68
REMARK Flexibility Score: inf
ROOT
ATOM      1  C   UNL A   1      32.839  36.364  30.032  1.00  0.00     0.188 C 
ENDROOT
BRANCH   1   2
ATOM      2  C   UNL A   1      33.326  35.465  28.898  1.00  0.00     0.188 C 
BRANCH   2   3
ATOM      3  O   UNL A   1      33.447  34.043  29.077  1.00  0.00    -0.376 OA
BRANCH   3   4
ATOM      4  C   UNL A   1      34.191  33.176  28.209  1.00  0.00     0.202 C 
BRANCH   4   5
ATOM      5  C   UNL A   1      34.381  31.494  28.192  1.00  0.00     0.261 C 
BRANCH   5   6
ATOM      6  O   UNL A   1      33.511  30.080  27.423  1.00  0.00    -0.463 OA
BRANCH   6   7
ATOM      7  C   UNL A   1      33.757  28.811  26.719  1.00  0.00     0.309 C 
ATOM      8  O   UNL A   1      34.786  28.118  26.647  1.00  0.00    -0.252 OA
BRANCH   7   9
ATOM      9  C   UNL A   1      32.756  28.046  25.974  1.00  0.00     0.103 C 
ATOM     10  C   UNL A   1      31.656  24.608  26.027  1.00  0.00     0.228 C 
ATOM     11  O   UNL A   1      31.461  24.350  27.214  1.00  0.00    -0.274 OA
ATOM     12  N   UNL A   1      31.282  25.829  25.452  1.00  0.00    -0.342 N 
ATOM     13  C   UNL A   1      30.584  26.776  26.293  1.00  0.00     0.120 C 
ATOM     14  C   UNL A   1      32.015  26.479  24.355  1.00  0.00     0.120 C 
ATOM     15  C   UNL A   1      31.646  27.607  26.975  1.00  0.00     0.037 C 
ATOM     16  C   UNL A   1      33.261  27.087  24.966  1.00  0.00     0.037 C 
BRANCH  10  17
ATOM     17  C   UNL A   1      32.236  23.564  25.076  1.00  0.00     0.051 C 
ATOM     18  C   UNL A   1      34.545  22.589  24.565  1.00  0.00    -0.003 C 
ATOM     19  C   UNL A   1      33.911  21.196  24.869  1.00  0.00     0.015 C 
ATOM     20  C   UNL A   1      33.746  23.650  25.309  1.00  0.00     0.028 C 
ATOM     21  C   UNL A   1      34.327  22.909  23.064  1.00  0.00     0.015 C 
ATOM     22  C   UNL A   1      32.429  21.135  24.441  1.00  0.00    -0.009 C 
ATOM     23  C   UNL A   1      32.813  22.904  22.712  1.00  0.00    -0.009 C 
ATOM     24  C   UNL A   1      32.262  21.490  22.966  1.00  0.00     0.007 C 
ATOM     25  C   UNL A   1      31.643  22.151  25.259  1.00  0.00     0.020 C 
ATOM     26  C   UNL A   1      32.033  23.918  23.587  1.00  0.00     0.020 C 
BRANCH  18  27
ATOM     27  C   UNL A   1      36.012  22.640  25.040  1.00  0.00    -0.042 A 
ATOM     28  C   UNL A   1      40.042  22.692  26.663  1.00  0.00     0.044 C 
ATOM     29  C   UNL A   1      38.662  22.658  26.084  1.00  0.00    -0.051 A 
ATOM     30  C   UNL A   1      37.862  23.788  26.191  1.00  0.00     0.004 A 
ATOM     31  C   UNL A   1      38.141  21.524  25.452  1.00  0.00     0.004 A 
ATOM     32  C   UNL A   1      36.573  23.780  25.666  1.00  0.00     0.004 A 
ATOM     33  C   UNL A   1      36.836  21.514  24.938  1.00  0.00     0.004 A 
ENDBRANCH  18  27
ENDBRANCH  10  17
ENDBRANCH   7   9
ENDBRANCH   6   7
ENDBRANCH   5   6
ENDBRANCH   4   5
ENDBRANCH   3   4
ENDBRANCH   2   3
ENDBRANCH   1   2
BRANCH   1  34
ATOM     34  O   UNL A   1      32.519  35.585  31.167  1.00  0.00    -0.376 OA
BRANCH  34  35
ATOM     35  C   UNL A   1      33.084  35.977  32.397  1.00  0.00     0.202 C 
BRANCH  35  36
ATOM     36  C   UNL A   1      34.514  35.459  32.599  1.00  0.00     0.261 C 
BRANCH  36  37
ATOM     37  O   UNL A   1      34.580  34.107  33.126  1.00  0.00    -0.460 OA
BRANCH  37  38
ATOM     38  C   UNL A   1      34.961  33.078  32.281  1.00  0.00     0.338 C 
ATOM     39  O   UNL A   1      34.143  32.381  31.702  1.00  0.00    -0.246 OA
BRANCH  38  40
ATOM     40  C   UNL A   1      36.430  33.132  31.992  1.00  0.00     0.060 A 
ATOM     41  C   UNL A   1      37.136  33.463  30.826  1.00  0.00     0.016 A 
ATOM     42  C   UNL A   1      37.194  32.687  33.003  1.00  0.00     0.016 A 
ATOM     43  C   UNL A   1      38.535  33.062  30.581  1.00  0.00     0.010 A 
ATOM     44  C   UNL A   1      38.426  32.155  32.662  1.00  0.00     0.010 A 
ATOM     45  C   UNL A   1      39.250  32.240  31.464  1.00  0.00    -0.014 A 
BRANCH  45  46
ATOM     46  C   UNL A   1      40.878  31.492  31.183  1.00  0.00     0.031 A 
ATOM     47  C   UNL A   1      41.360  29.926  30.329  1.00  0.00     0.074 A 
ATOM     48  C   UNL A   1      41.894  31.912  31.966  1.00  0.00     0.049 A 
ATOM     49  N   UNL A   1      42.125  28.971  30.841  1.00  0.00    -0.248 NA
ATOM     50  C   UNL A   1      40.761  29.263  29.056  1.00  0.00     0.031 C 
ATOM     51  C   UNL A   1      43.285  31.490  31.882  1.00  0.00     0.029 A 
ATOM     52  N   UNL A   1      41.838  32.708  33.101  1.00  0.00    -0.354 N 
ATOM     53  C   UNL A   1      42.079  27.830  29.995  1.00  0.00     0.074 A 
ATOM     54  C   UNL A   1      41.024  27.983  29.093  1.00  0.00     0.031 C 
ATOM     55  C   UNL A   1      43.906  31.834  33.019  1.00  0.00     0.029 A 
ATOM     56  C   UNL A   1      42.899  32.354  33.930  1.00  0.00     0.049 A 
ATOM     57  H   UNL A   1      41.165  33.402  33.288  1.00  0.00     0.167 HD
ATOM     58  C   UNL A   1      43.038  26.879  29.859  1.00  0.00     0.031 A 
ATOM     59  C   UNL A   1      42.693  31.935  35.209  1.00  0.00     0.031 A 
ATOM     60  C   UNL A   1      44.065  27.154  30.807  1.00  0.00     0.049 A 
ATOM     61  C   UNL A   1      43.267  30.560  35.470  1.00  0.00     0.074 A 
ATOM     62  C   UNL A   1      45.131  28.032  30.770  1.00  0.00     0.029 A 
ATOM     63  N   UNL A   1      43.761  26.915  32.127  1.00  0.00    -0.354 N 
ATOM     64  N   UNL A   1      43.562  29.694  34.535  1.00  0.00    -0.248 NA
ATOM     65  C   UNL A   1      43.591  30.063  36.803  1.00  0.00     0.031 C 
ATOM     66  C   UNL A   1      45.420  28.388  32.113  1.00  0.00     0.029 A 
ATOM     67  C   UNL A   1      44.576  27.666  32.940  1.00  0.00     0.049 A 
ATOM     68  H   UNL A   1      43.062  26.298  32.443  1.00  0.00     0.167 HD
ATOM     69  C   UNL A   1      44.086  28.561  35.104  1.00  0.00     0.074 A 
ATOM     70  C   UNL A   1      44.099  28.849  36.524  1.00  0.00     0.031 C 
ATOM     71  C   UNL A   1      44.466  27.475  34.370  1.00  0.00     0.031 A 
BRANCH  58  72
ATOM     72  C   UNL A   1      43.149  26.022  28.596  1.00  0.00    -0.014 A 
ATOM     73  C   UNL A   1      42.912  24.640  28.697  1.00  0.00     0.010 A 
ATOM     74  C   UNL A   1      43.600  26.476  27.329  1.00  0.00     0.010 A 
ATOM     75  C   UNL A   1      43.213  23.752  27.650  1.00  0.00     0.020 A 
ATOM     76  C   UNL A   1      43.975  25.591  26.296  1.00  0.00     0.020 A 
ATOM     77  C   UNL A   1      43.778  24.226  26.466  1.00  0.00     0.054 A 
BRANCH  77  78
ATOM     78  S   UNL A   1      44.258  23.039  25.176  1.00  0.00     0.124 S 
ATOM     79  O   UNL A   1      45.088  22.084  25.909  1.00  0.00    -0.237 OA
ATOM     80  O   UNL A   1      42.968  22.530  24.724  1.00  0.00    -0.237 OA
ATOM     81  O   UNL A   1      44.983  23.853  24.201  1.00  0.00    -0.744 OA
ENDBRANCH  77  78
ENDBRANCH  58  72
BRANCH  59  82
ATOM     82  C   UNL A   1      41.529  32.586  35.894  1.00  0.00    -0.014 A 
ATOM     83  C   UNL A   1      40.319  31.851  35.924  1.00  0.00     0.010 A 
ATOM     84  C   UNL A   1      41.669  33.664  36.786  1.00  0.00     0.010 A 
ATOM     85  C   UNL A   1      39.352  32.077  36.909  1.00  0.00     0.020 A 
ATOM     86  C   UNL A   1      40.678  33.916  37.764  1.00  0.00     0.020 A 
ATOM     87  C   UNL A   1      39.557  33.081  37.851  1.00  0.00     0.054 A 
BRANCH  87  88
ATOM     88  S   UNL A   1      38.430  33.114  39.285  1.00  0.00     0.124 S 
ATOM     89  O   UNL A   1      38.793  34.360  39.951  1.00  0.00    -0.237 OA
ATOM     90  O   UNL A   1      37.119  33.118  38.635  1.00  0.00    -0.237 OA
ATOM     91  O   UNL A   1      38.766  31.892  40.008  1.00  0.00    -0.744 OA
ENDBRANCH  87  88
ENDBRANCH  59  82
BRANCH  71  92
ATOM     92  C   UNL A   1      44.792  26.088  34.884  1.00  0.00    -0.014 A 
ATOM     93  C   UNL A   1      43.836  25.101  35.146  1.00  0.00     0.010 A 
ATOM     94  C   UNL A   1      46.156  25.689  34.958  1.00  0.00     0.010 A 
ATOM     95  C   UNL A   1      44.217  23.807  35.525  1.00  0.00     0.020 A 
ATOM     96  C   UNL A   1      46.547  24.386  35.262  1.00  0.00     0.020 A 
ATOM     97  C   UNL A   1      45.569  23.459  35.584  1.00  0.00     0.054 A 
BRANCH  97  98
ATOM     98  S   UNL A   1      46.052  21.781  36.043  1.00  0.00     0.124 S 
ATOM     99  O   UNL A   1      45.189  20.978  35.182  1.00  0.00    -0.237 OA
ATOM    100  O   UNL A   1      47.475  21.743  35.710  1.00  0.00    -0.237 OA
ATOM    101  O   UNL A   1      45.752  21.715  37.471  1.00  0.00    -0.744 OA
ENDBRANCH  97  98
ENDBRANCH  71  92
ENDBRANCH  45  46
ENDBRANCH  38  40
ENDBRANCH  37  38
ENDBRANCH  36  37
ENDBRANCH  35  36
ENDBRANCH  34  35
ENDBRANCH   1  34
TORSDOF 22
ENDMDL
MODEL 2
REMARK VINA RESULT:     -12.6      1.928      2.876
REMARK SMILES Cc1ccc([C@@]23C[C@@H]4C[C@@H](C[C@@](C(=O)N5CCC(C(=O)OCCOCCOCCOC(=O)c6ccc(-c7c8nc(c(-c9ccc(S(=O)(=O)[O-])cc9)c9ccc([nH]9)c(-c9ccc(S(=O)(=O)[O-])cc9)c9nc(c(-c%10ccc(S(=O)(=O)[O-])cc%10)c%10ccc7[nH]%10)C=C9)C=C8)cc6)CC5)(C4)C2)C3)cc1
REMARK SMILES IDX 26 1 25 2 24 3 23 4 22 5 21 6 19 7 20 8 18 9 13 10 14 11
REMARK SMILES IDX 15 12 16 13 94 14 17 15 93 16 12 17 6 18 7 19 96 20 97 21
REMARK SMILES IDX 8 22 10 23 9 24 95 25 11 26 5 27 1 28 2 29 3 30 99 31 4 32
REMARK SMILES IDX 98 33 27 34 28 35 29 36 30 37 31 38 32 39 33 40 34 41 92 42
REMARK SMILES IDX 35 43 91 44 36 45 37 46 38 47 85 48 39 49 90 50 84 51 86 52
REMARK SMILES IDX 40 53 89 54 83 55 82 56 41 58 71 59 52 60 70 61 53 62 56 63
REMARK SMILES IDX 69 64 87 65 54 66 55 67 68 69 88 70 57 71 42 72 43 73 51 74
REMARK SMILES IDX 44 75 50 76 45 77 46 78 47 79 48 80 49 81 72 82 73 83 81 84
REMARK SMILES IDX 74 85 80 86 75 87 76 88 77 89 78 90 79 91 58 92 59 93 67 94
REMARK SMILES IDX 60 95 66 96 61 97 62 98 63 99 64 100 65 101
REMARK H PARENT 86 57 56 68
REMARK Flexibility Score: inf
ROOT
ATOM      1  C   UNL A   1      33.387  34.776  30.324  1.00  0.00     0.188 C 
ENDROOT
BRANCH   1   2
ATOM      2  C   UNL A   1      33.529  34.109  28.959  1.00  0.00     0.188 C 
BRANCH   2   3
ATOM      3  O   UNL A   1      32.508  34.246  27.956  1.00  0.00    -0.376 OA
BRANCH   3   4
ATOM      4  C   UNL A   1      32.153  33.224  27.014  1.00  0.00     0.202 C 
BRANCH   4   5
ATOM      5  C   UNL A   1      31.972  31.549  27.184  1.00  0.00     0.261 C 
BRANCH   5   6
ATOM      6  O   UNL A   1      33.067  30.089  27.056  1.00  0.00    -0.463 OA
BRANCH   6   7
ATOM      7  C   UNL A   1      33.370  28.939  26.189  1.00  0.00     0.309 C 
ATOM      8  O   UNL A   1      34.461  28.440  25.866  1.00  0.00    -0.252 OA
BRANCH   7   9
ATOM      9  C   UNL A   1      32.377  28.074  25.549  1.00  0.00     0.103 C 
ATOM     10  C   UNL A   1      31.503  24.585  25.854  1.00  0.00     0.228 C 
ATOM     11  O   UNL A   1      31.395  24.383  27.063  1.00  0.00    -0.274 OA
ATOM     12  N   UNL A   1      31.019  25.746  25.238  1.00  0.00    -0.342 N 
ATOM     13  C   UNL A   1      30.313  26.696  26.071  1.00  0.00     0.120 C 
ATOM     14  C   UNL A   1      31.643  26.376  24.065  1.00  0.00     0.120 C 
ATOM     15  C   UNL A   1      31.358  27.627  26.639  1.00  0.00     0.037 C 
ATOM     16  C   UNL A   1      32.882  27.091  24.565  1.00  0.00     0.037 C 
BRANCH  10  17
ATOM     17  C   UNL A   1      32.090  23.525  24.926  1.00  0.00     0.051 C 
ATOM     18  C   UNL A   1      34.378  22.445  24.544  1.00  0.00    -0.003 C 
ATOM     19  C   UNL A   1      33.661  21.082  24.788  1.00  0.00     0.015 C 
ATOM     20  C   UNL A   1      33.586  23.535  25.253  1.00  0.00     0.028 C 
ATOM     21  C   UNL A   1      34.270  22.793  23.038  1.00  0.00     0.015 C 
ATOM     22  C   UNL A   1      32.207  21.097  24.268  1.00  0.00    -0.009 C 
ATOM     23  C   UNL A   1      32.782  22.865  22.592  1.00  0.00    -0.009 C 
ATOM     24  C   UNL A   1      32.150  21.477  22.791  1.00  0.00     0.007 C 
ATOM     25  C   UNL A   1      31.421  22.140  25.051  1.00  0.00     0.020 C 
ATOM     26  C   UNL A   1      31.998  23.906  23.432  1.00  0.00     0.020 C 
BRANCH  18  27
ATOM     27  C   UNL A   1      35.813  22.419  25.110  1.00  0.00    -0.042 A 
ATOM     28  C   UNL A   1      39.955  22.452  26.420  1.00  0.00     0.044 C 
ATOM     29  C   UNL A   1      38.522  22.455  25.989  1.00  0.00    -0.051 A 
ATOM     30  C   UNL A   1      38.009  21.330  25.359  1.00  0.00     0.004 A 
ATOM     31  C   UNL A   1      37.683  23.557  26.186  1.00  0.00     0.004 A 
ATOM     32  C   UNL A   1      36.680  21.311  24.944  1.00  0.00     0.004 A 
ATOM     33  C   UNL A   1      36.348  23.540  25.752  1.00  0.00     0.004 A 
ENDBRANCH  18  27
ENDBRANCH  10  17
ENDBRANCH   7   9
ENDBRANCH   6   7
ENDBRANCH   5   6
ENDBRANCH   4   5
ENDBRANCH   3   4
ENDBRANCH   2   3
ENDBRANCH   1   2
BRANCH   1  34
ATOM     34  O   UNL A   1      34.201  34.118  31.274  1.00  0.00    -0.376 OA
BRANCH  34  35
ATOM     35  C   UNL A   1      35.517  34.596  31.435  1.00  0.00     0.202 C 
BRANCH  35  36
ATOM     36  C   UNL A   1      36.556  33.781  30.653  1.00  0.00     0.261 C 
BRANCH  36  37
ATOM     37  O   UNL A   1      36.482  32.350  30.891  1.00  0.00    -0.460 OA
BRANCH  37  38
ATOM     38  C   UNL A   1      36.192  31.509  29.830  1.00  0.00     0.338 C 
ATOM     39  O   UNL A   1      35.056  31.380  29.400  1.00  0.00    -0.246 OA
BRANCH  38  40
ATOM     40  C   UNL A   1      37.444  31.033  29.161  1.00  0.00     0.060 A 
ATOM     41  C   UNL A   1      37.659  30.051  28.182  1.00  0.00     0.016 A 
ATOM     42  C   UNL A   1      38.564  31.578  29.665  1.00  0.00     0.016 A 
ATOM     43  C   UNL A   1      38.970  29.415  27.943  1.00  0.00     0.010 A 
ATOM     44  C   UNL A   1      39.721  30.826  29.559  1.00  0.00     0.010 A 
ATOM     45  C   UNL A   1      40.095  29.682  28.737  1.00  0.00    -0.014 A 
BRANCH  45  46
ATOM     46  C   UNL A   1      41.687  28.816  28.701  1.00  0.00     0.031 A 
ATOM     47  C   UNL A   1      42.117  27.092  28.191  1.00  0.00     0.074 A 
ATOM     48  C   UNL A   1      42.687  29.330  29.448  1.00  0.00     0.049 A 
ATOM     49  N   UNL A   1      42.797  26.218  28.920  1.00  0.00    -0.248 NA
ATOM     50  C   UNL A   1      41.541  26.225  27.035  1.00  0.00     0.031 C 
ATOM     51  C   UNL A   1      44.053  28.831  29.528  1.00  0.00     0.029 A 
ATOM     52  N   UNL A   1      42.623  30.332  30.405  1.00  0.00    -0.354 N 
ATOM     53  C   UNL A   1      42.725  24.939  28.306  1.00  0.00     0.074 A 
ATOM     54  C   UNL A   1      41.726  24.966  27.331  1.00  0.00     0.031 C 
ATOM     55  C   UNL A   1      44.637  29.358  30.614  1.00  0.00     0.029 A 
ATOM     56  C   UNL A   1      43.620  30.093  31.347  1.00  0.00     0.049 A 
ATOM     57  H   UNL A   1      41.985  31.081  30.416  1.00  0.00     0.167 HD
ATOM     58  C   UNL A   1      43.632  23.934  28.411  1.00  0.00     0.031 A 
ATOM     59  C   UNL A   1      43.327  29.941  32.669  1.00  0.00     0.031 A 
ATOM     60  C   UNL A   1      44.626  24.337  29.348  1.00  0.00     0.049 A 
ATOM     61  C   UNL A   1      43.805  28.616  33.220  1.00  0.00     0.074 A 
ATOM     62  C   UNL A   1      45.743  25.138  29.207  1.00  0.00     0.029 A 
ATOM     63  N   UNL A   1      44.245  24.373  30.668  1.00  0.00    -0.354 N 
ATOM     64  N   UNL A   1      44.094  27.572  32.487  1.00  0.00    -0.248 NA
ATOM     65  C   UNL A   1      44.035  28.371  34.641  1.00  0.00     0.031 C 
ATOM     66  C   UNL A   1      45.986  25.733  30.472  1.00  0.00     0.029 A 
ATOM     67  C   UNL A   1      45.063  25.227  31.370  1.00  0.00     0.049 A 
ATOM     68  H   UNL A   1      43.496  23.864  31.055  1.00  0.00     0.167 HD
ATOM     69  C   UNL A   1      44.521  26.546  33.291  1.00  0.00     0.074 A 
ATOM     70  C   UNL A   1      44.482  27.102  34.628  1.00  0.00     0.031 C 
ATOM     71  C   UNL A   1      44.872  25.321  32.801  1.00  0.00     0.031 A 
BRANCH  58  72
ATOM     72  C   UNL A   1      43.753  22.844  27.343  1.00  0.00    -0.014 A 
ATOM     73  C   UNL A   1      42.880  21.744  27.402  1.00  0.00     0.010 A 
ATOM     74  C   UNL A   1      44.766  22.772  26.351  1.00  0.00     0.010 A 
ATOM     75  C   UNL A   1      43.068  20.598  26.609  1.00  0.00     0.020 A 
ATOM     76  C   UNL A   1      45.011  21.601  25.602  1.00  0.00     0.020 A 
ATOM     77  C   UNL A   1      44.154  20.515  25.738  1.00  0.00     0.054 A 
BRANCH  77  78
ATOM     78  S   UNL A   1      44.432  18.976  24.812  1.00  0.00     0.124 S 
ATOM     79  O   UNL A   1      45.714  18.510  25.338  1.00  0.00    -0.237 OA
ATOM     80  O   UNL A   1      43.272  18.174  25.186  1.00  0.00    -0.237 OA
ATOM     81  O   UNL A   1      44.467  19.408  23.415  1.00  0.00    -0.744 OA
ENDBRANCH  77  78
ENDBRANCH  58  72
BRANCH  59  82
ATOM     82  C   UNL A   1      42.172  30.768  33.146  1.00  0.00    -0.014 A 
ATOM     83  C   UNL A   1      40.881  30.349  32.742  1.00  0.00     0.010 A 
ATOM     84  C   UNL A   1      42.266  31.667  34.223  1.00  0.00     0.010 A 
ATOM     85  C   UNL A   1      39.741  30.683  33.478  1.00  0.00     0.020 A 
ATOM     86  C   UNL A   1      41.110  32.033  34.952  1.00  0.00     0.020 A 
ATOM     87  C   UNL A   1      39.867  31.490  34.606  1.00  0.00     0.054 A 
BRANCH  87  88
ATOM     88  S   UNL A   1      38.410  31.624  35.696  1.00  0.00     0.124 S 
ATOM     89  O   UNL A   1      38.463  30.382  36.459  1.00  0.00    -0.237 OA
ATOM     90  O   UNL A   1      38.719  32.834  36.459  1.00  0.00    -0.237 OA
ATOM     91  O   UNL A   1      37.296  31.742  34.760  1.00  0.00    -0.744 OA
ENDBRANCH  87  88
ENDBRANCH  59  82
BRANCH  71  92
ATOM     92  C   UNL A   1      45.089  24.046  33.589  1.00  0.00    -0.014 A 
ATOM     93  C   UNL A   1      44.131  23.038  33.735  1.00  0.00     0.010 A 
ATOM     94  C   UNL A   1      46.393  23.762  34.083  1.00  0.00     0.010 A 
ATOM     95  C   UNL A   1      44.436  21.839  34.395  1.00  0.00     0.020 A 
ATOM     96  C   UNL A   1      46.728  22.545  34.675  1.00  0.00     0.020 A 
ATOM     97  C   UNL A   1      45.731  21.602  34.863  1.00  0.00     0.054 A 
BRANCH  97  98
ATOM     98  S   UNL A   1      46.124  20.043  35.685  1.00  0.00     0.124 S 
ATOM     99  O   UNL A   1      45.533  20.246  37.004  1.00  0.00    -0.237 OA
ATOM    100  O   UNL A   1      45.456  19.049  34.846  1.00  0.00    -0.237 OA
ATOM    101  O   UNL A   1      47.583  19.995  35.650  1.00  0.00    -0.744 OA
ENDBRANCH  97  98
ENDBRANCH  71  92
ENDBRANCH  45  46
ENDBRANCH  38  40
ENDBRANCH  37  38
ENDBRANCH  36  37
ENDBRANCH  35  36
ENDBRANCH  34  35
ENDBRANCH   1  34
TORSDOF 22
ENDMDL
MODEL 3
REMARK VINA RESULT:     -11.6      6.724     11.300
REMARK SMILES Cc1ccc([C@@]23C[C@@H]4C[C@@H](C[C@@](C(=O)N5CCC(C(=O)OCCOCCOCCOC(=O)c6ccc(-c7c8nc(c(-c9ccc(S(=O)(=O)[O-])cc9)c9ccc([nH]9)c(-c9ccc(S(=O)(=O)[O-])cc9)c9nc(c(-c%10ccc(S(=O)(=O)[O-])cc%10)c%10ccc7[nH]%10)C=C9)C=C8)cc6)CC5)(C4)C2)C3)cc1
REMARK SMILES IDX 26 1 25 2 24 3 23 4 22 5 21 6 19 7 20 8 18 9 13 10 14 11
REMARK SMILES IDX 15 12 16 13 94 14 17 15 93 16 12 17 6 18 7 19 96 20 97 21
REMARK SMILES IDX 8 22 10 23 9 24 95 25 11 26 5 27 1 28 2 29 3 30 99 31 4 32
REMARK SMILES IDX 98 33 27 34 28 35 29 36 30 37 31 38 32 39 33 40 34 41 92 42
REMARK SMILES IDX 35 43 91 44 36 45 37 46 38 47 85 48 39 49 90 50 84 51 86 52
REMARK SMILES IDX 40 53 89 54 83 55 82 56 41 58 71 59 52 60 70 61 53 62 56 63
REMARK SMILES IDX 69 64 87 65 54 66 55 67 68 69 88 70 57 71 42 72 43 73 51 74
REMARK SMILES IDX 44 75 50 76 45 77 46 78 47 79 48 80 49 81 72 82 73 83 81 84
REMARK SMILES IDX 74 85 80 86 75 87 76 88 77 89 78 90 79 91 58 92 59 93 67 94
REMARK SMILES IDX 60 95 66 96 61 97 62 98 63 99 64 100 65 101
REMARK H PARENT 86 57 56 68
REMARK Flexibility Score: inf
ROOT
ATOM      1  C   UNL A   1      34.850  34.225  31.384  1.00  0.00     0.188 C 
ENDROOT
BRANCH   1   2
ATOM      2  C   UNL A   1      34.792  33.499  30.042  1.00  0.00     0.188 C 
BRANCH   2   3
ATOM      3  O   UNL A   1      34.272  34.148  28.869  1.00  0.00    -0.376 OA
BRANCH   3   4
ATOM      4  C   UNL A   1      33.612  33.469  27.791  1.00  0.00     0.202 C 
BRANCH   4   5
ATOM      5  C   UNL A   1      33.095  31.865  27.620  1.00  0.00     0.261 C 
BRANCH   5   6
ATOM      6  O   UNL A   1      33.877  30.214  27.720  1.00  0.00    -0.463 OA
BRANCH   6   7
ATOM      7  C   UNL A   1      34.112  28.993  26.933  1.00  0.00     0.309 C 
ATOM      8  O   UNL A   1      35.132  28.293  26.820  1.00  0.00    -0.252 OA
BRANCH   7   9
ATOM      9  C   UNL A   1      33.107  28.294  26.130  1.00  0.00     0.103 C 
ATOM     10  C   UNL A   1      31.917  24.889  25.985  1.00  0.00     0.228 C 
ATOM     11  O   UNL A   1      31.692  24.576  27.153  1.00  0.00    -0.274 OA
ATOM     12  N   UNL A   1      31.588  26.147  25.466  1.00  0.00    -0.342 N 
ATOM     13  C   UNL A   1      30.897  27.068  26.342  1.00  0.00     0.120 C 
ATOM     14  C   UNL A   1      32.360  26.832  24.419  1.00  0.00     0.120 C 
ATOM     15  C   UNL A   1      31.965  27.835  27.085  1.00  0.00     0.037 C 
ATOM     16  C   UNL A   1      33.608  27.374  25.085  1.00  0.00     0.037 C 
BRANCH  10  17
ATOM     17  C   UNL A   1      32.490  23.880  24.994  1.00  0.00     0.051 C 
ATOM     18  C   UNL A   1      34.745  22.744  24.583  1.00  0.00    -0.003 C 
ATOM     19  C   UNL A   1      33.973  21.395  24.708  1.00  0.00     0.015 C 
ATOM     20  C   UNL A   1      33.976  23.808  25.354  1.00  0.00     0.028 C 
ATOM     21  C   UNL A   1      34.687  23.207  23.105  1.00  0.00     0.015 C 
ATOM     22  C   UNL A   1      32.535  21.504  24.158  1.00  0.00    -0.009 C 
ATOM     23  C   UNL A   1      33.215  23.368  22.633  1.00  0.00    -0.009 C 
ATOM     24  C   UNL A   1      32.528  21.995  22.713  1.00  0.00     0.007 C 
ATOM     25  C   UNL A   1      31.767  22.515  24.999  1.00  0.00     0.020 C 
ATOM     26  C   UNL A   1      32.449  24.373  23.531  1.00  0.00     0.020 C 
BRANCH  18  27
ATOM     27  C   UNL A   1      36.164  22.622  25.177  1.00  0.00    -0.042 A 
ATOM     28  C   UNL A   1      40.273  22.355  26.564  1.00  0.00     0.044 C 
ATOM     29  C   UNL A   1      38.852  22.463  26.106  1.00  0.00    -0.051 A 
ATOM     30  C   UNL A   1      38.245  21.353  25.535  1.00  0.00     0.004 A 
ATOM     31  C   UNL A   1      38.117  23.648  26.218  1.00  0.00     0.004 A 
ATOM     32  C   UNL A   1      36.926  21.430  25.096  1.00  0.00     0.004 A 
ATOM     33  C   UNL A   1      36.792  23.727  25.760  1.00  0.00     0.004 A 
ENDBRANCH  18  27
ENDBRANCH  10  17
ENDBRANCH   7   9
ENDBRANCH   6   7
ENDBRANCH   5   6
ENDBRANCH   4   5
ENDBRANCH   3   4
ENDBRANCH   2   3
ENDBRANCH   1   2
BRANCH   1  34
ATOM     34  O   UNL A   1      35.667  33.509  32.289  1.00  0.00    -0.376 OA
BRANCH  34  35
ATOM     35  C   UNL A   1      35.075  33.091  33.497  1.00  0.00     0.202 C 
BRANCH  35  36
ATOM     36  C   UNL A   1      35.297  34.076  34.652  1.00  0.00     0.261 C 
BRANCH  36  37
ATOM     37  O   UNL A   1      36.668  34.540  34.774  1.00  0.00    -0.460 OA
BRANCH  37  38
ATOM     38  C   UNL A   1      37.506  33.921  35.686  1.00  0.00     0.338 C 
ATOM     39  O   UNL A   1      37.072  33.225  36.591  1.00  0.00    -0.246 OA
BRANCH  38  40
ATOM     40  C   UNL A   1      38.936  34.004  35.250  1.00  0.00     0.060 A 
ATOM     41  C   UNL A   1      40.127  34.102  35.983  1.00  0.00     0.016 A 
ATOM     42  C   UNL A   1      39.087  34.103  33.919  1.00  0.00     0.016 A 
ATOM     43  C   UNL A   1      41.395  34.598  35.413  1.00  0.00     0.010 A 
ATOM     44  C   UNL A   1      40.225  34.750  33.470  1.00  0.00     0.010 A 
ATOM     45  C   UNL A   1      41.491  35.093  34.104  1.00  0.00    -0.014 A 
BRANCH  45  46
ATOM     46  C   UNL A   1      42.914  35.933  33.357  1.00  0.00     0.031 A 
ATOM     47  C   UNL A   1      43.391  37.719  33.332  1.00  0.00     0.074 A 
ATOM     48  C   UNL A   1      43.581  35.273  32.388  1.00  0.00     0.049 A 
ATOM     49  N   UNL A   1      43.679  38.426  32.248  1.00  0.00    -0.248 NA
ATOM     50  C   UNL A   1      43.247  38.801  34.440  1.00  0.00     0.031 C 
ATOM     51  C   UNL A   1      44.775  35.731  31.691  1.00  0.00     0.029 A 
ATOM     52  N   UNL A   1      43.221  34.104  31.734  1.00  0.00    -0.354 N 
ATOM     53  C   UNL A   1      43.763  39.801  32.595  1.00  0.00     0.074 A 
ATOM     54  C   UNL A   1      43.220  39.976  33.869  1.00  0.00     0.031 C 
ATOM     55  C   UNL A   1      44.931  34.996  30.580  1.00  0.00     0.029 A 
ATOM     56  C   UNL A   1      43.761  34.143  30.450  1.00  0.00     0.049 A 
ATOM     57  H   UNL A   1      42.679  33.374  32.110  1.00  0.00     0.167 HD
ATOM     58  C   UNL A   1      44.491  40.757  31.962  1.00  0.00     0.031 A 
ATOM     59  C   UNL A   1      42.974  34.037  29.344  1.00  0.00     0.031 A 
ATOM     60  C   UNL A   1      45.073  40.168  30.803  1.00  0.00     0.049 A 
ATOM     61  C   UNL A   1      43.114  35.224  28.416  1.00  0.00     0.074 A 
ATOM     62  C   UNL A   1      46.209  39.398  30.642  1.00  0.00     0.029 A 
ATOM     63  N   UNL A   1      44.217  39.879  29.767  1.00  0.00    -0.354 N 
ATOM     64  N   UNL A   1      43.592  36.388  28.774  1.00  0.00    -0.248 NA
ATOM     65  C   UNL A   1      42.763  35.184  27.000  1.00  0.00     0.031 C 
ATOM     66  C   UNL A   1      45.986  38.565  29.515  1.00  0.00     0.029 A 
ATOM     67  C   UNL A   1      44.757  38.896  28.972  1.00  0.00     0.049 A 
ATOM     68  H   UNL A   1      43.344  40.310  29.616  1.00  0.00     0.167 HD
ATOM     69  C   UNL A   1      43.608  37.232  27.693  1.00  0.00     0.074 A 
ATOM     70  C   UNL A   1      43.095  36.425  26.604  1.00  0.00     0.031 C 
ATOM     71  C   UNL A   1      44.038  38.525  27.772  1.00  0.00     0.031 A 
BRANCH  58  72
ATOM     72  C   UNL A   1      44.940  42.033  32.678  1.00  0.00    -0.014 A 
ATOM     73  C   UNL A   1      46.314  42.327  32.730  1.00  0.00     0.010 A 
ATOM     74  C   UNL A   1      44.098  42.903  33.418  1.00  0.00     0.010 A 
ATOM     75  C   UNL A   1      46.830  43.343  33.554  1.00  0.00     0.020 A 
ATOM     76  C   UNL A   1      44.605  43.876  34.304  1.00  0.00     0.020 A 
ATOM     77  C   UNL A   1      45.977  44.090  34.367  1.00  0.00     0.054 A 
BRANCH  77  78
ATOM     78  S   UNL A   1      46.687  45.319  35.502  1.00  0.00     0.124 S 
ATOM     79  O   UNL A   1      48.104  45.311  35.141  1.00  0.00    -0.237 OA
ATOM     80  O   UNL A   1      45.957  46.531  35.145  1.00  0.00    -0.237 OA
ATOM     81  O   UNL A   1      46.393  44.783  36.830  1.00  0.00    -0.744 OA
ENDBRANCH  77  78
ENDBRANCH  58  72
BRANCH  59  82
ATOM     82  C   UNL A   1      41.782  33.145  29.516  1.00  0.00    -0.014 A 
ATOM     83  C   UNL A   1      42.041  31.760  29.659  1.00  0.00     0.010 A 
ATOM     84  C   UNL A   1      40.516  33.622  29.899  1.00  0.00     0.010 A 
ATOM     85  C   UNL A   1      41.137  30.911  30.304  1.00  0.00     0.020 A 
ATOM     86  C   UNL A   1      39.586  32.758  30.525  1.00  0.00     0.020 A 
ATOM     87  C   UNL A   1      39.931  31.424  30.773  1.00  0.00     0.054 A 
BRANCH  87  88
ATOM     88  S   UNL A   1      38.949  30.356  31.877  1.00  0.00     0.124 S 
ATOM     89  O   UNL A   1      39.278  30.872  33.201  1.00  0.00    -0.237 OA
ATOM     90  O   UNL A   1      37.584  30.633  31.425  1.00  0.00    -0.237 OA
ATOM     91  O   UNL A   1      39.445  29.015  31.583  1.00  0.00    -0.744 OA
ENDBRANCH  87  88
ENDBRANCH  59  82
BRANCH  71  92
ATOM     92  C   UNL A   1      43.850  39.620  26.742  1.00  0.00    -0.014 A 
ATOM     93  C   UNL A   1      42.622  40.218  26.445  1.00  0.00     0.010 A 
ATOM     94  C   UNL A   1      45.004  40.202  26.145  1.00  0.00     0.010 A 
ATOM     95  C   UNL A   1      42.539  41.295  25.551  1.00  0.00     0.020 A 
ATOM     96  C   UNL A   1      44.942  41.318  25.313  1.00  0.00     0.020 A 
ATOM     97  C   UNL A   1      43.699  41.835  24.989  1.00  0.00     0.054 A 
BRANCH  97  98
ATOM     98  S   UNL A   1      43.587  43.242  23.863  1.00  0.00     0.124 S 
ATOM     99  O   UNL A   1      44.397  42.786  22.737  1.00  0.00    -0.237 OA
ATOM    100  O   UNL A   1      42.152  43.343  23.600  1.00  0.00    -0.237 OA
ATOM    101  O   UNL A   1      44.150  44.347  24.635  1.00  0.00    -0.744 OA
ENDBRANCH  97  98
ENDBRANCH  71  92
ENDBRANCH  45  46
ENDBRANCH  38  40
ENDBRANCH  37  38
ENDBRANCH  36  37
ENDBRANCH  35  36
ENDBRANCH  34  35
ENDBRANCH   1  34
TORSDOF 22
ENDMDL
