MODEL 1
REMARK VINA RESULT:     -10.4      0.000      0.000
REMARK SMILES CC(C)Cc1cc2c(cc1Cl)C=C(C(=O)OCCOCCOCCOC(=O)c1ccc(-c3c4nc(c(-c5ccc(S(=O)(=O)[O-])cc5)c5ccc([nH]5)c(-c5ccc(S(=O)(=O)[O-])cc5)c5nc(c(-c6ccc(S(=O)(=O)[O-])cc6)c6ccc3[nH]6)C=C5)C=C4)cc1)[C@H](C(F)(F)F)O2
REMARK SMILES IDX 21 1 20 2 19 3 18 4 17 5 16 6 14 7 15 8 13 9 5 10 6 11 10 12
REMARK SMILES IDX 7 13 9 14 11 15 8 16 93 17 12 18 88 19 4 20 2 21 1 22 3 23
REMARK SMILES IDX 89 24 90 25 91 26 92 27 22 28 23 29 24 30 25 31 26 32 27 33
REMARK SMILES IDX 28 34 29 35 87 36 30 37 86 38 31 39 32 40 33 41 80 42 34 43
REMARK SMILES IDX 85 44 79 45 81 46 35 47 84 48 78 49 77 50 36 52 66 53 47 54
REMARK SMILES IDX 65 55 48 56 51 57 64 58 82 59 49 60 50 61 63 63 83 64 52 65
REMARK SMILES IDX 37 66 38 67 46 68 39 69 45 70 40 71 41 72 42 73 43 74 44 75
REMARK SMILES IDX 67 76 68 77 76 78 69 79 75 80 70 81 71 82 72 83 73 84 74 85
REMARK SMILES IDX 53 86 54 87 62 88 55 89 61 90 56 91 57 92 58 93 59 94 60 95
REMARK H PARENT 81 51 51 62
REMARK Flexibility Score: inf
ROOT
ATOM      1  C   UNL A   1      30.406  29.003  24.010  1.00  0.00     0.188 C 
ENDROOT
BRANCH   1   2
ATOM      2  C   UNL A   1      30.657  28.942  22.490  1.00  0.00     0.188 C 
BRANCH   2   3
ATOM      3  O   UNL A   1      30.934  27.648  22.008  1.00  0.00    -0.376 OA
BRANCH   3   4
ATOM      4  C   UNL A   1      32.133  26.989  22.370  1.00  0.00     0.202 C 
BRANCH   4   5
ATOM      5  C   UNL A   1      32.246  25.491  22.716  1.00  0.00     0.261 C 
BRANCH   5   6
ATOM      6  O   UNL A   1      31.377  24.994  23.736  1.00  0.00    -0.460 OA
BRANCH   6   7
ATOM      7  C   UNL A   1      31.958  24.622  24.895  1.00  0.00     0.338 C 
ATOM      8  O   UNL A   1      31.874  25.192  25.968  1.00  0.00    -0.246 OA
BRANCH   7   9
ATOM      9  C   UNL A   1      32.655  23.336  24.723  1.00  0.00     0.087 C 
ATOM     10  C   UNL A   1      33.571  18.486  23.734  1.00  0.00    -0.025 A 
ATOM     11  C   UNL A   1      34.048  19.414  24.679  1.00  0.00     0.052 A 
ATOM     12  C   UNL A   1      32.608  18.919  22.807  1.00  0.00     0.045 A 
ATOM     13  C   UNL A   1      33.579  20.730  24.697  1.00  0.00     0.128 A 
ATOM     14  C   UNL A   1      32.167  20.247  22.805  1.00  0.00     0.032 A 
ATOM     15  Cl  UNL A   1      31.866  17.843  21.679  1.00  0.00    -0.084 Cl
ATOM     16  C   UNL A   1      32.648  21.155  23.751  1.00  0.00     0.019 A 
ATOM     17  O   UNL A   1      34.023  21.516  25.725  1.00  0.00    -0.475 OA
ATOM     18  C   UNL A   1      32.113  22.503  23.824  1.00  0.00     0.027 C 
ATOM     19  C   UNL A   1      33.773  22.952  25.655  1.00  0.00     0.316 C 
BRANCH  10  20
ATOM     20  C   UNL A   1      34.075  17.058  23.802  1.00  0.00     0.040 C 
BRANCH  20  21
ATOM     21  C   UNL A   1      34.109  16.424  25.207  1.00  0.00    -0.013 C 
ATOM     22  C   UNL A   1      32.997  15.393  25.412  1.00  0.00     0.008 C 
ATOM     23  C   UNL A   1      35.475  15.771  25.441  1.00  0.00     0.008 C 
ENDBRANCH  20  21
ENDBRANCH  10  20
BRANCH  19  24
ATOM     24  C   UNL A   1      35.125  23.649  25.423  1.00  0.00     0.430 C 
ATOM     25  F   UNL A   1      36.136  23.040  26.079  1.00  0.00    -0.167 F 
ATOM     26  F   UNL A   1      35.458  23.608  24.106  1.00  0.00    -0.167 F 
ATOM     27  F   UNL A   1      35.101  24.951  25.781  1.00  0.00    -0.167 F 
ENDBRANCH  19  24
ENDBRANCH   7   9
ENDBRANCH   6   7
ENDBRANCH   5   6
ENDBRANCH   4   5
ENDBRANCH   3   4
ENDBRANCH   2   3
ENDBRANCH   1   2
BRANCH   1  28
ATOM     28  O   UNL A   1      31.365  29.614  24.864  1.00  0.00    -0.376 OA
BRANCH  28  29
ATOM     29  C   UNL A   1      31.684  28.985  26.100  1.00  0.00     0.202 C 
BRANCH  29  30
ATOM     30  C   UNL A   1      32.382  29.803  27.196  1.00  0.00     0.261 C 
BRANCH  30  31
ATOM     31  O   UNL A   1      33.802  29.604  27.260  1.00  0.00    -0.460 OA
BRANCH  31  32
ATOM     32  C   UNL A   1      34.504  30.599  27.860  1.00  0.00     0.338 C 
ATOM     33  O   UNL A   1      34.076  31.663  28.274  1.00  0.00    -0.246 OA
BRANCH  32  34
ATOM     34  C   UNL A   1      35.868  30.109  28.137  1.00  0.00     0.060 A 
ATOM     35  C   UNL A   1      36.853  30.135  27.149  1.00  0.00     0.016 A 
ATOM     36  C   UNL A   1      36.151  29.609  29.415  1.00  0.00     0.016 A 
ATOM     37  C   UNL A   1      38.134  29.665  27.448  1.00  0.00     0.010 A 
ATOM     38  C   UNL A   1      37.423  29.117  29.704  1.00  0.00     0.010 A 
ATOM     39  C   UNL A   1      38.427  29.156  28.726  1.00  0.00    -0.014 A 
BRANCH  39  40
ATOM     40  C   UNL A   1      39.816  28.790  29.084  1.00  0.00     0.031 A 
ATOM     41  C   UNL A   1      40.707  29.741  29.823  1.00  0.00     0.074 A 
ATOM     42  C   UNL A   1      40.268  27.579  28.713  1.00  0.00     0.049 A 
ATOM     43  N   UNL A   1      41.925  29.545  30.254  1.00  0.00    -0.248 NA
ATOM     44  C   UNL A   1      40.167  31.076  30.119  1.00  0.00     0.031 C 
ATOM     45  C   UNL A   1      39.480  26.581  27.987  1.00  0.00     0.029 A 
ATOM     46  N   UNL A   1      41.487  26.976  28.895  1.00  0.00    -0.354 N 
ATOM     47  C   UNL A   1      42.294  30.719  30.898  1.00  0.00     0.074 A 
ATOM     48  C   UNL A   1      41.186  31.640  30.761  1.00  0.00     0.031 C 
ATOM     49  C   UNL A   1      40.228  25.485  27.801  1.00  0.00     0.029 A 
ATOM     50  C   UNL A   1      41.557  25.708  28.368  1.00  0.00     0.049 A 
ATOM     51  H   UNL A   1      42.239  27.409  29.359  1.00  0.00     0.167 HD
ATOM     52  C   UNL A   1      43.446  30.985  31.558  1.00  0.00     0.031 A 
ATOM     53  C   UNL A   1      42.571  24.821  28.341  1.00  0.00     0.031 A 
ATOM     54  C   UNL A   1      44.548  30.061  31.664  1.00  0.00     0.049 A 
ATOM     55  C   UNL A   1      43.868  25.172  29.015  1.00  0.00     0.074 A 
ATOM     56  C   UNL A   1      45.740  30.231  32.345  1.00  0.00     0.029 A 
ATOM     57  N   UNL A   1      44.604  28.810  31.068  1.00  0.00    -0.354 N 
ATOM     58  N   UNL A   1      44.173  26.257  29.685  1.00  0.00    -0.248 NA
ATOM     59  C   UNL A   1      44.953  24.184  28.941  1.00  0.00     0.031 C 
ATOM     60  C   UNL A   1      46.546  29.119  32.100  1.00  0.00     0.029 A 
ATOM     61  C   UNL A   1      45.827  28.217  31.331  1.00  0.00     0.049 A 
ATOM     62  H   UNL A   1      43.880  28.404  30.537  1.00  0.00     0.167 HD
ATOM     63  C   UNL A   1      45.477  26.074  30.130  1.00  0.00     0.074 A 
ATOM     64  C   UNL A   1      45.902  24.772  29.662  1.00  0.00     0.031 C 
ATOM     65  C   UNL A   1      46.246  26.917  30.862  1.00  0.00     0.031 A 
BRANCH  52  66
ATOM     66  C   UNL A   1      43.592  32.318  32.246  1.00  0.00    -0.014 A 
ATOM     67  C   UNL A   1      43.048  32.512  33.530  1.00  0.00     0.010 A 
ATOM     68  C   UNL A   1      44.130  33.421  31.559  1.00  0.00     0.010 A 
ATOM     69  C   UNL A   1      43.007  33.789  34.098  1.00  0.00     0.020 A 
ATOM     70  C   UNL A   1      44.115  34.694  32.135  1.00  0.00     0.020 A 
ATOM     71  C   UNL A   1      43.531  34.874  33.391  1.00  0.00     0.054 A 
BRANCH  71  72
ATOM     72  S   UNL A   1      43.435  36.530  34.128  1.00  0.00     0.124 S 
ATOM     73  O   UNL A   1      44.608  36.550  34.995  1.00  0.00    -0.237 OA
ATOM     74  O   UNL A   1      43.498  37.403  32.958  1.00  0.00    -0.237 OA
ATOM     75  O   UNL A   1      42.147  36.522  34.817  1.00  0.00    -0.744 OA
ENDBRANCH  71  72
ENDBRANCH  52  66
BRANCH  53  76
ATOM     76  C   UNL A   1      42.356  23.503  27.686  1.00  0.00    -0.014 A 
ATOM     77  C   UNL A   1      41.718  22.458  28.384  1.00  0.00     0.010 A 
ATOM     78  C   UNL A   1      42.885  23.249  26.410  1.00  0.00     0.010 A 
ATOM     79  C   UNL A   1      41.667  21.172  27.843  1.00  0.00     0.020 A 
ATOM     80  C   UNL A   1      42.809  21.968  25.852  1.00  0.00     0.020 A 
ATOM     81  C   UNL A   1      42.229  20.932  26.586  1.00  0.00     0.054 A 
BRANCH  81  82
ATOM     82  S   UNL A   1      42.212  19.238  25.935  1.00  0.00     0.124 S 
ATOM     83  O   UNL A   1      40.787  19.018  25.711  1.00  0.00    -0.237 OA
ATOM     84  O   UNL A   1      43.030  19.352  24.731  1.00  0.00    -0.237 OA
ATOM     85  O   UNL A   1      42.805  18.451  27.014  1.00  0.00    -0.744 OA
ENDBRANCH  81  82
ENDBRANCH  53  76
BRANCH  65  86
ATOM     86  C   UNL A   1      47.647  26.490  31.218  1.00  0.00    -0.014 A 
ATOM     87  C   UNL A   1      47.880  25.802  32.424  1.00  0.00     0.010 A 
ATOM     88  C   UNL A   1      48.743  26.936  30.460  1.00  0.00     0.010 A 
ATOM     89  C   UNL A   1      49.181  25.625  32.899  1.00  0.00     0.020 A 
ATOM     90  C   UNL A   1      50.049  26.736  30.919  1.00  0.00     0.020 A 
ATOM     91  C   UNL A   1      50.256  26.114  32.152  1.00  0.00     0.054 A 
BRANCH  91  92
ATOM     92  S   UNL A   1      51.932  25.964  32.835  1.00  0.00     0.124 S 
ATOM     93  O   UNL A   1      51.746  24.973  33.890  1.00  0.00    -0.237 OA
ATOM     94  O   UNL A   1      52.709  25.517  31.682  1.00  0.00    -0.237 OA
ATOM     95  O   UNL A   1      52.237  27.317  33.296  1.00  0.00    -0.744 OA
ENDBRANCH  91  92
ENDBRANCH  65  86
ENDBRANCH  39  40
ENDBRANCH  32  34
ENDBRANCH  31  32
ENDBRANCH  30  31
ENDBRANCH  29  30
ENDBRANCH  28  29
ENDBRANCH   1  28
TORSDOF 23
ENDMDL
MODEL 2
REMARK VINA RESULT:     -10.3      0.681      7.880
REMARK SMILES CC(C)Cc1cc2c(cc1Cl)C=C(C(=O)OCCOCCOCCOC(=O)c1ccc(-c3c4nc(c(-c5ccc(S(=O)(=O)[O-])cc5)c5ccc([nH]5)c(-c5ccc(S(=O)(=O)[O-])cc5)c5nc(c(-c6ccc(S(=O)(=O)[O-])cc6)c6ccc3[nH]6)C=C5)C=C4)cc1)[C@H](C(F)(F)F)O2
REMARK SMILES IDX 21 1 20 2 19 3 18 4 17 5 16 6 14 7 15 8 13 9 5 10 6 11 10 12
REMARK SMILES IDX 7 13 9 14 11 15 8 16 93 17 12 18 88 19 4 20 2 21 1 22 3 23
REMARK SMILES IDX 89 24 90 25 91 26 92 27 22 28 23 29 24 30 25 31 26 32 27 33
REMARK SMILES IDX 28 34 29 35 87 36 30 37 86 38 31 39 32 40 33 41 80 42 34 43
REMARK SMILES IDX 85 44 79 45 81 46 35 47 84 48 78 49 77 50 36 52 66 53 47 54
REMARK SMILES IDX 65 55 48 56 51 57 64 58 82 59 49 60 50 61 63 63 83 64 52 65
REMARK SMILES IDX 37 66 38 67 46 68 39 69 45 70 40 71 41 72 42 73 43 74 44 75
REMARK SMILES IDX 67 76 68 77 76 78 69 79 75 80 70 81 71 82 72 83 73 84 74 85
REMARK SMILES IDX 53 86 54 87 62 88 55 89 61 90 56 91 57 92 58 93 59 94 60 95
REMARK H PARENT 81 51 51 62
REMARK Flexibility Score: inf
ROOT
ATOM      1  C   UNL A   1      30.787  29.579  24.071  1.00  0.00     0.188 C 
ENDROOT
BRANCH   1   2
ATOM      2  C   UNL A   1      30.610  29.064  22.629  1.00  0.00     0.188 C 
BRANCH   2   3
ATOM      3  O   UNL A   1      30.487  27.664  22.532  1.00  0.00    -0.376 OA
BRANCH   3   4
ATOM      4  C   UNL A   1      31.638  26.850  22.402  1.00  0.00     0.202 C 
BRANCH   4   5
ATOM      5  C   UNL A   1      31.988  25.666  23.323  1.00  0.00     0.261 C 
BRANCH   5   6
ATOM      6  O   UNL A   1      31.016  25.297  24.304  1.00  0.00    -0.460 OA
BRANCH   6   7
ATOM      7  C   UNL A   1      31.489  24.795  25.463  1.00  0.00     0.338 C 
ATOM      8  O   UNL A   1      31.190  25.154  26.588  1.00  0.00    -0.246 OA
BRANCH   7   9
ATOM      9  C   UNL A   1      32.371  23.646  25.196  1.00  0.00     0.087 C 
ATOM     10  C   UNL A   1      33.984  18.992  24.157  1.00  0.00    -0.025 A 
ATOM     11  C   UNL A   1      34.435  20.038  24.983  1.00  0.00     0.052 A 
ATOM     12  C   UNL A   1      32.813  19.197  23.408  1.00  0.00     0.045 A 
ATOM     13  C   UNL A   1      33.743  21.249  25.058  1.00  0.00     0.128 A 
ATOM     14  C   UNL A   1      32.140  20.423  23.458  1.00  0.00     0.032 A 
ATOM     15  Cl  UNL A   1      32.099  17.948  22.453  1.00  0.00    -0.084 Cl
ATOM     16  C   UNL A   1      32.601  21.450  24.285  1.00  0.00     0.019 A 
ATOM     17  O   UNL A   1      34.203  22.154  25.974  1.00  0.00    -0.475 OA
ATOM     18  C   UNL A   1      31.846  22.684  24.425  1.00  0.00     0.027 C 
ATOM     19  C   UNL A   1      33.684  23.517  25.921  1.00  0.00     0.316 C 
BRANCH  10  20
ATOM     20  C   UNL A   1      34.746  17.682  24.163  1.00  0.00     0.040 C 
BRANCH  20  21
ATOM     21  C   UNL A   1      34.499  16.766  25.378  1.00  0.00    -0.013 C 
ATOM     22  C   UNL A   1      33.055  16.267  25.452  1.00  0.00     0.008 C 
ATOM     23  C   UNL A   1      35.460  15.574  25.325  1.00  0.00     0.008 C 
ENDBRANCH  20  21
ENDBRANCH  10  20
BRANCH  19  24
ATOM     24  C   UNL A   1      34.824  24.430  25.437  1.00  0.00     0.430 C 
ATOM     25  F   UNL A   1      34.604  25.728  25.737  1.00  0.00    -0.167 F 
ATOM     26  F   UNL A   1      35.989  24.098  26.053  1.00  0.00    -0.167 F 
ATOM     27  F   UNL A   1      35.039  24.325  24.108  1.00  0.00    -0.167 F 
ENDBRANCH  19  24
ENDBRANCH   7   9
ENDBRANCH   6   7
ENDBRANCH   5   6
ENDBRANCH   4   5
ENDBRANCH   3   4
ENDBRANCH   2   3
ENDBRANCH   1   2
BRANCH   1  28
ATOM     28  O   UNL A   1      32.034  29.414  24.736  1.00  0.00    -0.376 OA
BRANCH  28  29
ATOM     29  C   UNL A   1      32.115  28.506  25.829  1.00  0.00     0.202 C 
BRANCH  29  30
ATOM     30  C   UNL A   1      32.755  28.974  27.143  1.00  0.00     0.261 C 
BRANCH  30  31
ATOM     31  O   UNL A   1      34.173  29.187  27.059  1.00  0.00    -0.460 OA
BRANCH  31  32
ATOM     32  C   UNL A   1      34.651  30.226  27.791  1.00  0.00     0.338 C 
ATOM     33  O   UNL A   1      34.023  31.173  28.234  1.00  0.00    -0.246 OA
BRANCH  32  34
ATOM     34  C   UNL A   1      36.048  29.933  28.163  1.00  0.00     0.060 A 
ATOM     35  C   UNL A   1      36.384  29.581  29.471  1.00  0.00     0.016 A 
ATOM     36  C   UNL A   1      37.036  30.025  27.173  1.00  0.00     0.016 A 
ATOM     37  C   UNL A   1      37.717  29.308  29.785  1.00  0.00     0.010 A 
ATOM     38  C   UNL A   1      38.370  29.778  27.494  1.00  0.00     0.010 A 
ATOM     39  C   UNL A   1      38.716  29.403  28.800  1.00  0.00    -0.014 A 
BRANCH  39  40
ATOM     40  C   UNL A   1      40.103  28.979  29.099  1.00  0.00     0.031 A 
ATOM     41  C   UNL A   1      40.584  27.599  28.772  1.00  0.00     0.074 A 
ATOM     42  C   UNL A   1      40.923  29.866  29.692  1.00  0.00     0.049 A 
ATOM     43  N   UNL A   1      41.782  27.098  28.923  1.00  0.00    -0.248 NA
ATOM     44  C   UNL A   1      39.604  26.662  28.202  1.00  0.00     0.031 C 
ATOM     45  C   UNL A   1      40.548  31.234  30.055  1.00  0.00     0.029 A 
ATOM     46  N   UNL A   1      42.231  29.759  30.088  1.00  0.00    -0.354 N 
ATOM     47  C   UNL A   1      41.714  25.797  28.442  1.00  0.00     0.074 A 
ATOM     48  C   UNL A   1      40.343  25.569  28.038  1.00  0.00     0.031 C 
ATOM     49  C   UNL A   1      41.608  31.845  30.604  1.00  0.00     0.029 A 
ATOM     50  C   UNL A   1      42.728  30.908  30.658  1.00  0.00     0.049 A 
ATOM     51  H   UNL A   1      42.764  28.940  29.974  1.00  0.00     0.167 HD
ATOM     52  C   UNL A   1      42.714  24.892  28.334  1.00  0.00     0.031 A 
ATOM     53  C   UNL A   1      43.945  31.181  31.168  1.00  0.00     0.031 A 
ATOM     54  C   UNL A   1      44.070  25.130  28.765  1.00  0.00     0.049 A 
ATOM     55  C   UNL A   1      45.018  30.131  31.106  1.00  0.00     0.074 A 
ATOM     56  C   UNL A   1      45.159  24.284  28.660  1.00  0.00     0.029 A 
ATOM     57  N   UNL A   1      44.520  26.284  29.390  1.00  0.00    -0.354 N 
ATOM     58  N   UNL A   1      44.958  28.932  30.579  1.00  0.00    -0.248 NA
ATOM     59  C   UNL A   1      46.322  30.465  31.695  1.00  0.00     0.031 C 
ATOM     60  C   UNL A   1      46.247  24.892  29.288  1.00  0.00     0.029 A 
ATOM     61  C   UNL A   1      45.859  26.152  29.714  1.00  0.00     0.049 A 
ATOM     62  H   UNL A   1      43.968  27.079  29.575  1.00  0.00     0.167 HD
ATOM     63  C   UNL A   1      46.219  28.376  30.754  1.00  0.00     0.074 A 
ATOM     64  C   UNL A   1      47.027  29.372  31.427  1.00  0.00     0.031 C 
ATOM     65  C   UNL A   1      46.661  27.149  30.385  1.00  0.00     0.031 A 
BRANCH  52  66
ATOM     66  C   UNL A   1      42.412  23.553  27.710  1.00  0.00    -0.014 A 
ATOM     67  C   UNL A   1      42.067  22.458  28.525  1.00  0.00     0.010 A 
ATOM     68  C   UNL A   1      42.623  23.343  26.336  1.00  0.00     0.010 A 
ATOM     69  C   UNL A   1      41.972  21.173  27.983  1.00  0.00     0.020 A 
ATOM     70  C   UNL A   1      42.502  22.063  25.786  1.00  0.00     0.020 A 
ATOM     71  C   UNL A   1      42.202  20.982  26.618  1.00  0.00     0.054 A 
BRANCH  71  72
ATOM     72  S   UNL A   1      42.112  19.302  25.940  1.00  0.00     0.124 S 
ATOM     73  O   UNL A   1      43.012  19.381  24.794  1.00  0.00    -0.237 OA
ATOM     74  O   UNL A   1      42.579  18.482  27.055  1.00  0.00    -0.237 OA
ATOM     75  O   UNL A   1      40.697  19.141  25.613  1.00  0.00    -0.744 OA
ENDBRANCH  71  72
ENDBRANCH  52  66
BRANCH  53  76
ATOM     76  C   UNL A   1      44.201  32.534  31.732  1.00  0.00    -0.014 A 
ATOM     77  C   UNL A   1      43.847  32.828  33.063  1.00  0.00     0.010 A 
ATOM     78  C   UNL A   1      44.693  33.564  30.912  1.00  0.00     0.010 A 
ATOM     79  C   UNL A   1      43.922  34.137  33.545  1.00  0.00     0.020 A 
ATOM     80  C   UNL A   1      44.798  34.871  31.400  1.00  0.00     0.020 A 
ATOM     81  C   UNL A   1      44.382  35.153  32.703  1.00  0.00     0.054 A 
BRANCH  81  82
ATOM     82  S   UNL A   1      44.406  36.857  33.328  1.00  0.00     0.124 S 
ATOM     83  O   UNL A   1      45.834  37.083  33.526  1.00  0.00    -0.237 OA
ATOM     84  O   UNL A   1      43.794  37.606  32.235  1.00  0.00    -0.237 OA
ATOM     85  O   UNL A   1      43.609  36.783  34.551  1.00  0.00    -0.744 OA
ENDBRANCH  81  82
ENDBRANCH  53  76
BRANCH  65  86
ATOM     86  C   UNL A   1      48.087  26.771  30.695  1.00  0.00    -0.014 A 
ATOM     87  C   UNL A   1      48.359  25.906  31.771  1.00  0.00     0.010 A 
ATOM     88  C   UNL A   1      49.154  27.419  30.048  1.00  0.00     0.010 A 
ATOM     89  C   UNL A   1      49.666  25.746  32.239  1.00  0.00     0.020 A 
ATOM     90  C   UNL A   1      50.466  27.240  30.496  1.00  0.00     0.020 A 
ATOM     91  C   UNL A   1      50.708  26.433  31.611  1.00  0.00     0.054 A 
BRANCH  91  92
ATOM     92  S   UNL A   1      52.383  26.291  32.296  1.00  0.00     0.124 S 
ATOM     93  O   UNL A   1      52.298  25.051  33.060  1.00  0.00    -0.237 OA
ATOM     94  O   UNL A   1      53.216  26.237  31.097  1.00  0.00    -0.237 OA
ATOM     95  O   UNL A   1      52.531  27.507  33.094  1.00  0.00    -0.744 OA
ENDBRANCH  91  92
ENDBRANCH  65  86
ENDBRANCH  39  40
ENDBRANCH  32  34
ENDBRANCH  31  32
ENDBRANCH  30  31
ENDBRANCH  29  30
ENDBRANCH  28  29
ENDBRANCH   1  28
TORSDOF 23
ENDMDL
MODEL 3
REMARK VINA RESULT:      -9.8      2.693      3.334
REMARK SMILES CC(C)Cc1cc2c(cc1Cl)C=C(C(=O)OCCOCCOCCOC(=O)c1ccc(-c3c4nc(c(-c5ccc(S(=O)(=O)[O-])cc5)c5ccc([nH]5)c(-c5ccc(S(=O)(=O)[O-])cc5)c5nc(c(-c6ccc(S(=O)(=O)[O-])cc6)c6ccc3[nH]6)C=C5)C=C4)cc1)[C@H](C(F)(F)F)O2
REMARK SMILES IDX 21 1 20 2 19 3 18 4 17 5 16 6 14 7 15 8 13 9 5 10 6 11 10 12
REMARK SMILES IDX 7 13 9 14 11 15 8 16 93 17 12 18 88 19 4 20 2 21 1 22 3 23
REMARK SMILES IDX 89 24 90 25 91 26 92 27 22 28 23 29 24 30 25 31 26 32 27 33
REMARK SMILES IDX 28 34 29 35 87 36 30 37 86 38 31 39 32 40 33 41 80 42 34 43
REMARK SMILES IDX 85 44 79 45 81 46 35 47 84 48 78 49 77 50 36 52 66 53 47 54
REMARK SMILES IDX 65 55 48 56 51 57 64 58 82 59 49 60 50 61 63 63 83 64 52 65
REMARK SMILES IDX 37 66 38 67 46 68 39 69 45 70 40 71 41 72 42 73 43 74 44 75
REMARK SMILES IDX 67 76 68 77 76 78 69 79 75 80 70 81 71 82 72 83 73 84 74 85
REMARK SMILES IDX 53 86 54 87 62 88 55 89 61 90 56 91 57 92 58 93 59 94 60 95
REMARK H PARENT 81 51 51 62
REMARK Flexibility Score: inf
ROOT
ATOM      1  C   UNL A   1      30.422  29.570  24.169  1.00  0.00     0.188 C 
ENDROOT
BRANCH   1   2
ATOM      2  C   UNL A   1      30.133  29.381  22.666  1.00  0.00     0.188 C 
BRANCH   2   3
ATOM      3  O   UNL A   1      30.125  28.036  22.250  1.00  0.00    -0.376 OA
BRANCH   3   4
ATOM      4  C   UNL A   1      31.341  27.340  22.046  1.00  0.00     0.202 C 
BRANCH   4   5
ATOM      5  C   UNL A   1      31.607  25.886  22.481  1.00  0.00     0.261 C 
BRANCH   5   6
ATOM      6  O   UNL A   1      30.667  25.295  23.381  1.00  0.00    -0.460 OA
BRANCH   6   7
ATOM      7  C   UNL A   1      31.111  25.030  24.627  1.00  0.00     0.338 C 
ATOM      8  O   UNL A   1      30.769  25.586  25.656  1.00  0.00    -0.246 OA
BRANCH   7   9
ATOM      9  C   UNL A   1      32.020  23.872  24.606  1.00  0.00     0.087 C 
ATOM     10  C   UNL A   1      33.774  19.172  24.176  1.00  0.00    -0.025 A 
ATOM     11  C   UNL A   1      34.061  20.267  25.013  1.00  0.00     0.052 A 
ATOM     12  C   UNL A   1      32.775  19.328  23.201  1.00  0.00     0.045 A 
ATOM     13  C   UNL A   1      33.375  21.477  24.880  1.00  0.00     0.128 A 
ATOM     14  C   UNL A   1      32.114  20.552  23.046  1.00  0.00     0.032 A 
ATOM     15  Cl  UNL A   1      32.256  18.023  22.197  1.00  0.00    -0.084 Cl
ATOM     16  C   UNL A   1      32.410  21.628  23.887  1.00  0.00     0.019 A 
ATOM     17  O   UNL A   1      33.652  22.436  25.815  1.00  0.00    -0.475 OA
ATOM     18  C   UNL A   1      31.651  22.864  23.803  1.00  0.00     0.027 C 
ATOM     19  C   UNL A   1      33.164  23.791  25.582  1.00  0.00     0.316 C 
BRANCH  10  20
ATOM     20  C   UNL A   1      34.512  17.869  24.408  1.00  0.00     0.040 C 
BRANCH  20  21
ATOM     21  C   UNL A   1      33.938  16.960  25.513  1.00  0.00    -0.013 C 
ATOM     22  C   UNL A   1      32.414  17.045  25.611  1.00  0.00     0.008 C 
ATOM     23  C   UNL A   1      34.362  15.511  25.256  1.00  0.00     0.008 C 
ENDBRANCH  20  21
ENDBRANCH  10  20
BRANCH  19  24
ATOM     24  C   UNL A   1      34.383  24.680  25.281  1.00  0.00     0.430 C 
ATOM     25  F   UNL A   1      34.506  24.954  23.965  1.00  0.00    -0.167 F 
ATOM     26  F   UNL A   1      34.255  25.883  25.901  1.00  0.00    -0.167 F 
ATOM     27  F   UNL A   1      35.539  24.134  25.718  1.00  0.00    -0.167 F 
ENDBRANCH  19  24
ENDBRANCH   7   9
ENDBRANCH   6   7
ENDBRANCH   5   6
ENDBRANCH   4   5
ENDBRANCH   3   4
ENDBRANCH   2   3
ENDBRANCH   1   2
BRANCH   1  28
ATOM     28  O   UNL A   1      31.732  29.344  24.674  1.00  0.00    -0.376 OA
BRANCH  28  29
ATOM     29  C   UNL A   1      31.881  28.861  26.005  1.00  0.00     0.202 C 
BRANCH  29  30
ATOM     30  C   UNL A   1      32.439  29.801  27.082  1.00  0.00     0.261 C 
BRANCH  30  31
ATOM     31  O   UNL A   1      33.602  30.536  26.672  1.00  0.00    -0.460 OA
BRANCH  31  32
ATOM     32  C   UNL A   1      34.003  31.516  27.521  1.00  0.00     0.338 C 
ATOM     33  O   UNL A   1      33.373  32.501  27.868  1.00  0.00    -0.246 OA
BRANCH  32  34
ATOM     34  C   UNL A   1      35.273  31.103  28.148  1.00  0.00     0.060 A 
ATOM     35  C   UNL A   1      36.419  31.891  28.033  1.00  0.00     0.016 A 
ATOM     36  C   UNL A   1      35.306  29.894  28.856  1.00  0.00     0.016 A 
ATOM     37  C   UNL A   1      37.602  31.469  28.643  1.00  0.00     0.010 A 
ATOM     38  C   UNL A   1      36.495  29.462  29.441  1.00  0.00     0.010 A 
ATOM     39  C   UNL A   1      37.648  30.254  29.350  1.00  0.00    -0.014 A 
BRANCH  39  40
ATOM     40  C   UNL A   1      38.860  29.878  30.112  1.00  0.00     0.031 A 
ATOM     41  C   UNL A   1      39.184  30.515  31.428  1.00  0.00     0.074 A 
ATOM     42  C   UNL A   1      39.680  28.952  29.580  1.00  0.00     0.049 A 
ATOM     43  N   UNL A   1      40.178  30.251  32.236  1.00  0.00    -0.248 NA
ATOM     44  C   UNL A   1      38.284  31.577  31.901  1.00  0.00     0.031 C 
ATOM     45  C   UNL A   1      39.454  28.274  28.302  1.00  0.00     0.029 A 
ATOM     46  N   UNL A   1      40.855  28.417  30.042  1.00  0.00    -0.354 N 
ATOM     47  C   UNL A   1      40.012  31.093  33.328  1.00  0.00     0.074 A 
ATOM     48  C   UNL A   1      38.847  31.909  33.058  1.00  0.00     0.031 C 
ATOM     49  C   UNL A   1      40.449  27.401  28.090  1.00  0.00     0.029 A 
ATOM     50  C   UNL A   1      41.397  27.474  29.200  1.00  0.00     0.049 A 
ATOM     51  H   UNL A   1      41.270  28.681  30.894  1.00  0.00     0.167 HD
ATOM     52  C   UNL A   1      40.757  31.155  34.457  1.00  0.00     0.031 A 
ATOM     53  C   UNL A   1      42.528  26.748  29.304  1.00  0.00     0.031 A 
ATOM     54  C   UNL A   1      41.928  30.348  34.697  1.00  0.00     0.049 A 
ATOM     55  C   UNL A   1      43.380  26.892  30.534  1.00  0.00     0.074 A 
ATOM     56  C   UNL A   1      42.723  30.316  35.829  1.00  0.00     0.029 A 
ATOM     57  N   UNL A   1      42.478  29.447  33.797  1.00  0.00    -0.354 N 
ATOM     58  N   UNL A   1      43.167  27.637  31.592  1.00  0.00    -0.248 NA
ATOM     59  C   UNL A   1      44.614  26.098  30.594  1.00  0.00     0.031 C 
ATOM     60  C   UNL A   1      43.795  29.457  35.585  1.00  0.00     0.029 A 
ATOM     61  C   UNL A   1      43.626  28.888  34.332  1.00  0.00     0.049 A 
ATOM     62  H   UNL A   1      42.107  29.237  32.909  1.00  0.00     0.167 HD
ATOM     63  C   UNL A   1      44.230  27.387  32.452  1.00  0.00     0.074 A 
ATOM     64  C   UNL A   1      45.080  26.415  31.797  1.00  0.00     0.031 C 
ATOM     65  C   UNL A   1      44.470  27.919  33.675  1.00  0.00     0.031 A 
BRANCH  52  66
ATOM     66  C   UNL A   1      40.338  32.108  35.547  1.00  0.00    -0.014 A 
ATOM     67  C   UNL A   1      41.134  33.230  35.845  1.00  0.00     0.010 A 
ATOM     68  C   UNL A   1      39.242  31.808  36.376  1.00  0.00     0.010 A 
ATOM     69  C   UNL A   1      40.863  34.013  36.971  1.00  0.00     0.020 A 
ATOM     70  C   UNL A   1      38.954  32.604  37.488  1.00  0.00     0.020 A 
ATOM     71  C   UNL A   1      39.781  33.687  37.793  1.00  0.00     0.054 A 
BRANCH  71  72
ATOM     72  S   UNL A   1      39.468  34.691  39.271  1.00  0.00     0.124 S 
ATOM     73  O   UNL A   1      40.766  34.677  39.936  1.00  0.00    -0.237 OA
ATOM     74  O   UNL A   1      39.062  35.975  38.704  1.00  0.00    -0.237 OA
ATOM     75  O   UNL A   1      38.404  33.963  39.959  1.00  0.00    -0.744 OA
ENDBRANCH  71  72
ENDBRANCH  52  66
BRANCH  53  76
ATOM     76  C   UNL A   1      42.869  25.790  28.219  1.00  0.00    -0.014 A 
ATOM     77  C   UNL A   1      42.495  24.435  28.322  1.00  0.00     0.010 A 
ATOM     78  C   UNL A   1      43.663  26.199  27.134  1.00  0.00     0.010 A 
ATOM     79  C   UNL A   1      42.960  23.499  27.396  1.00  0.00     0.020 A 
ATOM     80  C   UNL A   1      44.105  25.268  26.187  1.00  0.00     0.020 A 
ATOM     81  C   UNL A   1      43.776  23.920  26.343  1.00  0.00     0.054 A 
BRANCH  81  82
ATOM     82  S   UNL A   1      44.424  22.675  25.192  1.00  0.00     0.124 S 
ATOM     83  O   UNL A   1      44.985  23.510  24.134  1.00  0.00    -0.237 OA
ATOM     84  O   UNL A   1      45.396  21.959  26.013  1.00  0.00    -0.237 OA
ATOM     85  O   UNL A   1      43.240  21.905  24.821  1.00  0.00    -0.744 OA
ENDBRANCH  81  82
ENDBRANCH  53  76
BRANCH  65  86
ATOM     86  C   UNL A   1      45.709  27.488  34.419  1.00  0.00    -0.014 A 
ATOM     87  C   UNL A   1      45.631  26.433  35.348  1.00  0.00     0.010 A 
ATOM     88  C   UNL A   1      46.890  28.246  34.339  1.00  0.00     0.010 A 
ATOM     89  C   UNL A   1      46.685  26.186  36.230  1.00  0.00     0.020 A 
ATOM     90  C   UNL A   1      47.959  27.984  35.202  1.00  0.00     0.020 A 
ATOM     91  C   UNL A   1      47.834  26.979  36.164  1.00  0.00     0.054 A 
BRANCH  91  92
ATOM     92  S   UNL A   1      49.151  26.708  37.385  1.00  0.00     0.124 S 
ATOM     93  O   UNL A   1      49.491  25.306  37.163  1.00  0.00    -0.237 OA
ATOM     94  O   UNL A   1      50.168  27.675  36.978  1.00  0.00    -0.237 OA
ATOM     95  O   UNL A   1      48.501  26.999  38.661  1.00  0.00    -0.744 OA
ENDBRANCH  91  92
ENDBRANCH  65  86
ENDBRANCH  39  40
ENDBRANCH  32  34
ENDBRANCH  31  32
ENDBRANCH  30  31
ENDBRANCH  29  30
ENDBRANCH  28  29
ENDBRANCH   1  28
TORSDOF 23
ENDMDL
