MODEL 1
REMARK VINA RESULT:      -9.1      0.000      0.000
REMARK SMILES CCN(CC(=O)NC(C)C)C(=O)N[C@H]1C=C[C@H](C(=O)OCCOCCOCCOC(=O)c2ccc(-c3c4nc(c(-c5ccc(S(=O)(=O)[O-])cc5)c5ccc([nH]5)c(-c5ccc(S(=O)(=O)[O-])cc5)c5nc(c(-c6ccc(S(=O)(=O)[O-])cc6)c6ccc3[nH]6)C=C5)C=C4)cc2)C1
REMARK SMILES IDX 24 1 23 2 22 3 21 4 20 5 18 6 19 7 17 8 14 9 15 10 92 11
REMARK SMILES IDX 16 12 13 13 11 14 12 15 3 17 2 18 1 19 4 20 5 21 6 22 7 23
REMARK SMILES IDX 8 25 9 26 10 27 25 28 26 29 27 30 28 31 29 32 30 33 31 34
REMARK SMILES IDX 32 35 33 36 91 37 34 38 90 39 35 40 36 41 37 42 84 43 38 44
REMARK SMILES IDX 89 45 83 46 85 47 39 48 88 49 82 50 81 51 40 53 70 54 51 55
REMARK SMILES IDX 69 56 52 57 55 58 68 59 86 60 53 61 54 62 67 64 87 65 56 66
REMARK SMILES IDX 41 67 42 68 50 69 43 70 49 71 44 72 45 73 46 74 47 75 48 76
REMARK SMILES IDX 71 77 72 78 80 79 73 80 79 81 74 82 75 83 76 84 77 85 78 86
REMARK SMILES IDX 57 87 58 88 66 89 59 90 65 91 60 92 61 93 62 94 63 95 64 96
REMARK H PARENT 13 16 7 24 85 52 55 63
REMARK Flexibility Score: inf
ROOT
ATOM      1  C   UNL A   1      37.769  21.744  25.546  1.00  0.00     0.188 C 
ENDROOT
BRANCH   1   2
ATOM      2  O   UNL A   1      37.081  22.635  24.690  1.00  0.00    -0.376 OA
BRANCH   2   3
ATOM      3  C   UNL A   1      35.669  22.557  24.619  1.00  0.00     0.202 C 
BRANCH   3   4
ATOM      4  C   UNL A   1      34.918  21.399  25.289  1.00  0.00     0.261 C 
BRANCH   4   5
ATOM      5  O   UNL A   1      33.629  21.695  25.822  1.00  0.00    -0.463 OA
BRANCH   5   6
ATOM      6  C   UNL A   1      32.535  21.276  25.119  1.00  0.00     0.312 C 
ATOM      7  O   UNL A   1      32.471  20.243  24.472  1.00  0.00    -0.252 OA
BRANCH   6   8
ATOM      8  C   UNL A   1      31.462  22.338  25.262  1.00  0.00     0.124 C 
ATOM      9  C   UNL A   1      31.476  24.772  25.055  1.00  0.00     0.107 C 
ATOM     10  C   UNL A   1      31.692  24.352  26.458  1.00  0.00    -0.006 C 
ATOM     11  C   UNL A   1      31.491  23.473  24.234  1.00  0.00     0.048 C 
ATOM     12  C   UNL A   1      31.692  23.020  26.577  1.00  0.00    -0.014 C 
BRANCH   9  13
ATOM     13  N   UNL A   1      30.331  25.649  24.835  1.00  0.00    -0.332 N 
ATOM     14  C   UNL A   1      29.952  26.754  24.181  1.00  0.00     0.318 C 
ATOM     15  O   UNL A   1      28.734  26.822  23.962  1.00  0.00    -0.249 OA
ATOM     16  H   UNL A   1      29.566  25.306  25.350  1.00  0.00     0.165 HD
BRANCH  14  17
ATOM     17  N   UNL A   1      30.774  27.759  23.761  1.00  0.00    -0.316 N 
BRANCH  17  18
ATOM     18  C   UNL A   1      30.601  28.232  22.381  1.00  0.00     0.118 C 
ATOM     19  C   UNL A   1      29.968  29.619  22.292  1.00  0.00     0.027 C 
ENDBRANCH  17  18
BRANCH  17  20
ATOM     20  C   UNL A   1      31.600  28.597  24.620  1.00  0.00     0.221 C 
BRANCH  20  21
ATOM     21  C   UNL A   1      33.102  28.283  24.608  1.00  0.00     0.239 C 
ATOM     22  O   UNL A   1      33.609  27.370  23.958  1.00  0.00    -0.273 OA
ATOM     23  N   UNL A   1      33.957  29.072  25.319  1.00  0.00    -0.352 N 
ATOM     24  H   UNL A   1      34.792  29.353  24.879  1.00  0.00     0.163 HD
BRANCH  23  25
ATOM     25  C   UNL A   1      33.729  29.528  26.677  1.00  0.00     0.075 C 
ATOM     26  C   UNL A   1      33.028  28.405  27.440  1.00  0.00     0.030 C 
ATOM     27  C   UNL A   1      35.051  29.909  27.325  1.00  0.00     0.030 C 
ENDBRANCH  23  25
ENDBRANCH  20  21
ENDBRANCH  17  20
ENDBRANCH  14  17
ENDBRANCH   9  13
ENDBRANCH   6   8
ENDBRANCH   5   6
ENDBRANCH   4   5
ENDBRANCH   3   4
ENDBRANCH   2   3
ENDBRANCH   1   2
BRANCH   1  28
ATOM     28  C   UNL A   1      39.053  22.359  26.146  1.00  0.00     0.188 C 
BRANCH  28  29
ATOM     29  O   UNL A   1      40.302  21.709  25.950  1.00  0.00    -0.376 OA
BRANCH  29  30
ATOM     30  C   UNL A   1      41.475  22.284  26.515  1.00  0.00     0.202 C 
BRANCH  30  31
ATOM     31  C   UNL A   1      42.249  23.418  25.805  1.00  0.00     0.261 C 
BRANCH  31  32
ATOM     32  O   UNL A   1      41.637  24.720  25.790  1.00  0.00    -0.460 OA
BRANCH  32  33
ATOM     33  C   UNL A   1      42.479  25.782  25.891  1.00  0.00     0.338 C 
ATOM     34  O   UNL A   1      43.206  26.227  25.027  1.00  0.00    -0.246 OA
BRANCH  33  35
ATOM     35  C   UNL A   1      42.255  26.456  27.192  1.00  0.00     0.060 A 
ATOM     36  C   UNL A   1      41.332  25.903  28.093  1.00  0.00     0.016 A 
ATOM     37  C   UNL A   1      42.933  27.631  27.517  1.00  0.00     0.016 A 
ATOM     38  C   UNL A   1      41.100  26.511  29.329  1.00  0.00     0.010 A 
ATOM     39  C   UNL A   1      42.674  28.257  28.743  1.00  0.00     0.010 A 
ATOM     40  C   UNL A   1      41.751  27.707  29.653  1.00  0.00    -0.014 A 
BRANCH  40  41
ATOM     41  C   UNL A   1      41.398  28.456  30.887  1.00  0.00     0.031 A 
ATOM     42  C   UNL A   1      40.249  29.426  30.847  1.00  0.00     0.074 A 
ATOM     43  C   UNL A   1      42.111  28.305  32.018  1.00  0.00     0.049 A 
ATOM     44  N   UNL A   1      39.852  30.278  31.755  1.00  0.00    -0.248 NA
ATOM     45  C   UNL A   1      39.443  29.435  29.616  1.00  0.00     0.031 C 
ATOM     46  C   UNL A   1      43.210  27.359  32.208  1.00  0.00     0.029 A 
ATOM     47  N   UNL A   1      42.025  28.967  33.220  1.00  0.00    -0.354 N 
ATOM     48  C   UNL A   1      38.762  30.940  31.202  1.00  0.00     0.074 A 
ATOM     49  C   UNL A   1      38.572  30.401  29.871  1.00  0.00     0.031 C 
ATOM     50  C   UNL A   1      43.713  27.520  33.446  1.00  0.00     0.029 A 
ATOM     51  C   UNL A   1      43.004  28.609  34.117  1.00  0.00     0.049 A 
ATOM     52  H   UNL A   1      41.330  29.634  33.419  1.00  0.00     0.167 HD
ATOM     53  C   UNL A   1      37.994  31.911  31.749  1.00  0.00     0.031 A 
ATOM     54  C   UNL A   1      43.321  29.126  35.323  1.00  0.00     0.031 A 
ATOM     55  C   UNL A   1      38.200  32.460  33.064  1.00  0.00     0.049 A 
ATOM     56  C   UNL A   1      42.516  30.279  35.870  1.00  0.00     0.074 A 
ATOM     57  C   UNL A   1      37.460  33.433  33.714  1.00  0.00     0.029 A 
ATOM     58  N   UNL A   1      39.225  32.097  33.925  1.00  0.00    -0.354 N 
ATOM     59  N   UNL A   1      41.470  30.876  35.349  1.00  0.00    -0.248 NA
ATOM     60  C   UNL A   1      42.939  30.832  37.166  1.00  0.00     0.031 C 
ATOM     61  C   UNL A   1      38.081  33.710  34.937  1.00  0.00     0.029 A 
ATOM     62  C   UNL A   1      39.164  32.858  35.081  1.00  0.00     0.049 A 
ATOM     63  H   UNL A   1      39.897  31.400  33.742  1.00  0.00     0.167 HD
ATOM     64  C   UNL A   1      41.098  31.858  36.264  1.00  0.00     0.074 A 
ATOM     65  C   UNL A   1      42.018  31.764  37.378  1.00  0.00     0.031 C 
ATOM     66  C   UNL A   1      40.086  32.758  36.185  1.00  0.00     0.031 A 
BRANCH  53  67
ATOM     67  C   UNL A   1      36.882  32.481  30.908  1.00  0.00    -0.014 A 
ATOM     68  C   UNL A   1      35.560  32.014  31.027  1.00  0.00     0.010 A 
ATOM     69  C   UNL A   1      37.156  33.537  30.018  1.00  0.00     0.010 A 
ATOM     70  C   UNL A   1      34.542  32.567  30.247  1.00  0.00     0.020 A 
ATOM     71  C   UNL A   1      36.134  34.113  29.258  1.00  0.00     0.020 A 
ATOM     72  C   UNL A   1      34.835  33.614  29.367  1.00  0.00     0.054 A 
BRANCH  72  73
ATOM     73  S   UNL A   1      33.487  34.330  28.388  1.00  0.00     0.124 S 
ATOM     74  O   UNL A   1      34.196  35.317  27.576  1.00  0.00    -0.237 OA
ATOM     75  O   UNL A   1      32.971  33.174  27.662  1.00  0.00    -0.237 OA
ATOM     76  O   UNL A   1      32.585  34.887  29.393  1.00  0.00    -0.744 OA
ENDBRANCH  72  73
ENDBRANCH  53  67
BRANCH  54  77
ATOM     77  C   UNL A   1      44.486  28.589  36.085  1.00  0.00    -0.014 A 
ATOM     78  C   UNL A   1      45.776  29.108  35.886  1.00  0.00     0.010 A 
ATOM     79  C   UNL A   1      44.308  27.541  37.009  1.00  0.00     0.010 A 
ATOM     80  C   UNL A   1      46.868  28.582  36.583  1.00  0.00     0.020 A 
ATOM     81  C   UNL A   1      45.393  27.034  37.732  1.00  0.00     0.020 A 
ATOM     82  C   UNL A   1      46.670  27.551  37.505  1.00  0.00     0.054 A 
BRANCH  82  83
ATOM     83  S   UNL A   1      48.095  26.921  38.433  1.00  0.00     0.124 S 
ATOM     84  O   UNL A   1      47.540  25.736  39.079  1.00  0.00    -0.237 OA
ATOM     85  O   UNL A   1      49.071  26.668  37.377  1.00  0.00    -0.237 OA
ATOM     86  O   UNL A   1      48.434  28.022  39.333  1.00  0.00    -0.744 OA
ENDBRANCH  82  83
ENDBRANCH  54  77
BRANCH  66  87
ATOM     87  C   UNL A   1      39.897  33.709  37.341  1.00  0.00    -0.014 A 
ATOM     88  C   UNL A   1      40.307  35.051  37.254  1.00  0.00     0.010 A 
ATOM     89  C   UNL A   1      39.222  33.274  38.498  1.00  0.00     0.010 A 
ATOM     90  C   UNL A   1      40.059  35.937  38.307  1.00  0.00     0.020 A 
ATOM     91  C   UNL A   1      38.946  34.164  39.540  1.00  0.00     0.020 A 
ATOM     92  C   UNL A   1      39.373  35.489  39.442  1.00  0.00     0.054 A 
BRANCH  92  93
ATOM     93  S   UNL A   1      39.002  36.678  40.760  1.00  0.00     0.124 S 
ATOM     94  O   UNL A   1      38.439  37.798  40.011  1.00  0.00    -0.237 OA
ATOM     95  O   UNL A   1      38.055  35.943  41.595  1.00  0.00    -0.237 OA
ATOM     96  O   UNL A   1      40.301  36.932  41.377  1.00  0.00    -0.744 OA
ENDBRANCH  92  93
ENDBRANCH  66  87
ENDBRANCH  40  41
ENDBRANCH  33  35
ENDBRANCH  32  33
ENDBRANCH  31  32
ENDBRANCH  30  31
ENDBRANCH  29  30
ENDBRANCH  28  29
ENDBRANCH   1  28
TORSDOF 26
ENDMDL
MODEL 2
REMARK VINA RESULT:      -8.9      5.943     11.702
REMARK SMILES CCN(CC(=O)NC(C)C)C(=O)N[C@H]1C=C[C@H](C(=O)OCCOCCOCCOC(=O)c2ccc(-c3c4nc(c(-c5ccc(S(=O)(=O)[O-])cc5)c5ccc([nH]5)c(-c5ccc(S(=O)(=O)[O-])cc5)c5nc(c(-c6ccc(S(=O)(=O)[O-])cc6)c6ccc3[nH]6)C=C5)C=C4)cc2)C1
REMARK SMILES IDX 24 1 23 2 22 3 21 4 20 5 18 6 19 7 17 8 14 9 15 10 92 11
REMARK SMILES IDX 16 12 13 13 11 14 12 15 3 17 2 18 1 19 4 20 5 21 6 22 7 23
REMARK SMILES IDX 8 25 9 26 10 27 25 28 26 29 27 30 28 31 29 32 30 33 31 34
REMARK SMILES IDX 32 35 33 36 91 37 34 38 90 39 35 40 36 41 37 42 84 43 38 44
REMARK SMILES IDX 89 45 83 46 85 47 39 48 88 49 82 50 81 51 40 53 70 54 51 55
REMARK SMILES IDX 69 56 52 57 55 58 68 59 86 60 53 61 54 62 67 64 87 65 56 66
REMARK SMILES IDX 41 67 42 68 50 69 43 70 49 71 44 72 45 73 46 74 47 75 48 76
REMARK SMILES IDX 71 77 72 78 80 79 73 80 79 81 74 82 75 83 76 84 77 85 78 86
REMARK SMILES IDX 57 87 58 88 66 89 59 90 65 91 60 92 61 93 62 94 63 95 64 96
REMARK H PARENT 13 16 7 24 85 52 55 63
REMARK Flexibility Score: inf
ROOT
ATOM      1  C   UNL A   1      31.365  32.026  26.677  1.00  0.00     0.188 C 
ENDROOT
BRANCH   1   2
ATOM      2  O   UNL A   1      32.234  31.046  26.145  1.00  0.00    -0.376 OA
BRANCH   2   3
ATOM      3  C   UNL A   1      32.405  29.830  26.852  1.00  0.00     0.202 C 
BRANCH   3   4
ATOM      4  C   UNL A   1      31.860  28.514  26.281  1.00  0.00     0.261 C 
BRANCH   4   5
ATOM      5  O   UNL A   1      31.913  28.360  24.864  1.00  0.00    -0.463 OA
BRANCH   5   6
ATOM      6  C   UNL A   1      33.014  27.755  24.329  1.00  0.00     0.312 C 
ATOM      7  O   UNL A   1      34.055  28.323  24.038  1.00  0.00    -0.252 OA
BRANCH   6   8
ATOM      8  C   UNL A   1      32.684  26.288  24.133  1.00  0.00     0.124 C 
ATOM      9  C   UNL A   1      32.543  24.853  22.161  1.00  0.00     0.107 C 
ATOM     10  C   UNL A   1      31.222  25.431  22.500  1.00  0.00    -0.006 C 
ATOM     11  C   UNL A   1      33.541  25.531  23.112  1.00  0.00     0.048 C 
ATOM     12  C   UNL A   1      31.295  26.222  23.575  1.00  0.00    -0.014 C 
BRANCH   9  13
ATOM     13  N   UNL A   1      32.594  23.395  22.121  1.00  0.00    -0.332 N 
ATOM     14  C   UNL A   1      32.643  22.313  22.908  1.00  0.00     0.318 C 
ATOM     15  O   UNL A   1      32.201  21.282  22.382  1.00  0.00    -0.249 OA
ATOM     16  H   UNL A   1      32.592  23.104  21.181  1.00  0.00     0.165 HD
BRANCH  14  17
ATOM     17  N   UNL A   1      33.121  22.273  24.185  1.00  0.00    -0.316 N 
BRANCH  17  18
ATOM     18  C   UNL A   1      32.381  23.033  25.202  1.00  0.00     0.118 C 
ATOM     19  C   UNL A   1      30.901  22.666  25.273  1.00  0.00     0.027 C 
ENDBRANCH  17  18
BRANCH  17  20
ATOM     20  C   UNL A   1      34.111  21.331  24.693  1.00  0.00     0.221 C 
BRANCH  20  21
ATOM     21  C   UNL A   1      33.562  20.201  25.573  1.00  0.00     0.239 C 
ATOM     22  O   UNL A   1      33.487  20.259  26.799  1.00  0.00    -0.273 OA
ATOM     23  N   UNL A   1      33.085  19.067  24.986  1.00  0.00    -0.352 N 
ATOM     24  H   UNL A   1      32.232  18.705  25.320  1.00  0.00     0.163 HD
BRANCH  23  25
ATOM     25  C   UNL A   1      33.740  18.353  23.907  1.00  0.00     0.075 C 
ATOM     26  C   UNL A   1      35.024  17.736  24.461  1.00  0.00     0.030 C 
ATOM     27  C   UNL A   1      32.805  17.294  23.343  1.00  0.00     0.030 C 
ENDBRANCH  23  25
ENDBRANCH  20  21
ENDBRANCH  17  20
ENDBRANCH  14  17
ENDBRANCH   9  13
ENDBRANCH   6   8
ENDBRANCH   5   6
ENDBRANCH   4   5
ENDBRANCH   3   4
ENDBRANCH   2   3
ENDBRANCH   1   2
BRANCH   1  28
ATOM     28  C   UNL A   1      32.041  33.406  26.831  1.00  0.00     0.188 C 
BRANCH  28  29
ATOM     29  O   UNL A   1      32.486  33.832  28.112  1.00  0.00    -0.376 OA
BRANCH  29  30
ATOM     30  C   UNL A   1      33.851  33.634  28.469  1.00  0.00     0.202 C 
BRANCH  30  31
ATOM     31  C   UNL A   1      34.442  32.221  28.673  1.00  0.00     0.261 C 
BRANCH  31  32
ATOM     32  O   UNL A   1      35.869  32.123  28.824  1.00  0.00    -0.460 OA
BRANCH  32  33
ATOM     33  C   UNL A   1      36.316  31.598  29.996  1.00  0.00     0.338 C 
ATOM     34  O   UNL A   1      35.709  31.520  31.044  1.00  0.00    -0.246 OA
BRANCH  33  35
ATOM     35  C   UNL A   1      37.631  30.952  29.767  1.00  0.00     0.060 A 
ATOM     36  C   UNL A   1      38.509  30.799  30.850  1.00  0.00     0.016 A 
ATOM     37  C   UNL A   1      38.004  30.515  28.496  1.00  0.00     0.016 A 
ATOM     38  C   UNL A   1      39.754  30.192  30.670  1.00  0.00     0.010 A 
ATOM     39  C   UNL A   1      39.265  29.936  28.311  1.00  0.00     0.010 A 
ATOM     40  C   UNL A   1      40.151  29.777  29.393  1.00  0.00    -0.014 A 
BRANCH  40  41
ATOM     41  C   UNL A   1      41.530  29.281  29.149  1.00  0.00     0.031 A 
ATOM     42  C   UNL A   1      42.675  30.256  29.193  1.00  0.00     0.074 A 
ATOM     43  C   UNL A   1      41.761  27.988  28.856  1.00  0.00     0.049 A 
ATOM     44  N   UNL A   1      43.931  30.074  28.880  1.00  0.00    -0.248 NA
ATOM     45  C   UNL A   1      42.356  31.619  29.647  1.00  0.00     0.031 C 
ATOM     46  C   UNL A   1      40.752  26.930  28.838  1.00  0.00     0.029 A 
ATOM     47  N   UNL A   1      42.924  27.349  28.496  1.00  0.00    -0.354 N 
ATOM     48  C   UNL A   1      44.553  31.302  29.081  1.00  0.00     0.074 A 
ATOM     49  C   UNL A   1      43.529  32.224  29.526  1.00  0.00     0.031 C 
ATOM     50  C   UNL A   1      41.335  25.778  28.459  1.00  0.00     0.029 A 
ATOM     51  C   UNL A   1      42.747  26.026  28.165  1.00  0.00     0.049 A 
ATOM     52  H   UNL A   1      43.801  27.797  28.477  1.00  0.00     0.167 HD
ATOM     53  C   UNL A   1      45.854  31.631  28.906  1.00  0.00     0.031 A 
ATOM     54  C   UNL A   1      43.610  25.128  27.645  1.00  0.00     0.031 A 
ATOM     55  C   UNL A   1      46.864  30.716  28.443  1.00  0.00     0.049 A 
ATOM     56  C   UNL A   1      45.031  25.546  27.359  1.00  0.00     0.074 A 
ATOM     57  C   UNL A   1      48.215  30.952  28.254  1.00  0.00     0.029 A 
ATOM     58  N   UNL A   1      46.636  29.396  28.083  1.00  0.00    -0.354 N 
ATOM     59  N   UNL A   1      45.612  26.702  27.581  1.00  0.00    -0.248 NA
ATOM     60  C   UNL A   1      45.912  24.540  26.746  1.00  0.00     0.031 C 
ATOM     61  C   UNL A   1      48.788  29.797  27.710  1.00  0.00     0.029 A 
ATOM     62  C   UNL A   1      47.811  28.819  27.630  1.00  0.00     0.049 A 
ATOM     63  H   UNL A   1      45.767  28.937  28.141  1.00  0.00     0.167 HD
ATOM     64  C   UNL A   1      46.931  26.552  27.156  1.00  0.00     0.074 A 
ATOM     65  C   UNL A   1      47.066  25.191  26.682  1.00  0.00     0.031 C 
ATOM     66  C   UNL A   1      47.936  27.462  27.157  1.00  0.00     0.031 A 
BRANCH  53  67
ATOM     67  C   UNL A   1      46.256  33.057  29.173  1.00  0.00    -0.014 A 
ATOM     68  C   UNL A   1      46.706  33.467  30.441  1.00  0.00     0.010 A 
ATOM     69  C   UNL A   1      46.232  33.994  28.121  1.00  0.00     0.010 A 
ATOM     70  C   UNL A   1      47.089  34.793  30.661  1.00  0.00     0.020 A 
ATOM     71  C   UNL A   1      46.642  35.313  28.330  1.00  0.00     0.020 A 
ATOM     72  C   UNL A   1      47.054  35.708  29.604  1.00  0.00     0.054 A 
BRANCH  72  73
ATOM     73  S   UNL A   1      47.582  37.415  29.914  1.00  0.00     0.124 S 
ATOM     74  O   UNL A   1      48.421  37.260  31.101  1.00  0.00    -0.237 OA
ATOM     75  O   UNL A   1      48.292  37.758  28.686  1.00  0.00    -0.237 OA
ATOM     76  O   UNL A   1      46.330  38.135  30.130  1.00  0.00    -0.744 OA
ENDBRANCH  72  73
ENDBRANCH  53  67
BRANCH  54  77
ATOM     77  C   UNL A   1      43.147  23.750  27.314  1.00  0.00    -0.014 A 
ATOM     78  C   UNL A   1      42.613  23.455  26.048  1.00  0.00     0.010 A 
ATOM     79  C   UNL A   1      43.227  22.723  28.275  1.00  0.00     0.010 A 
ATOM     80  C   UNL A   1      42.155  22.167  25.753  1.00  0.00     0.020 A 
ATOM     81  C   UNL A   1      42.799  21.426  27.974  1.00  0.00     0.020 A 
ATOM     82  C   UNL A   1      42.255  21.159  26.716  1.00  0.00     0.054 A 
BRANCH  82  83
ATOM     83  S   UNL A   1      41.700  19.485  26.291  1.00  0.00     0.124 S 
ATOM     84  O   UNL A   1      42.515  19.181  25.120  1.00  0.00    -0.237 OA
ATOM     85  O   UNL A   1      42.022  18.731  27.500  1.00  0.00    -0.237 OA
ATOM     86  O   UNL A   1      40.272  19.652  26.032  1.00  0.00    -0.744 OA
ENDBRANCH  82  83
ENDBRANCH  54  77
BRANCH  66  87
ATOM     87  C   UNL A   1      49.287  27.022  26.649  1.00  0.00    -0.014 A 
ATOM     88  C   UNL A   1      50.253  26.489  27.519  1.00  0.00     0.010 A 
ATOM     89  C   UNL A   1      49.559  27.063  25.268  1.00  0.00     0.010 A 
ATOM     90  C   UNL A   1      51.472  26.019  27.021  1.00  0.00     0.020 A 
ATOM     91  C   UNL A   1      50.764  26.566  24.763  1.00  0.00     0.020 A 
ATOM     92  C   UNL A   1      51.717  26.055  25.645  1.00  0.00     0.054 A 
BRANCH  92  93
ATOM     93  S   UNL A   1      53.278  25.371  25.020  1.00  0.00     0.124 S 
ATOM     94  O   UNL A   1      54.268  26.104  25.804  1.00  0.00    -0.237 OA
ATOM     95  O   UNL A   1      53.153  23.950  25.336  1.00  0.00    -0.237 OA
ATOM     96  O   UNL A   1      53.252  25.691  23.595  1.00  0.00    -0.744 OA
ENDBRANCH  92  93
ENDBRANCH  66  87
ENDBRANCH  40  41
ENDBRANCH  33  35
ENDBRANCH  32  33
ENDBRANCH  31  32
ENDBRANCH  30  31
ENDBRANCH  29  30
ENDBRANCH  28  29
ENDBRANCH   1  28
TORSDOF 26
ENDMDL
MODEL 3
REMARK VINA RESULT:      -7.9      5.700      8.181
REMARK SMILES CCN(CC(=O)NC(C)C)C(=O)N[C@H]1C=C[C@H](C(=O)OCCOCCOCCOC(=O)c2ccc(-c3c4nc(c(-c5ccc(S(=O)(=O)[O-])cc5)c5ccc([nH]5)c(-c5ccc(S(=O)(=O)[O-])cc5)c5nc(c(-c6ccc(S(=O)(=O)[O-])cc6)c6ccc3[nH]6)C=C5)C=C4)cc2)C1
REMARK SMILES IDX 24 1 23 2 22 3 21 4 20 5 18 6 19 7 17 8 14 9 15 10 92 11
REMARK SMILES IDX 16 12 13 13 11 14 12 15 3 17 2 18 1 19 4 20 5 21 6 22 7 23
REMARK SMILES IDX 8 25 9 26 10 27 25 28 26 29 27 30 28 31 29 32 30 33 31 34
REMARK SMILES IDX 32 35 33 36 91 37 34 38 90 39 35 40 36 41 37 42 84 43 38 44
REMARK SMILES IDX 89 45 83 46 85 47 39 48 88 49 82 50 81 51 40 53 70 54 51 55
REMARK SMILES IDX 69 56 52 57 55 58 68 59 86 60 53 61 54 62 67 64 87 65 56 66
REMARK SMILES IDX 41 67 42 68 50 69 43 70 49 71 44 72 45 73 46 74 47 75 48 76
REMARK SMILES IDX 71 77 72 78 80 79 73 80 79 81 74 82 75 83 76 84 77 85 78 86
REMARK SMILES IDX 57 87 58 88 66 89 59 90 65 91 60 92 61 93 62 94 63 95 64 96
REMARK H PARENT 13 16 7 24 85 52 55 63
REMARK Flexibility Score: inf
ROOT
ATOM      1  C   UNL A   1      34.610  20.400  24.484  1.00  0.00     0.188 C 
ENDROOT
BRANCH   1   2
ATOM      2  O   UNL A   1      33.564  21.325  24.706  1.00  0.00    -0.376 OA
BRANCH   2   3
ATOM      3  C   UNL A   1      32.872  21.288  25.941  1.00  0.00     0.202 C 
BRANCH   3   4
ATOM      4  C   UNL A   1      33.143  22.347  27.018  1.00  0.00     0.261 C 
BRANCH   4   5
ATOM      5  O   UNL A   1      32.043  22.711  27.850  1.00  0.00    -0.463 OA
BRANCH   5   6
ATOM      6  C   UNL A   1      30.992  23.362  27.268  1.00  0.00     0.312 C 
ATOM      7  O   UNL A   1      29.818  23.049  27.392  1.00  0.00    -0.252 OA
BRANCH   6   8
ATOM      8  C   UNL A   1      31.556  24.490  26.428  1.00  0.00     0.124 C 
ATOM      9  C   UNL A   1      30.852  26.796  26.030  1.00  0.00     0.107 C 
ATOM     10  C   UNL A   1      30.302  25.882  25.003  1.00  0.00    -0.006 C 
ATOM     11  C   UNL A   1      31.534  25.885  27.063  1.00  0.00     0.048 C 
ATOM     12  C   UNL A   1      30.679  24.617  25.219  1.00  0.00    -0.014 C 
BRANCH   9  13
ATOM     13  N   UNL A   1      31.664  27.894  25.518  1.00  0.00    -0.332 N 
ATOM     14  C   UNL A   1      31.738  28.781  24.518  1.00  0.00     0.318 C 
ATOM     15  O   UNL A   1      32.373  29.809  24.796  1.00  0.00    -0.249 OA
ATOM     16  H   UNL A   1      32.427  28.034  26.123  1.00  0.00     0.165 HD
BRANCH  14  17
ATOM     17  N   UNL A   1      31.189  28.637  23.277  1.00  0.00    -0.316 N 
BRANCH  17  18
ATOM     18  C   UNL A   1      29.770  28.987  23.128  1.00  0.00     0.118 C 
ATOM     19  C   UNL A   1      29.499  30.484  23.253  1.00  0.00     0.027 C 
ENDBRANCH  17  18
BRANCH  17  20
ATOM     20  C   UNL A   1      31.930  28.451  22.036  1.00  0.00     0.221 C 
BRANCH  20  21
ATOM     21  C   UNL A   1      33.299  27.772  22.174  1.00  0.00     0.239 C 
ATOM     22  O   UNL A   1      34.372  28.353  22.029  1.00  0.00    -0.273 OA
ATOM     23  N   UNL A   1      33.361  26.454  22.519  1.00  0.00    -0.352 N 
ATOM     24  H   UNL A   1      34.017  26.192  23.205  1.00  0.00     0.163 HD
BRANCH  23  25
ATOM     25  C   UNL A   1      32.533  25.408  21.949  1.00  0.00     0.075 C 
ATOM     26  C   UNL A   1      32.536  25.578  20.431  1.00  0.00     0.030 C 
ATOM     27  C   UNL A   1      33.063  24.044  22.364  1.00  0.00     0.030 C 
ENDBRANCH  23  25
ENDBRANCH  20  21
ENDBRANCH  17  20
ENDBRANCH  14  17
ENDBRANCH   9  13
ENDBRANCH   6   8
ENDBRANCH   5   6
ENDBRANCH   4   5
ENDBRANCH   3   4
ENDBRANCH   2   3
ENDBRANCH   1   2
BRANCH   1  28
ATOM     28  C   UNL A   1      35.894  20.749  25.269  1.00  0.00     0.188 C 
BRANCH  28  29
ATOM     29  O   UNL A   1      37.117  20.102  24.938  1.00  0.00    -0.376 OA
BRANCH  29  30
ATOM     30  C   UNL A   1      38.346  20.753  25.245  1.00  0.00     0.202 C 
BRANCH  30  31
ATOM     31  C   UNL A   1      39.557  19.978  25.813  1.00  0.00     0.261 C 
BRANCH  31  32
ATOM     32  O   UNL A   1      40.777  20.716  26.001  1.00  0.00    -0.460 OA
BRANCH  32  33
ATOM     33  C   UNL A   1      41.343  20.640  27.235  1.00  0.00     0.338 C 
ATOM     34  O   UNL A   1      41.466  19.650  27.926  1.00  0.00    -0.246 OA
BRANCH  33  35
ATOM     35  C   UNL A   1      41.969  21.943  27.562  1.00  0.00     0.060 A 
ATOM     36  C   UNL A   1      41.916  22.978  26.616  1.00  0.00     0.016 A 
ATOM     37  C   UNL A   1      42.614  22.143  28.782  1.00  0.00     0.016 A 
ATOM     38  C   UNL A   1      42.493  24.220  26.894  1.00  0.00     0.010 A 
ATOM     39  C   UNL A   1      43.220  23.378  29.046  1.00  0.00     0.010 A 
ATOM     40  C   UNL A   1      43.170  24.421  28.102  1.00  0.00    -0.014 A 
BRANCH  40  41
ATOM     41  C   UNL A   1      43.929  25.674  28.350  1.00  0.00     0.031 A 
ATOM     42  C   UNL A   1      43.192  26.885  28.853  1.00  0.00     0.074 A 
ATOM     43  C   UNL A   1      45.249  25.748  28.099  1.00  0.00     0.049 A 
ATOM     44  N   UNL A   1      43.620  28.111  29.009  1.00  0.00    -0.248 NA
ATOM     45  C   UNL A   1      41.782  26.686  29.226  1.00  0.00     0.031 C 
ATOM     46  C   UNL A   1      46.093  24.635  27.665  1.00  0.00     0.029 A 
ATOM     47  N   UNL A   1      46.109  26.820  28.155  1.00  0.00    -0.354 N 
ATOM     48  C   UNL A   1      42.531  28.835  29.480  1.00  0.00     0.074 A 
ATOM     49  C   UNL A   1      41.418  27.913  29.568  1.00  0.00     0.031 C 
ATOM     50  C   UNL A   1      47.344  25.088  27.469  1.00  0.00     0.029 A 
ATOM     51  C   UNL A   1      47.380  26.530  27.718  1.00  0.00     0.049 A 
ATOM     52  H   UNL A   1      45.839  27.710  28.476  1.00  0.00     0.167 HD
ATOM     53  C   UNL A   1      42.463  30.147  29.805  1.00  0.00     0.031 A 
ATOM     54  C   UNL A   1      48.440  27.337  27.503  1.00  0.00     0.031 A 
ATOM     55  C   UNL A   1      43.567  31.065  29.696  1.00  0.00     0.049 A 
ATOM     56  C   UNL A   1      48.311  28.817  27.773  1.00  0.00     0.074 A 
ATOM     57  C   UNL A   1      43.600  32.411  30.020  1.00  0.00     0.029 A 
ATOM     58  N   UNL A   1      44.826  30.740  29.213  1.00  0.00    -0.354 N 
ATOM     59  N   UNL A   1      47.284  29.483  28.246  1.00  0.00    -0.248 NA
ATOM     60  C   UNL A   1      49.483  29.653  27.473  1.00  0.00     0.031 C 
ATOM     61  C   UNL A   1      44.856  32.914  29.666  1.00  0.00     0.029 A 
ATOM     62  C   UNL A   1      45.630  31.868  29.190  1.00  0.00     0.049 A 
ATOM     63  H   UNL A   1      45.108  29.840  28.930  1.00  0.00     0.167 HD
ATOM     64  C   UNL A   1      47.695  30.812  28.321  1.00  0.00     0.074 A 
ATOM     65  C   UNL A   1      49.068  30.852  27.863  1.00  0.00     0.031 C 
ATOM     66  C   UNL A   1      46.996  31.899  28.730  1.00  0.00     0.031 A 
BRANCH  53  67
ATOM     67  C   UNL A   1      41.135  30.686  30.267  1.00  0.00    -0.014 A 
ATOM     68  C   UNL A   1      40.027  30.743  29.403  1.00  0.00     0.010 A 
ATOM     69  C   UNL A   1      40.980  31.094  31.606  1.00  0.00     0.010 A 
ATOM     70  C   UNL A   1      38.800  31.233  29.858  1.00  0.00     0.020 A 
ATOM     71  C   UNL A   1      39.746  31.557  32.073  1.00  0.00     0.020 A 
ATOM     72  C   UNL A   1      38.667  31.637  31.191  1.00  0.00     0.054 A 
BRANCH  72  73
ATOM     73  S   UNL A   1      37.055  32.242  31.759  1.00  0.00     0.124 S 
ATOM     74  O   UNL A   1      36.159  31.729  30.725  1.00  0.00    -0.237 OA
ATOM     75  O   UNL A   1      36.922  31.614  33.071  1.00  0.00    -0.237 OA
ATOM     76  O   UNL A   1      37.214  33.694  31.779  1.00  0.00    -0.744 OA
ENDBRANCH  72  73
ENDBRANCH  53  67
BRANCH  54  77
ATOM     77  C   UNL A   1      49.711  26.776  26.961  1.00  0.00    -0.014 A 
ATOM     78  C   UNL A   1      50.756  26.402  27.822  1.00  0.00     0.010 A 
ATOM     79  C   UNL A   1      49.886  26.626  25.572  1.00  0.00     0.010 A 
ATOM     80  C   UNL A   1      51.957  25.902  27.306  1.00  0.00     0.020 A 
ATOM     81  C   UNL A   1      51.072  26.097  25.053  1.00  0.00     0.020 A 
ATOM     82  C   UNL A   1      52.105  25.748  25.925  1.00  0.00     0.054 A 
BRANCH  82  83
ATOM     83  S   UNL A   1      53.653  25.052  25.284  1.00  0.00     0.124 S 
ATOM     84  O   UNL A   1      54.604  25.403  26.334  1.00  0.00    -0.237 OA
ATOM     85  O   UNL A   1      53.334  23.631  25.169  1.00  0.00    -0.237 OA
ATOM     86  O   UNL A   1      53.842  25.746  24.012  1.00  0.00    -0.744 OA
ENDBRANCH  82  83
ENDBRANCH  54  77
BRANCH  66  87
ATOM     87  C   UNL A   1      47.701  33.233  28.725  1.00  0.00    -0.014 A 
ATOM     88  C   UNL A   1      47.570  34.122  27.643  1.00  0.00     0.010 A 
ATOM     89  C   UNL A   1      48.435  33.638  29.857  1.00  0.00     0.010 A 
ATOM     90  C   UNL A   1      48.171  35.384  27.686  1.00  0.00     0.020 A 
ATOM     91  C   UNL A   1      49.012  34.910  29.916  1.00  0.00     0.020 A 
ATOM     92  C   UNL A   1      48.883  35.772  28.826  1.00  0.00     0.054 A 
BRANCH  92  93
ATOM     93  S   UNL A   1      49.590  37.442  28.883  1.00  0.00     0.124 S 
ATOM     94  O   UNL A   1      50.313  37.425  30.152  1.00  0.00    -0.237 OA
ATOM     95  O   UNL A   1      50.426  37.476  27.686  1.00  0.00    -0.237 OA
ATOM     96  O   UNL A   1      48.421  38.317  28.845  1.00  0.00    -0.744 OA
ENDBRANCH  92  93
ENDBRANCH  66  87
ENDBRANCH  40  41
ENDBRANCH  33  35
ENDBRANCH  32  33
ENDBRANCH  31  32
ENDBRANCH  30  31
ENDBRANCH  29  30
ENDBRANCH  28  29
ENDBRANCH   1  28
TORSDOF 26
ENDMDL
