MODEL 1
REMARK VINA RESULT:     -10.7      0.000      0.000
REMARK SMILES CS(=O)(=O)c1ccc(/C=C(/C(=O)OCCOCCOCCOC(=O)c2ccc(-c3c4nc(c(-c5ccc(S(=O)(=O)[O-])cc5)c5ccc([nH]5)c(-c5ccc(S(=O)(=O)[O-])cc5)c5nc(c(-c6ccc(S(=O)(=O)[O-])cc6)c6ccc3[nH]6)C=C5)C=C4)cc2)c2ccc(-c3ccc(F)cc3F)cc2)cc1
REMARK SMILES IDX 18 1 17 2 16 3 15 4 14 5 13 6 11 7 12 8 10 9 9 10 8 11 5 12
REMARK SMILES IDX 6 13 100 14 7 15 99 16 2 17 1 18 3 19 4 20 85 21 86 22 98 23
REMARK SMILES IDX 87 24 97 25 88 26 89 27 90 28 95 29 91 30 94 31 96 32 92 33
REMARK SMILES IDX 93 34 19 35 20 36 21 37 22 38 23 39 24 40 25 41 26 42 84 43
REMARK SMILES IDX 27 44 83 45 28 46 29 47 30 48 77 49 31 50 82 51 76 52 78 53
REMARK SMILES IDX 32 54 81 55 75 56 74 57 33 59 63 60 44 61 62 62 45 63 48 64
REMARK SMILES IDX 61 65 79 66 46 67 47 68 60 70 80 71 49 72 34 73 35 74 43 75
REMARK SMILES IDX 36 76 42 77 37 78 38 79 39 80 40 81 41 82 64 83 65 84 73 85
REMARK SMILES IDX 66 86 72 87 67 88 68 89 69 90 70 91 71 92 50 93 51 94 59 95
REMARK SMILES IDX 52 96 58 97 53 98 54 99 55 100 56 101 57 102
REMARK H PARENT 78 58 48 69
REMARK Flexibility Score: inf
ROOT
ATOM      1  C   UNL A   1      35.575  21.724  25.756  1.00  0.00     0.188 C 
ENDROOT
BRANCH   1   2
ATOM      2  C   UNL A   1      35.360  20.450  24.908  1.00  0.00     0.188 C 
BRANCH   2   3
ATOM      3  O   UNL A   1      34.083  19.882  25.094  1.00  0.00    -0.376 OA
BRANCH   3   4
ATOM      4  C   UNL A   1      33.211  20.511  26.017  1.00  0.00     0.202 C 
BRANCH   4   5
ATOM      5  C   UNL A   1      31.993  21.350  25.569  1.00  0.00     0.261 C 
BRANCH   5   6
ATOM      6  O   UNL A   1      32.175  22.763  25.396  1.00  0.00    -0.460 OA
BRANCH   6   7
ATOM      7  C   UNL A   1      31.372  23.593  26.116  1.00  0.00     0.338 C 
ATOM      8  O   UNL A   1      30.890  23.325  27.204  1.00  0.00    -0.246 OA
BRANCH   7   9
ATOM      9  C   UNL A   1      31.243  24.938  25.451  1.00  0.00     0.067 C 
ATOM     10  C   UNL A   1      30.477  25.062  24.337  1.00  0.00     0.024 C 
BRANCH  10  11
ATOM     11  C   UNL A   1      30.062  26.302  23.631  1.00  0.00    -0.025 A 
ATOM     12  C   UNL A   1      29.265  28.887  22.884  1.00  0.00     0.067 A 
ATOM     13  C   UNL A   1      30.556  28.453  22.594  1.00  0.00     0.021 A 
ATOM     14  C   UNL A   1      28.330  28.005  23.424  1.00  0.00     0.021 A 
ATOM     15  C   UNL A   1      30.929  27.145  22.921  1.00  0.00     0.009 A 
ATOM     16  C   UNL A   1      28.729  26.715  23.789  1.00  0.00     0.009 A 
BRANCH  12  17
ATOM     17  S   UNL A   1      28.854  30.608  22.731  1.00  0.00     0.175 S 
ATOM     18  C   UNL A   1      27.216  30.716  23.386  1.00  0.00     0.163 C 
ATOM     19  O   UNL A   1      28.792  30.929  21.317  1.00  0.00    -0.224 OA
ATOM     20  O   UNL A   1      29.737  31.344  23.618  1.00  0.00    -0.224 OA
ENDBRANCH  12  17
ENDBRANCH  10  11
BRANCH   9  21
ATOM     21  C   UNL A   1      31.981  26.071  26.047  1.00  0.00    -0.011 A 
ATOM     22  C   UNL A   1      33.316  26.277  25.675  1.00  0.00     0.009 A 
ATOM     23  C   UNL A   1      31.360  27.020  26.864  1.00  0.00     0.009 A 
ATOM     24  C   UNL A   1      34.001  27.423  26.075  1.00  0.00     0.009 A 
ATOM     25  C   UNL A   1      32.050  28.181  27.246  1.00  0.00     0.009 A 
ATOM     26  C   UNL A   1      33.379  28.408  26.850  1.00  0.00    -0.015 A 
BRANCH  26  27
ATOM     27  C   UNL A   1      34.123  29.623  27.228  1.00  0.00     0.018 A 
ATOM     28  C   UNL A   1      35.507  29.574  27.493  1.00  0.00     0.015 A 
ATOM     29  C   UNL A   1      33.476  30.860  27.383  1.00  0.00     0.133 A 
ATOM     30  C   UNL A   1      36.199  30.714  27.912  1.00  0.00     0.040 A 
ATOM     31  C   UNL A   1      34.157  31.998  27.800  1.00  0.00     0.079 A 
ATOM     32  F   UNL A   1      32.160  30.965  27.139  1.00  0.00    -0.206 F 
ATOM     33  C   UNL A   1      35.514  31.913  28.064  1.00  0.00     0.126 A 
ATOM     34  F   UNL A   1      36.178  33.005  28.463  1.00  0.00    -0.207 F 
ENDBRANCH  26  27
ENDBRANCH   9  21
ENDBRANCH   7   9
ENDBRANCH   6   7
ENDBRANCH   5   6
ENDBRANCH   4   5
ENDBRANCH   3   4
ENDBRANCH   2   3
ENDBRANCH   1   2
BRANCH   1  35
ATOM     35  O   UNL A   1      36.453  22.744  25.303  1.00  0.00    -0.376 OA
BRANCH  35  36
ATOM     36  C   UNL A   1      37.836  22.455  25.161  1.00  0.00     0.202 C 
BRANCH  36  37
ATOM     37  C   UNL A   1      38.601  21.651  26.231  1.00  0.00     0.261 C 
BRANCH  37  38
ATOM     38  O   UNL A   1      39.910  21.171  25.884  1.00  0.00    -0.460 OA
BRANCH  38  39
ATOM     39  C   UNL A   1      40.747  20.944  26.931  1.00  0.00     0.338 C 
ATOM     40  O   UNL A   1      40.862  19.916  27.567  1.00  0.00    -0.246 OA
BRANCH  39  41
ATOM     41  C   UNL A   1      41.671  22.094  27.074  1.00  0.00     0.060 A 
ATOM     42  C   UNL A   1      42.252  22.332  28.329  1.00  0.00     0.016 A 
ATOM     43  C   UNL A   1      41.930  22.954  26.006  1.00  0.00     0.016 A 
ATOM     44  C   UNL A   1      43.086  23.434  28.521  1.00  0.00     0.010 A 
ATOM     45  C   UNL A   1      42.746  24.074  26.208  1.00  0.00     0.010 A 
ATOM     46  C   UNL A   1      43.314  24.330  27.469  1.00  0.00    -0.014 A 
BRANCH  46  47
ATOM     47  C   UNL A   1      44.007  25.615  27.736  1.00  0.00     0.031 A 
ATOM     48  C   UNL A   1      43.247  26.717  28.421  1.00  0.00     0.074 A 
ATOM     49  C   UNL A   1      45.294  25.802  27.393  1.00  0.00     0.049 A 
ATOM     50  N   UNL A   1      43.635  27.929  28.721  1.00  0.00    -0.248 NA
ATOM     51  C   UNL A   1      41.864  26.408  28.821  1.00  0.00     0.031 C 
ATOM     52  C   UNL A   1      46.155  24.805  26.762  1.00  0.00     0.029 A 
ATOM     53  N   UNL A   1      46.101  26.906  27.527  1.00  0.00    -0.354 N 
ATOM     54  C   UNL A   1      42.542  28.535  29.332  1.00  0.00     0.074 A 
ATOM     55  C   UNL A   1      41.472  27.560  29.345  1.00  0.00     0.031 C 
ATOM     56  C   UNL A   1      47.373  25.339  26.567  1.00  0.00     0.029 A 
ATOM     57  C   UNL A   1      47.363  26.734  27.006  1.00  0.00     0.049 A 
ATOM     58  H   UNL A   1      45.806  27.740  27.957  1.00  0.00     0.167 HD
ATOM     59  C   UNL A   1      42.435  29.790  29.829  1.00  0.00     0.031 A 
ATOM     60  C   UNL A   1      48.377  27.612  26.863  1.00  0.00     0.031 A 
ATOM     61  C   UNL A   1      43.487  30.772  29.780  1.00  0.00     0.049 A 
ATOM     62  C   UNL A   1      48.203  29.033  27.339  1.00  0.00     0.074 A 
ATOM     63  C   UNL A   1      43.472  32.069  30.264  1.00  0.00     0.029 A 
ATOM     64  N   UNL A   1      44.729  30.576  29.198  1.00  0.00    -0.354 N 
ATOM     65  N   UNL A   1      47.171  29.585  27.933  1.00  0.00    -0.248 NA
ATOM     66  C   UNL A   1      49.331  29.950  27.121  1.00  0.00     0.031 C 
ATOM     67  C   UNL A   1      44.681  32.679  29.911  1.00  0.00     0.029 A 
ATOM     68  C   UNL A   1      45.478  31.739  29.280  1.00  0.00     0.049 A 
ATOM     69  H   UNL A   1      45.035  29.736  28.787  1.00  0.00     0.167 HD
ATOM     70  C   UNL A   1      47.540  30.904  28.190  1.00  0.00     0.074 A 
ATOM     71  C   UNL A   1      48.892  31.063  27.695  1.00  0.00     0.031 C 
ATOM     72  C   UNL A   1      46.825  31.892  28.783  1.00  0.00     0.031 A 
BRANCH  59  73
ATOM     73  C   UNL A   1      41.109  30.189  30.423  1.00  0.00    -0.014 A 
ATOM     74  C   UNL A   1      40.057  30.661  29.617  1.00  0.00     0.010 A 
ATOM     75  C   UNL A   1      40.904  30.062  31.810  1.00  0.00     0.010 A 
ATOM     76  C   UNL A   1      38.842  31.041  30.192  1.00  0.00     0.020 A 
ATOM     77  C   UNL A   1      39.680  30.410  32.385  1.00  0.00     0.020 A 
ATOM     78  C   UNL A   1      38.662  30.915  31.573  1.00  0.00     0.054 A 
BRANCH  78  79
ATOM     79  S   UNL A   1      37.069  31.406  32.290  1.00  0.00     0.124 S 
ATOM     80  O   UNL A   1      36.844  32.705  31.661  1.00  0.00    -0.237 OA
ATOM     81  O   UNL A   1      36.180  30.334  31.850  1.00  0.00    -0.237 OA
ATOM     82  O   UNL A   1      37.331  31.446  33.726  1.00  0.00    -0.744 OA
ENDBRANCH  78  79
ENDBRANCH  59  73
BRANCH  60  83
ATOM     83  C   UNL A   1      49.642  27.187  26.200  1.00  0.00    -0.014 A 
ATOM     84  C   UNL A   1      49.826  27.361  24.816  1.00  0.00     0.010 A 
ATOM     85  C   UNL A   1      50.672  26.591  26.953  1.00  0.00     0.010 A 
ATOM     86  C   UNL A   1      51.006  26.933  24.198  1.00  0.00     0.020 A 
ATOM     87  C   UNL A   1      51.865  26.191  26.345  1.00  0.00     0.020 A 
ATOM     88  C   UNL A   1      52.020  26.355  24.967  1.00  0.00     0.054 A 
BRANCH  88  89
ATOM     89  S   UNL A   1      53.560  25.852  24.151  1.00  0.00     0.124 S 
ATOM     90  O   UNL A   1      54.510  26.837  24.659  1.00  0.00    -0.237 OA
ATOM     91  O   UNL A   1      53.743  24.487  24.638  1.00  0.00    -0.237 OA
ATOM     92  O   UNL A   1      53.246  25.962  22.728  1.00  0.00    -0.744 OA
ENDBRANCH  88  89
ENDBRANCH  60  83
BRANCH  72  93
ATOM     93  C   UNL A   1      47.496  33.229  28.979  1.00  0.00    -0.014 A 
ATOM     94  C   UNL A   1      48.273  33.506  30.119  1.00  0.00     0.010 A 
ATOM     95  C   UNL A   1      47.395  34.206  27.970  1.00  0.00     0.010 A 
ATOM     96  C   UNL A   1      48.912  34.743  30.258  1.00  0.00     0.020 A 
ATOM     97  C   UNL A   1      48.058  35.431  28.090  1.00  0.00     0.020 A 
ATOM     98  C   UNL A   1      48.802  35.697  29.240  1.00  0.00     0.054 A 
BRANCH  98  99
ATOM     99  S   UNL A   1      49.679  37.275  29.424  1.00  0.00     0.124 S 
ATOM    100  O   UNL A   1      51.052  36.836  29.657  1.00  0.00    -0.237 OA
ATOM    101  O   UNL A   1      49.436  37.926  28.139  1.00  0.00    -0.237 OA
ATOM    102  O   UNL A   1      49.024  37.905  30.568  1.00  0.00    -0.744 OA
ENDBRANCH  98  99
ENDBRANCH  72  93
ENDBRANCH  46  47
ENDBRANCH  39  41
ENDBRANCH  38  39
ENDBRANCH  37  38
ENDBRANCH  36  37
ENDBRANCH  35  36
ENDBRANCH   1  35
TORSDOF 24
ENDMDL
MODEL 2
REMARK VINA RESULT:     -10.4      3.423      8.313
REMARK SMILES CS(=O)(=O)c1ccc(/C=C(/C(=O)OCCOCCOCCOC(=O)c2ccc(-c3c4nc(c(-c5ccc(S(=O)(=O)[O-])cc5)c5ccc([nH]5)c(-c5ccc(S(=O)(=O)[O-])cc5)c5nc(c(-c6ccc(S(=O)(=O)[O-])cc6)c6ccc3[nH]6)C=C5)C=C4)cc2)c2ccc(-c3ccc(F)cc3F)cc2)cc1
REMARK SMILES IDX 18 1 17 2 16 3 15 4 14 5 13 6 11 7 12 8 10 9 9 10 8 11 5 12
REMARK SMILES IDX 6 13 100 14 7 15 99 16 2 17 1 18 3 19 4 20 85 21 86 22 98 23
REMARK SMILES IDX 87 24 97 25 88 26 89 27 90 28 95 29 91 30 94 31 96 32 92 33
REMARK SMILES IDX 93 34 19 35 20 36 21 37 22 38 23 39 24 40 25 41 26 42 84 43
REMARK SMILES IDX 27 44 83 45 28 46 29 47 30 48 77 49 31 50 82 51 76 52 78 53
REMARK SMILES IDX 32 54 81 55 75 56 74 57 33 59 63 60 44 61 62 62 45 63 48 64
REMARK SMILES IDX 61 65 79 66 46 67 47 68 60 70 80 71 49 72 34 73 35 74 43 75
REMARK SMILES IDX 36 76 42 77 37 78 38 79 39 80 40 81 41 82 64 83 65 84 73 85
REMARK SMILES IDX 66 86 72 87 67 88 68 89 69 90 70 91 71 92 50 93 51 94 59 95
REMARK SMILES IDX 52 96 58 97 53 98 54 99 55 100 56 101 57 102
REMARK H PARENT 78 58 48 69
REMARK Flexibility Score: inf
ROOT
ATOM      1  C   UNL A   1      33.971  29.649  27.088  1.00  0.00     0.188 C 
ENDROOT
BRANCH   1   2
ATOM      2  C   UNL A   1      33.680  29.131  25.662  1.00  0.00     0.188 C 
BRANCH   2   3
ATOM      3  O   UNL A   1      32.665  28.154  25.634  1.00  0.00    -0.376 OA
BRANCH   3   4
ATOM      4  C   UNL A   1      31.888  28.046  24.454  1.00  0.00     0.202 C 
BRANCH   4   5
ATOM      5  C   UNL A   1      32.169  26.980  23.370  1.00  0.00     0.261 C 
BRANCH   5   6
ATOM      6  O   UNL A   1      32.637  25.691  23.798  1.00  0.00    -0.460 OA
BRANCH   6   7
ATOM      7  C   UNL A   1      31.856  24.615  23.515  1.00  0.00     0.338 C 
ATOM      8  O   UNL A   1      30.733  24.673  23.042  1.00  0.00    -0.246 OA
BRANCH   7   9
ATOM      9  C   UNL A   1      32.597  23.326  23.754  1.00  0.00     0.067 C 
ATOM     10  C   UNL A   1      31.997  22.145  23.455  1.00  0.00     0.024 C 
BRANCH  10  11
ATOM     11  C   UNL A   1      32.591  20.782  23.434  1.00  0.00    -0.025 A 
ATOM     12  C   UNL A   1      33.418  18.152  23.954  1.00  0.00     0.067 A 
ATOM     13  C   UNL A   1      32.473  18.393  22.961  1.00  0.00     0.021 A 
ATOM     14  C   UNL A   1      34.048  19.214  24.601  1.00  0.00     0.021 A 
ATOM     15  C   UNL A   1      32.105  19.712  22.669  1.00  0.00     0.009 A 
ATOM     16  C   UNL A   1      33.637  20.524  24.334  1.00  0.00     0.009 A 
BRANCH  12  17
ATOM     17  S   UNL A   1      33.697  16.493  24.526  1.00  0.00     0.175 S 
ATOM     18  C   UNL A   1      32.213  16.085  25.395  1.00  0.00     0.163 C 
ATOM     19  O   UNL A   1      34.783  16.530  25.488  1.00  0.00    -0.224 OA
ATOM     20  O   UNL A   1      33.776  15.640  23.354  1.00  0.00    -0.224 OA
ENDBRANCH  12  17
ENDBRANCH  10  11
BRANCH   9  21
ATOM     21  C   UNL A   1      33.958  23.412  24.323  1.00  0.00    -0.011 A 
ATOM     22  C   UNL A   1      34.120  23.268  25.707  1.00  0.00     0.009 A 
ATOM     23  C   UNL A   1      35.100  23.499  23.522  1.00  0.00     0.009 A 
ATOM     24  C   UNL A   1      35.391  23.171  26.272  1.00  0.00     0.009 A 
ATOM     25  C   UNL A   1      36.375  23.382  24.096  1.00  0.00     0.009 A 
ATOM     26  C   UNL A   1      36.543  23.206  25.480  1.00  0.00    -0.015 A 
BRANCH  26  27
ATOM     27  C   UNL A   1      37.870  23.069  26.106  1.00  0.00     0.018 A 
ATOM     28  C   UNL A   1      38.436  24.128  26.845  1.00  0.00     0.015 A 
ATOM     29  C   UNL A   1      38.636  21.902  25.952  1.00  0.00     0.133 A 
ATOM     30  C   UNL A   1      39.720  24.020  27.386  1.00  0.00     0.040 A 
ATOM     31  C   UNL A   1      39.915  21.787  26.487  1.00  0.00     0.079 A 
ATOM     32  F   UNL A   1      38.144  20.861  25.263  1.00  0.00    -0.206 F 
ATOM     33  C   UNL A   1      40.447  22.851  27.197  1.00  0.00     0.126 A 
ATOM     34  F   UNL A   1      41.676  22.747  27.717  1.00  0.00    -0.207 F 
ENDBRANCH  26  27
ENDBRANCH   9  21
ENDBRANCH   7   9
ENDBRANCH   6   7
ENDBRANCH   5   6
ENDBRANCH   4   5
ENDBRANCH   3   4
ENDBRANCH   2   3
ENDBRANCH   1   2
BRANCH   1  35
ATOM     35  O   UNL A   1      33.954  31.043  27.360  1.00  0.00    -0.376 OA
BRANCH  35  36
ATOM     36  C   UNL A   1      35.118  31.658  27.893  1.00  0.00     0.202 C 
BRANCH  36  37
ATOM     37  C   UNL A   1      35.812  31.104  29.153  1.00  0.00     0.261 C 
BRANCH  37  38
ATOM     38  O   UNL A   1      36.444  29.818  29.045  1.00  0.00    -0.460 OA
BRANCH  38  39
ATOM     39  C   UNL A   1      37.256  29.476  30.080  1.00  0.00     0.338 C 
ATOM     40  O   UNL A   1      36.937  29.321  31.241  1.00  0.00    -0.246 OA
BRANCH  39  41
ATOM     41  C   UNL A   1      38.594  29.116  29.553  1.00  0.00     0.060 A 
ATOM     42  C   UNL A   1      39.478  28.423  30.393  1.00  0.00     0.016 A 
ATOM     43  C   UNL A   1      38.992  29.490  28.269  1.00  0.00     0.016 A 
ATOM     44  C   UNL A   1      40.766  28.110  29.954  1.00  0.00     0.010 A 
ATOM     45  C   UNL A   1      40.293  29.199  27.841  1.00  0.00     0.010 A 
ATOM     46  C   UNL A   1      41.192  28.524  28.685  1.00  0.00    -0.014 A 
BRANCH  46  47
ATOM     47  C   UNL A   1      42.624  28.395  28.313  1.00  0.00     0.031 A 
ATOM     48  C   UNL A   1      43.542  29.560  28.561  1.00  0.00     0.074 A 
ATOM     49  C   UNL A   1      43.110  27.260  27.780  1.00  0.00     0.049 A 
ATOM     50  N   UNL A   1      44.814  29.686  28.284  1.00  0.00    -0.248 NA
ATOM     51  C   UNL A   1      42.943  30.739  29.208  1.00  0.00     0.031 C 
ATOM     52  C   UNL A   1      42.338  26.046  27.526  1.00  0.00     0.029 A 
ATOM     53  N   UNL A   1      44.377  26.949  27.350  1.00  0.00    -0.354 N 
ATOM     54  C   UNL A   1      45.167  30.963  28.707  1.00  0.00     0.074 A 
ATOM     55  C   UNL A   1      43.971  31.575  29.247  1.00  0.00     0.031 C 
ATOM     56  C   UNL A   1      43.148  25.117  26.989  1.00  0.00     0.029 A 
ATOM     57  C   UNL A   1      44.482  25.689  26.807  1.00  0.00     0.049 A 
ATOM     58  H   UNL A   1      45.139  27.568  27.425  1.00  0.00     0.167 HD
ATOM     59  C   UNL A   1      46.374  31.573  28.647  1.00  0.00     0.031 A 
ATOM     60  C   UNL A   1      45.522  25.083  26.198  1.00  0.00     0.031 A 
ATOM     61  C   UNL A   1      47.554  30.979  28.075  1.00  0.00     0.049 A 
ATOM     62  C   UNL A   1      46.832  25.819  26.057  1.00  0.00     0.074 A 
ATOM     63  C   UNL A   1      48.824  31.520  27.975  1.00  0.00     0.029 A 
ATOM     64  N   UNL A   1      47.606  29.724  27.490  1.00  0.00    -0.354 N 
ATOM     65  N   UNL A   1      47.157  27.017  26.482  1.00  0.00    -0.248 NA
ATOM     66  C   UNL A   1      47.915  25.119  25.350  1.00  0.00     0.031 C 
ATOM     67  C   UNL A   1      49.626  30.620  27.265  1.00  0.00     0.029 A 
ATOM     68  C   UNL A   1      48.878  29.486  26.996  1.00  0.00     0.049 A 
ATOM     69  H   UNL A   1      46.851  29.095  27.433  1.00  0.00     0.167 HD
ATOM     70  C   UNL A   1      48.491  27.199  26.123  1.00  0.00     0.074 A 
ATOM     71  C   UNL A   1      48.914  25.985  25.456  1.00  0.00     0.031 C 
ATOM     72  C   UNL A   1      49.293  28.274  26.330  1.00  0.00     0.031 A 
BRANCH  59  73
ATOM     73  C   UNL A   1      46.463  32.984  29.169  1.00  0.00    -0.014 A 
ATOM     74  C   UNL A   1      46.311  34.092  28.316  1.00  0.00     0.010 A 
ATOM     75  C   UNL A   1      46.676  33.204  30.543  1.00  0.00     0.010 A 
ATOM     76  C   UNL A   1      46.415  35.392  28.819  1.00  0.00     0.020 A 
ATOM     77  C   UNL A   1      46.747  34.501  31.056  1.00  0.00     0.020 A 
ATOM     78  C   UNL A   1      46.635  35.587  30.186  1.00  0.00     0.054 A 
BRANCH  78  79
ATOM     79  S   UNL A   1      46.753  37.286  30.812  1.00  0.00     0.124 S 
ATOM     80  O   UNL A   1      47.980  37.229  31.603  1.00  0.00    -0.237 OA
ATOM     81  O   UNL A   1      46.833  38.073  29.584  1.00  0.00    -0.237 OA
ATOM     82  O   UNL A   1      45.524  37.459  31.582  1.00  0.00    -0.744 OA
ENDBRANCH  78  79
ENDBRANCH  59  73
BRANCH  60  83
ATOM     83  C   UNL A   1      45.360  23.714  25.631  1.00  0.00    -0.014 A 
ATOM     84  C   UNL A   1      45.562  22.574  26.429  1.00  0.00     0.010 A 
ATOM     85  C   UNL A   1      45.012  23.544  24.277  1.00  0.00     0.010 A 
ATOM     86  C   UNL A   1      45.436  21.293  25.881  1.00  0.00     0.020 A 
ATOM     87  C   UNL A   1      44.853  22.267  23.734  1.00  0.00     0.020 A 
ATOM     88  C   UNL A   1      45.077  21.148  24.538  1.00  0.00     0.054 A 
BRANCH  88  89
ATOM     89  S   UNL A   1      44.872  19.477  23.862  1.00  0.00     0.124 S 
ATOM     90  O   UNL A   1      44.593  19.750  22.455  1.00  0.00    -0.237 OA
ATOM     91  O   UNL A   1      46.168  18.863  24.142  1.00  0.00    -0.237 OA
ATOM     92  O   UNL A   1      43.753  18.932  24.627  1.00  0.00    -0.744 OA
ENDBRANCH  88  89
ENDBRANCH  60  83
BRANCH  72  93
ATOM     93  C   UNL A   1      50.729  28.181  25.875  1.00  0.00    -0.014 A 
ATOM     94  C   UNL A   1      51.717  27.572  26.668  1.00  0.00     0.010 A 
ATOM     95  C   UNL A   1      51.080  28.660  24.597  1.00  0.00     0.010 A 
ATOM     96  C   UNL A   1      53.034  27.470  26.206  1.00  0.00     0.020 A 
ATOM     97  C   UNL A   1      52.386  28.531  24.118  1.00  0.00     0.020 A 
ATOM     98  C   UNL A   1      53.359  27.948  24.932  1.00  0.00     0.054 A 
BRANCH  98  99
ATOM     99  S   UNL A   1      55.064  27.761  24.337  1.00  0.00     0.124 S 
ATOM    100  O   UNL A   1      54.929  26.684  23.360  1.00  0.00    -0.237 OA
ATOM    101  O   UNL A   1      55.355  29.080  23.783  1.00  0.00    -0.237 OA
ATOM    102  O   UNL A   1      55.817  27.418  25.542  1.00  0.00    -0.744 OA
ENDBRANCH  98  99
ENDBRANCH  72  93
ENDBRANCH  46  47
ENDBRANCH  39  41
ENDBRANCH  38  39
ENDBRANCH  37  38
ENDBRANCH  36  37
ENDBRANCH  35  36
ENDBRANCH   1  35
TORSDOF 24
ENDMDL
MODEL 3
REMARK VINA RESULT:     -10.4      1.907      7.867
REMARK SMILES CS(=O)(=O)c1ccc(/C=C(/C(=O)OCCOCCOCCOC(=O)c2ccc(-c3c4nc(c(-c5ccc(S(=O)(=O)[O-])cc5)c5ccc([nH]5)c(-c5ccc(S(=O)(=O)[O-])cc5)c5nc(c(-c6ccc(S(=O)(=O)[O-])cc6)c6ccc3[nH]6)C=C5)C=C4)cc2)c2ccc(-c3ccc(F)cc3F)cc2)cc1
REMARK SMILES IDX 18 1 17 2 16 3 15 4 14 5 13 6 11 7 12 8 10 9 9 10 8 11 5 12
REMARK SMILES IDX 6 13 100 14 7 15 99 16 2 17 1 18 3 19 4 20 85 21 86 22 98 23
REMARK SMILES IDX 87 24 97 25 88 26 89 27 90 28 95 29 91 30 94 31 96 32 92 33
REMARK SMILES IDX 93 34 19 35 20 36 21 37 22 38 23 39 24 40 25 41 26 42 84 43
REMARK SMILES IDX 27 44 83 45 28 46 29 47 30 48 77 49 31 50 82 51 76 52 78 53
REMARK SMILES IDX 32 54 81 55 75 56 74 57 33 59 63 60 44 61 62 62 45 63 48 64
REMARK SMILES IDX 61 65 79 66 46 67 47 68 60 70 80 71 49 72 34 73 35 74 43 75
REMARK SMILES IDX 36 76 42 77 37 78 38 79 39 80 40 81 41 82 64 83 65 84 73 85
REMARK SMILES IDX 66 86 72 87 67 88 68 89 69 90 70 91 71 92 50 93 51 94 59 95
REMARK SMILES IDX 52 96 58 97 53 98 54 99 55 100 56 101 57 102
REMARK H PARENT 78 58 48 69
REMARK Flexibility Score: inf
ROOT
ATOM      1  C   UNL A   1      34.942  21.072  25.385  1.00  0.00     0.188 C 
ENDROOT
BRANCH   1   2
ATOM      2  C   UNL A   1      33.632  20.264  25.254  1.00  0.00     0.188 C 
BRANCH   2   3
ATOM      3  O   UNL A   1      32.483  21.080  25.297  1.00  0.00    -0.376 OA
BRANCH   3   4
ATOM      4  C   UNL A   1      32.063  21.690  24.089  1.00  0.00     0.202 C 
BRANCH   4   5
ATOM      5  C   UNL A   1      32.008  23.224  23.909  1.00  0.00     0.261 C 
BRANCH   5   6
ATOM      6  O   UNL A   1      32.425  24.046  25.009  1.00  0.00    -0.460 OA
BRANCH   6   7
ATOM      7  C   UNL A   1      31.467  24.765  25.654  1.00  0.00     0.338 C 
ATOM      8  O   UNL A   1      30.934  24.435  26.701  1.00  0.00    -0.246 OA
BRANCH   7   9
ATOM      9  C   UNL A   1      31.226  26.086  24.973  1.00  0.00     0.067 C 
ATOM     10  C   UNL A   1      30.327  26.160  23.958  1.00  0.00     0.024 C 
BRANCH  10  11
ATOM     11  C   UNL A   1      29.800  27.369  23.272  1.00  0.00    -0.025 A 
ATOM     12  C   UNL A   1      28.805  29.896  22.565  1.00  0.00     0.067 A 
ATOM     13  C   UNL A   1      30.104  29.543  22.211  1.00  0.00     0.021 A 
ATOM     14  C   UNL A   1      27.956  28.959  23.153  1.00  0.00     0.021 A 
ATOM     15  C   UNL A   1      30.576  28.262  22.519  1.00  0.00     0.009 A 
ATOM     16  C   UNL A   1      28.454  27.698  23.498  1.00  0.00     0.009 A 
BRANCH  12  17
ATOM     17  S   UNL A   1      28.279  31.588  22.433  1.00  0.00     0.175 S 
ATOM     18  C   UNL A   1      27.931  31.793  20.712  1.00  0.00     0.163 C 
ATOM     19  O   UNL A   1      29.410  32.433  22.764  1.00  0.00    -0.224 OA
ATOM     20  O   UNL A   1      27.027  31.708  23.158  1.00  0.00    -0.224 OA
ENDBRANCH  12  17
ENDBRANCH  10  11
BRANCH   9  21
ATOM     21  C   UNL A   1      32.003  27.252  25.442  1.00  0.00    -0.011 A 
ATOM     22  C   UNL A   1      31.455  28.070  26.438  1.00  0.00     0.009 A 
ATOM     23  C   UNL A   1      33.315  27.492  25.027  1.00  0.00     0.009 A 
ATOM     24  C   UNL A   1      32.213  29.078  27.034  1.00  0.00     0.009 A 
ATOM     25  C   UNL A   1      34.079  28.496  25.644  1.00  0.00     0.009 A 
ATOM     26  C   UNL A   1      33.544  29.299  26.666  1.00  0.00    -0.015 A 
BRANCH  26  27
ATOM     27  C   UNL A   1      34.327  30.351  27.338  1.00  0.00     0.018 A 
ATOM     28  C   UNL A   1      33.771  31.623  27.586  1.00  0.00     0.015 A 
ATOM     29  C   UNL A   1      35.664  30.143  27.714  1.00  0.00     0.133 A 
ATOM     30  C   UNL A   1      34.534  32.640  28.167  1.00  0.00     0.040 A 
ATOM     31  C   UNL A   1      36.430  31.149  28.291  1.00  0.00     0.079 A 
ATOM     32  F   UNL A   1      36.242  28.950  27.506  1.00  0.00    -0.206 F 
ATOM     33  C   UNL A   1      35.858  32.392  28.510  1.00  0.00     0.126 A 
ATOM     34  F   UNL A   1      36.587  33.365  29.069  1.00  0.00    -0.207 F 
ENDBRANCH  26  27
ENDBRANCH   9  21
ENDBRANCH   7   9
ENDBRANCH   6   7
ENDBRANCH   5   6
ENDBRANCH   4   5
ENDBRANCH   3   4
ENDBRANCH   2   3
ENDBRANCH   1   2
BRANCH   1  35
ATOM     35  O   UNL A   1      35.412  21.854  24.297  1.00  0.00    -0.376 OA
BRANCH  35  36
ATOM     36  C   UNL A   1      36.811  22.027  24.122  1.00  0.00     0.202 C 
BRANCH  36  37
ATOM     37  C   UNL A   1      37.823  21.443  25.128  1.00  0.00     0.261 C 
BRANCH  37  38
ATOM     38  O   UNL A   1      38.199  22.271  26.240  1.00  0.00    -0.460 OA
BRANCH  38  39
ATOM     39  C   UNL A   1      39.484  22.135  26.663  1.00  0.00     0.338 C 
ATOM     40  O   UNL A   1      40.194  21.157  26.546  1.00  0.00    -0.246 OA
BRANCH  39  41
ATOM     41  C   UNL A   1      39.985  23.449  27.131  1.00  0.00     0.060 A 
ATOM     42  C   UNL A   1      39.401  24.611  26.606  1.00  0.00     0.016 A 
ATOM     43  C   UNL A   1      41.042  23.542  28.037  1.00  0.00     0.016 A 
ATOM     44  C   UNL A   1      39.878  25.869  26.980  1.00  0.00     0.010 A 
ATOM     45  C   UNL A   1      41.537  24.804  28.389  1.00  0.00     0.010 A 
ATOM     46  C   UNL A   1      40.970  25.973  27.850  1.00  0.00    -0.014 A 
BRANCH  46  47
ATOM     47  C   UNL A   1      41.618  27.291  28.062  1.00  0.00     0.031 A 
ATOM     48  C   UNL A   1      42.919  27.578  27.363  1.00  0.00     0.074 A 
ATOM     49  C   UNL A   1      41.058  28.229  28.847  1.00  0.00     0.049 A 
ATOM     50  N   UNL A   1      43.678  28.640  27.429  1.00  0.00    -0.248 NA
ATOM     51  C   UNL A   1      43.428  26.523  26.472  1.00  0.00     0.031 C 
ATOM     52  C   UNL A   1      39.784  28.095  29.549  1.00  0.00     0.029 A 
ATOM     53  N   UNL A   1      41.499  29.484  29.189  1.00  0.00    -0.354 N 
ATOM     54  C   UNL A   1      44.764  28.379  26.601  1.00  0.00     0.074 A 
ATOM     55  C   UNL A   1      44.570  27.052  26.056  1.00  0.00     0.031 C 
ATOM     56  C   UNL A   1      39.541  29.226  30.235  1.00  0.00     0.029 A 
ATOM     57  C   UNL A   1      40.670  30.141  30.069  1.00  0.00     0.049 A 
ATOM     58  H   UNL A   1      42.330  29.878  28.837  1.00  0.00     0.167 HD
ATOM     59  C   UNL A   1      45.829  29.168  26.324  1.00  0.00     0.031 A 
ATOM     60  C   UNL A   1      40.822  31.325  30.697  1.00  0.00     0.031 A 
ATOM     61  C   UNL A   1      46.041  30.472  26.896  1.00  0.00     0.049 A 
ATOM     62  C   UNL A   1      42.063  32.145  30.446  1.00  0.00     0.074 A 
ATOM     63  C   UNL A   1      47.089  31.348  26.671  1.00  0.00     0.029 A 
ATOM     64  N   UNL A   1      45.205  31.078  27.821  1.00  0.00    -0.354 N 
ATOM     65  N   UNL A   1      43.071  31.895  29.644  1.00  0.00    -0.248 NA
ATOM     66  C   UNL A   1      42.188  33.407  31.190  1.00  0.00     0.031 C 
ATOM     67  C   UNL A   1      46.923  32.453  27.512  1.00  0.00     0.029 A 
ATOM     68  C   UNL A   1      45.731  32.303  28.201  1.00  0.00     0.049 A 
ATOM     69  H   UNL A   1      44.363  30.696  28.158  1.00  0.00     0.167 HD
ATOM     70  C   UNL A   1      43.931  32.985  29.762  1.00  0.00     0.074 A 
ATOM     71  C   UNL A   1      43.320  33.898  30.704  1.00  0.00     0.031 C 
ATOM     72  C   UNL A   1      45.118  33.209  29.143  1.00  0.00     0.031 A 
BRANCH  59  73
ATOM     73  C   UNL A   1      46.878  28.614  25.395  1.00  0.00    -0.014 A 
ATOM     74  C   UNL A   1      48.137  28.205  25.872  1.00  0.00     0.010 A 
ATOM     75  C   UNL A   1      46.588  28.474  24.025  1.00  0.00     0.010 A 
ATOM     76  C   UNL A   1      49.101  27.710  24.990  1.00  0.00     0.020 A 
ATOM     77  C   UNL A   1      47.537  27.949  23.145  1.00  0.00     0.020 A 
ATOM     78  C   UNL A   1      48.795  27.588  23.631  1.00  0.00     0.054 A 
BRANCH  78  79
ATOM     79  S   UNL A   1      50.062  26.930  22.512  1.00  0.00     0.124 S 
ATOM     80  O   UNL A   1      50.654  28.154  21.977  1.00  0.00    -0.237 OA
ATOM     81  O   UNL A   1      50.916  26.162  23.414  1.00  0.00    -0.237 OA
ATOM     82  O   UNL A   1      49.300  26.137  21.551  1.00  0.00    -0.744 OA
ENDBRANCH  78  79
ENDBRANCH  59  73
BRANCH  60  83
ATOM     83  C   UNL A   1      39.790  31.794  31.665  1.00  0.00    -0.014 A 
ATOM     84  C   UNL A   1      38.485  32.098  31.237  1.00  0.00     0.010 A 
ATOM     85  C   UNL A   1      40.114  31.951  33.026  1.00  0.00     0.010 A 
ATOM     86  C   UNL A   1      37.531  32.565  32.147  1.00  0.00     0.020 A 
ATOM     87  C   UNL A   1      39.155  32.386  33.944  1.00  0.00     0.020 A 
ATOM     88  C   UNL A   1      37.871  32.701  33.497  1.00  0.00     0.054 A 
BRANCH  88  89
ATOM     89  S   UNL A   1      36.603  33.263  34.667  1.00  0.00     0.124 S 
ATOM     90  O   UNL A   1      36.939  32.503  35.867  1.00  0.00    -0.237 OA
ATOM     91  O   UNL A   1      36.855  34.701  34.738  1.00  0.00    -0.237 OA
ATOM     92  O   UNL A   1      35.348  32.888  34.019  1.00  0.00    -0.744 OA
ENDBRANCH  88  89
ENDBRANCH  60  83
BRANCH  72  93
ATOM     93  C   UNL A   1      45.825  34.512  29.423  1.00  0.00    -0.014 A 
ATOM     94  C   UNL A   1      46.824  34.614  30.408  1.00  0.00     0.010 A 
ATOM     95  C   UNL A   1      45.523  35.642  28.638  1.00  0.00     0.010 A 
ATOM     96  C   UNL A   1      47.486  35.828  30.622  1.00  0.00     0.020 A 
ATOM     97  C   UNL A   1      46.205  36.847  28.827  1.00  0.00     0.020 A 
ATOM     98  C   UNL A   1      47.174  36.936  29.828  1.00  0.00     0.054 A 
BRANCH  98  99
ATOM     99  S   UNL A   1      48.081  38.486  30.094  1.00  0.00     0.124 S 
ATOM    100  O   UNL A   1      49.297  38.018  30.755  1.00  0.00    -0.237 OA
ATOM    101  O   UNL A   1      48.258  38.990  28.735  1.00  0.00    -0.237 OA
ATOM    102  O   UNL A   1      47.182  39.275  30.933  1.00  0.00    -0.744 OA
ENDBRANCH  98  99
ENDBRANCH  72  93
ENDBRANCH  46  47
ENDBRANCH  39  41
ENDBRANCH  38  39
ENDBRANCH  37  38
ENDBRANCH  36  37
ENDBRANCH  35  36
ENDBRANCH   1  35
TORSDOF 24
ENDMDL
