MODEL 1
REMARK VINA RESULT:      -9.7      0.000      0.000
REMARK SMILES O=C(OCCOCCOCCOC(=O)[C@H](NC(=O)[C@H]1CC[C@@H](CNC(=O)[C@@H]2Cc3ccccc3C[NH2+]2)CC1)c1ccccc1)c1ccc(-c2c3nc(c(-c4ccc(S(=O)(=O)[O-])cc4)c4ccc([nH]4)c(-c4ccc(S(=O)(=O)[O-])cc4)c4nc(c(-c5ccc(S(=O)(=O)[O-])cc5)c5ccc2[nH]5)C=C4)C=C3)cc1
REMARK SMILES IDX 8 1 7 2 6 3 5 4 4 5 3 6 2 7 1 8 45 9 46 10 104 11 47 12
REMARK SMILES IDX 103 13 48 14 49 15 50 16 97 17 51 18 102 19 96 20 98 21
REMARK SMILES IDX 52 22 101 23 95 24 94 25 53 27 83 28 64 29 82 30 65 31 68 32
REMARK SMILES IDX 81 33 99 34 66 35 67 36 80 38 100 39 69 40 54 41 55 42 63 43
REMARK SMILES IDX 56 44 62 45 57 46 58 47 59 48 60 49 61 50 84 51 85 52 93 53
REMARK SMILES IDX 86 54 92 55 87 56 88 57 89 58 90 59 91 60 70 61 71 62 79 63
REMARK SMILES IDX 72 64 78 65 73 66 74 67 75 68 76 69 77 70 9 71 10 72 11 73
REMARK SMILES IDX 12 74 13 75 14 76 15 77 39 78 40 79 44 80 41 81 43 82 42 83
REMARK SMILES IDX 16 84 17 85 18 87 19 88 38 89 20 90 37 91 21 92 22 93 23 94
REMARK SMILES IDX 24 95 25 96 26 98 27 99 28 100 36 101 29 102 35 103 30 106
REMARK SMILES IDX 34 107 31 108 33 109 32 110
REMARK H PARENT 98 26 68 37 16 86 24 97 36 104 36 105
REMARK Flexibility Score: inf
ROOT
ATOM      1  C   UNL A   1      32.989  36.887  30.438  1.00  0.00     0.188 C 
ENDROOT
BRANCH   1   2
ATOM      2  C   UNL A   1      33.620  37.137  31.802  1.00  0.00     0.188 C 
BRANCH   2   3
ATOM      3  O   UNL A   1      33.223  36.207  32.811  1.00  0.00    -0.376 OA
BRANCH   3   4
ATOM      4  C   UNL A   1      34.325  35.613  33.509  1.00  0.00     0.202 C 
BRANCH   4   5
ATOM      5  C   UNL A   1      34.620  34.130  33.185  1.00  0.00     0.261 C 
BRANCH   5   6
ATOM      6  O   UNL A   1      35.915  33.875  32.594  1.00  0.00    -0.460 OA
BRANCH   6   7
ATOM      7  C   UNL A   1      36.632  32.722  32.530  1.00  0.00     0.338 C 
ATOM      8  O   UNL A   1      36.163  31.701  33.027  1.00  0.00    -0.246 OA
BRANCH   7   9
ATOM      9  C   UNL A   1      37.978  32.643  31.895  1.00  0.00     0.060 A 
ATOM     10  C   UNL A   1      39.132  32.355  32.606  1.00  0.00     0.016 A 
ATOM     11  C   UNL A   1      38.089  32.795  30.504  1.00  0.00     0.016 A 
ATOM     12  C   UNL A   1      40.375  32.359  32.021  1.00  0.00     0.010 A 
ATOM     13  C   UNL A   1      39.334  32.669  29.873  1.00  0.00     0.010 A 
ATOM     14  C   UNL A   1      40.481  32.452  30.645  1.00  0.00    -0.014 A 
BRANCH  14  15
ATOM     15  C   UNL A   1      41.828  32.332  30.074  1.00  0.00     0.031 A 
ATOM     16  C   UNL A   1      42.305  30.999  29.633  1.00  0.00     0.074 A 
ATOM     17  C   UNL A   1      42.515  33.445  29.762  1.00  0.00     0.049 A 
ATOM     18  N   UNL A   1      43.488  30.654  29.217  1.00  0.00    -0.248 NA
ATOM     19  C   UNL A   1      41.298  29.926  29.591  1.00  0.00     0.031 C 
ATOM     20  C   UNL A   1      41.988  34.805  29.875  1.00  0.00     0.029 A 
ATOM     21  N   UNL A   1      43.778  33.623  29.270  1.00  0.00    -0.354 N 
ATOM     22  C   UNL A   1      43.365  29.327  28.841  1.00  0.00     0.074 A 
ATOM     23  C   UNL A   1      42.006  28.917  29.109  1.00  0.00     0.031 C 
ATOM     24  C   UNL A   1      42.925  35.674  29.491  1.00  0.00     0.029 A 
ATOM     25  C   UNL A   1      44.145  34.945  29.220  1.00  0.00     0.049 A 
ATOM     26  H   UNL A   1      44.362  32.883  28.984  1.00  0.00     0.167 HD
ATOM     27  C   UNL A   1      44.313  28.535  28.303  1.00  0.00     0.031 A 
ATOM     28  C   UNL A   1      45.352  35.523  29.103  1.00  0.00     0.031 A 
ATOM     29  C   UNL A   1      45.656  28.969  28.075  1.00  0.00     0.049 A 
ATOM     30  C   UNL A   1      46.514  34.507  28.965  1.00  0.00     0.074 A 
ATOM     31  C   UNL A   1      46.725  28.258  27.566  1.00  0.00     0.029 A 
ATOM     32  N   UNL A   1      46.110  30.240  28.374  1.00  0.00    -0.354 N 
ATOM     33  N   UNL A   1      46.444  33.189  28.799  1.00  0.00    -0.248 NA
ATOM     34  C   UNL A   1      47.899  34.945  28.993  1.00  0.00     0.031 C 
ATOM     35  C   UNL A   1      47.852  29.079  27.642  1.00  0.00     0.029 A 
ATOM     36  C   UNL A   1      47.458  30.320  28.117  1.00  0.00     0.049 A 
ATOM     37  H   UNL A   1      45.554  30.974  28.718  1.00  0.00     0.167 HD
ATOM     38  C   UNL A   1      47.760  32.718  28.654  1.00  0.00     0.074 A 
ATOM     39  C   UNL A   1      48.616  33.851  28.813  1.00  0.00     0.031 C 
ATOM     40  C   UNL A   1      48.252  31.491  28.343  1.00  0.00     0.031 A 
BRANCH  27  41
ATOM     41  C   UNL A   1      43.945  27.122  28.004  1.00  0.00    -0.014 A 
ATOM     42  C   UNL A   1      44.003  26.130  28.997  1.00  0.00     0.010 A 
ATOM     43  C   UNL A   1      43.507  26.796  26.710  1.00  0.00     0.010 A 
ATOM     44  C   UNL A   1      43.640  24.820  28.689  1.00  0.00     0.020 A 
ATOM     45  C   UNL A   1      43.123  25.492  26.407  1.00  0.00     0.020 A 
ATOM     46  C   UNL A   1      43.199  24.512  27.398  1.00  0.00     0.054 A 
BRANCH  46  47
ATOM     47  S   UNL A   1      42.685  22.812  27.043  1.00  0.00     0.124 S 
ATOM     48  O   UNL A   1      43.894  22.254  26.440  1.00  0.00    -0.237 OA
ATOM     49  O   UNL A   1      42.349  22.300  28.368  1.00  0.00    -0.237 OA
ATOM     50  O   UNL A   1      41.554  22.975  26.134  1.00  0.00    -0.744 OA
ENDBRANCH  46  47
ENDBRANCH  27  41
BRANCH  28  51
ATOM     51  C   UNL A   1      45.352  37.033  29.362  1.00  0.00    -0.014 A 
ATOM     52  C   UNL A   1      45.637  37.655  30.599  1.00  0.00     0.010 A 
ATOM     53  C   UNL A   1      45.232  37.933  28.289  1.00  0.00     0.010 A 
ATOM     54  C   UNL A   1      45.494  39.066  30.790  1.00  0.00     0.020 A 
ATOM     55  C   UNL A   1      45.225  39.345  28.440  1.00  0.00     0.020 A 
ATOM     56  C   UNL A   1      45.220  39.896  29.707  1.00  0.00     0.054 A 
BRANCH  56  57
ATOM     57  S   UNL A   1      44.625  41.622  29.887  1.00  0.00     0.124 S 
ATOM     58  O   UNL A   1      44.769  41.852  31.317  1.00  0.00    -0.237 OA
ATOM     59  O   UNL A   1      45.532  42.390  29.033  1.00  0.00    -0.237 OA
ATOM     60  O   UNL A   1      43.243  41.558  29.416  1.00  0.00    -0.744 OA
ENDBRANCH  56  57
ENDBRANCH  28  51
BRANCH  40  61
ATOM     61  C   UNL A   1      49.739  31.355  28.094  1.00  0.00    -0.014 A 
ATOM     62  C   UNL A   1      50.641  30.989  29.108  1.00  0.00     0.010 A 
ATOM     63  C   UNL A   1      50.217  31.511  26.778  1.00  0.00     0.010 A 
ATOM     64  C   UNL A   1      51.992  30.778  28.805  1.00  0.00     0.020 A 
ATOM     65  C   UNL A   1      51.557  31.272  26.468  1.00  0.00     0.020 A 
ATOM     66  C   UNL A   1      52.439  30.910  27.485  1.00  0.00     0.054 A 
BRANCH  66  67
ATOM     67  S   UNL A   1      54.174  30.538  27.100  1.00  0.00     0.124 S 
ATOM     68  O   UNL A   1      54.760  30.394  28.429  1.00  0.00    -0.237 OA
ATOM     69  O   UNL A   1      54.073  29.307  26.321  1.00  0.00    -0.237 OA
ATOM     70  O   UNL A   1      54.621  31.709  26.347  1.00  0.00    -0.744 OA
ENDBRANCH  66  67
ENDBRANCH  40  61
ENDBRANCH  14  15
ENDBRANCH   7   9
ENDBRANCH   6   7
ENDBRANCH   5   6
ENDBRANCH   4   5
ENDBRANCH   3   4
ENDBRANCH   2   3
ENDBRANCH   1   2
BRANCH   1  71
ATOM     71  O   UNL A   1      33.667  36.006  29.552  1.00  0.00    -0.376 OA
BRANCH  71  72
ATOM     72  C   UNL A   1      33.399  34.615  29.661  1.00  0.00     0.202 C 
BRANCH  72  73
ATOM     73  C   UNL A   1      33.595  33.721  28.426  1.00  0.00     0.261 C 
BRANCH  73  74
ATOM     74  O   UNL A   1      34.029  32.368  28.656  1.00  0.00    -0.461 OA
BRANCH  74  75
ATOM     75  C   UNL A   1      35.188  32.018  28.016  1.00  0.00     0.333 C 
ATOM     76  O   UNL A   1      36.134  32.781  27.832  1.00  0.00    -0.249 OA
BRANCH  75  77
ATOM     77  C   UNL A   1      35.132  30.565  27.440  1.00  0.00     0.223 C 
BRANCH  77  78
ATOM     78  C   UNL A   1      36.047  29.807  28.376  1.00  0.00    -0.014 A 
ATOM     79  C   UNL A   1      37.302  29.403  27.882  1.00  0.00     0.006 A 
ATOM     80  C   UNL A   1      35.799  29.739  29.753  1.00  0.00     0.006 A 
ATOM     81  C   UNL A   1      38.310  29.020  28.752  1.00  0.00     0.000 A 
ATOM     82  C   UNL A   1      36.805  29.336  30.620  1.00  0.00     0.000 A 
ATOM     83  C   UNL A   1      38.067  29.029  30.120  1.00  0.00     0.000 A 
ENDBRANCH  77  78
BRANCH  77  84
ATOM     84  N   UNL A   1      33.727  30.124  27.463  1.00  0.00    -0.339 N 
ATOM     85  C   UNL A   1      32.964  29.171  26.885  1.00  0.00     0.224 C 
ATOM     86  H   UNL A   1      33.191  30.683  28.072  1.00  0.00     0.164 HD
ATOM     87  O   UNL A   1      31.768  29.230  27.215  1.00  0.00    -0.275 OA
BRANCH  85  88
ATOM     88  C   UNL A   1      33.385  28.114  25.834  1.00  0.00     0.078 C 
ATOM     89  C   UNL A   1      33.428  26.650  26.228  1.00  0.00     0.014 C 
ATOM     90  C   UNL A   1      32.471  28.254  24.586  1.00  0.00     0.014 C 
ATOM     91  C   UNL A   1      33.823  25.758  25.036  1.00  0.00     0.006 C 
ATOM     92  C   UNL A   1      32.705  27.231  23.454  1.00  0.00     0.006 C 
ATOM     93  C   UNL A   1      32.783  25.742  23.887  1.00  0.00     0.008 C 
BRANCH  93  94
ATOM     94  C   UNL A   1      31.364  25.052  24.139  1.00  0.00     0.119 C 
BRANCH  94  95
ATOM     95  N   UNL A   1      31.268  24.154  25.381  1.00  0.00    -0.351 N 
ATOM     96  C   UNL A   1      31.978  23.445  26.331  1.00  0.00     0.278 C 
ATOM     97  H   UNL A   1      30.312  24.035  25.581  1.00  0.00     0.163 HD
ATOM     98  O   UNL A   1      31.548  23.743  27.471  1.00  0.00    -0.268 OA
BRANCH  96  99
ATOM     99  C   UNL A   1      33.176  22.319  26.299  1.00  0.00     0.277 C 
ATOM    100  C   UNL A   1      34.574  22.849  26.058  1.00  0.00     0.111 C 
ATOM    101  N   UNL A   1      32.951  21.415  25.115  1.00  0.00    -0.332 N 
ATOM    102  C   UNL A   1      35.705  21.964  25.552  1.00  0.00    -0.033 A 
ATOM    103  C   UNL A   1      33.948  20.328  24.943  1.00  0.00     0.298 C 
ATOM    104  H   UNL A   1      32.964  21.991  24.273  1.00  0.00     0.347 HD
ATOM    105  H   UNL A   1      32.058  20.952  25.282  1.00  0.00     0.347 HD
ATOM    106  C   UNL A   1      37.069  22.334  25.636  1.00  0.00     0.004 A 
ATOM    107  C   UNL A   1      35.401  20.706  25.085  1.00  0.00     0.010 A 
ATOM    108  C   UNL A   1      38.121  21.471  25.373  1.00  0.00     0.000 A 
ATOM    109  C   UNL A   1      36.467  19.818  24.809  1.00  0.00     0.010 A 
ATOM    110  C   UNL A   1      37.815  20.188  24.977  1.00  0.00     0.001 A 
ENDBRANCH  96  99
ENDBRANCH  94  95
ENDBRANCH  93  94
ENDBRANCH  85  88
ENDBRANCH  77  84
ENDBRANCH  75  77
ENDBRANCH  74  75
ENDBRANCH  73  74
ENDBRANCH  72  73
ENDBRANCH  71  72
ENDBRANCH   1  71
TORSDOF 26
ENDMDL
MODEL 2
REMARK VINA RESULT:      -9.4      3.083     10.212
REMARK SMILES O=C(OCCOCCOCCOC(=O)[C@H](NC(=O)[C@H]1CC[C@@H](CNC(=O)[C@@H]2Cc3ccccc3C[NH2+]2)CC1)c1ccccc1)c1ccc(-c2c3nc(c(-c4ccc(S(=O)(=O)[O-])cc4)c4ccc([nH]4)c(-c4ccc(S(=O)(=O)[O-])cc4)c4nc(c(-c5ccc(S(=O)(=O)[O-])cc5)c5ccc2[nH]5)C=C4)C=C3)cc1
REMARK SMILES IDX 8 1 7 2 6 3 5 4 4 5 3 6 2 7 1 8 45 9 46 10 104 11 47 12
REMARK SMILES IDX 103 13 48 14 49 15 50 16 97 17 51 18 102 19 96 20 98 21
REMARK SMILES IDX 52 22 101 23 95 24 94 25 53 27 83 28 64 29 82 30 65 31 68 32
REMARK SMILES IDX 81 33 99 34 66 35 67 36 80 38 100 39 69 40 54 41 55 42 63 43
REMARK SMILES IDX 56 44 62 45 57 46 58 47 59 48 60 49 61 50 84 51 85 52 93 53
REMARK SMILES IDX 86 54 92 55 87 56 88 57 89 58 90 59 91 60 70 61 71 62 79 63
REMARK SMILES IDX 72 64 78 65 73 66 74 67 75 68 76 69 77 70 9 71 10 72 11 73
REMARK SMILES IDX 12 74 13 75 14 76 15 77 39 78 40 79 44 80 41 81 43 82 42 83
REMARK SMILES IDX 16 84 17 85 18 87 19 88 38 89 20 90 37 91 21 92 22 93 23 94
REMARK SMILES IDX 24 95 25 96 26 98 27 99 28 100 36 101 29 102 35 103 30 106
REMARK SMILES IDX 34 107 31 108 33 109 32 110
REMARK H PARENT 98 26 68 37 16 86 24 97 36 104 36 105
REMARK Flexibility Score: inf
ROOT
ATOM      1  C   UNL A   1      39.088  21.641  25.779  1.00  0.00     0.188 C 
ENDROOT
BRANCH   1   2
ATOM      2  C   UNL A   1      40.460  21.449  26.415  1.00  0.00     0.188 C 
BRANCH   2   3
ATOM      3  O   UNL A   1      41.105  22.665  26.797  1.00  0.00    -0.376 OA
BRANCH   3   4
ATOM      4  C   UNL A   1      42.219  23.009  25.964  1.00  0.00     0.202 C 
BRANCH   4   5
ATOM      5  C   UNL A   1      42.408  24.514  25.663  1.00  0.00     0.261 C 
BRANCH   5   6
ATOM      6  O   UNL A   1      42.972  25.292  26.744  1.00  0.00    -0.460 OA
BRANCH   6   7
ATOM      7  C   UNL A   1      44.138  25.989  26.800  1.00  0.00     0.338 C 
ATOM      8  O   UNL A   1      45.160  25.476  26.351  1.00  0.00    -0.246 OA
BRANCH   7   9
ATOM      9  C   UNL A   1      44.236  27.349  27.400  1.00  0.00     0.060 A 
ATOM     10  C   UNL A   1      45.015  27.629  28.511  1.00  0.00     0.016 A 
ATOM     11  C   UNL A   1      43.572  28.420  26.781  1.00  0.00     0.016 A 
ATOM     12  C   UNL A   1      45.037  28.871  29.098  1.00  0.00     0.010 A 
ATOM     13  C   UNL A   1      43.693  29.720  27.291  1.00  0.00     0.010 A 
ATOM     14  C   UNL A   1      44.430  29.938  28.460  1.00  0.00    -0.014 A 
BRANCH  14  15
ATOM     15  C   UNL A   1      44.591  31.259  29.080  1.00  0.00     0.031 A 
ATOM     16  C   UNL A   1      43.706  31.636  30.210  1.00  0.00     0.074 A 
ATOM     17  C   UNL A   1      45.661  32.011  28.766  1.00  0.00     0.049 A 
ATOM     18  N   UNL A   1      43.600  32.782  30.814  1.00  0.00    -0.248 NA
ATOM     19  C   UNL A   1      42.878  30.558  30.776  1.00  0.00     0.031 C 
ATOM     20  C   UNL A   1      46.751  31.579  27.892  1.00  0.00     0.029 A 
ATOM     21  N   UNL A   1      46.029  33.270  29.151  1.00  0.00    -0.354 N 
ATOM     22  C   UNL A   1      42.709  32.562  31.851  1.00  0.00     0.074 A 
ATOM     23  C   UNL A   1      42.276  31.186  31.774  1.00  0.00     0.031 C 
ATOM     24  C   UNL A   1      47.648  32.561  27.788  1.00  0.00     0.029 A 
ATOM     25  C   UNL A   1      47.142  33.722  28.486  1.00  0.00     0.049 A 
ATOM     26  H   UNL A   1      45.548  33.796  29.831  1.00  0.00     0.167 HD
ATOM     27  C   UNL A   1      42.309  33.441  32.791  1.00  0.00     0.031 A 
ATOM     28  C   UNL A   1      47.638  34.961  28.335  1.00  0.00     0.031 A 
ATOM     29  C   UNL A   1      42.741  34.803  32.819  1.00  0.00     0.049 A 
ATOM     30  C   UNL A   1      46.820  36.050  29.077  1.00  0.00     0.074 A 
ATOM     31  C   UNL A   1      42.387  35.809  33.697  1.00  0.00     0.029 A 
ATOM     32  N   UNL A   1      43.614  35.348  31.897  1.00  0.00    -0.354 N 
ATOM     33  N   UNL A   1      45.819  35.888  29.937  1.00  0.00    -0.248 NA
ATOM     34  C   UNL A   1      47.112  37.461  28.894  1.00  0.00     0.031 C 
ATOM     35  C   UNL A   1      42.982  36.990  33.247  1.00  0.00     0.029 A 
ATOM     36  C   UNL A   1      43.768  36.692  32.145  1.00  0.00     0.049 A 
ATOM     37  H   UNL A   1      44.058  34.851  31.173  1.00  0.00     0.167 HD
ATOM     38  C   UNL A   1      45.453  37.166  30.394  1.00  0.00     0.074 A 
ATOM     39  C   UNL A   1      46.272  38.099  29.688  1.00  0.00     0.031 C 
ATOM     40  C   UNL A   1      44.584  37.567  31.357  1.00  0.00     0.031 A 
BRANCH  27  41
ATOM     41  C   UNL A   1      41.314  32.972  33.796  1.00  0.00    -0.014 A 
ATOM     42  C   UNL A   1      41.674  32.066  34.807  1.00  0.00     0.010 A 
ATOM     43  C   UNL A   1      40.005  33.476  33.737  1.00  0.00     0.010 A 
ATOM     44  C   UNL A   1      40.723  31.656  35.741  1.00  0.00     0.020 A 
ATOM     45  C   UNL A   1      39.059  33.084  34.682  1.00  0.00     0.020 A 
ATOM     46  C   UNL A   1      39.424  32.171  35.673  1.00  0.00     0.054 A 
BRANCH  46  47
ATOM     47  S   UNL A   1      38.226  31.660  36.930  1.00  0.00     0.124 S 
ATOM     48  O   UNL A   1      38.162  30.216  36.713  1.00  0.00    -0.237 OA
ATOM     49  O   UNL A   1      38.869  32.082  38.171  1.00  0.00    -0.237 OA
ATOM     50  O   UNL A   1      37.015  32.396  36.576  1.00  0.00    -0.744 OA
ENDBRANCH  46  47
ENDBRANCH  27  41
BRANCH  28  51
ATOM     51  C   UNL A   1      48.751  35.069  27.288  1.00  0.00    -0.014 A 
ATOM     52  C   UNL A   1      48.590  35.534  25.963  1.00  0.00     0.010 A 
ATOM     53  C   UNL A   1      50.090  34.862  27.658  1.00  0.00     0.010 A 
ATOM     54  C   UNL A   1      49.654  35.486  25.007  1.00  0.00     0.020 A 
ATOM     55  C   UNL A   1      51.181  34.944  26.753  1.00  0.00     0.020 A 
ATOM     56  C   UNL A   1      50.938  35.122  25.405  1.00  0.00     0.054 A 
BRANCH  56  57
ATOM     57  S   UNL A   1      52.258  34.640  24.226  1.00  0.00     0.124 S 
ATOM     58  O   UNL A   1      52.336  35.804  23.354  1.00  0.00    -0.237 OA
ATOM     59  O   UNL A   1      53.423  34.420  25.084  1.00  0.00    -0.237 OA
ATOM     60  O   UNL A   1      51.726  33.437  23.590  1.00  0.00    -0.744 OA
ENDBRANCH  56  57
ENDBRANCH  28  51
BRANCH  40  61
ATOM     61  C   UNL A   1      44.548  39.035  31.726  1.00  0.00    -0.014 A 
ATOM     62  C   UNL A   1      43.659  39.940  31.121  1.00  0.00     0.010 A 
ATOM     63  C   UNL A   1      45.370  39.484  32.778  1.00  0.00     0.010 A 
ATOM     64  C   UNL A   1      43.593  41.267  31.567  1.00  0.00     0.020 A 
ATOM     65  C   UNL A   1      45.286  40.797  33.245  1.00  0.00     0.020 A 
ATOM     66  C   UNL A   1      44.399  41.683  32.634  1.00  0.00     0.054 A 
BRANCH  66  67
ATOM     67  S   UNL A   1      44.228  43.379  33.258  1.00  0.00     0.124 S 
ATOM     68  O   UNL A   1      43.840  43.158  34.648  1.00  0.00    -0.237 OA
ATOM     69  O   UNL A   1      45.565  43.931  33.058  1.00  0.00    -0.237 OA
ATOM     70  O   UNL A   1      43.189  43.959  32.408  1.00  0.00    -0.744 OA
ENDBRANCH  66  67
ENDBRANCH  40  61
ENDBRANCH  14  15
ENDBRANCH   7   9
ENDBRANCH   6   7
ENDBRANCH   5   6
ENDBRANCH   4   5
ENDBRANCH   3   4
ENDBRANCH   2   3
ENDBRANCH   1   2
BRANCH   1  71
ATOM     71  O   UNL A   1      38.290  22.718  26.252  1.00  0.00    -0.376 OA
BRANCH  71  72
ATOM     72  C   UNL A   1      37.211  23.155  25.438  1.00  0.00     0.202 C 
BRANCH  72  73
ATOM     73  C   UNL A   1      36.085  22.164  25.100  1.00  0.00     0.261 C 
BRANCH  73  74
ATOM     74  O   UNL A   1      35.496  21.441  26.196  1.00  0.00    -0.461 OA
BRANCH  74  75
ATOM     75  C   UNL A   1      34.189  21.076  26.009  1.00  0.00     0.333 C 
ATOM     76  O   UNL A   1      33.410  20.803  26.920  1.00  0.00    -0.249 OA
BRANCH  75  77
ATOM     77  C   UNL A   1      33.825  20.931  24.495  1.00  0.00     0.223 C 
BRANCH  77  78
ATOM     78  C   UNL A   1      33.695  19.434  24.331  1.00  0.00    -0.014 A 
ATOM     79  C   UNL A   1      32.588  18.947  23.610  1.00  0.00     0.006 A 
ATOM     80  C   UNL A   1      34.753  18.565  24.631  1.00  0.00     0.006 A 
ATOM     81  C   UNL A   1      32.578  17.647  23.130  1.00  0.00     0.000 A 
ATOM     82  C   UNL A   1      34.731  17.258  24.165  1.00  0.00     0.000 A 
ATOM     83  C   UNL A   1      33.670  16.823  23.375  1.00  0.00     0.000 A 
ENDBRANCH  77  78
BRANCH  77  84
ATOM     84  N   UNL A   1      32.582  21.685  24.256  1.00  0.00    -0.339 N 
ATOM     85  C   UNL A   1      32.216  22.952  23.963  1.00  0.00     0.224 C 
ATOM     86  H   UNL A   1      31.794  21.099  24.331  1.00  0.00     0.164 HD
ATOM     87  O   UNL A   1      30.985  23.105  23.890  1.00  0.00    -0.275 OA
BRANCH  85  88
ATOM     88  C   UNL A   1      33.122  24.197  23.802  1.00  0.00     0.078 C 
ATOM     89  C   UNL A   1      32.747  25.264  22.791  1.00  0.00     0.014 C 
ATOM     90  C   UNL A   1      33.290  24.880  25.187  1.00  0.00     0.014 C 
ATOM     91  C   UNL A   1      33.744  26.437  22.816  1.00  0.00     0.006 C 
ATOM     92  C   UNL A   1      34.115  26.184  25.207  1.00  0.00     0.006 C 
ATOM     93  C   UNL A   1      33.738  27.245  24.139  1.00  0.00     0.008 C 
BRANCH  93  94
ATOM     94  C   UNL A   1      32.451  28.121  24.502  1.00  0.00     0.119 C 
BRANCH  94  95
ATOM     95  N   UNL A   1      32.431  28.727  25.913  1.00  0.00    -0.351 N 
ATOM     96  C   UNL A   1      32.915  29.732  26.727  1.00  0.00     0.278 C 
ATOM     97  H   UNL A   1      31.828  28.173  26.459  1.00  0.00     0.163 HD
ATOM     98  O   UNL A   1      31.954  30.276  27.324  1.00  0.00    -0.268 OA
BRANCH  96  99
ATOM     99  C   UNL A   1      34.405  30.320  27.104  1.00  0.00     0.277 C 
ATOM    100  C   UNL A   1      35.458  29.284  27.437  1.00  0.00     0.111 C 
ATOM    101  N   UNL A   1      34.297  31.113  28.380  1.00  0.00    -0.332 N 
ATOM    102  C   UNL A   1      36.713  29.624  28.228  1.00  0.00    -0.033 A 
ATOM    103  C   UNL A   1      35.562  31.724  28.861  1.00  0.00     0.298 C 
ATOM    104  H   UNL A   1      33.951  30.488  29.109  1.00  0.00     0.347 HD
ATOM    105  H   UNL A   1      33.670  31.890  28.175  1.00  0.00     0.347 HD
ATOM    106  C   UNL A   1      37.851  28.783  28.267  1.00  0.00     0.004 A 
ATOM    107  C   UNL A   1      36.789  30.849  28.852  1.00  0.00     0.010 A 
ATOM    108  C   UNL A   1      39.071  29.158  28.807  1.00  0.00     0.000 A 
ATOM    109  C   UNL A   1      38.029  31.239  29.411  1.00  0.00     0.010 A 
ATOM    110  C   UNL A   1      39.167  30.413  29.366  1.00  0.00     0.001 A 
ENDBRANCH  96  99
ENDBRANCH  94  95
ENDBRANCH  93  94
ENDBRANCH  85  88
ENDBRANCH  77  84
ENDBRANCH  75  77
ENDBRANCH  74  75
ENDBRANCH  73  74
ENDBRANCH  72  73
ENDBRANCH  71  72
ENDBRANCH   1  71
TORSDOF 26
ENDMDL
MODEL 3
REMARK VINA RESULT:      -9.2      2.591      7.429
REMARK SMILES O=C(OCCOCCOCCOC(=O)[C@H](NC(=O)[C@H]1CC[C@@H](CNC(=O)[C@@H]2Cc3ccccc3C[NH2+]2)CC1)c1ccccc1)c1ccc(-c2c3nc(c(-c4ccc(S(=O)(=O)[O-])cc4)c4ccc([nH]4)c(-c4ccc(S(=O)(=O)[O-])cc4)c4nc(c(-c5ccc(S(=O)(=O)[O-])cc5)c5ccc2[nH]5)C=C4)C=C3)cc1
REMARK SMILES IDX 8 1 7 2 6 3 5 4 4 5 3 6 2 7 1 8 45 9 46 10 104 11 47 12
REMARK SMILES IDX 103 13 48 14 49 15 50 16 97 17 51 18 102 19 96 20 98 21
REMARK SMILES IDX 52 22 101 23 95 24 94 25 53 27 83 28 64 29 82 30 65 31 68 32
REMARK SMILES IDX 81 33 99 34 66 35 67 36 80 38 100 39 69 40 54 41 55 42 63 43
REMARK SMILES IDX 56 44 62 45 57 46 58 47 59 48 60 49 61 50 84 51 85 52 93 53
REMARK SMILES IDX 86 54 92 55 87 56 88 57 89 58 90 59 91 60 70 61 71 62 79 63
REMARK SMILES IDX 72 64 78 65 73 66 74 67 75 68 76 69 77 70 9 71 10 72 11 73
REMARK SMILES IDX 12 74 13 75 14 76 15 77 39 78 40 79 44 80 41 81 43 82 42 83
REMARK SMILES IDX 16 84 17 85 18 87 19 88 38 89 20 90 37 91 21 92 22 93 23 94
REMARK SMILES IDX 24 95 25 96 26 98 27 99 28 100 36 101 29 102 35 103 30 106
REMARK SMILES IDX 34 107 31 108 33 109 32 110
REMARK H PARENT 98 26 68 37 16 86 24 97 36 104 36 105
REMARK Flexibility Score: inf
ROOT
ATOM      1  C   UNL A   1      33.071  36.531  30.569  1.00  0.00     0.188 C 
ENDROOT
BRANCH   1   2
ATOM      2  C   UNL A   1      33.697  36.422  31.954  1.00  0.00     0.188 C 
BRANCH   2   3
ATOM      3  O   UNL A   1      33.369  35.220  32.653  1.00  0.00    -0.376 OA
BRANCH   3   4
ATOM      4  C   UNL A   1      34.304  34.886  33.688  1.00  0.00     0.202 C 
BRANCH   4   5
ATOM      5  C   UNL A   1      34.881  33.451  33.651  1.00  0.00     0.261 C 
BRANCH   5   6
ATOM      6  O   UNL A   1      36.267  33.355  33.248  1.00  0.00    -0.460 OA
BRANCH   6   7
ATOM      7  C   UNL A   1      36.808  33.260  32.006  1.00  0.00     0.338 C 
ATOM      8  O   UNL A   1      36.076  33.375  31.027  1.00  0.00    -0.246 OA
BRANCH   7   9
ATOM      9  C   UNL A   1      38.258  33.003  31.775  1.00  0.00     0.060 A 
ATOM     10  C   UNL A   1      38.763  32.566  30.561  1.00  0.00     0.016 A 
ATOM     11  C   UNL A   1      39.174  33.279  32.803  1.00  0.00     0.016 A 
ATOM     12  C   UNL A   1      40.091  32.262  30.385  1.00  0.00     0.010 A 
ATOM     13  C   UNL A   1      40.549  33.101  32.594  1.00  0.00     0.010 A 
ATOM     14  C   UNL A   1      41.002  32.586  31.375  1.00  0.00    -0.014 A 
BRANCH  14  15
ATOM     15  C   UNL A   1      42.419  32.343  31.077  1.00  0.00     0.031 A 
ATOM     16  C   UNL A   1      43.183  33.372  30.329  1.00  0.00     0.074 A 
ATOM     17  C   UNL A   1      43.051  31.312  31.665  1.00  0.00     0.049 A 
ATOM     18  N   UNL A   1      44.395  33.308  29.864  1.00  0.00    -0.248 NA
ATOM     19  C   UNL A   1      42.514  34.669  30.138  1.00  0.00     0.031 C 
ATOM     20  C   UNL A   1      42.448  30.430  32.665  1.00  0.00     0.029 A 
ATOM     21  N   UNL A   1      44.327  30.838  31.537  1.00  0.00    -0.354 N 
ATOM     22  C   UNL A   1      44.648  34.566  29.342  1.00  0.00     0.074 A 
ATOM     23  C   UNL A   1      43.455  35.361  29.515  1.00  0.00     0.031 C 
ATOM     24  C   UNL A   1      43.342  29.512  33.038  1.00  0.00     0.029 A 
ATOM     25  C   UNL A   1      44.528  29.668  32.225  1.00  0.00     0.049 A 
ATOM     26  H   UNL A   1      45.025  31.287  31.008  1.00  0.00     0.167 HD
ATOM     27  C   UNL A   1      45.791  35.008  28.784  1.00  0.00     0.031 A 
ATOM     28  C   UNL A   1      45.494  28.739  32.126  1.00  0.00     0.031 A 
ATOM     29  C   UNL A   1      46.945  34.182  28.607  1.00  0.00     0.049 A 
ATOM     30  C   UNL A   1      46.579  29.085  31.073  1.00  0.00     0.074 A 
ATOM     31  C   UNL A   1      48.158  34.496  28.027  1.00  0.00     0.029 A 
ATOM     32  N   UNL A   1      47.004  32.858  28.998  1.00  0.00    -0.354 N 
ATOM     33  N   UNL A   1      46.743  30.218  30.398  1.00  0.00    -0.248 NA
ATOM     34  C   UNL A   1      47.607  28.124  30.715  1.00  0.00     0.031 C 
ATOM     35  C   UNL A   1      48.921  33.327  27.987  1.00  0.00     0.029 A 
ATOM     36  C   UNL A   1      48.211  32.318  28.620  1.00  0.00     0.049 A 
ATOM     37  H   UNL A   1      46.291  32.374  29.474  1.00  0.00     0.167 HD
ATOM     38  C   UNL A   1      47.904  30.075  29.619  1.00  0.00     0.074 A 
ATOM     39  C   UNL A   1      48.376  28.744  29.839  1.00  0.00     0.031 C 
ATOM     40  C   UNL A   1      48.589  30.955  28.846  1.00  0.00     0.031 A 
BRANCH  27  41
ATOM     41  C   UNL A   1      45.812  36.406  28.267  1.00  0.00    -0.014 A 
ATOM     42  C   UNL A   1      46.127  37.487  29.107  1.00  0.00     0.010 A 
ATOM     43  C   UNL A   1      45.537  36.628  26.908  1.00  0.00     0.010 A 
ATOM     44  C   UNL A   1      46.151  38.781  28.590  1.00  0.00     0.020 A 
ATOM     45  C   UNL A   1      45.581  37.919  26.386  1.00  0.00     0.020 A 
ATOM     46  C   UNL A   1      45.880  38.987  27.233  1.00  0.00     0.054 A 
BRANCH  46  47
ATOM     47  S   UNL A   1      45.969  40.674  26.580  1.00  0.00     0.124 S 
ATOM     48  O   UNL A   1      45.492  40.490  25.212  1.00  0.00    -0.237 OA
ATOM     49  O   UNL A   1      45.070  41.405  27.468  1.00  0.00    -0.237 OA
ATOM     50  O   UNL A   1      47.383  41.020  26.705  1.00  0.00    -0.744 OA
ENDBRANCH  46  47
ENDBRANCH  27  41
BRANCH  28  51
ATOM     51  C   UNL A   1      45.201  27.444  32.891  1.00  0.00    -0.014 A 
ATOM     52  C   UNL A   1      44.906  26.192  32.305  1.00  0.00     0.010 A 
ATOM     53  C   UNL A   1      45.389  27.390  34.282  1.00  0.00     0.010 A 
ATOM     54  C   UNL A   1      44.521  25.059  33.089  1.00  0.00     0.020 A 
ATOM     55  C   UNL A   1      45.144  26.232  35.067  1.00  0.00     0.020 A 
ATOM     56  C   UNL A   1      44.581  25.115  34.479  1.00  0.00     0.054 A 
BRANCH  56  57
ATOM     57  S   UNL A   1      43.747  23.901  35.572  1.00  0.00     0.124 S 
ATOM     58  O   UNL A   1      43.014  23.079  34.620  1.00  0.00    -0.237 OA
ATOM     59  O   UNL A   1      44.855  23.234  36.256  1.00  0.00    -0.237 OA
ATOM     60  O   UNL A   1      42.907  24.735  36.430  1.00  0.00    -0.744 OA
ENDBRANCH  56  57
ENDBRANCH  28  51
BRANCH  40  61
ATOM     61  C   UNL A   1      49.919  30.521  28.268  1.00  0.00    -0.014 A 
ATOM     62  C   UNL A   1      50.066  30.144  26.922  1.00  0.00     0.010 A 
ATOM     63  C   UNL A   1      51.063  30.589  29.087  1.00  0.00     0.010 A 
ATOM     64  C   UNL A   1      51.335  29.847  26.408  1.00  0.00     0.020 A 
ATOM     65  C   UNL A   1      52.332  30.323  28.571  1.00  0.00     0.020 A 
ATOM     66  C   UNL A   1      52.461  29.949  27.234  1.00  0.00     0.054 A 
BRANCH  66  67
ATOM     67  S   UNL A   1      54.105  29.653  26.523  1.00  0.00     0.124 S 
ATOM     68  O   UNL A   1      53.779  29.160  25.188  1.00  0.00    -0.237 OA
ATOM     69  O   UNL A   1      54.719  30.977  26.572  1.00  0.00    -0.237 OA
ATOM     70  O   UNL A   1      54.700  28.665  27.423  1.00  0.00    -0.744 OA
ENDBRANCH  66  67
ENDBRANCH  40  61
ENDBRANCH  14  15
ENDBRANCH   7   9
ENDBRANCH   6   7
ENDBRANCH   5   6
ENDBRANCH   4   5
ENDBRANCH   3   4
ENDBRANCH   2   3
ENDBRANCH   1   2
BRANCH   1  71
ATOM     71  O   UNL A   1      33.665  35.779  29.519  1.00  0.00    -0.376 OA
BRANCH  71  72
ATOM     72  C   UNL A   1      33.059  34.547  29.155  1.00  0.00     0.202 C 
BRANCH  72  73
ATOM     73  C   UNL A   1      33.673  33.726  28.009  1.00  0.00     0.261 C 
BRANCH  73  74
ATOM     74  O   UNL A   1      34.079  32.378  28.311  1.00  0.00    -0.461 OA
BRANCH  74  75
ATOM     75  C   UNL A   1      35.375  32.081  27.984  1.00  0.00     0.333 C 
ATOM     76  O   UNL A   1      36.276  32.913  27.898  1.00  0.00    -0.249 OA
BRANCH  75  77
ATOM     77  C   UNL A   1      35.563  30.572  27.617  1.00  0.00     0.223 C 
BRANCH  77  78
ATOM     78  C   UNL A   1      36.622  30.126  28.600  1.00  0.00    -0.014 A 
ATOM     79  C   UNL A   1      36.252  30.006  29.954  1.00  0.00     0.006 A 
ATOM     80  C   UNL A   1      37.842  29.587  28.174  1.00  0.00     0.006 A 
ATOM     81  C   UNL A   1      37.044  29.292  30.839  1.00  0.00     0.000 A 
ATOM     82  C   UNL A   1      38.643  28.889  29.068  1.00  0.00     0.000 A 
ATOM     83  C   UNL A   1      38.215  28.702  30.379  1.00  0.00     0.000 A 
ENDBRANCH  77  78
BRANCH  77  84
ATOM     84  N   UNL A   1      34.259  29.904  27.775  1.00  0.00    -0.339 N 
ATOM     85  C   UNL A   1      33.572  28.894  27.198  1.00  0.00     0.224 C 
ATOM     86  H   UNL A   1      33.742  30.308  28.509  1.00  0.00     0.164 HD
ATOM     87  O   UNL A   1      32.443  28.723  27.687  1.00  0.00    -0.275 OA
BRANCH  85  88
ATOM     88  C   UNL A   1      33.988  28.022  25.988  1.00  0.00     0.078 C 
ATOM     89  C   UNL A   1      33.340  26.663  25.793  1.00  0.00     0.014 C 
ATOM     90  C   UNL A   1      33.791  28.843  24.684  1.00  0.00     0.014 C 
ATOM     91  C   UNL A   1      33.852  25.976  24.514  1.00  0.00     0.006 C 
ATOM     92  C   UNL A   1      34.096  28.106  23.363  1.00  0.00     0.006 C 
ATOM     93  C   UNL A   1      33.454  26.702  23.204  1.00  0.00     0.008 C 
BRANCH  93  94
ATOM     94  C   UNL A   1      31.915  26.723  22.770  1.00  0.00     0.119 C 
BRANCH  94  95
ATOM     95  N   UNL A   1      31.270  25.352  22.525  1.00  0.00    -0.351 N 
ATOM     96  C   UNL A   1      31.200  24.036  22.940  1.00  0.00     0.278 C 
ATOM     97  H   UNL A   1      30.658  25.450  21.760  1.00  0.00     0.163 HD
ATOM     98  O   UNL A   1      29.995  23.711  23.073  1.00  0.00    -0.268 OA
BRANCH  96  99
ATOM     99  C   UNL A   1      32.291  22.844  23.244  1.00  0.00     0.277 C 
ATOM    100  C   UNL A   1      31.897  21.456  22.783  1.00  0.00     0.111 C 
ATOM    101  N   UNL A   1      32.416  22.679  24.736  1.00  0.00    -0.332 N 
ATOM    102  C   UNL A   1      32.530  20.197  23.358  1.00  0.00    -0.033 A 
ATOM    103  C   UNL A   1      33.376  21.638  25.185  1.00  0.00     0.298 C 
ATOM    104  H   UNL A   1      31.495  22.439  25.104  1.00  0.00     0.347 HD
ATOM    105  H   UNL A   1      32.780  23.565  25.086  1.00  0.00     0.347 HD
ATOM    106  C   UNL A   1      32.435  18.931  22.729  1.00  0.00     0.004 A 
ATOM    107  C   UNL A   1      33.316  20.306  24.482  1.00  0.00     0.010 A 
ATOM    108  C   UNL A   1      33.165  17.819  23.118  1.00  0.00     0.000 A 
ATOM    109  C   UNL A   1      34.061  19.175  24.891  1.00  0.00     0.010 A 
ATOM    110  C   UNL A   1      34.008  17.950  24.200  1.00  0.00     0.001 A 
ENDBRANCH  96  99
ENDBRANCH  94  95
ENDBRANCH  93  94
ENDBRANCH  85  88
ENDBRANCH  77  84
ENDBRANCH  75  77
ENDBRANCH  74  75
ENDBRANCH  73  74
ENDBRANCH  72  73
ENDBRANCH  71  72
ENDBRANCH   1  71
TORSDOF 26
ENDMDL
