MODEL 1
REMARK VINA RESULT:      -9.6      0.000      0.000
REMARK SMILES C[C@H]1C[N@H+]2CCC[C@@H]2CN1c1cc(Cl)ccc1C(=O)OCCOCCOCCOC(=O)c1ccc(-c2c3nc(c(-c4ccc(S(=O)(=O)[O-])cc4)c4ccc([nH]4)c(-c4ccc(S(=O)(=O)[O-])cc4)c4nc(c(-c5ccc(S(=O)(=O)[O-])cc5)c5ccc2[nH]5)C=C4)C=C3)cc1
REMARK SMILES IDX 25 1 24 2 23 3 22 4 21 5 20 6 18 7 19 8 17 9 11 10 12 11
REMARK SMILES IDX 13 12 16 13 14 14 15 15 10 16 1 17 2 18 3 19 4 20 9 21 5 22
REMARK SMILES IDX 8 23 6 25 7 26 26 27 27 28 28 29 29 30 30 31 31 32 32 33
REMARK SMILES IDX 33 34 91 35 34 36 90 37 35 38 36 39 37 40 84 41 38 42 89 43
REMARK SMILES IDX 83 44 85 45 39 46 88 47 82 48 81 49 40 51 70 52 51 53 69 54
REMARK SMILES IDX 52 55 55 56 68 57 86 58 53 59 54 60 67 62 87 63 56 64 41 65
REMARK SMILES IDX 42 66 50 67 43 68 49 69 44 70 45 71 46 72 47 73 48 74 71 75
REMARK SMILES IDX 72 76 80 77 73 78 79 79 74 80 75 81 76 82 77 83 78 84 57 85
REMARK SMILES IDX 58 86 66 87 59 88 65 89 60 90 61 91 62 92 63 93 64 94
REMARK H PARENT 4 24 85 50 55 61
REMARK Flexibility Score: inf
ROOT
ATOM      1  C   UNL A   1      35.503  32.640  28.159  1.00  0.00     0.188 C 
ENDROOT
BRANCH   1   2
ATOM      2  C   UNL A   1      34.715  31.394  27.709  1.00  0.00     0.188 C 
BRANCH   2   3
ATOM      3  O   UNL A   1      35.160  30.115  28.155  1.00  0.00    -0.376 OA
BRANCH   3   4
ATOM      4  C   UNL A   1      35.075  29.021  27.244  1.00  0.00     0.202 C 
BRANCH   4   5
ATOM      5  C   UNL A   1      33.668  28.652  26.777  1.00  0.00     0.261 C 
BRANCH   5   6
ATOM      6  O   UNL A   1      33.591  27.244  26.502  1.00  0.00    -0.460 OA
BRANCH   6   7
ATOM      7  C   UNL A   1      32.358  26.701  26.587  1.00  0.00     0.340 C 
ATOM      8  O   UNL A   1      31.472  27.063  27.347  1.00  0.00    -0.246 OA
BRANCH   7   9
ATOM      9  C   UNL A   1      32.134  25.669  25.539  1.00  0.00     0.083 A 
ATOM     10  C   UNL A   1      31.738  25.907  24.194  1.00  0.00     0.053 A 
ATOM     11  C   UNL A   1      31.735  24.777  23.349  1.00  0.00     0.047 A 
ATOM     12  C   UNL A   1      31.959  23.480  23.823  1.00  0.00     0.043 A 
ATOM     13  C   UNL A   1      32.359  24.354  26.008  1.00  0.00     0.019 A 
ATOM     14  Cl  UNL A   1      31.860  22.148  22.737  1.00  0.00    -0.084 Cl
ATOM     15  C   UNL A   1      32.242  23.259  25.159  1.00  0.00     0.021 A 
BRANCH  10  16
ATOM     16  N   UNL A   1      31.338  27.143  23.690  1.00  0.00    -0.356 N 
ATOM     17  C   UNL A   1      33.549  27.792  22.566  1.00  0.00     0.037 C 
ATOM     18  C   UNL A   1      32.281  28.257  23.300  1.00  0.00     0.134 C 
ATOM     19  C   UNL A   1      31.599  29.299  22.322  1.00  0.00     0.287 C 
ATOM     20  N   UNL A   1      30.210  29.644  22.653  1.00  0.00    -0.329 N 
ATOM     21  C   UNL A   1      29.967  27.612  24.007  1.00  0.00     0.182 C 
ATOM     22  C   UNL A   1      29.510  30.404  21.619  1.00  0.00     0.262 C 
ATOM     23  C   UNL A   1      29.453  28.388  22.793  1.00  0.00     0.203 C 
ATOM     24  H   UNL A   1      30.260  30.215  23.498  1.00  0.00     0.348 HD
ATOM     25  C   UNL A   1      28.045  29.969  21.753  1.00  0.00     0.068 C 
ATOM     26  C   UNL A   1      28.034  28.907  22.852  1.00  0.00     0.073 C 
ENDBRANCH  10  16
ENDBRANCH   7   9
ENDBRANCH   6   7
ENDBRANCH   5   6
ENDBRANCH   4   5
ENDBRANCH   3   4
ENDBRANCH   2   3
ENDBRANCH   1   2
BRANCH   1  27
ATOM     27  O   UNL A   1      34.922  33.880  27.771  1.00  0.00    -0.376 OA
BRANCH  27  28
ATOM     28  C   UNL A   1      33.516  33.969  27.951  1.00  0.00     0.202 C 
BRANCH  28  29
ATOM     29  C   UNL A   1      33.100  35.144  28.844  1.00  0.00     0.261 C 
BRANCH  29  30
ATOM     30  O   UNL A   1      32.570  34.764  30.125  1.00  0.00    -0.460 OA
BRANCH  30  31
ATOM     31  C   UNL A   1      33.121  35.347  31.214  1.00  0.00     0.338 C 
ATOM     32  O   UNL A   1      32.642  36.243  31.888  1.00  0.00    -0.246 OA
BRANCH  31  33
ATOM     33  C   UNL A   1      34.331  34.579  31.576  1.00  0.00     0.060 A 
ATOM     34  C   UNL A   1      34.197  33.457  32.403  1.00  0.00     0.016 A 
ATOM     35  C   UNL A   1      35.586  34.954  31.088  1.00  0.00     0.016 A 
ATOM     36  C   UNL A   1      35.329  32.725  32.771  1.00  0.00     0.010 A 
ATOM     37  C   UNL A   1      36.718  34.229  31.470  1.00  0.00     0.010 A 
ATOM     38  C   UNL A   1      36.599  33.131  32.337  1.00  0.00    -0.014 A 
BRANCH  38  39
ATOM     39  C   UNL A   1      37.814  32.527  32.932  1.00  0.00     0.031 A 
ATOM     40  C   UNL A   1      38.472  31.384  32.204  1.00  0.00     0.074 A 
ATOM     41  C   UNL A   1      38.326  32.970  34.094  1.00  0.00     0.049 A 
ATOM     42  N   UNL A   1      39.533  30.695  32.531  1.00  0.00    -0.248 NA
ATOM     43  C   UNL A   1      37.845  30.965  30.940  1.00  0.00     0.031 C 
ATOM     44  C   UNL A   1      37.796  34.074  34.889  1.00  0.00     0.029 A 
ATOM     45  N   UNL A   1      39.412  32.529  34.809  1.00  0.00    -0.354 N 
ATOM     46  C   UNL A   1      39.703  29.762  31.515  1.00  0.00     0.074 A 
ATOM     47  C   UNL A   1      38.620  29.955  30.576  1.00  0.00     0.031 C 
ATOM     48  C   UNL A   1      38.553  34.219  35.992  1.00  0.00     0.029 A 
ATOM     49  C   UNL A   1      39.608  33.204  35.989  1.00  0.00     0.049 A 
ATOM     50  H   UNL A   1      39.997  31.796  34.505  1.00  0.00     0.167 HD
ATOM     51  C   UNL A   1      40.676  28.831  31.371  1.00  0.00     0.031 A 
ATOM     52  C   UNL A   1      40.522  33.016  36.963  1.00  0.00     0.031 A 
ATOM     53  C   UNL A   1      41.738  28.616  32.315  1.00  0.00     0.049 A 
ATOM     54  C   UNL A   1      41.560  31.933  36.811  1.00  0.00     0.074 A 
ATOM     55  C   UNL A   1      42.778  27.706  32.245  1.00  0.00     0.029 A 
ATOM     56  N   UNL A   1      41.889  29.308  33.506  1.00  0.00    -0.354 N 
ATOM     57  N   UNL A   1      41.736  31.091  35.819  1.00  0.00    -0.248 NA
ATOM     58  C   UNL A   1      42.529  31.782  37.907  1.00  0.00     0.031 C 
ATOM     59  C   UNL A   1      43.532  27.815  33.420  1.00  0.00     0.029 A 
ATOM     60  C   UNL A   1      42.990  28.830  34.194  1.00  0.00     0.049 A 
ATOM     61  H   UNL A   1      41.298  30.032  33.817  1.00  0.00     0.167 HD
ATOM     62  C   UNL A   1      42.851  30.330  36.160  1.00  0.00     0.074 A 
ATOM     63  C   UNL A   1      43.313  30.817  37.443  1.00  0.00     0.031 C 
ATOM     64  C   UNL A   1      43.440  29.322  35.470  1.00  0.00     0.031 A 
BRANCH  51  65
ATOM     65  C   UNL A   1      40.607  27.953  30.152  1.00  0.00    -0.014 A 
ATOM     66  C   UNL A   1      39.665  26.912  30.062  1.00  0.00     0.010 A 
ATOM     67  C   UNL A   1      41.486  28.180  29.080  1.00  0.00     0.010 A 
ATOM     68  C   UNL A   1      39.633  26.086  28.935  1.00  0.00     0.020 A 
ATOM     69  C   UNL A   1      41.440  27.371  27.941  1.00  0.00     0.020 A 
ATOM     70  C   UNL A   1      40.526  26.317  27.884  1.00  0.00     0.054 A 
BRANCH  70  71
ATOM     71  S   UNL A   1      40.459  25.236  26.430  1.00  0.00     0.124 S 
ATOM     72  O   UNL A   1      39.034  24.926  26.352  1.00  0.00    -0.237 OA
ATOM     73  O   UNL A   1      40.973  26.095  25.366  1.00  0.00    -0.237 OA
ATOM     74  O   UNL A   1      41.322  24.115  26.792  1.00  0.00    -0.744 OA
ENDBRANCH  70  71
ENDBRANCH  51  65
BRANCH  52  75
ATOM     75  C   UNL A   1      40.496  33.868  38.182  1.00  0.00    -0.014 A 
ATOM     76  C   UNL A   1      41.193  35.089  38.220  1.00  0.00     0.010 A 
ATOM     77  C   UNL A   1      39.779  33.455  39.320  1.00  0.00     0.010 A 
ATOM     78  C   UNL A   1      41.187  35.873  39.377  1.00  0.00     0.020 A 
ATOM     79  C   UNL A   1      39.750  34.247  40.471  1.00  0.00     0.020 A 
ATOM     80  C   UNL A   1      40.464  35.448  40.496  1.00  0.00     0.054 A 
BRANCH  80  81
ATOM     81  S   UNL A   1      40.426  36.504  41.971  1.00  0.00     0.124 S 
ATOM     82  O   UNL A   1      38.993  36.627  42.220  1.00  0.00    -0.237 OA
ATOM     83  O   UNL A   1      41.173  35.713  42.946  1.00  0.00    -0.237 OA
ATOM     84  O   UNL A   1      41.093  37.727  41.531  1.00  0.00    -0.744 OA
ENDBRANCH  80  81
ENDBRANCH  52  75
BRANCH  64  85
ATOM     85  C   UNL A   1      44.672  28.695  36.068  1.00  0.00    -0.014 A 
ATOM     86  C   UNL A   1      44.594  27.526  36.845  1.00  0.00     0.010 A 
ATOM     87  C   UNL A   1      45.936  29.253  35.795  1.00  0.00     0.010 A 
ATOM     88  C   UNL A   1      45.754  26.944  37.364  1.00  0.00     0.020 A 
ATOM     89  C   UNL A   1      47.099  28.660  36.292  1.00  0.00     0.020 A 
ATOM     90  C   UNL A   1      47.000  27.516  37.087  1.00  0.00     0.054 A 
BRANCH  90  91
ATOM     91  S   UNL A   1      48.496  26.720  37.735  1.00  0.00     0.124 S 
ATOM     92  O   UNL A   1      48.512  27.186  39.119  1.00  0.00    -0.237 OA
ATOM     93  O   UNL A   1      48.210  25.299  37.552  1.00  0.00    -0.237 OA
ATOM     94  O   UNL A   1      49.563  27.247  36.887  1.00  0.00    -0.744 OA
ENDBRANCH  90  91
ENDBRANCH  64  85
ENDBRANCH  38  39
ENDBRANCH  31  33
ENDBRANCH  30  31
ENDBRANCH  29  30
ENDBRANCH  28  29
ENDBRANCH  27  28
ENDBRANCH   1  27
TORSDOF 21
ENDMDL
MODEL 2
REMARK VINA RESULT:      -9.6      7.240     12.552
REMARK SMILES C[C@H]1C[N@H+]2CCC[C@@H]2CN1c1cc(Cl)ccc1C(=O)OCCOCCOCCOC(=O)c1ccc(-c2c3nc(c(-c4ccc(S(=O)(=O)[O-])cc4)c4ccc([nH]4)c(-c4ccc(S(=O)(=O)[O-])cc4)c4nc(c(-c5ccc(S(=O)(=O)[O-])cc5)c5ccc2[nH]5)C=C4)C=C3)cc1
REMARK SMILES IDX 25 1 24 2 23 3 22 4 21 5 20 6 18 7 19 8 17 9 11 10 12 11
REMARK SMILES IDX 13 12 16 13 14 14 15 15 10 16 1 17 2 18 3 19 4 20 9 21 5 22
REMARK SMILES IDX 8 23 6 25 7 26 26 27 27 28 28 29 29 30 30 31 31 32 32 33
REMARK SMILES IDX 33 34 91 35 34 36 90 37 35 38 36 39 37 40 84 41 38 42 89 43
REMARK SMILES IDX 83 44 85 45 39 46 88 47 82 48 81 49 40 51 70 52 51 53 69 54
REMARK SMILES IDX 52 55 55 56 68 57 86 58 53 59 54 60 67 62 87 63 56 64 41 65
REMARK SMILES IDX 42 66 50 67 43 68 49 69 44 70 45 71 46 72 47 73 48 74 71 75
REMARK SMILES IDX 72 76 80 77 73 78 79 79 74 80 75 81 76 82 77 83 78 84 57 85
REMARK SMILES IDX 58 86 66 87 59 88 65 89 60 90 61 91 62 92 63 93 64 94
REMARK H PARENT 4 24 85 50 55 61
REMARK Flexibility Score: inf
ROOT
ATOM      1  C   UNL A   1      41.605  22.012  26.366  1.00  0.00     0.188 C 
ENDROOT
BRANCH   1   2
ATOM      2  C   UNL A   1      40.411  22.222  27.318  1.00  0.00     0.188 C 
BRANCH   2   3
ATOM      3  O   UNL A   1      39.381  23.125  26.922  1.00  0.00    -0.376 OA
BRANCH   3   4
ATOM      4  C   UNL A   1      38.394  22.656  26.008  1.00  0.00     0.202 C 
BRANCH   4   5
ATOM      5  C   UNL A   1      37.410  23.705  25.494  1.00  0.00     0.261 C 
BRANCH   5   6
ATOM      6  O   UNL A   1      36.415  23.087  24.663  1.00  0.00    -0.460 OA
BRANCH   6   7
ATOM      7  C   UNL A   1      35.136  23.260  25.057  1.00  0.00     0.340 C 
ATOM      8  O   UNL A   1      34.654  24.305  25.468  1.00  0.00    -0.246 OA
BRANCH   7   9
ATOM      9  C   UNL A   1      34.310  22.047  24.809  1.00  0.00     0.083 A 
ATOM     10  C   UNL A   1      32.951  22.024  24.393  1.00  0.00     0.053 A 
ATOM     11  C   UNL A   1      32.428  20.751  24.082  1.00  0.00     0.047 A 
ATOM     12  C   UNL A   1      33.141  19.568  24.306  1.00  0.00     0.043 A 
ATOM     13  C   UNL A   1      35.022  20.846  25.032  1.00  0.00     0.019 A 
ATOM     14  Cl  UNL A   1      32.399  18.052  23.969  1.00  0.00    -0.084 Cl
ATOM     15  C   UNL A   1      34.429  19.608  24.810  1.00  0.00     0.021 A 
BRANCH  10  16
ATOM     16  N   UNL A   1      32.127  23.145  24.308  1.00  0.00    -0.356 N 
ATOM     17  C   UNL A   1      31.437  23.256  26.775  1.00  0.00     0.037 C 
ATOM     18  C   UNL A   1      31.050  23.496  25.306  1.00  0.00     0.134 C 
ATOM     19  C   UNL A   1      30.645  25.025  25.233  1.00  0.00     0.287 C 
ATOM     20  N   UNL A   1      30.544  25.575  23.875  1.00  0.00    -0.329 N 
ATOM     21  C   UNL A   1      31.917  23.753  22.971  1.00  0.00     0.182 C 
ATOM     22  C   UNL A   1      30.418  27.031  23.817  1.00  0.00     0.262 C 
ATOM     23  C   UNL A   1      31.798  25.266  23.167  1.00  0.00     0.203 C 
ATOM     24  H   UNL A   1      29.705  25.161  23.469  1.00  0.00     0.348 HD
ATOM     25  C   UNL A   1      31.107  27.422  22.504  1.00  0.00     0.068 C 
ATOM     26  C   UNL A   1      31.650  26.116  21.925  1.00  0.00     0.073 C 
ENDBRANCH  10  16
ENDBRANCH   7   9
ENDBRANCH   6   7
ENDBRANCH   5   6
ENDBRANCH   4   5
ENDBRANCH   3   4
ENDBRANCH   2   3
ENDBRANCH   1   2
BRANCH   1  27
ATOM     27  O   UNL A   1      41.555  20.806  25.611  1.00  0.00    -0.376 OA
BRANCH  27  28
ATOM     28  C   UNL A   1      42.028  19.651  26.289  1.00  0.00     0.202 C 
BRANCH  28  29
ATOM     29  C   UNL A   1      43.161  18.940  25.542  1.00  0.00     0.261 C 
BRANCH  29  30
ATOM     30  O   UNL A   1      43.664  19.652  24.399  1.00  0.00    -0.460 OA
BRANCH  30  31
ATOM     31  C   UNL A   1      44.981  19.963  24.400  1.00  0.00     0.338 C 
ATOM     32  O   UNL A   1      45.893  19.292  23.951  1.00  0.00    -0.246 OA
BRANCH  31  33
ATOM     33  C   UNL A   1      45.117  21.358  24.869  1.00  0.00     0.060 A 
ATOM     34  C   UNL A   1      44.910  22.400  23.958  1.00  0.00     0.016 A 
ATOM     35  C   UNL A   1      45.428  21.634  26.204  1.00  0.00     0.016 A 
ATOM     36  C   UNL A   1      45.048  23.726  24.375  1.00  0.00     0.010 A 
ATOM     37  C   UNL A   1      45.580  22.961  26.615  1.00  0.00     0.010 A 
ATOM     38  C   UNL A   1      45.422  24.011  25.696  1.00  0.00    -0.014 A 
BRANCH  38  39
ATOM     39  C   UNL A   1      45.826  25.386  26.073  1.00  0.00     0.031 A 
ATOM     40  C   UNL A   1      44.765  26.328  26.578  1.00  0.00     0.074 A 
ATOM     41  C   UNL A   1      47.101  25.801  25.967  1.00  0.00     0.049 A 
ATOM     42  N   UNL A   1      44.876  27.574  26.957  1.00  0.00    -0.248 NA
ATOM     43  C   UNL A   1      43.398  25.791  26.662  1.00  0.00     0.031 C 
ATOM     44  C   UNL A   1      48.224  24.987  25.508  1.00  0.00     0.029 A 
ATOM     45  N   UNL A   1      47.660  27.027  26.236  1.00  0.00    -0.354 N 
ATOM     46  C   UNL A   1      43.596  27.970  27.327  1.00  0.00     0.074 A 
ATOM     47  C   UNL A   1      42.721  26.842  27.098  1.00  0.00     0.031 C 
ATOM     48  C   UNL A   1      49.339  25.740  25.516  1.00  0.00     0.029 A 
ATOM     49  C   UNL A   1      49.004  27.093  25.961  1.00  0.00     0.049 A 
ATOM     50  H   UNL A   1      47.144  27.787  26.592  1.00  0.00     0.167 HD
ATOM     51  C   UNL A   1      43.185  29.163  27.818  1.00  0.00     0.031 A 
ATOM     52  C   UNL A   1      49.863  28.130  26.045  1.00  0.00     0.031 A 
ATOM     53  C   UNL A   1      44.045  30.296  28.020  1.00  0.00     0.049 A 
ATOM     54  C   UNL A   1      49.370  29.467  26.536  1.00  0.00     0.074 A 
ATOM     55  C   UNL A   1      43.720  31.542  28.528  1.00  0.00     0.029 A 
ATOM     56  N   UNL A   1      45.395  30.328  27.712  1.00  0.00    -0.354 N 
ATOM     57  N   UNL A   1      48.166  29.811  26.929  1.00  0.00    -0.248 NA
ATOM     58  C   UNL A   1      50.357  30.555  26.605  1.00  0.00     0.031 C 
ATOM     59  C   UNL A   1      44.866  32.344  28.481  1.00  0.00     0.029 A 
ATOM     60  C   UNL A   1      45.915  31.579  27.994  1.00  0.00     0.049 A 
ATOM     61  H   UNL A   1      45.909  29.572  27.344  1.00  0.00     0.167 HD
ATOM     62  C   UNL A   1      48.258  31.145  27.316  1.00  0.00     0.074 A 
ATOM     63  C   UNL A   1      49.636  31.543  27.120  1.00  0.00     0.031 C 
ATOM     64  C   UNL A   1      47.289  31.964  27.794  1.00  0.00     0.031 A 
BRANCH  51  65
ATOM     65  C   UNL A   1      41.722  29.303  28.139  1.00  0.00    -0.014 A 
ATOM     66  C   UNL A   1      41.289  29.538  29.456  1.00  0.00     0.010 A 
ATOM     67  C   UNL A   1      40.771  29.210  27.108  1.00  0.00     0.010 A 
ATOM     68  C   UNL A   1      39.925  29.637  29.742  1.00  0.00     0.020 A 
ATOM     69  C   UNL A   1      39.407  29.332  27.388  1.00  0.00     0.020 A 
ATOM     70  C   UNL A   1      38.992  29.526  28.707  1.00  0.00     0.054 A 
BRANCH  70  71
ATOM     71  S   UNL A   1      37.228  29.664  29.104  1.00  0.00     0.124 S 
ATOM     72  O   UNL A   1      37.119  28.811  30.284  1.00  0.00    -0.237 OA
ATOM     73  O   UNL A   1      37.064  31.095  29.347  1.00  0.00    -0.237 OA
ATOM     74  O   UNL A   1      36.563  29.159  27.906  1.00  0.00    -0.744 OA
ENDBRANCH  70  71
ENDBRANCH  51  65
BRANCH  52  75
ATOM     75  C   UNL A   1      51.284  27.952  25.643  1.00  0.00    -0.014 A 
ATOM     76  C   UNL A   1      52.268  27.643  26.599  1.00  0.00     0.010 A 
ATOM     77  C   UNL A   1      51.663  28.103  24.296  1.00  0.00     0.010 A 
ATOM     78  C   UNL A   1      53.606  27.503  26.220  1.00  0.00     0.020 A 
ATOM     79  C   UNL A   1      52.997  27.940  23.909  1.00  0.00     0.020 A 
ATOM     80  C   UNL A   1      53.962  27.651  24.876  1.00  0.00     0.054 A 
BRANCH  80  81
ATOM     81  S   UNL A   1      55.696  27.415  24.396  1.00  0.00     0.124 S 
ATOM     82  O   UNL A   1      55.568  26.912  23.032  1.00  0.00    -0.237 OA
ATOM     83  O   UNL A   1      56.247  28.762  24.525  1.00  0.00    -0.237 OA
ATOM     84  O   UNL A   1      56.192  26.451  25.375  1.00  0.00    -0.744 OA
ENDBRANCH  80  81
ENDBRANCH  52  75
BRANCH  64  85
ATOM     85  C   UNL A   1      47.685  33.366  28.175  1.00  0.00    -0.014 A 
ATOM     86  C   UNL A   1      48.281  33.646  29.417  1.00  0.00     0.010 A 
ATOM     87  C   UNL A   1      47.514  34.411  27.246  1.00  0.00     0.010 A 
ATOM     88  C   UNL A   1      48.669  34.950  29.737  1.00  0.00     0.020 A 
ATOM     89  C   UNL A   1      47.924  35.711  27.553  1.00  0.00     0.020 A 
ATOM     90  C   UNL A   1      48.485  35.976  28.803  1.00  0.00     0.054 A 
BRANCH  90  91
ATOM     91  S   UNL A   1      49.036  37.653  29.222  1.00  0.00     0.124 S 
ATOM     92  O   UNL A   1      48.961  37.641  30.681  1.00  0.00    -0.237 OA
ATOM     93  O   UNL A   1      50.385  37.700  28.662  1.00  0.00    -0.237 OA
ATOM     94  O   UNL A   1      48.062  38.513  28.555  1.00  0.00    -0.744 OA
ENDBRANCH  90  91
ENDBRANCH  64  85
ENDBRANCH  38  39
ENDBRANCH  31  33
ENDBRANCH  30  31
ENDBRANCH  29  30
ENDBRANCH  28  29
ENDBRANCH  27  28
ENDBRANCH   1  27
TORSDOF 21
ENDMDL
MODEL 3
REMARK VINA RESULT:      -9.4      1.263      2.822
REMARK SMILES C[C@H]1C[N@H+]2CCC[C@@H]2CN1c1cc(Cl)ccc1C(=O)OCCOCCOCCOC(=O)c1ccc(-c2c3nc(c(-c4ccc(S(=O)(=O)[O-])cc4)c4ccc([nH]4)c(-c4ccc(S(=O)(=O)[O-])cc4)c4nc(c(-c5ccc(S(=O)(=O)[O-])cc5)c5ccc2[nH]5)C=C4)C=C3)cc1
REMARK SMILES IDX 25 1 24 2 23 3 22 4 21 5 20 6 18 7 19 8 17 9 11 10 12 11
REMARK SMILES IDX 13 12 16 13 14 14 15 15 10 16 1 17 2 18 3 19 4 20 9 21 5 22
REMARK SMILES IDX 8 23 6 25 7 26 26 27 27 28 28 29 29 30 30 31 31 32 32 33
REMARK SMILES IDX 33 34 91 35 34 36 90 37 35 38 36 39 37 40 84 41 38 42 89 43
REMARK SMILES IDX 83 44 85 45 39 46 88 47 82 48 81 49 40 51 70 52 51 53 69 54
REMARK SMILES IDX 52 55 55 56 68 57 86 58 53 59 54 60 67 62 87 63 56 64 41 65
REMARK SMILES IDX 42 66 50 67 43 68 49 69 44 70 45 71 46 72 47 73 48 74 71 75
REMARK SMILES IDX 72 76 80 77 73 78 79 79 74 80 75 81 76 82 77 83 78 84 57 85
REMARK SMILES IDX 58 86 66 87 59 88 65 89 60 90 61 91 62 92 63 93 64 94
REMARK H PARENT 4 24 85 50 55 61
REMARK Flexibility Score: inf
ROOT
ATOM      1  C   UNL A   1      35.290  32.639  28.584  1.00  0.00     0.188 C 
ENDROOT
BRANCH   1   2
ATOM      2  C   UNL A   1      34.469  31.719  27.660  1.00  0.00     0.188 C 
BRANCH   2   3
ATOM      3  O   UNL A   1      34.333  30.346  28.020  1.00  0.00    -0.376 OA
BRANCH   3   4
ATOM      4  C   UNL A   1      34.842  29.365  27.120  1.00  0.00     0.202 C 
BRANCH   4   5
ATOM      5  C   UNL A   1      33.808  28.414  26.519  1.00  0.00     0.261 C 
BRANCH   5   6
ATOM      6  O   UNL A   1      32.903  29.138  25.670  1.00  0.00    -0.460 OA
BRANCH   6   7
ATOM      7  C   UNL A   1      32.798  28.680  24.404  1.00  0.00     0.340 C 
ATOM      8  O   UNL A   1      33.729  28.327  23.697  1.00  0.00    -0.246 OA
BRANCH   7   9
ATOM      9  C   UNL A   1      31.378  28.519  23.990  1.00  0.00     0.083 A 
ATOM     10  C   UNL A   1      30.672  27.291  23.863  1.00  0.00     0.053 A 
ATOM     11  C   UNL A   1      29.291  27.405  23.598  1.00  0.00     0.047 A 
ATOM     12  C   UNL A   1      28.673  28.631  23.327  1.00  0.00     0.043 A 
ATOM     13  C   UNL A   1      30.745  29.753  23.715  1.00  0.00     0.019 A 
ATOM     14  Cl  UNL A   1      26.997  28.672  22.937  1.00  0.00    -0.084 Cl
ATOM     15  C   UNL A   1      29.403  29.807  23.354  1.00  0.00     0.021 A 
BRANCH  10  16
ATOM     16  N   UNL A   1      31.253  26.028  23.953  1.00  0.00    -0.356 N 
ATOM     17  C   UNL A   1      32.187  25.906  21.568  1.00  0.00     0.037 C 
ATOM     18  C   UNL A   1      31.591  25.153  22.769  1.00  0.00     0.134 C 
ATOM     19  C   UNL A   1      32.664  24.047  23.134  1.00  0.00     0.287 C 
ATOM     20  N   UNL A   1      32.476  23.408  24.442  1.00  0.00    -0.329 N 
ATOM     21  C   UNL A   1      31.082  25.272  25.218  1.00  0.00     0.182 C 
ATOM     22  C   UNL A   1      33.597  22.577  24.879  1.00  0.00     0.262 C 
ATOM     23  C   UNL A   1      32.365  24.473  25.454  1.00  0.00     0.203 C 
ATOM     24  H   UNL A   1      31.651  22.815  24.346  1.00  0.00     0.348 HD
ATOM     25  C   UNL A   1      33.585  22.694  26.409  1.00  0.00     0.068 C 
ATOM     26  C   UNL A   1      32.457  23.671  26.734  1.00  0.00     0.073 C 
ENDBRANCH  10  16
ENDBRANCH   7   9
ENDBRANCH   6   7
ENDBRANCH   5   6
ENDBRANCH   4   5
ENDBRANCH   3   4
ENDBRANCH   2   3
ENDBRANCH   1   2
BRANCH   1  27
ATOM     27  O   UNL A   1      35.012  34.027  28.438  1.00  0.00    -0.376 OA
BRANCH  27  28
ATOM     28  C   UNL A   1      33.643  34.349  28.236  1.00  0.00     0.202 C 
BRANCH  28  29
ATOM     29  C   UNL A   1      33.112  35.369  29.249  1.00  0.00     0.261 C 
BRANCH  29  30
ATOM     30  O   UNL A   1      32.584  34.796  30.456  1.00  0.00    -0.460 OA
BRANCH  30  31
ATOM     31  C   UNL A   1      33.060  35.280  31.626  1.00  0.00     0.338 C 
ATOM     32  O   UNL A   1      32.500  36.056  32.380  1.00  0.00    -0.246 OA
BRANCH  31  33
ATOM     33  C   UNL A   1      34.309  34.556  31.942  1.00  0.00     0.060 A 
ATOM     34  C   UNL A   1      34.225  33.304  32.562  1.00  0.00     0.016 A 
ATOM     35  C   UNL A   1      35.553  35.101  31.612  1.00  0.00     0.016 A 
ATOM     36  C   UNL A   1      35.393  32.607  32.885  1.00  0.00     0.010 A 
ATOM     37  C   UNL A   1      36.719  34.410  31.949  1.00  0.00     0.010 A 
ATOM     38  C   UNL A   1      36.646  33.176  32.614  1.00  0.00    -0.014 A 
BRANCH  38  39
ATOM     39  C   UNL A   1      37.873  32.574  33.186  1.00  0.00     0.031 A 
ATOM     40  C   UNL A   1      38.532  31.448  32.434  1.00  0.00     0.074 A 
ATOM     41  C   UNL A   1      38.394  33.004  34.349  1.00  0.00     0.049 A 
ATOM     42  N   UNL A   1      39.603  30.763  32.740  1.00  0.00    -0.248 NA
ATOM     43  C   UNL A   1      37.895  31.042  31.171  1.00  0.00     0.031 C 
ATOM     44  C   UNL A   1      37.863  34.092  35.167  1.00  0.00     0.029 A 
ATOM     45  N   UNL A   1      39.492  32.562  35.046  1.00  0.00    -0.354 N 
ATOM     46  C   UNL A   1      39.770  29.847  31.708  1.00  0.00     0.074 A 
ATOM     47  C   UNL A   1      38.675  30.044  30.784  1.00  0.00     0.031 C 
ATOM     48  C   UNL A   1      38.631  34.227  36.263  1.00  0.00     0.029 A 
ATOM     49  C   UNL A   1      39.694  33.221  36.234  1.00  0.00     0.049 A 
ATOM     50  H   UNL A   1      40.079  31.839  34.724  1.00  0.00     0.167 HD
ATOM     51  C   UNL A   1      40.749  28.926  31.540  1.00  0.00     0.031 A 
ATOM     52  C   UNL A   1      40.621  33.027  37.194  1.00  0.00     0.031 A 
ATOM     53  C   UNL A   1      41.823  28.707  32.468  1.00  0.00     0.049 A 
ATOM     54  C   UNL A   1      41.666  31.955  37.015  1.00  0.00     0.074 A 
ATOM     55  C   UNL A   1      42.871  27.807  32.374  1.00  0.00     0.029 A 
ATOM     56  N   UNL A   1      41.981  29.383  33.668  1.00  0.00    -0.354 N 
ATOM     57  N   UNL A   1      41.839  31.130  36.009  1.00  0.00    -0.248 NA
ATOM     58  C   UNL A   1      42.649  31.796  38.098  1.00  0.00     0.031 C 
ATOM     59  C   UNL A   1      43.636  27.905  33.541  1.00  0.00     0.029 A 
ATOM     60  C   UNL A   1      43.094  28.904  34.336  1.00  0.00     0.049 A 
ATOM     61  H   UNL A   1      41.388  30.097  33.996  1.00  0.00     0.167 HD
ATOM     62  C   UNL A   1      42.964  30.373  36.326  1.00  0.00     0.074 A 
ATOM     63  C   UNL A   1      43.436  30.846  37.611  1.00  0.00     0.031 C 
ATOM     64  C   UNL A   1      43.554  29.381  35.615  1.00  0.00     0.031 A 
BRANCH  51  65
ATOM     65  C   UNL A   1      40.674  28.066  30.309  1.00  0.00    -0.014 A 
ATOM     66  C   UNL A   1      39.631  27.139  30.136  1.00  0.00     0.010 A 
ATOM     67  C   UNL A   1      41.652  28.195  29.308  1.00  0.00     0.010 A 
ATOM     68  C   UNL A   1      39.591  26.326  29.000  1.00  0.00     0.020 A 
ATOM     69  C   UNL A   1      41.602  27.401  28.159  1.00  0.00     0.020 A 
ATOM     70  C   UNL A   1      40.581  26.457  28.022  1.00  0.00     0.054 A 
BRANCH  70  71
ATOM     71  S   UNL A   1      40.503  25.396  26.554  1.00  0.00     0.124 S 
ATOM     72  O   UNL A   1      41.455  24.342  26.895  1.00  0.00    -0.237 OA
ATOM     73  O   UNL A   1      39.101  24.988  26.526  1.00  0.00    -0.237 OA
ATOM     74  O   UNL A   1      40.914  26.278  25.466  1.00  0.00    -0.744 OA
ENDBRANCH  70  71
ENDBRANCH  51  65
BRANCH  52  75
ATOM     75  C   UNL A   1      40.601  33.861  38.427  1.00  0.00    -0.014 A 
ATOM     76  C   UNL A   1      39.952  33.408  39.589  1.00  0.00     0.010 A 
ATOM     77  C   UNL A   1      41.226  35.121  38.438  1.00  0.00     0.010 A 
ATOM     78  C   UNL A   1      39.914  34.207  40.735  1.00  0.00     0.020 A 
ATOM     79  C   UNL A   1      41.211  35.913  39.591  1.00  0.00     0.020 A 
ATOM     80  C   UNL A   1      40.545  35.455  40.730  1.00  0.00     0.054 A 
BRANCH  80  81
ATOM     81  S   UNL A   1      40.528  36.454  42.244  1.00  0.00     0.124 S 
ATOM     82  O   UNL A   1      41.926  36.860  42.355  1.00  0.00    -0.237 OA
ATOM     83  O   UNL A   1      39.584  37.519  41.911  1.00  0.00    -0.237 OA
ATOM     84  O   UNL A   1      40.064  35.518  43.265  1.00  0.00    -0.744 OA
ENDBRANCH  80  81
ENDBRANCH  52  75
BRANCH  64  85
ATOM     85  C   UNL A   1      44.798  28.756  36.190  1.00  0.00    -0.014 A 
ATOM     86  C   UNL A   1      44.732  27.613  37.005  1.00  0.00     0.010 A 
ATOM     87  C   UNL A   1      46.058  29.288  35.857  1.00  0.00     0.010 A 
ATOM     88  C   UNL A   1      45.902  27.032  37.503  1.00  0.00     0.020 A 
ATOM     89  C   UNL A   1      47.231  28.695  36.332  1.00  0.00     0.020 A 
ATOM     90  C   UNL A   1      47.145  27.578  37.165  1.00  0.00     0.054 A 
BRANCH  90  91
ATOM     91  S   UNL A   1      48.652  26.782  37.786  1.00  0.00     0.124 S 
ATOM     92  O   UNL A   1      48.138  25.985  38.897  1.00  0.00    -0.237 OA
ATOM     93  O   UNL A   1      49.116  26.021  36.628  1.00  0.00    -0.237 OA
ATOM     94  O   UNL A   1      49.505  27.906  38.167  1.00  0.00    -0.744 OA
ENDBRANCH  90  91
ENDBRANCH  64  85
ENDBRANCH  38  39
ENDBRANCH  31  33
ENDBRANCH  30  31
ENDBRANCH  29  30
ENDBRANCH  28  29
ENDBRANCH  27  28
ENDBRANCH   1  27
TORSDOF 21
ENDMDL
