MODEL 1
REMARK VINA RESULT:     -10.1      0.000      0.000
REMARK SMILES CCSc1ccc(-c2cc(Cl)cc3c2O[C@H](C(F)(F)F)C(C(=O)OCCOCCOCCOC(=O)c2ccc(-c4c5nc(c(-c6ccc(S(=O)(=O)[O-])cc6)c6ccc([nH]6)c(-c6ccc(S(=O)(=O)[O-])cc6)c6nc(c(-c7ccc(S(=O)(=O)[O-])cc7)c7ccc4[nH]7)C=C6)C=C5)cc2)=C3)cc1
REMARK SMILES IDX 28 1 27 2 26 3 25 4 24 5 22 6 23 7 21 8 8 9 9 10 14 11 10 12
REMARK SMILES IDX 13 13 15 14 11 15 12 16 96 17 16 18 7 19 4 20 5 21 98 22
REMARK SMILES IDX 6 23 97 24 3 25 2 26 1 27 17 28 18 29 19 30 20 31 29 32
REMARK SMILES IDX 30 33 31 34 32 35 33 36 34 37 35 38 36 39 37 40 95 41 38 42
REMARK SMILES IDX 94 43 39 44 40 45 41 46 88 47 42 48 93 49 87 50 89 51 43 52
REMARK SMILES IDX 92 53 86 54 85 55 44 57 74 58 55 59 73 60 56 61 59 62 72 63
REMARK SMILES IDX 90 64 57 65 58 66 71 68 91 69 60 70 45 71 46 72 54 73 47 74
REMARK SMILES IDX 53 75 48 76 49 77 50 78 51 79 52 80 75 81 76 82 84 83 77 84
REMARK SMILES IDX 83 85 78 86 79 87 80 88 81 89 82 90 61 91 62 92 70 93 63 94
REMARK SMILES IDX 69 95 64 96 65 97 66 98 67 99 68 100
REMARK H PARENT 89 56 59 67
REMARK Flexibility Score: inf
ROOT
ATOM      1  C   UNL A   1      36.548  20.870  25.339  1.00  0.00     0.188 C 
ENDROOT
BRANCH   1   2
ATOM      2  O   UNL A   1      35.166  20.926  25.033  1.00  0.00    -0.376 OA
BRANCH   2   3
ATOM      3  C   UNL A   1      34.468  19.682  25.020  1.00  0.00     0.202 C 
BRANCH   3   4
ATOM      4  C   UNL A   1      33.595  19.453  23.781  1.00  0.00     0.261 C 
BRANCH   4   5
ATOM      5  O   UNL A   1      32.354  20.191  23.891  1.00  0.00    -0.460 OA
BRANCH   5   6
ATOM      6  C   UNL A   1      32.253  21.254  23.065  1.00  0.00     0.338 C 
ATOM      7  O   UNL A   1      31.729  21.229  21.957  1.00  0.00    -0.246 OA
BRANCH   6   8
ATOM      8  C   UNL A   1      32.714  22.509  23.712  1.00  0.00     0.087 C 
ATOM      9  C   UNL A   1      32.141  26.364  22.322  1.00  0.00     0.026 A 
ATOM     10  C   UNL A   1      32.032  26.279  20.915  1.00  0.00     0.033 A 
ATOM     11  C   UNL A   1      32.513  25.186  22.968  1.00  0.00     0.135 A 
ATOM     12  C   UNL A   1      32.417  25.155  20.189  1.00  0.00     0.042 A 
ATOM     13  C   UNL A   1      33.117  24.151  22.222  1.00  0.00     0.019 A 
ATOM     14  O   UNL A   1      32.223  24.899  24.295  1.00  0.00    -0.475 OA
ATOM     15  Cl  UNL A   1      32.171  25.083  18.492  1.00  0.00    -0.084 Cl
ATOM     16  C   UNL A   1      33.042  24.109  20.837  1.00  0.00     0.032 A 
ATOM     17  C   UNL A   1      33.710  23.030  22.975  1.00  0.00     0.027 C 
ATOM     18  C   UNL A   1      31.763  23.479  24.412  1.00  0.00     0.316 C 
BRANCH   9  19
ATOM     19  C   UNL A   1      32.152  27.750  22.858  1.00  0.00    -0.015 A 
ATOM     20  C   UNL A   1      32.098  29.717  24.936  1.00  0.00     0.007 A 
ATOM     21  C   UNL A   1      33.306  29.290  24.391  1.00  0.00     0.015 A 
ATOM     22  C   UNL A   1      30.915  29.233  24.363  1.00  0.00     0.015 A 
ATOM     23  C   UNL A   1      33.328  28.332  23.356  1.00  0.00     0.010 A 
ATOM     24  C   UNL A   1      30.939  28.280  23.330  1.00  0.00     0.010 A 
BRANCH  20  25
ATOM     25  S   UNL A   1      31.946  30.612  26.477  1.00  0.00    -0.126 SA
BRANCH  25  26
ATOM     26  C   UNL A   1      31.540  29.363  27.741  1.00  0.00     0.071 C 
ATOM     27  C   UNL A   1      32.121  27.988  27.468  1.00  0.00     0.016 C 
ENDBRANCH  25  26
ENDBRANCH  20  25
ENDBRANCH   9  19
BRANCH  18  28
ATOM     28  C   UNL A   1      31.588  23.060  25.874  1.00  0.00     0.430 C 
ATOM     29  F   UNL A   1      31.717  24.098  26.729  1.00  0.00    -0.167 F 
ATOM     30  F   UNL A   1      30.380  22.489  26.091  1.00  0.00    -0.167 F 
ATOM     31  F   UNL A   1      32.520  22.136  26.225  1.00  0.00    -0.167 F 
ENDBRANCH  18  28
ENDBRANCH   6   8
ENDBRANCH   5   6
ENDBRANCH   4   5
ENDBRANCH   3   4
ENDBRANCH   2   3
ENDBRANCH   1   2
BRANCH   1  32
ATOM     32  C   UNL A   1      37.408  21.977  24.691  1.00  0.00     0.188 C 
BRANCH  32  33
ATOM     33  O   UNL A   1      38.168  22.858  25.509  1.00  0.00    -0.376 OA
BRANCH  33  34
ATOM     34  C   UNL A   1      39.250  22.343  26.274  1.00  0.00     0.202 C 
BRANCH  34  35
ATOM     35  C   UNL A   1      39.846  23.232  27.370  1.00  0.00     0.261 C 
BRANCH  35  36
ATOM     36  O   UNL A   1      41.104  23.831  27.009  1.00  0.00    -0.460 OA
BRANCH  36  37
ATOM     37  C   UNL A   1      41.013  25.063  26.451  1.00  0.00     0.338 C 
ATOM     38  O   UNL A   1      41.048  25.331  25.261  1.00  0.00    -0.246 OA
BRANCH  37  39
ATOM     39  C   UNL A   1      40.681  26.076  27.473  1.00  0.00     0.060 A 
ATOM     40  C   UNL A   1      41.371  27.290  27.419  1.00  0.00     0.016 A 
ATOM     41  C   UNL A   1      39.797  25.817  28.523  1.00  0.00     0.016 A 
ATOM     42  C   UNL A   1      41.204  28.231  28.435  1.00  0.00     0.010 A 
ATOM     43  C   UNL A   1      39.635  26.767  29.547  1.00  0.00     0.010 A 
ATOM     44  C   UNL A   1      40.350  27.975  29.518  1.00  0.00    -0.014 A 
BRANCH  44  45
ATOM     45  C   UNL A   1      40.350  28.917  30.673  1.00  0.00     0.031 A 
ATOM     46  C   UNL A   1      39.255  29.936  30.775  1.00  0.00     0.074 A 
ATOM     47  C   UNL A   1      41.273  28.844  31.651  1.00  0.00     0.049 A 
ATOM     48  N   UNL A   1      39.006  30.788  31.735  1.00  0.00    -0.248 NA
ATOM     49  C   UNL A   1      38.334  30.017  29.632  1.00  0.00     0.031 C 
ATOM     50  C   UNL A   1      42.389  27.912  31.665  1.00  0.00     0.029 A 
ATOM     51  N   UNL A   1      41.390  29.521  32.844  1.00  0.00    -0.354 N 
ATOM     52  C   UNL A   1      37.937  31.551  31.286  1.00  0.00     0.074 A 
ATOM     53  C   UNL A   1      37.556  31.026  29.991  1.00  0.00     0.031 C 
ATOM     54  C   UNL A   1      43.004  27.980  32.860  1.00  0.00     0.029 A 
ATOM     55  C   UNL A   1      42.372  29.016  33.670  1.00  0.00     0.049 A 
ATOM     56  H   UNL A   1      40.826  30.291  33.084  1.00  0.00     0.167 HD
ATOM     57  C   UNL A   1      37.356  32.625  31.874  1.00  0.00     0.031 A 
ATOM     58  C   UNL A   1      42.713  29.340  34.937  1.00  0.00     0.031 A 
ATOM     59  C   UNL A   1      37.771  33.184  33.134  1.00  0.00     0.049 A 
ATOM     60  C   UNL A   1      42.020  30.507  35.598  1.00  0.00     0.074 A 
ATOM     61  C   UNL A   1      37.253  34.281  33.798  1.00  0.00     0.029 A 
ATOM     62  N   UNL A   1      38.816  32.705  33.908  1.00  0.00    -0.354 N 
ATOM     63  N   UNL A   1      41.063  31.270  35.126  1.00  0.00    -0.248 NA
ATOM     64  C   UNL A   1      42.478  30.882  36.944  1.00  0.00     0.031 C 
ATOM     65  C   UNL A   1      38.009  34.487  34.958  1.00  0.00     0.029 A 
ATOM     66  C   UNL A   1      38.953  33.477  35.050  1.00  0.00     0.049 A 
ATOM     67  H   UNL A   1      39.379  31.929  33.680  1.00  0.00     0.167 HD
ATOM     68  C   UNL A   1      40.799  32.210  36.118  1.00  0.00     0.074 A 
ATOM     69  C   UNL A   1      41.687  31.912  37.222  1.00  0.00     0.031 C 
ATOM     70  C   UNL A   1      39.895  33.221  36.114  1.00  0.00     0.031 A 
BRANCH  57  71
ATOM     71  C   UNL A   1      36.282  33.321  31.084  1.00  0.00    -0.014 A 
ATOM     72  C   UNL A   1      36.542  33.886  29.822  1.00  0.00     0.010 A 
ATOM     73  C   UNL A   1      35.002  33.458  31.649  1.00  0.00     0.010 A 
ATOM     74  C   UNL A   1      35.559  34.637  29.174  1.00  0.00     0.020 A 
ATOM     75  C   UNL A   1      34.008  34.184  30.990  1.00  0.00     0.020 A 
ATOM     76  C   UNL A   1      34.303  34.796  29.771  1.00  0.00     0.054 A 
BRANCH  76  77
ATOM     77  S   UNL A   1      33.060  35.818  28.936  1.00  0.00     0.124 S 
ATOM     78  O   UNL A   1      32.301  36.347  30.066  1.00  0.00    -0.237 OA
ATOM     79  O   UNL A   1      33.874  36.792  28.215  1.00  0.00    -0.237 OA
ATOM     80  O   UNL A   1      32.340  34.866  28.093  1.00  0.00    -0.744 OA
ENDBRANCH  76  77
ENDBRANCH  57  71
BRANCH  58  81
ATOM     81  C   UNL A   1      43.732  28.537  35.680  1.00  0.00    -0.014 A 
ATOM     82  C   UNL A   1      43.332  27.433  36.456  1.00  0.00     0.010 A 
ATOM     83  C   UNL A   1      45.104  28.838  35.607  1.00  0.00     0.010 A 
ATOM     84  C   UNL A   1      44.269  26.644  37.130  1.00  0.00     0.020 A 
ATOM     85  C   UNL A   1      46.052  28.033  36.253  1.00  0.00     0.020 A 
ATOM     86  C   UNL A   1      45.628  26.942  37.015  1.00  0.00     0.054 A 
BRANCH  86  87
ATOM     87  S   UNL A   1      46.836  25.850  37.815  1.00  0.00     0.124 S 
ATOM     88  O   UNL A   1      48.094  26.308  37.234  1.00  0.00    -0.237 OA
ATOM     89  O   UNL A   1      46.649  26.149  39.233  1.00  0.00    -0.237 OA
ATOM     90  O   UNL A   1      46.409  24.513  37.409  1.00  0.00    -0.744 OA
ENDBRANCH  86  87
ENDBRANCH  58  81
BRANCH  70  91
ATOM     91  C   UNL A   1      39.846  34.119  37.324  1.00  0.00    -0.014 A 
ATOM     92  C   UNL A   1      40.499  35.364  37.330  1.00  0.00     0.010 A 
ATOM     93  C   UNL A   1      39.075  33.747  38.442  1.00  0.00     0.010 A 
ATOM     94  C   UNL A   1      40.399  36.212  38.438  1.00  0.00     0.020 A 
ATOM     95  C   UNL A   1      38.953  34.602  39.541  1.00  0.00     0.020 A 
ATOM     96  C   UNL A   1      39.624  35.826  39.536  1.00  0.00     0.054 A 
BRANCH  96  97
ATOM     97  S   UNL A   1      39.458  36.970  40.935  1.00  0.00     0.124 S 
ATOM     98  O   UNL A   1      38.656  38.044  40.357  1.00  0.00    -0.237 OA
ATOM     99  O   UNL A   1      38.783  36.152  41.939  1.00  0.00    -0.237 OA
ATOM    100  O   UNL A   1      40.839  37.326  41.256  1.00  0.00    -0.744 OA
ENDBRANCH  96  97
ENDBRANCH  70  91
ENDBRANCH  44  45
ENDBRANCH  37  39
ENDBRANCH  36  37
ENDBRANCH  35  36
ENDBRANCH  34  35
ENDBRANCH  33  34
ENDBRANCH  32  33
ENDBRANCH   1  32
TORSDOF 24
ENDMDL
MODEL 2
REMARK VINA RESULT:      -9.6      6.293      8.131
REMARK SMILES CCSc1ccc(-c2cc(Cl)cc3c2O[C@H](C(F)(F)F)C(C(=O)OCCOCCOCCOC(=O)c2ccc(-c4c5nc(c(-c6ccc(S(=O)(=O)[O-])cc6)c6ccc([nH]6)c(-c6ccc(S(=O)(=O)[O-])cc6)c6nc(c(-c7ccc(S(=O)(=O)[O-])cc7)c7ccc4[nH]7)C=C6)C=C5)cc2)=C3)cc1
REMARK SMILES IDX 28 1 27 2 26 3 25 4 24 5 22 6 23 7 21 8 8 9 9 10 14 11 10 12
REMARK SMILES IDX 13 13 15 14 11 15 12 16 96 17 16 18 7 19 4 20 5 21 98 22
REMARK SMILES IDX 6 23 97 24 3 25 2 26 1 27 17 28 18 29 19 30 20 31 29 32
REMARK SMILES IDX 30 33 31 34 32 35 33 36 34 37 35 38 36 39 37 40 95 41 38 42
REMARK SMILES IDX 94 43 39 44 40 45 41 46 88 47 42 48 93 49 87 50 89 51 43 52
REMARK SMILES IDX 92 53 86 54 85 55 44 57 74 58 55 59 73 60 56 61 59 62 72 63
REMARK SMILES IDX 90 64 57 65 58 66 71 68 91 69 60 70 45 71 46 72 54 73 47 74
REMARK SMILES IDX 53 75 48 76 49 77 50 78 51 79 52 80 75 81 76 82 84 83 77 84
REMARK SMILES IDX 83 85 78 86 79 87 80 88 81 89 82 90 61 91 62 92 70 93 63 94
REMARK SMILES IDX 69 95 64 96 65 97 66 98 67 99 68 100
REMARK H PARENT 89 56 59 67
REMARK Flexibility Score: inf
ROOT
ATOM      1  C   UNL A   1      36.484  20.246  25.122  1.00  0.00     0.188 C 
ENDROOT
BRANCH   1   2
ATOM      2  O   UNL A   1      35.335  20.424  24.313  1.00  0.00    -0.376 OA
BRANCH   2   3
ATOM      3  C   UNL A   1      34.136  19.801  24.767  1.00  0.00     0.202 C 
BRANCH   3   4
ATOM      4  C   UNL A   1      32.846  20.419  24.215  1.00  0.00     0.261 C 
BRANCH   4   5
ATOM      5  O   UNL A   1      31.834  20.488  25.249  1.00  0.00    -0.460 OA
BRANCH   5   6
ATOM      6  C   UNL A   1      31.425  21.737  25.558  1.00  0.00     0.338 C 
ATOM      7  O   UNL A   1      30.333  22.014  26.040  1.00  0.00    -0.246 OA
BRANCH   6   8
ATOM      8  C   UNL A   1      32.511  22.736  25.389  1.00  0.00     0.087 C 
ATOM      9  C   UNL A   1      32.119  26.854  25.495  1.00  0.00     0.026 A 
ATOM     10  C   UNL A   1      30.800  27.150  25.082  1.00  0.00     0.033 A 
ATOM     11  C   UNL A   1      32.506  25.522  25.360  1.00  0.00     0.135 A 
ATOM     12  C   UNL A   1      29.980  26.228  24.436  1.00  0.00     0.042 A 
ATOM     13  C   UNL A   1      31.771  24.673  24.505  1.00  0.00     0.019 A 
ATOM     14  O   UNL A   1      33.511  24.922  26.108  1.00  0.00    -0.475 OA
ATOM     15  Cl  UNL A   1      28.356  26.623  24.046  1.00  0.00    -0.084 Cl
ATOM     16  C   UNL A   1      30.495  25.002  24.070  1.00  0.00     0.032 A 
ATOM     17  C   UNL A   1      32.349  23.349  24.205  1.00  0.00     0.027 C 
ATOM     18  C   UNL A   1      33.063  23.564  26.550  1.00  0.00     0.316 C 
BRANCH   9  19
ATOM     19  C   UNL A   1      32.981  28.046  25.708  1.00  0.00    -0.015 A 
ATOM     20  C   UNL A   1      33.971  30.288  27.185  1.00  0.00     0.007 A 
ATOM     21  C   UNL A   1      34.642  29.068  27.209  1.00  0.00     0.015 A 
ATOM     22  C   UNL A   1      32.865  30.409  26.336  1.00  0.00     0.015 A 
ATOM     23  C   UNL A   1      34.160  27.970  26.466  1.00  0.00     0.010 A 
ATOM     24  C   UNL A   1      32.387  29.314  25.596  1.00  0.00     0.010 A 
BRANCH  20  25
ATOM     25  S   UNL A   1      34.246  31.614  28.354  1.00  0.00    -0.126 SA
BRANCH  25  26
ATOM     26  C   UNL A   1      33.332  33.050  27.702  1.00  0.00     0.071 C 
ATOM     27  C   UNL A   1      33.468  34.309  28.539  1.00  0.00     0.016 C 
ENDBRANCH  25  26
ENDBRANCH  20  25
ENDBRANCH   9  19
BRANCH  18  28
ATOM     28  C   UNL A   1      34.193  22.792  27.237  1.00  0.00     0.430 C 
ATOM     29  F   UNL A   1      34.383  23.182  28.517  1.00  0.00    -0.167 F 
ATOM     30  F   UNL A   1      33.961  21.459  27.238  1.00  0.00    -0.167 F 
ATOM     31  F   UNL A   1      35.370  22.979  26.585  1.00  0.00    -0.167 F 
ENDBRANCH  18  28
ENDBRANCH   6   8
ENDBRANCH   5   6
ENDBRANCH   4   5
ENDBRANCH   3   4
ENDBRANCH   2   3
ENDBRANCH   1   2
BRANCH   1  32
ATOM     32  C   UNL A   1      37.652  21.211  24.823  1.00  0.00     0.188 C 
BRANCH  32  33
ATOM     33  O   UNL A   1      38.716  21.352  25.757  1.00  0.00    -0.376 OA
BRANCH  33  34
ATOM     34  C   UNL A   1      39.728  20.355  25.820  1.00  0.00     0.202 C 
BRANCH  34  35
ATOM     35  C   UNL A   1      40.676  20.364  27.023  1.00  0.00     0.261 C 
BRANCH  35  36
ATOM     36  O   UNL A   1      41.924  19.688  26.782  1.00  0.00    -0.460 OA
BRANCH  36  37
ATOM     37  C   UNL A   1      42.759  20.318  25.921  1.00  0.00     0.338 C 
ATOM     38  O   UNL A   1      43.169  19.891  24.854  1.00  0.00    -0.246 OA
BRANCH  37  39
ATOM     39  C   UNL A   1      42.999  21.711  26.350  1.00  0.00     0.060 A 
ATOM     40  C   UNL A   1      42.803  22.717  25.401  1.00  0.00     0.016 A 
ATOM     41  C   UNL A   1      43.506  22.028  27.614  1.00  0.00     0.016 A 
ATOM     42  C   UNL A   1      43.146  24.035  25.702  1.00  0.00     0.010 A 
ATOM     43  C   UNL A   1      43.854  23.356  27.911  1.00  0.00     0.010 A 
ATOM     44  C   UNL A   1      43.691  24.368  26.951  1.00  0.00    -0.014 A 
BRANCH  44  45
ATOM     45  C   UNL A   1      44.222  25.745  27.161  1.00  0.00     0.031 A 
ATOM     46  C   UNL A   1      43.418  26.714  27.974  1.00  0.00     0.074 A 
ATOM     47  C   UNL A   1      45.424  26.124  26.686  1.00  0.00     0.049 A 
ATOM     48  N   UNL A   1      43.727  27.925  28.360  1.00  0.00    -0.248 NA
ATOM     49  C   UNL A   1      42.081  26.263  28.387  1.00  0.00     0.031 C 
ATOM     50  C   UNL A   1      46.294  25.286  25.876  1.00  0.00     0.029 A 
ATOM     51  N   UNL A   1      46.146  27.282  26.860  1.00  0.00    -0.354 N 
ATOM     52  C   UNL A   1      42.598  28.407  29.009  1.00  0.00     0.074 A 
ATOM     53  C   UNL A   1      41.619  27.339  29.005  1.00  0.00     0.031 C 
ATOM     54  C   UNL A   1      47.482  25.898  25.729  1.00  0.00     0.029 A 
ATOM     55  C   UNL A   1      47.433  27.208  26.370  1.00  0.00     0.049 A 
ATOM     56  H   UNL A   1      45.779  28.086  27.293  1.00  0.00     0.167 HD
ATOM     57  C   UNL A   1      42.376  29.643  29.516  1.00  0.00     0.031 A 
ATOM     58  C   UNL A   1      48.457  28.087  26.441  1.00  0.00     0.031 A 
ATOM     59  C   UNL A   1      43.325  30.723  29.468  1.00  0.00     0.049 A 
ATOM     60  C   UNL A   1      48.208  29.442  27.057  1.00  0.00     0.074 A 
ATOM     61  C   UNL A   1      43.181  32.015  29.941  1.00  0.00     0.029 A 
ATOM     62  N   UNL A   1      44.586  30.646  28.897  1.00  0.00    -0.354 N 
ATOM     63  N   UNL A   1      47.107  29.911  27.595  1.00  0.00    -0.248 NA
ATOM     64  C   UNL A   1      49.323  30.401  27.041  1.00  0.00     0.031 C 
ATOM     65  C   UNL A   1      44.341  32.730  29.622  1.00  0.00     0.029 A 
ATOM     66  C   UNL A   1      45.235  31.864  29.013  1.00  0.00     0.049 A 
ATOM     67  H   UNL A   1      44.964  29.843  28.470  1.00  0.00     0.167 HD
ATOM     68  C   UNL A   1      47.398  31.215  27.987  1.00  0.00     0.074 A 
ATOM     69  C   UNL A   1      48.782  31.456  27.637  1.00  0.00     0.031 C 
ATOM     70  C   UNL A   1      46.592  32.122  28.591  1.00  0.00     0.031 A 
BRANCH  57  71
ATOM     71  C   UNL A   1      40.998  29.905  30.061  1.00  0.00    -0.014 A 
ATOM     72  C   UNL A   1      39.944  30.328  29.233  1.00  0.00     0.010 A 
ATOM     73  C   UNL A   1      40.779  29.777  31.445  1.00  0.00     0.010 A 
ATOM     74  C   UNL A   1      38.714  30.686  29.790  1.00  0.00     0.020 A 
ATOM     75  C   UNL A   1      39.542  30.107  32.001  1.00  0.00     0.020 A 
ATOM     76  C   UNL A   1      38.527  30.590  31.173  1.00  0.00     0.054 A 
BRANCH  76  77
ATOM     77  S   UNL A   1      36.940  31.110  31.881  1.00  0.00     0.124 S 
ATOM     78  O   UNL A   1      36.640  32.303  31.093  1.00  0.00    -0.237 OA
ATOM     79  O   UNL A   1      36.080  29.957  31.626  1.00  0.00    -0.237 OA
ATOM     80  O   UNL A   1      37.252  31.353  33.288  1.00  0.00    -0.744 OA
ENDBRANCH  76  77
ENDBRANCH  57  71
BRANCH  58  81
ATOM     81  C   UNL A   1      49.819  27.710  25.952  1.00  0.00    -0.014 A 
ATOM     82  C   UNL A   1      50.029  27.441  24.586  1.00  0.00     0.010 A 
ATOM     83  C   UNL A   1      50.922  27.641  26.822  1.00  0.00     0.010 A 
ATOM     84  C   UNL A   1      51.301  27.124  24.099  1.00  0.00     0.020 A 
ATOM     85  C   UNL A   1      52.205  27.355  26.336  1.00  0.00     0.020 A 
ATOM     86  C   UNL A   1      52.386  27.093  24.976  1.00  0.00     0.054 A 
BRANCH  86  87
ATOM     87  S   UNL A   1      54.044  26.777  24.310  1.00  0.00     0.124 S 
ATOM     88  O   UNL A   1      54.136  25.323  24.395  1.00  0.00    -0.237 OA
ATOM     89  O   UNL A   1      53.957  27.327  22.959  1.00  0.00    -0.237 OA
ATOM     90  O   UNL A   1      54.922  27.516  25.216  1.00  0.00    -0.744 OA
ENDBRANCH  86  87
ENDBRANCH  58  81
BRANCH  70  91
ATOM     91  C   UNL A   1      47.165  33.487  28.875  1.00  0.00    -0.014 A 
ATOM     92  C   UNL A   1      47.041  34.533  27.944  1.00  0.00     0.010 A 
ATOM     93  C   UNL A   1      47.771  33.748  30.118  1.00  0.00     0.010 A 
ATOM     94  C   UNL A   1      47.529  35.810  28.243  1.00  0.00     0.020 A 
ATOM     95  C   UNL A   1      48.237  35.028  30.431  1.00  0.00     0.020 A 
ATOM     96  C   UNL A   1      48.121  36.050  29.486  1.00  0.00     0.054 A 
BRANCH  96  97
ATOM     97  S   UNL A   1      48.690  37.729  29.875  1.00  0.00     0.124 S 
ATOM     98  O   UNL A   1      48.771  38.337  28.550  1.00  0.00    -0.237 OA
ATOM     99  O   UNL A   1      47.624  38.237  30.735  1.00  0.00    -0.237 OA
ATOM    100  O   UNL A   1      49.972  37.514  30.542  1.00  0.00    -0.744 OA
ENDBRANCH  96  97
ENDBRANCH  70  91
ENDBRANCH  44  45
ENDBRANCH  37  39
ENDBRANCH  36  37
ENDBRANCH  35  36
ENDBRANCH  34  35
ENDBRANCH  33  34
ENDBRANCH  32  33
ENDBRANCH   1  32
TORSDOF 24
ENDMDL
MODEL 3
REMARK VINA RESULT:      -9.6      5.708     11.404
REMARK SMILES CCSc1ccc(-c2cc(Cl)cc3c2O[C@H](C(F)(F)F)C(C(=O)OCCOCCOCCOC(=O)c2ccc(-c4c5nc(c(-c6ccc(S(=O)(=O)[O-])cc6)c6ccc([nH]6)c(-c6ccc(S(=O)(=O)[O-])cc6)c6nc(c(-c7ccc(S(=O)(=O)[O-])cc7)c7ccc4[nH]7)C=C6)C=C5)cc2)=C3)cc1
REMARK SMILES IDX 28 1 27 2 26 3 25 4 24 5 22 6 23 7 21 8 8 9 9 10 14 11 10 12
REMARK SMILES IDX 13 13 15 14 11 15 12 16 96 17 16 18 7 19 4 20 5 21 98 22
REMARK SMILES IDX 6 23 97 24 3 25 2 26 1 27 17 28 18 29 19 30 20 31 29 32
REMARK SMILES IDX 30 33 31 34 32 35 33 36 34 37 35 38 36 39 37 40 95 41 38 42
REMARK SMILES IDX 94 43 39 44 40 45 41 46 88 47 42 48 93 49 87 50 89 51 43 52
REMARK SMILES IDX 92 53 86 54 85 55 44 57 74 58 55 59 73 60 56 61 59 62 72 63
REMARK SMILES IDX 90 64 57 65 58 66 71 68 91 69 60 70 45 71 46 72 54 73 47 74
REMARK SMILES IDX 53 75 48 76 49 77 50 78 51 79 52 80 75 81 76 82 84 83 77 84
REMARK SMILES IDX 83 85 78 86 79 87 80 88 81 89 82 90 61 91 62 92 70 93 63 94
REMARK SMILES IDX 69 95 64 96 65 97 66 98 67 99 68 100
REMARK H PARENT 89 56 59 67
REMARK Flexibility Score: inf
ROOT
ATOM      1  C   UNL A   1      44.547  25.304  26.872  1.00  0.00     0.188 C 
ENDROOT
BRANCH   1   2
ATOM      2  O   UNL A   1      45.006  24.608  28.018  1.00  0.00    -0.376 OA
BRANCH   2   3
ATOM      3  C   UNL A   1      46.361  24.164  27.990  1.00  0.00     0.202 C 
BRANCH   3   4
ATOM      4  C   UNL A   1      47.307  25.053  27.175  1.00  0.00     0.261 C 
BRANCH   4   5
ATOM      5  O   UNL A   1      47.648  26.247  27.920  1.00  0.00    -0.460 OA
BRANCH   5   6
ATOM      6  C   UNL A   1      48.178  26.021  29.141  1.00  0.00     0.338 C 
ATOM      7  O   UNL A   1      49.176  25.342  29.353  1.00  0.00    -0.246 OA
BRANCH   6   8
ATOM      8  C   UNL A   1      47.503  26.818  30.198  1.00  0.00     0.087 C 
ATOM      9  C   UNL A   1      44.737  29.842  29.626  1.00  0.00     0.026 A 
ATOM     10  C   UNL A   1      45.009  30.411  28.361  1.00  0.00     0.033 A 
ATOM     11  C   UNL A   1      45.673  28.916  30.082  1.00  0.00     0.135 A 
ATOM     12  C   UNL A   1      46.200  30.197  27.671  1.00  0.00     0.042 A 
ATOM     13  C   UNL A   1      46.959  28.891  29.500  1.00  0.00     0.019 A 
ATOM     14  O   UNL A   1      45.396  27.915  31.004  1.00  0.00    -0.475 OA
ATOM     15  Cl  UNL A   1      46.427  30.843  26.097  1.00  0.00    -0.084 Cl
ATOM     16  C   UNL A   1      47.221  29.497  28.280  1.00  0.00     0.032 A 
ATOM     17  C   UNL A   1      47.989  28.070  30.166  1.00  0.00     0.027 C 
ATOM     18  C   UNL A   1      46.029  26.633  30.559  1.00  0.00     0.316 C 
BRANCH   9  19
ATOM     19  C   UNL A   1      43.680  30.540  30.403  1.00  0.00    -0.015 A 
ATOM     20  C   UNL A   1      42.237  32.836  31.318  1.00  0.00     0.007 A 
ATOM     21  C   UNL A   1      41.772  32.085  30.242  1.00  0.00     0.015 A 
ATOM     22  C   UNL A   1      43.369  32.371  31.999  1.00  0.00     0.015 A 
ATOM     23  C   UNL A   1      42.477  30.945  29.804  1.00  0.00     0.010 A 
ATOM     24  C   UNL A   1      44.069  31.233  31.562  1.00  0.00     0.010 A 
BRANCH  20  25
ATOM     25  S   UNL A   1      41.668  34.483  31.722  1.00  0.00    -0.126 SA
BRANCH  25  26
ATOM     26  C   UNL A   1      39.848  34.401  31.694  1.00  0.00     0.071 C 
ATOM     27  C   UNL A   1      39.232  34.658  30.331  1.00  0.00     0.016 C 
ENDBRANCH  25  26
ENDBRANCH  20  25
ENDBRANCH   9  19
BRANCH  18  28
ATOM     28  C   UNL A   1      45.895  25.538  31.620  1.00  0.00     0.430 C 
ATOM     29  F   UNL A   1      45.374  24.395  31.122  1.00  0.00    -0.167 F 
ATOM     30  F   UNL A   1      47.087  25.240  32.187  1.00  0.00    -0.167 F 
ATOM     31  F   UNL A   1      45.078  25.942  32.629  1.00  0.00    -0.167 F 
ENDBRANCH  18  28
ENDBRANCH   6   8
ENDBRANCH   5   6
ENDBRANCH   4   5
ENDBRANCH   3   4
ENDBRANCH   2   3
ENDBRANCH   1   2
BRANCH   1  32
ATOM     32  C   UNL A   1      44.244  26.802  27.094  1.00  0.00     0.188 C 
BRANCH  32  33
ATOM     33  O   UNL A   1      43.943  27.640  25.984  1.00  0.00    -0.376 OA
BRANCH  33  34
ATOM     34  C   UNL A   1      42.993  27.207  25.019  1.00  0.00     0.202 C 
BRANCH  34  35
ATOM     35  C   UNL A   1      42.071  26.042  25.387  1.00  0.00     0.261 C 
BRANCH  35  36
ATOM     36  O   UNL A   1      40.739  26.449  25.752  1.00  0.00    -0.460 OA
BRANCH  36  37
ATOM     37  C   UNL A   1      40.170  25.725  26.745  1.00  0.00     0.338 C 
ATOM     38  O   UNL A   1      40.024  24.513  26.776  1.00  0.00    -0.246 OA
BRANCH  37  39
ATOM     39  C   UNL A   1      39.884  26.578  27.917  1.00  0.00     0.060 A 
ATOM     40  C   UNL A   1      40.438  27.860  27.925  1.00  0.00     0.016 A 
ATOM     41  C   UNL A   1      39.182  26.108  29.030  1.00  0.00     0.016 A 
ATOM     42  C   UNL A   1      40.321  28.660  29.062  1.00  0.00     0.010 A 
ATOM     43  C   UNL A   1      39.071  26.916  30.174  1.00  0.00     0.010 A 
ATOM     44  C   UNL A   1      39.653  28.194  30.204  1.00  0.00    -0.014 A 
BRANCH  44  45
ATOM     45  C   UNL A   1      39.720  28.999  31.457  1.00  0.00     0.031 A 
ATOM     46  C   UNL A   1      40.952  28.911  32.308  1.00  0.00     0.074 A 
ATOM     47  C   UNL A   1      38.732  29.839  31.817  1.00  0.00     0.049 A 
ATOM     48  N   UNL A   1      41.263  29.588  33.382  1.00  0.00    -0.248 NA
ATOM     49  C   UNL A   1      41.951  27.911  31.903  1.00  0.00     0.031 C 
ATOM     50  C   UNL A   1      37.485  30.008  31.087  1.00  0.00     0.029 A 
ATOM     51  N   UNL A   1      38.640  30.748  32.846  1.00  0.00    -0.354 N 
ATOM     52  C   UNL A   1      42.468  29.054  33.821  1.00  0.00     0.074 A 
ATOM     53  C   UNL A   1      42.850  28.032  32.867  1.00  0.00     0.031 C 
ATOM     54  C   UNL A   1      36.808  31.046  31.608  1.00  0.00     0.029 A 
ATOM     55  C   UNL A   1      37.536  31.570  32.759  1.00  0.00     0.049 A 
ATOM     56  H   UNL A   1      39.299  30.805  33.575  1.00  0.00     0.167 HD
ATOM     57  C   UNL A   1      43.167  29.350  34.943  1.00  0.00     0.031 A 
ATOM     58  C   UNL A   1      37.162  32.629  33.510  1.00  0.00     0.031 A 
ATOM     59  C   UNL A   1      42.759  30.323  35.921  1.00  0.00     0.049 A 
ATOM     60  C   UNL A   1      37.982  32.979  34.728  1.00  0.00     0.074 A 
ATOM     61  C   UNL A   1      43.395  30.676  37.098  1.00  0.00     0.029 A 
ATOM     62  N   UNL A   1      41.600  31.081  35.850  1.00  0.00    -0.354 N 
ATOM     63  N   UNL A   1      39.077  32.411  35.174  1.00  0.00    -0.248 NA
ATOM     64  C   UNL A   1      37.496  34.085  35.567  1.00  0.00     0.031 C 
ATOM     65  C   UNL A   1      42.601  31.623  37.756  1.00  0.00     0.029 A 
ATOM     66  C   UNL A   1      41.506  31.909  36.956  1.00  0.00     0.049 A 
ATOM     67  H   UNL A   1      40.940  31.036  35.120  1.00  0.00     0.167 HD
ATOM     68  C   UNL A   1      39.415  33.092  36.339  1.00  0.00     0.074 A 
ATOM     69  C   UNL A   1      38.417  34.125  36.523  1.00  0.00     0.031 C 
ATOM     70  C   UNL A   1      40.465  32.885  37.173  1.00  0.00     0.031 A 
BRANCH  57  71
ATOM     71  C   UNL A   1      44.389  28.514  35.209  1.00  0.00    -0.014 A 
ATOM     72  C   UNL A   1      45.640  28.837  34.655  1.00  0.00     0.010 A 
ATOM     73  C   UNL A   1      44.260  27.348  35.986  1.00  0.00     0.010 A 
ATOM     74  C   UNL A   1      46.724  27.970  34.816  1.00  0.00     0.020 A 
ATOM     75  C   UNL A   1      45.348  26.494  36.172  1.00  0.00     0.020 A 
ATOM     76  C   UNL A   1      46.565  26.794  35.558  1.00  0.00     0.054 A 
BRANCH  76  77
ATOM     77  S   UNL A   1      47.970  25.658  35.710  1.00  0.00     0.124 S 
ATOM     78  O   UNL A   1      49.007  26.366  34.964  1.00  0.00    -0.237 OA
ATOM     79  O   UNL A   1      48.173  25.587  37.154  1.00  0.00    -0.237 OA
ATOM     80  O   UNL A   1      47.487  24.426  35.090  1.00  0.00    -0.744 OA
ENDBRANCH  76  77
ENDBRANCH  57  71
BRANCH  58  81
ATOM     81  C   UNL A   1      35.981  33.460  33.121  1.00  0.00    -0.014 A 
ATOM     82  C   UNL A   1      34.683  33.056  33.489  1.00  0.00     0.010 A 
ATOM     83  C   UNL A   1      36.129  34.665  32.412  1.00  0.00     0.010 A 
ATOM     84  C   UNL A   1      33.567  33.835  33.170  1.00  0.00     0.020 A 
ATOM     85  C   UNL A   1      35.018  35.466  32.117  1.00  0.00     0.020 A 
ATOM     86  C   UNL A   1      33.741  35.043  32.494  1.00  0.00     0.054 A 
BRANCH  86  87
ATOM     87  S   UNL A   1      32.292  36.088  32.175  1.00  0.00     0.124 S 
ATOM     88  O   UNL A   1      31.189  35.196  32.521  1.00  0.00    -0.237 OA
ATOM     89  O   UNL A   1      32.503  37.213  33.084  1.00  0.00    -0.237 OA
ATOM     90  O   UNL A   1      32.413  36.415  30.756  1.00  0.00    -0.744 OA
ENDBRANCH  86  87
ENDBRANCH  58  81
BRANCH  70  91
ATOM     91  C   UNL A   1      40.570  33.761  38.395  1.00  0.00    -0.014 A 
ATOM     92  C   UNL A   1      39.869  33.449  39.574  1.00  0.00     0.010 A 
ATOM     93  C   UNL A   1      41.437  34.870  38.390  1.00  0.00     0.010 A 
ATOM     94  C   UNL A   1      40.019  34.239  40.718  1.00  0.00     0.020 A 
ATOM     95  C   UNL A   1      41.608  35.647  39.539  1.00  0.00     0.020 A 
ATOM     96  C   UNL A   1      40.890  35.332  40.694  1.00  0.00     0.054 A 
BRANCH  96  97
ATOM     97  S   UNL A   1      41.116  36.305  42.209  1.00  0.00     0.124 S 
ATOM     98  O   UNL A   1      39.865  36.055  42.921  1.00  0.00    -0.237 OA
ATOM     99  O   UNL A   1      42.307  35.703  42.803  1.00  0.00    -0.237 OA
ATOM    100  O   UNL A   1      41.293  37.670  41.721  1.00  0.00    -0.744 OA
ENDBRANCH  96  97
ENDBRANCH  70  91
ENDBRANCH  44  45
ENDBRANCH  37  39
ENDBRANCH  36  37
ENDBRANCH  35  36
ENDBRANCH  34  35
ENDBRANCH  33  34
ENDBRANCH  32  33
ENDBRANCH   1  32
TORSDOF 24
ENDMDL
