MODEL 1
REMARK VINA RESULT:      -6.4      0.000      0.000
REMARK SMILES CC(C)C[C@H](NC(=O)CNC(=O)[C@@H]([NH3+])C(C)C)C(=O)OCCOCCOCCOC(=O)c1ccc(-c2c3nc(c(-c4ccc(S(=O)(=O)[O-])cc4)c4ccc([nH]4)c(-c4ccc(S(=O)(=O)[O-])cc4)c4nc(c(-c5ccc(S(=O)(=O)[O-])cc5)c5ccc2[nH]5)C=C4)C=C3)cc1
REMARK SMILES IDX 24 1 23 2 22 3 21 4 20 5 18 6 19 7 5 8 4 9 2 10 1 11 3 12
REMARK SMILES IDX 6 13 7 14 8 16 9 17 10 18 11 19 12 21 13 22 14 23 15 27
REMARK SMILES IDX 16 28 17 29 25 30 26 31 27 32 28 33 29 34 30 35 31 36 32 37
REMARK SMILES IDX 33 38 91 39 34 40 90 41 35 42 36 43 37 44 84 45 38 46 89 47
REMARK SMILES IDX 83 48 85 49 39 50 88 51 82 52 81 53 40 55 70 56 51 57 69 58
REMARK SMILES IDX 52 59 55 60 68 61 86 62 53 63 54 64 67 66 87 67 56 68 41 69
REMARK SMILES IDX 42 70 50 71 43 72 49 73 44 74 45 75 46 76 47 77 48 78 71 79
REMARK SMILES IDX 72 80 80 81 73 82 79 83 74 84 75 85 76 86 77 87 78 88 57 89
REMARK SMILES IDX 58 90 66 91 59 92 65 93 60 94 61 95 62 96 63 97 64 98
REMARK H PARENT 6 15 10 20 14 24 14 25 14 26 85 54 55 65
REMARK Flexibility Score: inf
ROOT
ATOM      1  C   UNL A   1      39.231  31.506  35.607  1.00  0.00     0.188 C 
ENDROOT
BRANCH   1   2
ATOM      2  O   UNL A   1      38.997  32.359  34.505  1.00  0.00    -0.376 OA
BRANCH   2   3
ATOM      3  C   UNL A   1      37.772  32.227  33.813  1.00  0.00     0.202 C 
BRANCH   3   4
ATOM      4  C   UNL A   1      37.264  33.288  32.826  1.00  0.00     0.261 C 
BRANCH   4   5
ATOM      5  O   UNL A   1      36.391  32.896  31.768  1.00  0.00    -0.462 OA
BRANCH   5   6
ATOM      6  C   UNL A   1      36.973  32.336  30.671  1.00  0.00     0.328 C 
ATOM      7  O   UNL A   1      38.090  32.606  30.247  1.00  0.00    -0.250 OA
BRANCH   6   8
ATOM      8  C   UNL A   1      35.998  31.420  29.936  1.00  0.00     0.192 C 
BRANCH   8   9
ATOM      9  C   UNL A   1      36.735  30.913  28.691  1.00  0.00     0.040 C 
BRANCH   9  10
ATOM     10  C   UNL A   1      37.370  29.503  28.656  1.00  0.00    -0.015 C 
ATOM     11  C   UNL A   1      38.816  29.470  28.149  1.00  0.00     0.007 C 
ATOM     12  C   UNL A   1      37.419  28.949  30.087  1.00  0.00     0.007 C 
ENDBRANCH   9  10
ENDBRANCH   8   9
BRANCH   8  13
ATOM     13  N   UNL A   1      34.670  32.037  29.663  1.00  0.00    -0.341 N 
ATOM     14  C   UNL A   1      34.330  32.561  28.430  1.00  0.00     0.240 C 
ATOM     15  H   UNL A   1      34.007  32.074  30.390  1.00  0.00     0.164 HD
ATOM     16  O   UNL A   1      33.722  31.851  27.626  1.00  0.00    -0.273 OA
BRANCH  14  17
ATOM     17  C   UNL A   1      34.750  33.985  28.031  1.00  0.00     0.216 C 
BRANCH  17  18
ATOM     18  N   UNL A   1      33.695  34.973  28.113  1.00  0.00    -0.342 N 
ATOM     19  C   UNL A   1      33.083  35.624  29.129  1.00  0.00     0.278 C 
ATOM     20  H   UNL A   1      33.342  35.229  27.229  1.00  0.00     0.164 HD
ATOM     21  O   UNL A   1      32.190  36.401  28.763  1.00  0.00    -0.268 OA
BRANCH  19  22
ATOM     22  C   UNL A   1      33.344  35.379  30.656  1.00  0.00     0.273 C 
BRANCH  22  23
ATOM     23  N   UNL A   1      34.775  35.243  30.996  1.00  0.00    -0.347 N 
ATOM     24  H   UNL A   1      35.319  35.134  30.142  1.00  0.00     0.345 HD
ATOM     25  H   UNL A   1      34.907  34.424  31.590  1.00  0.00     0.345 HD
ATOM     26  H   UNL A   1      35.087  36.077  31.495  1.00  0.00     0.345 HD
ENDBRANCH  22  23
BRANCH  22  27
ATOM     27  C   UNL A   1      32.630  36.436  31.532  1.00  0.00     0.051 C 
ATOM     28  C   UNL A   1      31.652  35.775  32.518  1.00  0.00     0.014 C 
ATOM     29  C   UNL A   1      33.623  37.267  32.357  1.00  0.00     0.014 C 
ENDBRANCH  22  27
ENDBRANCH  19  22
ENDBRANCH  17  18
ENDBRANCH  14  17
ENDBRANCH   8  13
ENDBRANCH   6   8
ENDBRANCH   5   6
ENDBRANCH   4   5
ENDBRANCH   3   4
ENDBRANCH   2   3
ENDBRANCH   1   2
BRANCH   1  30
ATOM     30  C   UNL A   1      39.412  30.039  35.170  1.00  0.00     0.188 C 
BRANCH  30  31
ATOM     31  O   UNL A   1      40.726  29.537  34.988  1.00  0.00    -0.376 OA
BRANCH  31  32
ATOM     32  C   UNL A   1      41.079  29.007  33.711  1.00  0.00     0.202 C 
BRANCH  32  33
ATOM     33  C   UNL A   1      40.271  29.268  32.411  1.00  0.00     0.261 C 
BRANCH  33  34
ATOM     34  O   UNL A   1      40.179  30.615  31.923  1.00  0.00    -0.460 OA
BRANCH  34  35
ATOM     35  C   UNL A   1      41.312  31.149  31.399  1.00  0.00     0.338 C 
ATOM     36  O   UNL A   1      41.869  30.808  30.369  1.00  0.00    -0.246 OA
BRANCH  35  37
ATOM     37  C   UNL A   1      41.623  32.399  32.142  1.00  0.00     0.060 A 
ATOM     38  C   UNL A   1      42.701  32.396  33.047  1.00  0.00     0.016 A 
ATOM     39  C   UNL A   1      40.902  33.572  31.921  1.00  0.00     0.016 A 
ATOM     40  C   UNL A   1      43.050  33.554  33.743  1.00  0.00     0.010 A 
ATOM     41  C   UNL A   1      41.217  34.719  32.659  1.00  0.00     0.010 A 
ATOM     42  C   UNL A   1      42.268  34.704  33.598  1.00  0.00    -0.014 A 
BRANCH  42  43
ATOM     43  C   UNL A   1      42.334  35.776  34.622  1.00  0.00     0.031 A 
ATOM     44  C   UNL A   1      43.142  37.001  34.278  1.00  0.00     0.074 A 
ATOM     45  C   UNL A   1      41.727  35.683  35.818  1.00  0.00     0.049 A 
ATOM     46  N   UNL A   1      43.495  38.006  35.034  1.00  0.00    -0.248 NA
ATOM     47  C   UNL A   1      43.628  37.089  32.890  1.00  0.00     0.031 C 
ATOM     48  C   UNL A   1      40.855  34.595  36.249  1.00  0.00     0.029 A 
ATOM     49  N   UNL A   1      41.779  36.525  36.903  1.00  0.00    -0.354 N 
ATOM     50  C   UNL A   1      44.269  38.829  34.223  1.00  0.00     0.074 A 
ATOM     51  C   UNL A   1      44.350  38.196  32.926  1.00  0.00     0.031 C 
ATOM     52  C   UNL A   1      40.473  34.821  37.520  1.00  0.00     0.029 A 
ATOM     53  C   UNL A   1      41.112  36.045  38.005  1.00  0.00     0.049 A 
ATOM     54  H   UNL A   1      42.248  37.391  36.891  1.00  0.00     0.167 HD
ATOM     55  C   UNL A   1      44.866  40.003  34.530  1.00  0.00     0.031 A 
ATOM     56  C   UNL A   1      41.057  36.520  39.268  1.00  0.00     0.031 A 
ATOM     57  C   UNL A   1      44.801  40.618  35.827  1.00  0.00     0.049 A 
ATOM     58  C   UNL A   1      41.802  37.786  39.618  1.00  0.00     0.074 A 
ATOM     59  C   UNL A   1      45.366  41.810  36.243  1.00  0.00     0.029 A 
ATOM     60  N   UNL A   1      44.135  40.086  36.922  1.00  0.00    -0.354 N 
ATOM     61  N   UNL A   1      42.533  38.556  38.846  1.00  0.00    -0.248 NA
ATOM     62  C   UNL A   1      41.710  38.249  41.010  1.00  0.00     0.031 C 
ATOM     63  C   UNL A   1      45.098  41.966  37.605  1.00  0.00     0.029 A 
ATOM     64  C   UNL A   1      44.298  40.913  38.020  1.00  0.00     0.049 A 
ATOM     65  H   UNL A   1      43.623  39.246  36.919  1.00  0.00     0.167 HD
ATOM     66  C   UNL A   1      42.955  39.613  39.649  1.00  0.00     0.074 A 
ATOM     67  C   UNL A   1      42.394  39.385  40.965  1.00  0.00     0.031 C 
ATOM     68  C   UNL A   1      43.728  40.679  39.324  1.00  0.00     0.031 A 
BRANCH  55  69
ATOM     69  C   UNL A   1      45.693  40.660  33.457  1.00  0.00    -0.014 A 
ATOM     70  C   UNL A   1      47.040  40.310  33.246  1.00  0.00     0.010 A 
ATOM     71  C   UNL A   1      45.107  41.643  32.639  1.00  0.00     0.010 A 
ATOM     72  C   UNL A   1      47.796  40.965  32.272  1.00  0.00     0.020 A 
ATOM     73  C   UNL A   1      45.850  42.276  31.640  1.00  0.00     0.020 A 
ATOM     74  C   UNL A   1      47.197  41.947  31.477  1.00  0.00     0.054 A 
BRANCH  74  75
ATOM     75  S   UNL A   1      48.200  42.774  30.212  1.00  0.00     0.124 S 
ATOM     76  O   UNL A   1      47.181  43.465  29.425  1.00  0.00    -0.237 OA
ATOM     77  O   UNL A   1      49.071  43.636  31.008  1.00  0.00    -0.237 OA
ATOM     78  O   UNL A   1      48.873  41.673  29.528  1.00  0.00    -0.744 OA
ENDBRANCH  74  75
ENDBRANCH  55  69
BRANCH  56  79
ATOM     79  C   UNL A   1      40.288  35.779  40.308  1.00  0.00    -0.014 A 
ATOM     80  C   UNL A   1      38.920  36.034  40.506  1.00  0.00     0.010 A 
ATOM     81  C   UNL A   1      40.921  34.806  41.104  1.00  0.00     0.010 A 
ATOM     82  C   UNL A   1      38.200  35.334  41.480  1.00  0.00     0.020 A 
ATOM     83  C   UNL A   1      40.199  34.083  42.058  1.00  0.00     0.020 A 
ATOM     84  C   UNL A   1      38.843  34.355  42.245  1.00  0.00     0.054 A 
BRANCH  84  85
ATOM     85  S   UNL A   1      37.870  33.408  43.448  1.00  0.00     0.124 S 
ATOM     86  O   UNL A   1      37.105  32.512  42.588  1.00  0.00    -0.237 OA
ATOM     87  O   UNL A   1      38.908  32.776  44.259  1.00  0.00    -0.237 OA
ATOM     88  O   UNL A   1      37.088  34.432  44.139  1.00  0.00    -0.744 OA
ENDBRANCH  84  85
ENDBRANCH  56  79
BRANCH  68  89
ATOM     89  C   UNL A   1      43.972  41.725  40.382  1.00  0.00    -0.014 A 
ATOM     90  C   UNL A   1      43.094  42.807  40.570  1.00  0.00     0.010 A 
ATOM     91  C   UNL A   1      45.062  41.570  41.260  1.00  0.00     0.010 A 
ATOM     92  C   UNL A   1      43.317  43.727  41.600  1.00  0.00     0.020 A 
ATOM     93  C   UNL A   1      45.271  42.469  42.309  1.00  0.00     0.020 A 
ATOM     94  C   UNL A   1      44.402  43.550  42.465  1.00  0.00     0.054 A 
BRANCH  94  95
ATOM     95  S   UNL A   1      44.637  44.727  43.826  1.00  0.00     0.124 S 
ATOM     96  O   UNL A   1      44.817  45.987  43.112  1.00  0.00    -0.237 OA
ATOM     97  O   UNL A   1      43.388  44.602  44.574  1.00  0.00    -0.237 OA
ATOM     98  O   UNL A   1      45.823  44.228  44.517  1.00  0.00    -0.744 OA
ENDBRANCH  94  95
ENDBRANCH  68  89
ENDBRANCH  42  43
ENDBRANCH  35  37
ENDBRANCH  34  35
ENDBRANCH  33  34
ENDBRANCH  32  33
ENDBRANCH  31  32
ENDBRANCH  30  31
ENDBRANCH   1  30
TORSDOF 28
ENDMDL
MODEL 2
REMARK VINA RESULT:      -6.0      8.675     16.350
REMARK SMILES CC(C)C[C@H](NC(=O)CNC(=O)[C@@H]([NH3+])C(C)C)C(=O)OCCOCCOCCOC(=O)c1ccc(-c2c3nc(c(-c4ccc(S(=O)(=O)[O-])cc4)c4ccc([nH]4)c(-c4ccc(S(=O)(=O)[O-])cc4)c4nc(c(-c5ccc(S(=O)(=O)[O-])cc5)c5ccc2[nH]5)C=C4)C=C3)cc1
REMARK SMILES IDX 24 1 23 2 22 3 21 4 20 5 18 6 19 7 5 8 4 9 2 10 1 11 3 12
REMARK SMILES IDX 6 13 7 14 8 16 9 17 10 18 11 19 12 21 13 22 14 23 15 27
REMARK SMILES IDX 16 28 17 29 25 30 26 31 27 32 28 33 29 34 30 35 31 36 32 37
REMARK SMILES IDX 33 38 91 39 34 40 90 41 35 42 36 43 37 44 84 45 38 46 89 47
REMARK SMILES IDX 83 48 85 49 39 50 88 51 82 52 81 53 40 55 70 56 51 57 69 58
REMARK SMILES IDX 52 59 55 60 68 61 86 62 53 63 54 64 67 66 87 67 56 68 41 69
REMARK SMILES IDX 42 70 50 71 43 72 49 73 44 74 45 75 46 76 47 77 48 78 71 79
REMARK SMILES IDX 72 80 80 81 73 82 79 83 74 84 75 85 76 86 77 87 78 88 57 89
REMARK SMILES IDX 58 90 66 91 59 92 65 93 60 94 61 95 62 96 63 97 64 98
REMARK H PARENT 6 15 10 20 14 24 14 25 14 26 85 54 55 65
REMARK Flexibility Score: inf
ROOT
ATOM      1  C   UNL A   1      44.100  42.481  25.859  1.00  0.00     0.188 C 
ENDROOT
BRANCH   1   2
ATOM      2  O   UNL A   1      43.648  43.168  24.709  1.00  0.00    -0.376 OA
BRANCH   2   3
ATOM      3  C   UNL A   1      42.672  42.540  23.903  1.00  0.00     0.202 C 
BRANCH   3   4
ATOM      4  C   UNL A   1      42.004  43.247  22.715  1.00  0.00     0.261 C 
BRANCH   4   5
ATOM      5  O   UNL A   1      42.821  43.866  21.722  1.00  0.00    -0.462 OA
BRANCH   5   6
ATOM      6  C   UNL A   1      43.142  43.109  20.636  1.00  0.00     0.328 C 
ATOM      7  O   UNL A   1      43.005  41.895  20.554  1.00  0.00    -0.250 OA
BRANCH   6   8
ATOM      8  C   UNL A   1      43.836  43.946  19.566  1.00  0.00     0.192 C 
BRANCH   8   9
ATOM      9  C   UNL A   1      42.744  44.383  18.581  1.00  0.00     0.040 C 
BRANCH   9  10
ATOM     10  C   UNL A   1      43.098  45.133  17.276  1.00  0.00    -0.015 C 
ATOM     11  C   UNL A   1      41.896  45.455  16.382  1.00  0.00     0.007 C 
ATOM     12  C   UNL A   1      43.720  46.489  17.638  1.00  0.00     0.007 C 
ENDBRANCH   9  10
ENDBRANCH   8   9
BRANCH   8  13
ATOM     13  N   UNL A   1      45.009  43.280  18.935  1.00  0.00    -0.341 N 
ATOM     14  C   UNL A   1      46.228  43.153  19.573  1.00  0.00     0.240 C 
ATOM     15  H   UNL A   1      44.912  42.914  18.026  1.00  0.00     0.164 HD
ATOM     16  O   UNL A   1      46.474  42.116  20.192  1.00  0.00    -0.273 OA
BRANCH  14  17
ATOM     17  C   UNL A   1      47.247  44.305  19.570  1.00  0.00     0.216 C 
BRANCH  17  18
ATOM     18  N   UNL A   1      48.323  44.164  20.530  1.00  0.00    -0.342 N 
ATOM     19  C   UNL A   1      48.458  44.436  21.848  1.00  0.00     0.278 C 
ATOM     20  H   UNL A   1      49.141  43.785  20.133  1.00  0.00     0.164 HD
ATOM     21  O   UNL A   1      49.581  44.175  22.303  1.00  0.00    -0.268 OA
BRANCH  19  22
ATOM     22  C   UNL A   1      47.379  45.128  22.751  1.00  0.00     0.273 C 
BRANCH  22  23
ATOM     23  N   UNL A   1      46.272  45.739  21.986  1.00  0.00    -0.347 N 
ATOM     24  H   UNL A   1      46.173  45.261  21.091  1.00  0.00     0.345 HD
ATOM     25  H   UNL A   1      46.472  46.726  21.826  1.00  0.00     0.345 HD
ATOM     26  H   UNL A   1      45.404  45.651  22.516  1.00  0.00     0.345 HD
ENDBRANCH  22  23
BRANCH  22  27
ATOM     27  C   UNL A   1      46.871  44.179  23.862  1.00  0.00     0.051 C 
ATOM     28  C   UNL A   1      47.044  42.705  23.460  1.00  0.00     0.014 C 
ATOM     29  C   UNL A   1      47.624  44.385  25.185  1.00  0.00     0.014 C 
ENDBRANCH  22  27
ENDBRANCH  19  22
ENDBRANCH  17  18
ENDBRANCH  14  17
ENDBRANCH   8  13
ENDBRANCH   6   8
ENDBRANCH   5   6
ENDBRANCH   4   5
ENDBRANCH   3   4
ENDBRANCH   2   3
ENDBRANCH   1   2
BRANCH   1  30
ATOM     30  C   UNL A   1      43.183  41.296  26.218  1.00  0.00     0.188 C 
BRANCH  30  31
ATOM     31  O   UNL A   1      43.663  39.975  26.024  1.00  0.00    -0.376 OA
BRANCH  31  32
ATOM     32  C   UNL A   1      44.989  39.666  26.449  1.00  0.00     0.202 C 
BRANCH  32  33
ATOM     33  C   UNL A   1      45.380  38.356  27.185  1.00  0.00     0.261 C 
BRANCH  33  34
ATOM     34  O   UNL A   1      45.265  38.316  28.616  1.00  0.00    -0.460 OA
BRANCH  34  35
ATOM     35  C   UNL A   1      44.165  37.699  29.119  1.00  0.00     0.338 C 
ATOM     36  O   UNL A   1      43.041  38.167  29.202  1.00  0.00    -0.246 OA
BRANCH  35  37
ATOM     37  C   UNL A   1      44.487  36.260  29.312  1.00  0.00     0.060 A 
ATOM     38  C   UNL A   1      43.740  35.300  28.604  1.00  0.00     0.016 A 
ATOM     39  C   UNL A   1      45.537  35.857  30.136  1.00  0.00     0.016 A 
ATOM     40  C   UNL A   1      44.027  33.940  28.729  1.00  0.00     0.010 A 
ATOM     41  C   UNL A   1      45.790  34.491  30.303  1.00  0.00     0.010 A 
ATOM     42  C   UNL A   1      45.013  33.528  29.629  1.00  0.00    -0.014 A 
BRANCH  42  43
ATOM     43  C   UNL A   1      45.037  32.122  30.106  1.00  0.00     0.031 A 
ATOM     44  C   UNL A   1      44.063  31.752  31.195  1.00  0.00     0.074 A 
ATOM     45  C   UNL A   1      45.888  31.200  29.621  1.00  0.00     0.049 A 
ATOM     46  N   UNL A   1      43.976  30.654  31.897  1.00  0.00    -0.248 NA
ATOM     47  C   UNL A   1      43.062  32.775  31.543  1.00  0.00     0.031 C 
ATOM     48  C   UNL A   1      46.824  31.400  28.518  1.00  0.00     0.029 A 
ATOM     49  N   UNL A   1      46.110  29.905  30.023  1.00  0.00    -0.354 N 
ATOM     50  C   UNL A   1      42.932  30.867  32.791  1.00  0.00     0.074 A 
ATOM     51  C   UNL A   1      42.431  32.202  32.555  1.00  0.00     0.031 C 
ATOM     52  C   UNL A   1      47.541  30.274  28.348  1.00  0.00     0.029 A 
ATOM     53  C   UNL A   1      47.147  29.292  29.360  1.00  0.00     0.049 A 
ATOM     54  H   UNL A   1      45.576  29.458  30.719  1.00  0.00     0.167 HD
ATOM     55  C   UNL A   1      42.437  30.029  33.730  1.00  0.00     0.031 A 
ATOM     56  C   UNL A   1      47.733  28.095  29.571  1.00  0.00     0.031 A 
ATOM     57  C   UNL A   1      42.951  28.709  33.976  1.00  0.00     0.049 A 
ATOM     58  C   UNL A   1      47.225  27.206  30.682  1.00  0.00     0.074 A 
ATOM     59  C   UNL A   1      42.518  27.777  34.901  1.00  0.00     0.029 A 
ATOM     60  N   UNL A   1      44.017  28.138  33.298  1.00  0.00    -0.354 N 
ATOM     61  N   UNL A   1      46.240  27.415  31.523  1.00  0.00    -0.248 NA
ATOM     62  C   UNL A   1      47.908  25.918  30.868  1.00  0.00     0.031 C 
ATOM     63  C   UNL A   1      43.364  26.667  34.828  1.00  0.00     0.029 A 
ATOM     64  C   UNL A   1      44.274  26.875  33.803  1.00  0.00     0.049 A 
ATOM     65  H   UNL A   1      44.518  28.566  32.567  1.00  0.00     0.167 HD
ATOM     66  C   UNL A   1      46.160  26.269  32.312  1.00  0.00     0.074 A 
ATOM     67  C   UNL A   1      47.196  25.370  31.844  1.00  0.00     0.031 C 
ATOM     68  C   UNL A   1      45.303  25.985  33.324  1.00  0.00     0.031 A 
BRANCH  55  69
ATOM     69  C   UNL A   1      41.321  30.546  34.599  1.00  0.00    -0.014 A 
ATOM     70  C   UNL A   1      41.581  31.286  35.768  1.00  0.00     0.010 A 
ATOM     71  C   UNL A   1      39.986  30.292  34.235  1.00  0.00     0.010 A 
ATOM     72  C   UNL A   1      40.529  31.717  36.580  1.00  0.00     0.020 A 
ATOM     73  C   UNL A   1      38.931  30.752  35.025  1.00  0.00     0.020 A 
ATOM     74  C   UNL A   1      39.210  31.444  36.205  1.00  0.00     0.054 A 
BRANCH  74  75
ATOM     75  S   UNL A   1      37.863  32.026  37.271  1.00  0.00     0.124 S 
ATOM     76  O   UNL A   1      36.993  32.704  36.313  1.00  0.00    -0.237 OA
ATOM     77  O   UNL A   1      37.336  30.782  37.828  1.00  0.00    -0.237 OA
ATOM     78  O   UNL A   1      38.533  32.901  38.229  1.00  0.00    -0.744 OA
ENDBRANCH  74  75
ENDBRANCH  55  69
BRANCH  56  79
ATOM     79  C   UNL A   1      48.888  27.673  28.729  1.00  0.00    -0.014 A 
ATOM     80  C   UNL A   1      48.680  27.042  27.490  1.00  0.00     0.010 A 
ATOM     81  C   UNL A   1      50.207  27.907  29.161  1.00  0.00     0.010 A 
ATOM     82  C   UNL A   1      49.767  26.651  26.700  1.00  0.00     0.020 A 
ATOM     83  C   UNL A   1      51.295  27.544  28.362  1.00  0.00     0.020 A 
ATOM     84  C   UNL A   1      51.069  26.913  27.137  1.00  0.00     0.054 A 
BRANCH  84  85
ATOM     85  S   UNL A   1      52.459  26.466  26.060  1.00  0.00     0.124 S 
ATOM     86  O   UNL A   1      53.069  27.763  25.792  1.00  0.00    -0.237 OA
ATOM     87  O   UNL A   1      53.233  25.564  26.909  1.00  0.00    -0.237 OA
ATOM     88  O   UNL A   1      51.813  25.828  24.914  1.00  0.00    -0.744 OA
ENDBRANCH  84  85
ENDBRANCH  56  79
BRANCH  68  89
ATOM     89  C   UNL A   1      45.393  24.623  33.965  1.00  0.00    -0.014 A 
ATOM     90  C   UNL A   1      44.604  23.546  33.527  1.00  0.00     0.010 A 
ATOM     91  C   UNL A   1      46.350  24.402  34.973  1.00  0.00     0.010 A 
ATOM     92  C   UNL A   1      44.753  22.280  34.104  1.00  0.00     0.020 A 
ATOM     93  C   UNL A   1      46.525  23.133  35.530  1.00  0.00     0.020 A 
ATOM     94  C   UNL A   1      45.716  22.081  35.099  1.00  0.00     0.054 A 
BRANCH  94  95
ATOM     95  S   UNL A   1      45.928  20.418  35.791  1.00  0.00     0.124 S 
ATOM     96  O   UNL A   1      45.691  20.646  37.214  1.00  0.00    -0.237 OA
ATOM     97  O   UNL A   1      44.897  19.650  35.098  1.00  0.00    -0.237 OA
ATOM     98  O   UNL A   1      47.302  20.066  35.438  1.00  0.00    -0.744 OA
ENDBRANCH  94  95
ENDBRANCH  68  89
ENDBRANCH  42  43
ENDBRANCH  35  37
ENDBRANCH  34  35
ENDBRANCH  33  34
ENDBRANCH  32  33
ENDBRANCH  31  32
ENDBRANCH  30  31
ENDBRANCH   1  30
TORSDOF 28
ENDMDL
MODEL 3
REMARK VINA RESULT:      -6.0      8.144     14.393
REMARK SMILES CC(C)C[C@H](NC(=O)CNC(=O)[C@@H]([NH3+])C(C)C)C(=O)OCCOCCOCCOC(=O)c1ccc(-c2c3nc(c(-c4ccc(S(=O)(=O)[O-])cc4)c4ccc([nH]4)c(-c4ccc(S(=O)(=O)[O-])cc4)c4nc(c(-c5ccc(S(=O)(=O)[O-])cc5)c5ccc2[nH]5)C=C4)C=C3)cc1
REMARK SMILES IDX 24 1 23 2 22 3 21 4 20 5 18 6 19 7 5 8 4 9 2 10 1 11 3 12
REMARK SMILES IDX 6 13 7 14 8 16 9 17 10 18 11 19 12 21 13 22 14 23 15 27
REMARK SMILES IDX 16 28 17 29 25 30 26 31 27 32 28 33 29 34 30 35 31 36 32 37
REMARK SMILES IDX 33 38 91 39 34 40 90 41 35 42 36 43 37 44 84 45 38 46 89 47
REMARK SMILES IDX 83 48 85 49 39 50 88 51 82 52 81 53 40 55 70 56 51 57 69 58
REMARK SMILES IDX 52 59 55 60 68 61 86 62 53 63 54 64 67 66 87 67 56 68 41 69
REMARK SMILES IDX 42 70 50 71 43 72 49 73 44 74 45 75 46 76 47 77 48 78 71 79
REMARK SMILES IDX 72 80 80 81 73 82 79 83 74 84 75 85 76 86 77 87 78 88 57 89
REMARK SMILES IDX 58 90 66 91 59 92 65 93 60 94 61 95 62 96 63 97 64 98
REMARK H PARENT 6 15 10 20 14 24 14 25 14 26 85 54 55 65
REMARK Flexibility Score: inf
ROOT
ATOM      1  C   UNL A   1      48.232  20.558  36.550  1.00  0.00     0.188 C 
ENDROOT
BRANCH   1   2
ATOM      2  O   UNL A   1      47.103  20.244  35.760  1.00  0.00    -0.376 OA
BRANCH   2   3
ATOM      3  C   UNL A   1      46.448  21.303  35.091  1.00  0.00     0.202 C 
BRANCH   3   4
ATOM      4  C   UNL A   1      45.028  21.756  35.459  1.00  0.00     0.261 C 
BRANCH   4   5
ATOM      5  O   UNL A   1      44.759  23.148  35.616  1.00  0.00    -0.462 OA
BRANCH   5   6
ATOM      6  C   UNL A   1      43.505  23.570  35.291  1.00  0.00     0.328 C 
ATOM      7  O   UNL A   1      42.871  23.210  34.307  1.00  0.00    -0.250 OA
BRANCH   6   8
ATOM      8  C   UNL A   1      43.031  24.671  36.235  1.00  0.00     0.192 C 
BRANCH   8   9
ATOM      9  C   UNL A   1      43.087  25.979  35.437  1.00  0.00     0.040 C 
BRANCH   9  10
ATOM     10  C   UNL A   1      41.885  26.952  35.410  1.00  0.00    -0.015 C 
ATOM     11  C   UNL A   1      42.070  28.216  36.256  1.00  0.00     0.007 C 
ATOM     12  C   UNL A   1      41.679  27.443  33.970  1.00  0.00     0.007 C 
ENDBRANCH   9  10
ENDBRANCH   8   9
BRANCH   8  13
ATOM     13  N   UNL A   1      43.749  24.708  37.539  1.00  0.00    -0.341 N 
ATOM     14  C   UNL A   1      44.236  25.878  38.090  1.00  0.00     0.240 C 
ATOM     15  H   UNL A   1      43.883  23.864  38.029  1.00  0.00     0.164 HD
ATOM     16  O   UNL A   1      43.543  26.488  38.907  1.00  0.00    -0.273 OA
BRANCH  14  17
ATOM     17  C   UNL A   1      45.594  26.454  37.654  1.00  0.00     0.216 C 
BRANCH  17  18
ATOM     18  N   UNL A   1      46.443  25.524  36.939  1.00  0.00    -0.342 N 
ATOM     19  C   UNL A   1      47.645  24.957  37.186  1.00  0.00     0.278 C 
ATOM     20  H   UNL A   1      46.058  25.242  36.077  1.00  0.00     0.164 HD
ATOM     21  O   UNL A   1      48.042  24.207  36.283  1.00  0.00    -0.268 OA
BRANCH  19  22
ATOM     22  C   UNL A   1      48.562  25.264  38.421  1.00  0.00     0.273 C 
BRANCH  22  23
ATOM     23  N   UNL A   1      48.441  24.272  39.508  1.00  0.00    -0.347 N 
ATOM     24  H   UNL A   1      47.534  23.811  39.449  1.00  0.00     0.345 HD
ATOM     25  H   UNL A   1      48.527  24.742  40.409  1.00  0.00     0.345 HD
ATOM     26  H   UNL A   1      49.183  23.576  39.417  1.00  0.00     0.345 HD
ENDBRANCH  22  23
BRANCH  22  27
ATOM     27  C   UNL A   1      50.031  25.495  37.996  1.00  0.00     0.051 C 
ATOM     28  C   UNL A   1      50.515  26.898  38.398  1.00  0.00     0.014 C 
ATOM     29  C   UNL A   1      50.985  24.478  38.640  1.00  0.00     0.014 C 
ENDBRANCH  22  27
ENDBRANCH  19  22
ENDBRANCH  17  18
ENDBRANCH  14  17
ENDBRANCH   8  13
ENDBRANCH   6   8
ENDBRANCH   5   6
ENDBRANCH   4   5
ENDBRANCH   3   4
ENDBRANCH   2   3
ENDBRANCH   1   2
BRANCH   1  30
ATOM     30  C   UNL A   1      49.547  20.393  35.765  1.00  0.00     0.188 C 
BRANCH  30  31
ATOM     31  O   UNL A   1      49.523  20.534  34.353  1.00  0.00    -0.376 OA
BRANCH  31  32
ATOM     32  C   UNL A   1      50.731  20.309  33.628  1.00  0.00     0.202 C 
BRANCH  32  33
ATOM     33  C   UNL A   1      51.767  21.420  33.303  1.00  0.00     0.261 C 
BRANCH  33  34
ATOM     34  O   UNL A   1      51.420  22.411  32.325  1.00  0.00    -0.460 OA
BRANCH  34  35
ATOM     35  C   UNL A   1      51.988  23.636  32.475  1.00  0.00     0.338 C 
ATOM     36  O   UNL A   1      53.181  23.884  32.535  1.00  0.00    -0.246 OA
BRANCH  35  37
ATOM     37  C   UNL A   1      50.929  24.664  32.288  1.00  0.00     0.060 A 
ATOM     38  C   UNL A   1      50.020  24.896  33.338  1.00  0.00     0.016 A 
ATOM     39  C   UNL A   1      50.858  25.426  31.122  1.00  0.00     0.016 A 
ATOM     40  C   UNL A   1      49.031  25.872  33.220  1.00  0.00     0.010 A 
ATOM     41  C   UNL A   1      49.832  26.368  30.983  1.00  0.00     0.010 A 
ATOM     42  C   UNL A   1      48.894  26.569  32.016  1.00  0.00    -0.014 A 
BRANCH  42  43
ATOM     43  C   UNL A   1      47.621  27.267  31.706  1.00  0.00     0.031 A 
ATOM     44  C   UNL A   1      47.442  28.649  32.280  1.00  0.00     0.074 A 
ATOM     45  C   UNL A   1      46.645  26.713  30.966  1.00  0.00     0.049 A 
ATOM     46  N   UNL A   1      46.381  29.412  32.300  1.00  0.00    -0.248 NA
ATOM     47  C   UNL A   1      48.624  29.238  32.932  1.00  0.00     0.031 C 
ATOM     48  C   UNL A   1      46.717  25.421  30.288  1.00  0.00     0.029 A 
ATOM     49  N   UNL A   1      45.381  27.173  30.682  1.00  0.00    -0.354 N 
ATOM     50  C   UNL A   1      46.760  30.556  32.994  1.00  0.00     0.074 A 
ATOM     51  C   UNL A   1      48.138  30.379  33.392  1.00  0.00     0.031 C 
ATOM     52  C   UNL A   1      45.537  25.179  29.688  1.00  0.00     0.029 A 
ATOM     53  C   UNL A   1      44.613  26.276  29.979  1.00  0.00     0.049 A 
ATOM     54  H   UNL A   1      45.058  28.062  30.956  1.00  0.00     0.167 HD
ATOM     55  C   UNL A   1      46.025  31.655  33.280  1.00  0.00     0.031 A 
ATOM     56  C   UNL A   1      43.306  26.320  29.643  1.00  0.00     0.031 A 
ATOM     57  C   UNL A   1      44.649  31.819  32.900  1.00  0.00     0.049 A 
ATOM     58  C   UNL A   1      42.476  27.516  30.047  1.00  0.00     0.074 A 
ATOM     59  C   UNL A   1      43.815  32.896  33.136  1.00  0.00     0.029 A 
ATOM     60  N   UNL A   1      43.902  30.876  32.210  1.00  0.00    -0.354 N 
ATOM     61  N   UNL A   1      42.841  28.592  30.703  1.00  0.00    -0.248 NA
ATOM     62  C   UNL A   1      41.058  27.503  29.659  1.00  0.00     0.031 C 
ATOM     63  C   UNL A   1      42.545  32.578  32.647  1.00  0.00     0.029 A 
ATOM     64  C   UNL A   1      42.609  31.336  32.035  1.00  0.00     0.049 A 
ATOM     65  H   UNL A   1      44.241  30.008  31.892  1.00  0.00     0.167 HD
ATOM     66  C   UNL A   1      41.708  29.400  30.774  1.00  0.00     0.074 A 
ATOM     67  C   UNL A   1      40.647  28.689  30.089  1.00  0.00     0.031 C 
ATOM     68  C   UNL A   1      41.563  30.621  31.344  1.00  0.00     0.031 A 
BRANCH  55  69
ATOM     69  C   UNL A   1      46.686  32.735  34.096  1.00  0.00    -0.014 A 
ATOM     70  C   UNL A   1      47.381  33.796  33.488  1.00  0.00     0.010 A 
ATOM     71  C   UNL A   1      46.603  32.688  35.500  1.00  0.00     0.010 A 
ATOM     72  C   UNL A   1      48.022  34.761  34.269  1.00  0.00     0.020 A 
ATOM     73  C   UNL A   1      47.212  33.670  36.284  1.00  0.00     0.020 A 
ATOM     74  C   UNL A   1      47.936  34.690  35.664  1.00  0.00     0.054 A 
BRANCH  74  75
ATOM     75  S   UNL A   1      48.767  35.962  36.653  1.00  0.00     0.124 S 
ATOM     76  O   UNL A   1      48.079  35.843  37.936  1.00  0.00    -0.237 OA
ATOM     77  O   UNL A   1      50.159  35.516  36.643  1.00  0.00    -0.237 OA
ATOM     78  O   UNL A   1      48.506  37.198  35.920  1.00  0.00    -0.744 OA
ENDBRANCH  74  75
ENDBRANCH  55  69
BRANCH  56  79
ATOM     79  C   UNL A   1      42.689  25.182  28.905  1.00  0.00    -0.014 A 
ATOM     80  C   UNL A   1      42.046  25.390  27.672  1.00  0.00     0.010 A 
ATOM     81  C   UNL A   1      42.748  23.877  29.429  1.00  0.00     0.010 A 
ATOM     82  C   UNL A   1      41.472  24.319  26.980  1.00  0.00     0.020 A 
ATOM     83  C   UNL A   1      42.201  22.799  28.727  1.00  0.00     0.020 A 
ATOM     84  C   UNL A   1      41.561  23.028  27.507  1.00  0.00     0.054 A 
BRANCH  84  85
ATOM     85  S   UNL A   1      40.875  21.645  26.554  1.00  0.00     0.124 S 
ATOM     86  O   UNL A   1      41.937  21.381  25.589  1.00  0.00    -0.237 OA
ATOM     87  O   UNL A   1      40.683  20.623  27.580  1.00  0.00    -0.237 OA
ATOM     88  O   UNL A   1      39.642  22.193  25.993  1.00  0.00    -0.744 OA
ENDBRANCH  84  85
ENDBRANCH  56  79
BRANCH  68  89
ATOM     89  C   UNL A   1      40.229  31.312  31.208  1.00  0.00    -0.014 A 
ATOM     90  C   UNL A   1      39.958  32.195  30.149  1.00  0.00     0.010 A 
ATOM     91  C   UNL A   1      39.200  31.000  32.117  1.00  0.00     0.010 A 
ATOM     92  C   UNL A   1      38.691  32.773  30.017  1.00  0.00     0.020 A 
ATOM     93  C   UNL A   1      37.924  31.551  31.972  1.00  0.00     0.020 A 
ATOM     94  C   UNL A   1      37.681  32.444  30.927  1.00  0.00     0.054 A 
BRANCH  94  95
ATOM     95  S   UNL A   1      36.032  33.165  30.702  1.00  0.00     0.124 S 
ATOM     96  O   UNL A   1      36.163  33.832  29.410  1.00  0.00    -0.237 OA
ATOM     97  O   UNL A   1      35.165  31.989  30.717  1.00  0.00    -0.237 OA
ATOM     98  O   UNL A   1      35.881  34.057  31.850  1.00  0.00    -0.744 OA
ENDBRANCH  94  95
ENDBRANCH  68  89
ENDBRANCH  42  43
ENDBRANCH  35  37
ENDBRANCH  34  35
ENDBRANCH  33  34
ENDBRANCH  32  33
ENDBRANCH  31  32
ENDBRANCH  30  31
ENDBRANCH   1  30
TORSDOF 28
ENDMDL
