MODEL 1
REMARK VINA RESULT:     -10.3      0.000      0.000
REMARK SMILES O=C1O[C@@H](c2ccc(O)c(O)c2)[C@H](C(=O)OCCOCCOCCOC(=O)c2ccc(-c3c4nc(c(-c5ccc(S(=O)(=O)[O-])cc5)c5ccc([nH]5)c(-c5ccc(S(=O)(=O)[O-])cc5)c5nc(c(-c6ccc(S(=O)(=O)[O-])cc6)c6ccc3[nH]6)C=C5)C=C4)cc2)/C1=C\c1ccc(O)c(O)c1
REMARK SMILES IDX 21 1 20 2 19 3 18 4 17 5 16 6 14 7 15 8 13 9 1 10 2 11 3 12
REMARK SMILES IDX 88 13 4 14 89 15 5 16 6 17 12 18 7 19 10 20 8 21 11 22 9 24
REMARK SMILES IDX 90 26 91 27 97 28 92 29 95 30 93 31 96 32 94 34 22 36 23 37
REMARK SMILES IDX 24 38 25 39 26 40 27 41 28 42 29 43 87 44 30 45 86 46 31 47
REMARK SMILES IDX 32 48 33 49 80 50 34 51 85 52 79 53 81 54 35 55 84 56 78 57
REMARK SMILES IDX 77 58 36 60 66 61 47 62 65 63 48 64 51 65 64 66 82 67 49 68
REMARK SMILES IDX 50 69 63 71 83 72 52 73 37 74 38 75 46 76 39 77 45 78 40 79
REMARK SMILES IDX 41 80 42 81 43 82 44 83 67 84 68 85 76 86 69 87 75 88 70 89
REMARK SMILES IDX 71 90 72 91 73 92 74 93 53 94 54 95 62 96 55 97 61 98 56 99
REMARK SMILES IDX 57 100 58 101 59 102 60 103
REMARK H PARENT 11 23 9 25 96 33 94 35 81 59 51 70
REMARK Flexibility Score: inf
ROOT
ATOM      1  C   UNL A   1      42.384  21.388  26.621  1.00  0.00     0.188 C 
ENDROOT
BRANCH   1   2
ATOM      2  C   UNL A   1      41.130  22.227  26.266  1.00  0.00     0.188 C 
BRANCH   2   3
ATOM      3  O   UNL A   1      39.877  21.761  26.687  1.00  0.00    -0.376 OA
BRANCH   3   4
ATOM      4  C   UNL A   1      38.842  21.589  25.751  1.00  0.00     0.202 C 
BRANCH   4   5
ATOM      5  C   UNL A   1      37.762  22.645  25.438  1.00  0.00     0.261 C 
BRANCH   5   6
ATOM      6  O   UNL A   1      36.476  22.507  26.069  1.00  0.00    -0.463 OA
BRANCH   6   7
ATOM      7  C   UNL A   1      35.526  23.438  25.747  1.00  0.00     0.317 C 
ATOM      8  O   UNL A   1      35.709  24.645  25.771  1.00  0.00    -0.251 OA
BRANCH   7   9
ATOM      9  C   UNL A   1      34.231  22.741  25.321  1.00  0.00     0.182 C 
ATOM     10  O   UNL A   1      32.570  22.195  28.381  1.00  0.00    -0.247 OA
ATOM     11  C   UNL A   1      33.159  22.125  27.321  1.00  0.00     0.335 C 
ATOM     12  O   UNL A   1      34.005  21.112  26.958  1.00  0.00    -0.453 OA
ATOM     13  C   UNL A   1      33.078  23.088  26.191  1.00  0.00     0.056 C 
ATOM     14  C   UNL A   1      34.412  21.263  25.587  1.00  0.00     0.226 C 
ATOM     15  C   UNL A   1      32.050  23.950  26.057  1.00  0.00     0.020 C 
BRANCH  14  16
ATOM     16  C   UNL A   1      33.639  20.330  24.658  1.00  0.00    -0.002 A 
ATOM     17  C   UNL A   1      32.836  20.841  23.615  1.00  0.00     0.012 A 
ATOM     18  C   UNL A   1      33.776  18.937  24.766  1.00  0.00     0.057 A 
ATOM     19  C   UNL A   1      32.175  19.984  22.721  1.00  0.00     0.050 A 
ATOM     20  C   UNL A   1      33.128  18.098  23.870  1.00  0.00     0.157 A 
ATOM     21  C   UNL A   1      32.332  18.612  22.853  1.00  0.00     0.157 A 
BRANCH  20  22
ATOM     22  O   UNL A   1      33.296  16.748  23.990  1.00  0.00    -0.504 OA
ATOM     23  H   UNL A   1      32.761  16.163  23.490  1.00  0.00     0.293 HD
ENDBRANCH  20  22
BRANCH  21  24
ATOM     24  O   UNL A   1      31.740  17.724  21.999  1.00  0.00    -0.504 OA
ATOM     25  H   UNL A   1      31.062  18.012  21.420  1.00  0.00     0.293 HD
ENDBRANCH  21  24
ENDBRANCH  14  16
BRANCH  15  26
ATOM     26  C   UNL A   1      31.762  24.904  24.953  1.00  0.00    -0.021 A 
ATOM     27  C   UNL A   1      30.395  26.024  25.108  1.00  0.00     0.012 A 
ATOM     28  C   UNL A   1      32.873  24.952  23.603  1.00  0.00     0.058 A 
ATOM     29  C   UNL A   1      30.003  27.280  23.921  1.00  0.00     0.051 A 
ATOM     30  C   UNL A   1      32.631  26.170  22.291  1.00  0.00     0.157 A 
ATOM     31  C   UNL A   1      31.054  27.448  22.455  1.00  0.00     0.157 A 
BRANCH  30  32
ATOM     32  O   UNL A   1      33.618  25.871  21.345  1.00  0.00    -0.504 OA
ATOM     33  H   UNL A   1      33.507  26.134  20.453  1.00  0.00     0.293 HD
ENDBRANCH  30  32
BRANCH  31  34
ATOM     34  O   UNL A   1      30.447  28.393  21.627  1.00  0.00    -0.504 OA
ATOM     35  H   UNL A   1      30.709  28.467  20.730  1.00  0.00     0.293 HD
ENDBRANCH  31  34
ENDBRANCH  15  26
ENDBRANCH   7   9
ENDBRANCH   6   7
ENDBRANCH   5   6
ENDBRANCH   4   5
ENDBRANCH   3   4
ENDBRANCH   2   3
ENDBRANCH   1   2
BRANCH   1  36
ATOM     36  O   UNL A   1      43.243  20.982  25.587  1.00  0.00    -0.376 OA
BRANCH  36  37
ATOM     37  C   UNL A   1      44.554  21.528  25.587  1.00  0.00     0.202 C 
BRANCH  37  38
ATOM     38  C   UNL A   1      44.864  23.032  25.768  1.00  0.00     0.261 C 
BRANCH  38  39
ATOM     39  O   UNL A   1      45.460  23.430  27.013  1.00  0.00    -0.460 OA
BRANCH  39  40
ATOM     40  C   UNL A   1      44.714  24.261  27.778  1.00  0.00     0.338 C 
ATOM     41  O   UNL A   1      43.773  23.970  28.498  1.00  0.00    -0.246 OA
BRANCH  40  42
ATOM     42  C   UNL A   1      45.300  25.603  27.798  1.00  0.00     0.060 A 
ATOM     43  C   UNL A   1      46.031  26.297  29.313  1.00  0.00     0.016 A 
ATOM     44  C   UNL A   1      44.802  26.690  26.516  1.00  0.00     0.016 A 
ATOM     45  C   UNL A   1      46.206  28.314  29.432  1.00  0.00     0.010 A 
ATOM     46  C   UNL A   1      44.953  28.452  26.636  1.00  0.00     0.010 A 
ATOM     47  C   UNL A   1      45.616  29.290  28.037  1.00  0.00    -0.014 A 
BRANCH  47  48
ATOM     48  C   UNL A   1      45.607  30.754  28.063  1.00  0.00     0.031 A 
ATOM     49  C   UNL A   1      46.818  31.514  27.609  1.00  0.00     0.074 A 
ATOM     50  C   UNL A   1      44.521  31.358  28.567  1.00  0.00     0.049 A 
ATOM     51  N   UNL A   1      47.031  32.802  27.621  1.00  0.00    -0.248 NA
ATOM     52  C   UNL A   1      47.954  30.733  27.098  1.00  0.00     0.031 C 
ATOM     53  C   UNL A   1      43.337  30.667  29.079  1.00  0.00     0.029 A 
ATOM     54  N   UNL A   1      44.233  32.679  28.750  1.00  0.00    -0.354 N 
ATOM     55  C   UNL A   1      48.324  32.973  27.136  1.00  0.00     0.074 A 
ATOM     56  C   UNL A   1      48.870  31.664  26.888  1.00  0.00     0.031 C 
ATOM     57  C   UNL A   1      42.430  31.567  29.476  1.00  0.00     0.029 A 
ATOM     58  C   UNL A   1      43.000  32.894  29.317  1.00  0.00     0.049 A 
ATOM     59  H   UNL A   1      44.849  33.406  28.502  1.00  0.00     0.167 HD
ATOM     60  C   UNL A   1      48.988  34.129  26.912  1.00  0.00     0.031 A 
ATOM     61  C   UNL A   1      42.409  34.041  29.691  1.00  0.00     0.031 A 
ATOM     62  C   UNL A   1      48.414  35.413  27.208  1.00  0.00     0.049 A 
ATOM     63  C   UNL A   1      43.176  35.309  29.462  1.00  0.00     0.074 A 
ATOM     64  C   UNL A   1      48.955  36.668  27.016  1.00  0.00     0.029 A 
ATOM     65  N   UNL A   1      47.158  35.593  27.776  1.00  0.00    -0.354 N 
ATOM     66  N   UNL A   1      44.378  35.458  28.952  1.00  0.00    -0.248 NA
ATOM     67  C   UNL A   1      42.514  36.556  29.845  1.00  0.00     0.031 C 
ATOM     68  C   UNL A   1      48.057  37.603  27.538  1.00  0.00     0.029 A 
ATOM     69  C   UNL A   1      46.917  36.938  27.971  1.00  0.00     0.049 A 
ATOM     70  H   UNL A   1      46.532  34.869  28.005  1.00  0.00     0.167 HD
ATOM     71  C   UNL A   1      44.607  36.825  28.926  1.00  0.00     0.074 A 
ATOM     72  C   UNL A   1      43.407  37.452  29.450  1.00  0.00     0.031 C 
ATOM     73  C   UNL A   1      45.704  37.507  28.510  1.00  0.00     0.031 A 
BRANCH  60  74
ATOM     74  C   UNL A   1      50.392  34.041  26.365  1.00  0.00    -0.014 A 
ATOM     75  C   UNL A   1      50.657  34.196  24.990  1.00  0.00     0.010 A 
ATOM     76  C   UNL A   1      51.469  33.809  27.240  1.00  0.00     0.010 A 
ATOM     77  C   UNL A   1      51.961  34.083  24.498  1.00  0.00     0.020 A 
ATOM     78  C   UNL A   1      52.780  33.730  26.758  1.00  0.00     0.020 A 
ATOM     79  C   UNL A   1      53.016  33.856  25.388  1.00  0.00     0.054 A 
BRANCH  79  80
ATOM     80  S   UNL A   1      54.701  33.762  24.725  1.00  0.00     0.124 S 
ATOM     81  O   UNL A   1      54.967  32.325  24.769  1.00  0.00    -0.237 OA
ATOM     82  O   UNL A   1      54.548  34.328  23.387  1.00  0.00    -0.237 OA
ATOM     83  O   UNL A   1      55.487  34.569  25.655  1.00  0.00    -0.744 OA
ENDBRANCH  79  80
ENDBRANCH  60  74
BRANCH  61  84
ATOM     84  C   UNL A   1      41.053  34.020  30.304  1.00  0.00    -0.014 A 
ATOM     85  C   UNL A   1      40.893  33.869  31.691  1.00  0.00     0.010 A 
ATOM     86  C   UNL A   1      39.907  34.196  29.504  1.00  0.00     0.010 A 
ATOM     87  C   UNL A   1      39.616  33.866  32.263  1.00  0.00     0.020 A 
ATOM     88  C   UNL A   1      38.633  34.233  30.074  1.00  0.00     0.020 A 
ATOM     89  C   UNL A   1      38.494  34.050  31.450  1.00  0.00     0.054 A 
BRANCH  89  90
ATOM     90  S   UNL A   1      36.851  34.063  32.218  1.00  0.00     0.124 S 
ATOM     91  O   UNL A   1      35.974  34.137  31.053  1.00  0.00    -0.237 OA
ATOM     92  O   UNL A   1      36.834  32.797  32.944  1.00  0.00    -0.237 OA
ATOM     93  O   UNL A   1      36.875  35.258  33.058  1.00  0.00    -0.744 OA
ENDBRANCH  89  90
ENDBRANCH  61  84
BRANCH  73  94
ATOM     94  C   UNL A   1      45.621  39.004  28.571  1.00  0.00    -0.014 A 
ATOM     95  C   UNL A   1      45.936  39.708  29.746  1.00  0.00     0.010 A 
ATOM     96  C   UNL A   1      45.252  39.713  27.413  1.00  0.00     0.010 A 
ATOM     97  C   UNL A   1      45.831  41.098  29.776  1.00  0.00     0.020 A 
ATOM     98  C   UNL A   1      45.192  41.104  27.426  1.00  0.00     0.020 A 
ATOM     99  C   UNL A   1      45.463  41.786  28.615  1.00  0.00     0.054 A 
BRANCH  99 100
ATOM    100  S   UNL A   1      45.372  43.592  28.672  1.00  0.00     0.124 S 
ATOM    101  O   UNL A   1      44.404  43.812  29.744  1.00  0.00    -0.237 OA
ATOM    102  O   UNL A   1      46.749  43.969  28.978  1.00  0.00    -0.237 OA
ATOM    103  O   UNL A   1      44.912  43.959  27.334  1.00  0.00    -0.744 OA
ENDBRANCH  99 100
ENDBRANCH  73  94
ENDBRANCH  47  48
ENDBRANCH  40  42
ENDBRANCH  39  40
ENDBRANCH  38  39
ENDBRANCH  37  38
ENDBRANCH  36  37
ENDBRANCH   1  36
TORSDOF 26
ENDMDL
MODEL 2
REMARK VINA RESULT:     -10.1      6.443      7.983
REMARK SMILES O=C1O[C@@H](c2ccc(O)c(O)c2)[C@H](C(=O)OCCOCCOCCOC(=O)c2ccc(-c3c4nc(c(-c5ccc(S(=O)(=O)[O-])cc5)c5ccc([nH]5)c(-c5ccc(S(=O)(=O)[O-])cc5)c5nc(c(-c6ccc(S(=O)(=O)[O-])cc6)c6ccc3[nH]6)C=C5)C=C4)cc2)/C1=C\c1ccc(O)c(O)c1
REMARK SMILES IDX 21 1 20 2 19 3 18 4 17 5 16 6 14 7 15 8 13 9 1 10 2 11 3 12
REMARK SMILES IDX 88 13 4 14 89 15 5 16 6 17 12 18 7 19 10 20 8 21 11 22 9 24
REMARK SMILES IDX 90 26 91 27 97 28 92 29 95 30 93 31 96 32 94 34 22 36 23 37
REMARK SMILES IDX 24 38 25 39 26 40 27 41 28 42 29 43 87 44 30 45 86 46 31 47
REMARK SMILES IDX 32 48 33 49 80 50 34 51 85 52 79 53 81 54 35 55 84 56 78 57
REMARK SMILES IDX 77 58 36 60 66 61 47 62 65 63 48 64 51 65 64 66 82 67 49 68
REMARK SMILES IDX 50 69 63 71 83 72 52 73 37 74 38 75 46 76 39 77 45 78 40 79
REMARK SMILES IDX 41 80 42 81 43 82 44 83 67 84 68 85 76 86 69 87 75 88 70 89
REMARK SMILES IDX 71 90 72 91 73 92 74 93 53 94 54 95 62 96 55 97 61 98 56 99
REMARK SMILES IDX 57 100 58 101 59 102 60 103
REMARK H PARENT 11 23 9 25 96 33 94 35 81 59 51 70
REMARK Flexibility Score: inf
ROOT
ATOM      1  C   UNL A   1      41.737  22.264  27.333  1.00  0.00     0.188 C 
ENDROOT
BRANCH   1   2
ATOM      2  C   UNL A   1      40.409  21.482  27.170  1.00  0.00     0.188 C 
BRANCH   2   3
ATOM      3  O   UNL A   1      39.740  21.558  25.942  1.00  0.00    -0.376 OA
BRANCH   3   4
ATOM      4  C   UNL A   1      38.398  21.976  25.899  1.00  0.00     0.202 C 
BRANCH   4   5
ATOM      5  C   UNL A   1      37.919  23.320  25.313  1.00  0.00     0.261 C 
BRANCH   5   6
ATOM      6  O   UNL A   1      36.591  23.387  24.765  1.00  0.00    -0.463 OA
BRANCH   6   7
ATOM      7  C   UNL A   1      35.570  23.632  25.643  1.00  0.00     0.317 C 
ATOM      8  O   UNL A   1      35.656  24.375  26.610  1.00  0.00    -0.251 OA
BRANCH   7   9
ATOM      9  C   UNL A   1      34.311  22.875  25.210  1.00  0.00     0.182 C 
ATOM     10  O   UNL A   1      32.702  22.182  28.268  1.00  0.00    -0.247 OA
ATOM     11  C   UNL A   1      33.287  22.164  27.204  1.00  0.00     0.335 C 
ATOM     12  O   UNL A   1      34.183  21.205  26.816  1.00  0.00    -0.453 OA
ATOM     13  C   UNL A   1      33.147  23.143  26.093  1.00  0.00     0.056 C 
ATOM     14  C   UNL A   1      34.573  21.404  25.446  1.00  0.00     0.226 C 
ATOM     15  C   UNL A   1      32.074  23.952  25.982  1.00  0.00     0.020 C 
BRANCH  14  16
ATOM     16  C   UNL A   1      33.845  20.449  24.503  1.00  0.00    -0.002 A 
ATOM     17  C   UNL A   1      33.937  19.050  24.667  1.00  0.00     0.012 A 
ATOM     18  C   UNL A   1      32.996  20.943  23.499  1.00  0.00     0.057 A 
ATOM     19  C   UNL A   1      33.220  18.172  23.841  1.00  0.00     0.050 A 
ATOM     20  C   UNL A   1      32.281  20.067  22.694  1.00  0.00     0.157 A 
ATOM     21  C   UNL A   1      32.389  18.691  22.859  1.00  0.00     0.157 A 
BRANCH  20  22
ATOM     22  O   UNL A   1      31.450  20.578  21.738  1.00  0.00    -0.504 OA
ATOM     23  H   UNL A   1      31.690  21.356  21.276  1.00  0.00     0.293 HD
ENDBRANCH  20  22
BRANCH  21  24
ATOM     24  O   UNL A   1      31.640  17.892  22.039  1.00  0.00    -0.504 OA
ATOM     25  H   UNL A   1      31.779  17.910  21.114  1.00  0.00     0.293 HD
ENDBRANCH  21  24
ENDBRANCH  14  16
BRANCH  15  26
ATOM     26  C   UNL A   1      31.728  24.909  24.899  1.00  0.00    -0.021 A 
ATOM     27  C   UNL A   1      30.487  26.143  25.193  1.00  0.00     0.012 A 
ATOM     28  C   UNL A   1      32.661  24.844  23.421  1.00  0.00     0.058 A 
ATOM     29  C   UNL A   1      30.053  27.410  24.033  1.00  0.00     0.051 A 
ATOM     30  C   UNL A   1      32.356  26.059  22.118  1.00  0.00     0.157 A 
ATOM     31  C   UNL A   1      30.922  27.467  22.444  1.00  0.00     0.157 A 
BRANCH  30  32
ATOM     32  O   UNL A   1      33.189  25.663  21.065  1.00  0.00    -0.504 OA
ATOM     33  H   UNL A   1      34.104  25.865  21.091  1.00  0.00     0.293 HD
ENDBRANCH  30  32
BRANCH  31  34
ATOM     34  O   UNL A   1      30.295  28.448  21.675  1.00  0.00    -0.504 OA
ATOM     35  H   UNL A   1      29.880  28.215  20.867  1.00  0.00     0.293 HD
ENDBRANCH  31  34
ENDBRANCH  15  26
ENDBRANCH   7   9
ENDBRANCH   6   7
ENDBRANCH   5   6
ENDBRANCH   4   5
ENDBRANCH   3   4
ENDBRANCH   2   3
ENDBRANCH   1   2
BRANCH   1  36
ATOM     36  O   UNL A   1      42.943  21.631  26.987  1.00  0.00    -0.376 OA
BRANCH  36  37
ATOM     37  C   UNL A   1      43.783  22.305  26.064  1.00  0.00     0.202 C 
BRANCH  37  38
ATOM     38  C   UNL A   1      43.262  23.128  24.862  1.00  0.00     0.261 C 
BRANCH  38  39
ATOM     39  O   UNL A   1      43.088  24.539  25.064  1.00  0.00    -0.460 OA
BRANCH  39  40
ATOM     40  C   UNL A   1      43.989  25.127  25.885  1.00  0.00     0.338 C 
ATOM     41  O   UNL A   1      45.197  24.956  25.913  1.00  0.00    -0.246 OA
BRANCH  40  42
ATOM     42  C   UNL A   1      43.354  26.191  26.665  1.00  0.00     0.060 A 
ATOM     43  C   UNL A   1      43.934  27.913  26.569  1.00  0.00     0.016 A 
ATOM     44  C   UNL A   1      42.414  25.685  28.054  1.00  0.00     0.016 A 
ATOM     45  C   UNL A   1      43.467  29.148  28.108  1.00  0.00     0.010 A 
ATOM     46  C   UNL A   1      42.020  26.772  29.398  1.00  0.00     0.010 A 
ATOM     47  C   UNL A   1      42.519  28.459  29.476  1.00  0.00    -0.014 A 
BRANCH  47  48
ATOM     48  C   UNL A   1      42.214  29.238  30.678  1.00  0.00     0.031 A 
ATOM     49  C   UNL A   1      43.062  29.079  31.905  1.00  0.00     0.074 A 
ATOM     50  C   UNL A   1      41.126  30.022  30.649  1.00  0.00     0.049 A 
ATOM     51  N   UNL A   1      42.914  29.622  33.082  1.00  0.00    -0.248 NA
ATOM     52  C   UNL A   1      44.215  28.170  31.816  1.00  0.00     0.031 C 
ATOM     53  C   UNL A   1      40.229  30.171  29.502  1.00  0.00     0.029 A 
ATOM     54  N   UNL A   1      40.574  30.827  31.602  1.00  0.00    -0.354 N 
ATOM     55  C   UNL A   1      43.943  29.108  33.866  1.00  0.00     0.074 A 
ATOM     56  C   UNL A   1      44.677  28.171  33.055  1.00  0.00     0.031 C 
ATOM     57  C   UNL A   1      39.265  31.051  29.799  1.00  0.00     0.029 A 
ATOM     58  C   UNL A   1      39.433  31.468  31.181  1.00  0.00     0.049 A 
ATOM     59  H   UNL A   1      40.955  30.938  32.503  1.00  0.00     0.167 HD
ATOM     60  C   UNL A   1      44.246  29.404  35.149  1.00  0.00     0.031 A 
ATOM     61  C   UNL A   1      38.602  32.282  31.851  1.00  0.00     0.031 A 
ATOM     62  C   UNL A   1      43.462  30.321  35.930  1.00  0.00     0.049 A 
ATOM     63  C   UNL A   1      38.940  32.572  33.283  1.00  0.00     0.074 A 
ATOM     64  C   UNL A   1      43.657  30.735  37.232  1.00  0.00     0.029 A 
ATOM     65  N   UNL A   1      42.315  30.956  35.468  1.00  0.00    -0.354 N 
ATOM     66  N   UNL A   1      39.948  32.119  33.995  1.00  0.00    -0.248 NA
ATOM     67  C   UNL A   1      38.045  33.483  33.998  1.00  0.00     0.031 C 
ATOM     68  C   UNL A   1      42.587  31.563  37.581  1.00  0.00     0.029 A 
ATOM     69  C   UNL A   1      41.773  31.737  36.469  1.00  0.00     0.049 A 
ATOM     70  H   UNL A   1      41.945  30.864  34.561  1.00  0.00     0.167 HD
ATOM     71  C   UNL A   1      39.824  32.714  35.241  1.00  0.00     0.074 A 
ATOM     72  C   UNL A   1      38.658  33.576  35.170  1.00  0.00     0.031 C 
ATOM     73  C   UNL A   1      40.599  32.568  36.346  1.00  0.00     0.031 A 
BRANCH  60  74
ATOM     74  C   UNL A   1      45.432  28.708  35.772  1.00  0.00    -0.014 A 
ATOM     75  C   UNL A   1      46.724  29.268  35.720  1.00  0.00     0.010 A 
ATOM     76  C   UNL A   1      45.254  27.477  36.429  1.00  0.00     0.010 A 
ATOM     77  C   UNL A   1      47.815  28.596  36.279  1.00  0.00     0.020 A 
ATOM     78  C   UNL A   1      46.336  26.817  37.020  1.00  0.00     0.020 A 
ATOM     79  C   UNL A   1      47.612  27.375  36.930  1.00  0.00     0.054 A 
BRANCH  79  80
ATOM     80  S   UNL A   1      49.041  26.550  37.685  1.00  0.00     0.124 S 
ATOM     81  O   UNL A   1      48.590  26.356  39.061  1.00  0.00    -0.237 OA
ATOM     82  O   UNL A   1      49.161  25.332  36.887  1.00  0.00    -0.237 OA
ATOM     83  O   UNL A   1      50.128  27.512  37.517  1.00  0.00    -0.744 OA
ENDBRANCH  79  80
ENDBRANCH  60  74
BRANCH  61  84
ATOM     84  C   UNL A   1      37.405  32.853  31.175  1.00  0.00    -0.014 A 
ATOM     85  C   UNL A   1      37.544  33.810  30.156  1.00  0.00     0.010 A 
ATOM     86  C   UNL A   1      36.114  32.407  31.517  1.00  0.00     0.010 A 
ATOM     87  C   UNL A   1      36.416  34.331  29.513  1.00  0.00     0.020 A 
ATOM     88  C   UNL A   1      34.987  32.894  30.850  1.00  0.00     0.020 A 
ATOM     89  C   UNL A   1      35.145  33.868  29.864  1.00  0.00     0.054 A 
BRANCH  89  90
ATOM     90  S   UNL A   1      33.700  34.544  29.000  1.00  0.00     0.124 S 
ATOM     91  O   UNL A   1      33.377  33.470  28.065  1.00  0.00    -0.237 OA
ATOM     92  O   UNL A   1      32.748  34.743  30.090  1.00  0.00    -0.237 OA
ATOM     93  O   UNL A   1      34.208  35.771  28.390  1.00  0.00    -0.744 OA
ENDBRANCH  89  90
ENDBRANCH  61  84
BRANCH  73  94
ATOM     94  C   UNL A   1      40.220  33.396  37.539  1.00  0.00    -0.014 A 
ATOM     95  C   UNL A   1      38.874  33.638  37.865  1.00  0.00     0.010 A 
ATOM     96  C   UNL A   1      41.238  33.909  38.362  1.00  0.00     0.010 A 
ATOM     97  C   UNL A   1      38.555  34.426  38.969  1.00  0.00     0.020 A 
ATOM     98  C   UNL A   1      40.921  34.657  39.493  1.00  0.00     0.020 A 
ATOM     99  C   UNL A   1      39.581  34.927  39.778  1.00  0.00     0.054 A 
BRANCH  99 100
ATOM    100  S   UNL A   1      39.136  35.915  41.227  1.00  0.00     0.124 S 
ATOM    101  O   UNL A   1      40.436  36.132  41.856  1.00  0.00    -0.237 OA
ATOM    102  O   UNL A   1      38.521  37.097  40.627  1.00  0.00    -0.237 OA
ATOM    103  O   UNL A   1      38.222  35.051  41.969  1.00  0.00    -0.744 OA
ENDBRANCH  99 100
ENDBRANCH  73  94
ENDBRANCH  47  48
ENDBRANCH  40  42
ENDBRANCH  39  40
ENDBRANCH  38  39
ENDBRANCH  37  38
ENDBRANCH  36  37
ENDBRANCH   1  36
TORSDOF 26
ENDMDL
MODEL 3
REMARK VINA RESULT:     -10.1     10.728     15.855
REMARK SMILES O=C1O[C@@H](c2ccc(O)c(O)c2)[C@H](C(=O)OCCOCCOCCOC(=O)c2ccc(-c3c4nc(c(-c5ccc(S(=O)(=O)[O-])cc5)c5ccc([nH]5)c(-c5ccc(S(=O)(=O)[O-])cc5)c5nc(c(-c6ccc(S(=O)(=O)[O-])cc6)c6ccc3[nH]6)C=C5)C=C4)cc2)/C1=C\c1ccc(O)c(O)c1
REMARK SMILES IDX 21 1 20 2 19 3 18 4 17 5 16 6 14 7 15 8 13 9 1 10 2 11 3 12
REMARK SMILES IDX 88 13 4 14 89 15 5 16 6 17 12 18 7 19 10 20 8 21 11 22 9 24
REMARK SMILES IDX 90 26 91 27 97 28 92 29 95 30 93 31 96 32 94 34 22 36 23 37
REMARK SMILES IDX 24 38 25 39 26 40 27 41 28 42 29 43 87 44 30 45 86 46 31 47
REMARK SMILES IDX 32 48 33 49 80 50 34 51 85 52 79 53 81 54 35 55 84 56 78 57
REMARK SMILES IDX 77 58 36 60 66 61 47 62 65 63 48 64 51 65 64 66 82 67 49 68
REMARK SMILES IDX 50 69 63 71 83 72 52 73 37 74 38 75 46 76 39 77 45 78 40 79
REMARK SMILES IDX 41 80 42 81 43 82 44 83 67 84 68 85 76 86 69 87 75 88 70 89
REMARK SMILES IDX 71 90 72 91 73 92 74 93 53 94 54 95 62 96 55 97 61 98 56 99
REMARK SMILES IDX 57 100 58 101 59 102 60 103
REMARK H PARENT 11 23 9 25 96 33 94 35 81 59 51 70
REMARK Flexibility Score: inf
ROOT
ATOM      1  C   UNL A   1      48.692  23.048  38.987  1.00  0.00     0.188 C 
ENDROOT
BRANCH   1   2
ATOM      2  C   UNL A   1      48.046  21.648  38.822  1.00  0.00     0.188 C 
BRANCH   2   3
ATOM      3  O   UNL A   1      48.598  20.575  39.532  1.00  0.00    -0.376 OA
BRANCH   3   4
ATOM      4  C   UNL A   1      48.435  19.262  39.057  1.00  0.00     0.202 C 
BRANCH   4   5
ATOM      5  C   UNL A   1      47.160  18.415  39.247  1.00  0.00     0.261 C 
BRANCH   5   6
ATOM      6  O   UNL A   1      47.069  17.578  40.413  1.00  0.00    -0.463 OA
BRANCH   6   7
ATOM      7  C   UNL A   1      45.885  16.920  40.613  1.00  0.00     0.317 C 
ATOM      8  O   UNL A   1      45.150  16.538  39.716  1.00  0.00    -0.251 OA
BRANCH   7   9
ATOM      9  C   UNL A   1      45.649  16.706  42.111  1.00  0.00     0.182 C 
ATOM     10  O   UNL A   1      43.422  19.305  42.951  1.00  0.00    -0.247 OA
ATOM     11  C   UNL A   1      44.355  18.539  42.814  1.00  0.00     0.335 C 
ATOM     12  O   UNL A   1      45.675  18.882  42.914  1.00  0.00    -0.453 OA
ATOM     13  C   UNL A   1      44.276  17.080  42.536  1.00  0.00     0.056 C 
ATOM     14  C   UNL A   1      46.507  17.712  42.845  1.00  0.00     0.226 C 
ATOM     15  C   UNL A   1      43.161  16.362  42.783  1.00  0.00     0.020 C 
BRANCH  14  16
ATOM     16  C   UNL A   1      46.992  17.276  44.227  1.00  0.00    -0.002 A 
ATOM     17  C   UNL A   1      47.357  15.936  44.482  1.00  0.00     0.012 A 
ATOM     18  C   UNL A   1      47.166  18.217  45.254  1.00  0.00     0.057 A 
ATOM     19  C   UNL A   1      47.862  15.546  45.731  1.00  0.00     0.050 A 
ATOM     20  C   UNL A   1      47.677  17.824  46.483  1.00  0.00     0.157 A 
ATOM     21  C   UNL A   1      48.024  16.500  46.726  1.00  0.00     0.157 A 
BRANCH  20  22
ATOM     22  O   UNL A   1      47.853  18.765  47.457  1.00  0.00    -0.504 OA
ATOM     23  H   UNL A   1      48.209  19.604  47.239  1.00  0.00     0.293 HD
ENDBRANCH  20  22
BRANCH  21  24
ATOM     24  O   UNL A   1      48.538  16.192  47.955  1.00  0.00    -0.504 OA
ATOM     25  H   UNL A   1      49.446  15.984  48.045  1.00  0.00     0.293 HD
ENDBRANCH  21  24
ENDBRANCH  14  16
BRANCH  15  26
ATOM     26  C   UNL A   1      42.940  14.897  42.659  1.00  0.00    -0.021 A 
ATOM     27  C   UNL A   1      43.399  13.832  44.002  1.00  0.00     0.012 A 
ATOM     28  C   UNL A   1      42.117  14.313  41.230  1.00  0.00     0.058 A 
ATOM     29  C   UNL A   1      43.095  12.087  44.032  1.00  0.00     0.051 A 
ATOM     30  C   UNL A   1      41.723  12.556  41.083  1.00  0.00     0.157 A 
ATOM     31  C   UNL A   1      42.262  11.326  42.614  1.00  0.00     0.157 A 
BRANCH  30  32
ATOM     32  O   UNL A   1      41.167  12.425  39.805  1.00  0.00    -0.504 OA
ATOM     33  H   UNL A   1      41.443  12.995  39.114  1.00  0.00     0.293 HD
ENDBRANCH  30  32
BRANCH  31  34
ATOM     34  O   UNL A   1      42.282   9.947  42.824  1.00  0.00    -0.504 OA
ATOM     35  H   UNL A   1      41.503   9.442  42.698  1.00  0.00     0.293 HD
ENDBRANCH  31  34
ENDBRANCH  15  26
ENDBRANCH   7   9
ENDBRANCH   6   7
ENDBRANCH   5   6
ENDBRANCH   4   5
ENDBRANCH   3   4
ENDBRANCH   2   3
ENDBRANCH   1   2
BRANCH   1  36
ATOM     36  O   UNL A   1      49.305  23.371  40.209  1.00  0.00    -0.376 OA
BRANCH  36  37
ATOM     37  C   UNL A   1      49.643  24.733  40.420  1.00  0.00     0.202 C 
BRANCH  37  38
ATOM     38  C   UNL A   1      49.977  25.728  39.284  1.00  0.00     0.261 C 
BRANCH  38  39
ATOM     39  O   UNL A   1      48.943  26.644  38.893  1.00  0.00    -0.460 OA
BRANCH  39  40
ATOM     40  C   UNL A   1      48.503  26.519  37.619  1.00  0.00     0.338 C 
ATOM     41  O   UNL A   1      48.958  25.807  36.738  1.00  0.00    -0.246 OA
BRANCH  40  42
ATOM     42  C   UNL A   1      47.236  27.231  37.442  1.00  0.00     0.060 A 
ATOM     43  C   UNL A   1      45.641  26.431  37.794  1.00  0.00     0.016 A 
ATOM     44  C   UNL A   1      47.272  28.637  36.397  1.00  0.00     0.016 A 
ATOM     45  C   UNL A   1      43.984  27.216  36.926  1.00  0.00     0.010 A 
ATOM     46  C   UNL A   1      45.818  29.308  35.637  1.00  0.00     0.010 A 
ATOM     47  C   UNL A   1      44.199  28.646  35.853  1.00  0.00    -0.014 A 
BRANCH  47  48
ATOM     48  C   UNL A   1      43.085  29.228  35.103  1.00  0.00     0.031 A 
ATOM     49  C   UNL A   1      42.776  28.732  33.722  1.00  0.00     0.074 A 
ATOM     50  C   UNL A   1      42.422  30.247  35.670  1.00  0.00     0.049 A 
ATOM     51  N   UNL A   1      41.881  29.162  32.875  1.00  0.00    -0.248 NA
ATOM     52  C   UNL A   1      43.592  27.624  33.204  1.00  0.00     0.031 C 
ATOM     53  C   UNL A   1      42.716  30.812  36.988  1.00  0.00     0.029 A 
ATOM     54  N   UNL A   1      41.379  31.002  35.217  1.00  0.00    -0.354 N 
ATOM     55  C   UNL A   1      42.043  28.388  31.730  1.00  0.00     0.074 A 
ATOM     56  C   UNL A   1      43.151  27.498  31.964  1.00  0.00     0.031 C 
ATOM     57  C   UNL A   1      41.847  31.792  37.259  1.00  0.00     0.029 A 
ATOM     58  C   UNL A   1      40.984  31.975  36.104  1.00  0.00     0.049 A 
ATOM     59  H   UNL A   1      40.952  30.864  34.341  1.00  0.00     0.167 HD
ATOM     60  C   UNL A   1      41.319  28.418  30.589  1.00  0.00     0.031 A 
ATOM     61  C   UNL A   1      40.044  32.926  35.982  1.00  0.00     0.031 A 
ATOM     62  C   UNL A   1      40.243  29.349  30.389  1.00  0.00     0.049 A 
ATOM     63  C   UNL A   1      39.274  32.961  34.696  1.00  0.00     0.074 A 
ATOM     64  C   UNL A   1      39.408  29.485  29.299  1.00  0.00     0.029 A 
ATOM     65  N   UNL A   1      39.867  30.317  31.313  1.00  0.00    -0.354 N 
ATOM     66  N   UNL A   1      39.404  32.186  33.642  1.00  0.00    -0.248 NA
ATOM     67  C   UNL A   1      38.232  33.982  34.580  1.00  0.00     0.031 C 
ATOM     68  C   UNL A   1      38.576  30.584  29.533  1.00  0.00     0.029 A 
ATOM     69  C   UNL A   1      38.831  31.076  30.806  1.00  0.00     0.049 A 
ATOM     70  H   UNL A   1      40.278  30.443  32.199  1.00  0.00     0.167 HD
ATOM     71  C   UNL A   1      38.436  32.609  32.744  1.00  0.00     0.074 A 
ATOM     72  C   UNL A   1      37.718  33.691  33.394  1.00  0.00     0.031 C 
ATOM     73  C   UNL A   1      38.160  32.152  31.496  1.00  0.00     0.031 A 
BRANCH  60  74
ATOM     74  C   UNL A   1      41.696  27.456  29.490  1.00  0.00    -0.014 A 
ATOM     75  C   UNL A   1      42.722  27.754  28.572  1.00  0.00     0.010 A 
ATOM     76  C   UNL A   1      41.019  26.228  29.374  1.00  0.00     0.010 A 
ATOM     77  C   UNL A   1      43.038  26.862  27.542  1.00  0.00     0.020 A 
ATOM     78  C   UNL A   1      41.356  25.316  28.367  1.00  0.00     0.020 A 
ATOM     79  C   UNL A   1      42.356  25.645  27.450  1.00  0.00     0.054 A 
BRANCH  79  80
ATOM     80  S   UNL A   1      42.821  24.490  26.132  1.00  0.00     0.124 S 
ATOM     81  O   UNL A   1      43.380  25.386  25.123  1.00  0.00    -0.237 OA
ATOM     82  O   UNL A   1      43.786  23.619  26.800  1.00  0.00    -0.237 OA
ATOM     83  O   UNL A   1      41.558  23.852  25.766  1.00  0.00    -0.744 OA
ENDBRANCH  79  80
ENDBRANCH  60  74
BRANCH  61  84
ATOM     84  C   UNL A   1      39.804  33.889  37.091  1.00  0.00    -0.014 A 
ATOM     85  C   UNL A   1      38.905  33.582  38.126  1.00  0.00     0.010 A 
ATOM     86  C   UNL A   1      40.508  35.107  37.142  1.00  0.00     0.010 A 
ATOM     87  C   UNL A   1      38.696  34.484  39.175  1.00  0.00     0.020 A 
ATOM     88  C   UNL A   1      40.333  35.993  38.206  1.00  0.00     0.020 A 
ATOM     89  C   UNL A   1      39.412  35.684  39.208  1.00  0.00     0.054 A 
BRANCH  89  90
ATOM     90  S   UNL A   1      39.137  36.827  40.589  1.00  0.00     0.124 S 
ATOM     91  O   UNL A   1      38.232  37.806  39.995  1.00  0.00    -0.237 OA
ATOM     92  O   UNL A   1      38.551  35.958  41.605  1.00  0.00    -0.237 OA
ATOM     93  O   UNL A   1      40.478  37.322  40.897  1.00  0.00    -0.744 OA
ENDBRANCH  89  90
ENDBRANCH  61  84
BRANCH  73  94
ATOM     94  C   UNL A   1      37.006  32.801  30.789  1.00  0.00    -0.014 A 
ATOM     95  C   UNL A   1      37.209  33.717  29.742  1.00  0.00     0.010 A 
ATOM     96  C   UNL A   1      35.696  32.456  31.166  1.00  0.00     0.010 A 
ATOM     97  C   UNL A   1      36.117  34.316  29.118  1.00  0.00     0.020 A 
ATOM     98  C   UNL A   1      34.602  33.017  30.513  1.00  0.00     0.020 A 
ATOM     99  C   UNL A   1      34.821  33.959  29.505  1.00  0.00     0.054 A 
BRANCH  99 100
ATOM    100  S   UNL A   1      33.421  34.726  28.652  1.00  0.00     0.124 S 
ATOM    101  O   UNL A   1      34.064  35.836  27.953  1.00  0.00    -0.237 OA
ATOM    102  O   UNL A   1      32.937  33.641  27.801  1.00  0.00    -0.237 OA
ATOM    103  O   UNL A   1      32.521  35.110  29.736  1.00  0.00    -0.744 OA
ENDBRANCH  99 100
ENDBRANCH  73  94
ENDBRANCH  47  48
ENDBRANCH  40  42
ENDBRANCH  39  40
ENDBRANCH  38  39
ENDBRANCH  37  38
ENDBRANCH  36  37
ENDBRANCH   1  36
TORSDOF 26
ENDMDL
