MODEL 1
REMARK VINA RESULT:      -7.6      0.000      0.000
REMARK SMILES O=C(OCCOCCOCCOC(=O)[C@@H](c1ccccc1)N1C(=O)/C(=C\c2ccc(-c3ccc(F)cc3)o2)SC1=S)c1ccc(-c2c3nc(c(-c4ccc(S(=O)(=O)[O-])cc4)c4ccc([nH]4)c(-c4ccc(S(=O)(=O)[O-])cc4)c4nc(c(-c5ccc(S(=O)(=O)[O-])cc5)c5ccc2[nH]5)C=C4)C=C3)cc1
REMARK SMILES IDX 7 1 6 2 5 3 4 4 3 5 2 6 1 7 42 8 43 9 101 10 44 11 100 12
REMARK SMILES IDX 45 13 46 14 47 15 94 16 48 17 99 18 93 19 95 20 49 21 98 22
REMARK SMILES IDX 92 23 91 24 50 26 80 27 61 28 79 29 62 30 65 31 78 32 96 33
REMARK SMILES IDX 63 34 64 35 77 37 97 38 66 39 51 40 52 41 60 42 53 43 59 44
REMARK SMILES IDX 54 45 55 46 56 47 57 48 58 49 81 50 82 51 90 52 83 53 89 54
REMARK SMILES IDX 84 55 85 56 86 57 87 58 88 59 67 60 68 61 76 62 69 63 75 64
REMARK SMILES IDX 70 65 71 66 72 67 73 68 74 69 8 70 9 71 10 72 11 73 12 74
REMARK SMILES IDX 13 75 14 76 15 77 16 78 17 79 21 80 18 81 20 82 19 83 22 84
REMARK SMILES IDX 23 85 40 86 24 87 25 88 39 89 41 90 26 91 27 92 28 93 38 94
REMARK SMILES IDX 29 95 30 96 31 97 32 98 37 99 33 100 36 101 34 102 35 103
REMARK H PARENT 95 25 65 36
REMARK Flexibility Score: inf
ROOT
ATOM      1  C   UNL A   1      37.636  33.487  30.092  1.00  0.00     0.188 C 
ENDROOT
BRANCH   1   2
ATOM      2  O   UNL A   1      36.955  34.131  29.011  1.00  0.00    -0.376 OA
BRANCH   2   3
ATOM      3  C   UNL A   1      35.768  33.462  28.586  1.00  0.00     0.202 C 
BRANCH   3   4
ATOM      4  C   UNL A   1      35.217  32.413  29.568  1.00  0.00     0.261 C 
BRANCH   4   5
ATOM      5  O   UNL A   1      34.622  31.263  28.947  1.00  0.00    -0.460 OA
BRANCH   5   6
ATOM      6  C   UNL A   1      35.195  30.223  28.293  1.00  0.00     0.338 C 
ATOM      7  O   UNL A   1      34.505  29.645  27.450  1.00  0.00    -0.246 OA
BRANCH   6   8
ATOM      8  C   UNL A   1      36.595  29.713  28.513  1.00  0.00     0.060 A 
ATOM      9  C   UNL A   1      37.047  28.972  29.605  1.00  0.00     0.016 A 
ATOM     10  C   UNL A   1      37.532  29.971  27.490  1.00  0.00     0.016 A 
ATOM     11  C   UNL A   1      38.366  28.500  29.683  1.00  0.00     0.010 A 
ATOM     12  C   UNL A   1      38.858  29.498  27.558  1.00  0.00     0.010 A 
ATOM     13  C   UNL A   1      39.287  28.750  28.661  1.00  0.00    -0.014 A 
BRANCH  13  14
ATOM     14  C   UNL A   1      40.712  28.388  28.914  1.00  0.00     0.031 A 
ATOM     15  C   UNL A   1      41.475  29.256  29.825  1.00  0.00     0.074 A 
ATOM     16  C   UNL A   1      41.404  27.440  28.248  1.00  0.00     0.049 A 
ATOM     17  N   UNL A   1      42.763  29.262  29.984  1.00  0.00    -0.248 NA
ATOM     18  C   UNL A   1      40.747  30.361  30.462  1.00  0.00     0.031 C 
ATOM     19  C   UNL A   1      41.014  27.097  26.914  1.00  0.00     0.029 A 
ATOM     20  N   UNL A   1      42.595  26.741  28.428  1.00  0.00    -0.354 N 
ATOM     21  C   UNL A   1      43.023  30.425  30.662  1.00  0.00     0.074 A 
ATOM     22  C   UNL A   1      41.761  31.110  30.860  1.00  0.00     0.031 C 
ATOM     23  C   UNL A   1      41.876  26.191  26.453  1.00  0.00     0.029 A 
ATOM     24  C   UNL A   1      42.857  25.774  27.443  1.00  0.00     0.049 A 
ATOM     25  H   UNL A   1      43.203  26.910  29.183  1.00  0.00     0.167 HD
ATOM     26  C   UNL A   1      44.230  30.874  31.057  1.00  0.00     0.031 A 
ATOM     27  C   UNL A   1      43.810  24.773  27.359  1.00  0.00     0.031 A 
ATOM     28  C   UNL A   1      45.457  30.191  30.762  1.00  0.00     0.049 A 
ATOM     29  C   UNL A   1      45.064  25.190  28.062  1.00  0.00     0.074 A 
ATOM     30  C   UNL A   1      46.735  30.525  31.157  1.00  0.00     0.029 A 
ATOM     31  N   UNL A   1      45.557  29.031  29.993  1.00  0.00    -0.354 N 
ATOM     32  N   UNL A   1      45.282  26.323  28.677  1.00  0.00    -0.248 NA
ATOM     33  C   UNL A   1      46.240  24.328  27.911  1.00  0.00     0.031 C 
ATOM     34  C   UNL A   1      47.614  29.578  30.621  1.00  0.00     0.029 A 
ATOM     35  C   UNL A   1      46.878  28.618  29.942  1.00  0.00     0.049 A 
ATOM     36  H   UNL A   1      44.804  28.576  29.552  1.00  0.00     0.167 HD
ATOM     37  C   UNL A   1      46.642  26.384  28.855  1.00  0.00     0.074 A 
ATOM     38  C   UNL A   1      47.190  25.130  28.368  1.00  0.00     0.031 C 
ATOM     39  C   UNL A   1      47.373  27.409  29.339  1.00  0.00     0.031 A 
BRANCH  26  40
ATOM     40  C   UNL A   1      44.197  32.151  31.831  1.00  0.00    -0.014 A 
ATOM     41  C   UNL A   1      44.506  33.365  31.182  1.00  0.00     0.010 A 
ATOM     42  C   UNL A   1      44.007  32.135  33.220  1.00  0.00     0.010 A 
ATOM     43  C   UNL A   1      44.714  34.524  31.922  1.00  0.00     0.020 A 
ATOM     44  C   UNL A   1      44.171  33.308  33.960  1.00  0.00     0.020 A 
ATOM     45  C   UNL A   1      44.554  34.484  33.309  1.00  0.00     0.054 A 
BRANCH  45  46
ATOM     46  S   UNL A   1      44.855  36.004  34.247  1.00  0.00     0.124 S 
ATOM     47  O   UNL A   1      45.943  36.614  33.487  1.00  0.00    -0.237 OA
ATOM     48  O   UNL A   1      43.569  36.691  34.162  1.00  0.00    -0.237 OA
ATOM     49  O   UNL A   1      45.214  35.520  35.577  1.00  0.00    -0.744 OA
ENDBRANCH  45  46
ENDBRANCH  26  40
BRANCH  27  50
ATOM     50  C   UNL A   1      43.910  23.466  26.493  1.00  0.00    -0.014 A 
ATOM     51  C   UNL A   1      44.843  23.387  25.436  1.00  0.00     0.010 A 
ATOM     52  C   UNL A   1      43.092  22.307  26.631  1.00  0.00     0.010 A 
ATOM     53  C   UNL A   1      45.090  22.175  24.731  1.00  0.00     0.020 A 
ATOM     54  C   UNL A   1      43.393  21.066  26.012  1.00  0.00     0.020 A 
ATOM     55  C   UNL A   1      44.426  20.997  25.088  1.00  0.00     0.054 A 
BRANCH  55  56
ATOM     56  S   UNL A   1      44.974  19.370  24.456  1.00  0.00     0.124 S 
ATOM     57  O   UNL A   1      46.422  19.434  24.620  1.00  0.00    -0.237 OA
ATOM     58  O   UNL A   1      44.286  18.420  25.329  1.00  0.00    -0.237 OA
ATOM     59  O   UNL A   1      44.502  19.363  23.073  1.00  0.00    -0.744 OA
ENDBRANCH  55  56
ENDBRANCH  27  50
BRANCH  39  60
ATOM     60  C   UNL A   1      48.841  27.168  29.338  1.00  0.00    -0.014 A 
ATOM     61  C   UNL A   1      49.492  26.628  30.460  1.00  0.00     0.010 A 
ATOM     62  C   UNL A   1      49.569  27.542  28.200  1.00  0.00     0.010 A 
ATOM     63  C   UNL A   1      50.877  26.475  30.440  1.00  0.00     0.020 A 
ATOM     64  C   UNL A   1      50.947  27.376  28.174  1.00  0.00     0.020 A 
ATOM     65  C   UNL A   1      51.592  26.851  29.296  1.00  0.00     0.054 A 
BRANCH  65  66
ATOM     66  S   UNL A   1      53.385  26.620  29.275  1.00  0.00     0.124 S 
ATOM     67  O   UNL A   1      53.867  27.999  29.295  1.00  0.00    -0.237 OA
ATOM     68  O   UNL A   1      53.619  25.851  30.494  1.00  0.00    -0.237 OA
ATOM     69  O   UNL A   1      53.623  25.896  28.030  1.00  0.00    -0.744 OA
ENDBRANCH  65  66
ENDBRANCH  39  60
ENDBRANCH  13  14
ENDBRANCH   6   8
ENDBRANCH   5   6
ENDBRANCH   4   5
ENDBRANCH   3   4
ENDBRANCH   2   3
ENDBRANCH   1   2
BRANCH   1  70
ATOM     70  C   UNL A   1      38.225  34.426  31.149  1.00  0.00     0.188 C 
BRANCH  70  71
ATOM     71  O   UNL A   1      39.617  34.661  30.956  1.00  0.00    -0.376 OA
BRANCH  71  72
ATOM     72  C   UNL A   1      40.052  34.649  29.592  1.00  0.00     0.202 C 
BRANCH  72  73
ATOM     73  C   UNL A   1      41.528  34.998  29.354  1.00  0.00     0.261 C 
BRANCH  73  74
ATOM     74  O   UNL A   1      41.722  35.717  28.123  1.00  0.00    -0.461 OA
BRANCH  74  75
ATOM     75  C   UNL A   1      41.909  37.065  28.182  1.00  0.00     0.334 C 
ATOM     76  O   UNL A   1      41.140  37.797  28.791  1.00  0.00    -0.249 OA
BRANCH  75  77
ATOM     77  C   UNL A   1      43.247  37.537  27.507  1.00  0.00     0.232 C 
BRANCH  77  78
ATOM     78  C   UNL A   1      43.119  38.917  26.855  1.00  0.00    -0.014 A 
ATOM     79  C   UNL A   1      44.265  39.651  26.509  1.00  0.00     0.006 A 
ATOM     80  C   UNL A   1      41.857  39.439  26.516  1.00  0.00     0.006 A 
ATOM     81  C   UNL A   1      44.147  40.865  25.856  1.00  0.00     0.000 A 
ATOM     82  C   UNL A   1      41.748  40.654  25.839  1.00  0.00     0.000 A 
ATOM     83  C   UNL A   1      42.895  41.358  25.502  1.00  0.00     0.000 A 
ENDBRANCH  77  78
BRANCH  77  84
ATOM     84  N   UNL A   1      44.425  37.350  28.419  1.00  0.00    -0.274 N 
ATOM     85  C   UNL A   1      45.185  36.190  28.419  1.00  0.00     0.267 C 
ATOM     86  C   UNL A   1      44.687  38.163  29.505  1.00  0.00     0.149 C 
ATOM     87  O   UNL A   1      44.879  35.140  27.884  1.00  0.00    -0.268 OA
ATOM     88  C   UNL A   1      46.356  36.295  29.353  1.00  0.00     0.084 C 
ATOM     89  S   UNL A   1      46.248  37.764  30.223  1.00  0.00    -0.054 SA
ATOM     90  S   UNL A   1      43.707  39.322  30.208  1.00  0.00    -0.052 S 
ATOM     91  C   UNL A   1      47.337  35.389  29.495  1.00  0.00     0.068 C 
BRANCH  91  92
ATOM     92  C   UNL A   1      47.438  34.347  28.546  1.00  0.00     0.128 A 
ATOM     93  C   UNL A   1      48.270  34.437  27.458  1.00  0.00     0.051 A 
ATOM     94  O   UNL A   1      46.692  33.177  28.460  1.00  0.00    -0.457 OA
ATOM     95  C   UNL A   1      47.949  33.361  26.656  1.00  0.00     0.051 A 
ATOM     96  C   UNL A   1      47.030  32.542  27.280  1.00  0.00     0.134 A 
BRANCH  96  97
ATOM     97  C   UNL A   1      46.388  31.233  26.940  1.00  0.00     0.017 A 
ATOM     98  C   UNL A   1      45.025  31.001  27.093  1.00  0.00     0.015 A 
ATOM     99  C   UNL A   1      47.100  30.166  26.345  1.00  0.00     0.015 A 
ATOM    100  C   UNL A   1      44.449  29.758  26.741  1.00  0.00     0.040 A 
ATOM    101  C   UNL A   1      46.571  28.904  26.052  1.00  0.00     0.040 A 
ATOM    102  C   UNL A   1      45.230  28.710  26.262  1.00  0.00     0.123 A 
ATOM    103  F   UNL A   1      44.677  27.527  25.967  1.00  0.00    -0.207 F 
ENDBRANCH  96  97
ENDBRANCH  91  92
ENDBRANCH  77  84
ENDBRANCH  75  77
ENDBRANCH  74  75
ENDBRANCH  73  74
ENDBRANCH  72  73
ENDBRANCH  71  72
ENDBRANCH  70  71
ENDBRANCH   1  70
TORSDOF 24
ENDMDL
MODEL 2
REMARK VINA RESULT:      -6.9      3.277     12.174
REMARK SMILES O=C(OCCOCCOCCOC(=O)[C@@H](c1ccccc1)N1C(=O)/C(=C\c2ccc(-c3ccc(F)cc3)o2)SC1=S)c1ccc(-c2c3nc(c(-c4ccc(S(=O)(=O)[O-])cc4)c4ccc([nH]4)c(-c4ccc(S(=O)(=O)[O-])cc4)c4nc(c(-c5ccc(S(=O)(=O)[O-])cc5)c5ccc2[nH]5)C=C4)C=C3)cc1
REMARK SMILES IDX 7 1 6 2 5 3 4 4 3 5 2 6 1 7 42 8 43 9 101 10 44 11 100 12
REMARK SMILES IDX 45 13 46 14 47 15 94 16 48 17 99 18 93 19 95 20 49 21 98 22
REMARK SMILES IDX 92 23 91 24 50 26 80 27 61 28 79 29 62 30 65 31 78 32 96 33
REMARK SMILES IDX 63 34 64 35 77 37 97 38 66 39 51 40 52 41 60 42 53 43 59 44
REMARK SMILES IDX 54 45 55 46 56 47 57 48 58 49 81 50 82 51 90 52 83 53 89 54
REMARK SMILES IDX 84 55 85 56 86 57 87 58 88 59 67 60 68 61 76 62 69 63 75 64
REMARK SMILES IDX 70 65 71 66 72 67 73 68 74 69 8 70 9 71 10 72 11 73 12 74
REMARK SMILES IDX 13 75 14 76 15 77 16 78 17 79 21 80 18 81 20 82 19 83 22 84
REMARK SMILES IDX 23 85 40 86 24 87 25 88 39 89 41 90 26 91 27 92 28 93 38 94
REMARK SMILES IDX 29 95 30 96 31 97 32 98 37 99 33 100 36 101 34 102 35 103
REMARK H PARENT 95 25 65 36
REMARK Flexibility Score: inf
ROOT
ATOM      1  C   UNL A   1      53.914  29.168  30.118  1.00  0.00     0.188 C 
ENDROOT
BRANCH   1   2
ATOM      2  O   UNL A   1      55.017  28.303  30.409  1.00  0.00    -0.376 OA
BRANCH   2   3
ATOM      3  C   UNL A   1      54.844  26.963  29.951  1.00  0.00     0.202 C 
BRANCH   3   4
ATOM      4  C   UNL A   1      54.012  26.054  30.874  1.00  0.00     0.261 C 
BRANCH   4   5
ATOM      5  O   UNL A   1      52.632  25.924  30.501  1.00  0.00    -0.460 OA
BRANCH   5   6
ATOM      6  C   UNL A   1      51.597  25.339  31.153  1.00  0.00     0.338 C 
ATOM      7  O   UNL A   1      51.872  24.422  31.930  1.00  0.00    -0.246 OA
BRANCH   6   8
ATOM      8  C   UNL A   1      50.145  25.711  31.004  1.00  0.00     0.060 A 
ATOM      9  C   UNL A   1      49.509  26.122  29.833  1.00  0.00     0.016 A 
ATOM     10  C   UNL A   1      49.337  25.589  32.155  1.00  0.00     0.016 A 
ATOM     11  C   UNL A   1      48.132  26.394  29.796  1.00  0.00     0.010 A 
ATOM     12  C   UNL A   1      47.954  25.857  32.126  1.00  0.00     0.010 A 
ATOM     13  C   UNL A   1      47.336  26.260  30.937  1.00  0.00    -0.014 A 
BRANCH  13  14
ATOM     14  C   UNL A   1      45.932  26.759  30.860  1.00  0.00     0.031 A 
ATOM     15  C   UNL A   1      44.928  25.856  30.276  1.00  0.00     0.074 A 
ATOM     16  C   UNL A   1      45.541  28.024  31.119  1.00  0.00     0.049 A 
ATOM     17  N   UNL A   1      43.729  26.179  29.899  1.00  0.00    -0.248 NA
ATOM     18  C   UNL A   1      45.383  24.515  29.886  1.00  0.00     0.031 C 
ATOM     19  C   UNL A   1      46.477  29.094  30.954  1.00  0.00     0.029 A 
ATOM     20  N   UNL A   1      44.339  28.681  31.371  1.00  0.00    -0.354 N 
ATOM     21  C   UNL A   1      43.307  25.117  29.140  1.00  0.00     0.074 A 
ATOM     22  C   UNL A   1      44.390  24.154  29.090  1.00  0.00     0.031 C 
ATOM     23  C   UNL A   1      45.845  30.238  31.210  1.00  0.00     0.029 A 
ATOM     24  C   UNL A   1      44.472  30.051  31.654  1.00  0.00     0.049 A 
ATOM     25  H   UNL A   1      43.467  28.224  31.353  1.00  0.00     0.167 HD
ATOM     26  C   UNL A   1      42.116  24.989  28.525  1.00  0.00     0.031 A 
ATOM     27  C   UNL A   1      43.571  30.992  32.122  1.00  0.00     0.031 A 
ATOM     28  C   UNL A   1      41.109  26.012  28.544  1.00  0.00     0.049 A 
ATOM     29  C   UNL A   1      42.187  30.663  31.654  1.00  0.00     0.074 A 
ATOM     30  C   UNL A   1      39.842  25.973  28.001  1.00  0.00     0.029 A 
ATOM     31  N   UNL A   1      41.260  27.267  29.137  1.00  0.00    -0.354 N 
ATOM     32  N   UNL A   1      41.829  29.651  30.907  1.00  0.00    -0.248 NA
ATOM     33  C   UNL A   1      41.138  31.656  31.902  1.00  0.00     0.031 C 
ATOM     34  C   UNL A   1      39.226  27.203  28.252  1.00  0.00     0.029 A 
ATOM     35  C   UNL A   1      40.085  27.989  29.005  1.00  0.00     0.049 A 
ATOM     36  H   UNL A   1      42.077  27.590  29.581  1.00  0.00     0.167 HD
ATOM     37  C   UNL A   1      40.564  29.954  30.468  1.00  0.00     0.074 A 
ATOM     38  C   UNL A   1      40.179  31.199  31.109  1.00  0.00     0.031 C 
ATOM     39  C   UNL A   1      39.808  29.280  29.577  1.00  0.00     0.031 A 
BRANCH  26  40
ATOM     40  C   UNL A   1      41.916  23.692  27.814  1.00  0.00    -0.014 A 
ATOM     41  C   UNL A   1      41.322  22.610  28.496  1.00  0.00     0.010 A 
ATOM     42  C   UNL A   1      42.443  23.497  26.529  1.00  0.00     0.010 A 
ATOM     43  C   UNL A   1      41.340  21.334  27.942  1.00  0.00     0.020 A 
ATOM     44  C   UNL A   1      42.422  22.225  25.952  1.00  0.00     0.020 A 
ATOM     45  C   UNL A   1      41.899  21.150  26.676  1.00  0.00     0.054 A 
BRANCH  45  46
ATOM     46  S   UNL A   1      41.929  19.474  25.992  1.00  0.00     0.124 S 
ATOM     47  O   UNL A   1      42.447  18.700  27.117  1.00  0.00    -0.237 OA
ATOM     48  O   UNL A   1      40.526  19.238  25.662  1.00  0.00    -0.237 OA
ATOM     49  O   UNL A   1      42.825  19.588  24.844  1.00  0.00    -0.744 OA
ENDBRANCH  45  46
ENDBRANCH  26  40
BRANCH  27  50
ATOM     50  C   UNL A   1      43.751  32.399  32.795  1.00  0.00    -0.014 A 
ATOM     51  C   UNL A   1      43.248  33.557  32.162  1.00  0.00     0.010 A 
ATOM     52  C   UNL A   1      44.440  32.661  34.016  1.00  0.00     0.010 A 
ATOM     53  C   UNL A   1      43.238  34.828  32.802  1.00  0.00     0.020 A 
ATOM     54  C   UNL A   1      44.348  33.894  34.710  1.00  0.00     0.020 A 
ATOM     55  C   UNL A   1      43.706  34.968  34.112  1.00  0.00     0.054 A 
BRANCH  55  56
ATOM     56  S   UNL A   1      43.378  36.486  35.080  1.00  0.00     0.124 S 
ATOM     57  O   UNL A   1      42.571  37.283  34.162  1.00  0.00    -0.237 OA
ATOM     58  O   UNL A   1      42.674  35.987  36.260  1.00  0.00    -0.237 OA
ATOM     59  O   UNL A   1      44.712  37.012  35.356  1.00  0.00    -0.744 OA
ENDBRANCH  55  56
ENDBRANCH  27  50
BRANCH  39  60
ATOM     60  C   UNL A   1      38.501  29.922  29.274  1.00  0.00    -0.014 A 
ATOM     61  C   UNL A   1      38.405  30.981  28.355  1.00  0.00     0.010 A 
ATOM     62  C   UNL A   1      37.369  29.474  29.968  1.00  0.00     0.010 A 
ATOM     63  C   UNL A   1      37.172  31.596  28.146  1.00  0.00     0.020 A 
ATOM     64  C   UNL A   1      36.138  30.075  29.749  1.00  0.00     0.020 A 
ATOM     65  C   UNL A   1      36.049  31.137  28.846  1.00  0.00     0.054 A 
BRANCH  65  66
ATOM     66  S   UNL A   1      34.450  31.926  28.541  1.00  0.00     0.124 S 
ATOM     67  O   UNL A   1      33.660  30.813  28.022  1.00  0.00    -0.237 OA
ATOM     68  O   UNL A   1      34.075  32.403  29.870  1.00  0.00    -0.237 OA
ATOM     69  O   UNL A   1      34.763  32.973  27.573  1.00  0.00    -0.744 OA
ENDBRANCH  65  66
ENDBRANCH  39  60
ENDBRANCH  13  14
ENDBRANCH   6   8
ENDBRANCH   5   6
ENDBRANCH   4   5
ENDBRANCH   3   4
ENDBRANCH   2   3
ENDBRANCH   1   2
BRANCH   1  70
ATOM     70  C   UNL A   1      53.795  29.613  28.658  1.00  0.00     0.188 C 
BRANCH  70  71
ATOM     71  O   UNL A   1      52.799  28.887  27.944  1.00  0.00    -0.376 OA
BRANCH  71  72
ATOM     72  C   UNL A   1      51.915  29.685  27.151  1.00  0.00     0.202 C 
BRANCH  72  73
ATOM     73  C   UNL A   1      51.680  31.120  27.643  1.00  0.00     0.261 C 
BRANCH  73  74
ATOM     74  O   UNL A   1      50.616  31.194  28.607  1.00  0.00    -0.461 OA
BRANCH  74  75
ATOM     75  C   UNL A   1      50.315  32.406  29.150  1.00  0.00     0.334 C 
ATOM     76  O   UNL A   1      51.027  33.387  28.973  1.00  0.00    -0.249 OA
BRANCH  75  77
ATOM     77  C   UNL A   1      48.933  32.428  29.897  1.00  0.00     0.232 C 
BRANCH  77  78
ATOM     78  C   UNL A   1      49.011  33.136  31.252  1.00  0.00    -0.014 A 
ATOM     79  C   UNL A   1      47.890  33.185  32.097  1.00  0.00     0.006 A 
ATOM     80  C   UNL A   1      50.226  33.677  31.714  1.00  0.00     0.006 A 
ATOM     81  C   UNL A   1      47.983  33.762  33.351  1.00  0.00     0.000 A 
ATOM     82  C   UNL A   1      50.316  34.238  32.988  1.00  0.00     0.000 A 
ATOM     83  C   UNL A   1      49.197  34.270  33.806  1.00  0.00     0.000 A 
ENDBRANCH  77  78
BRANCH  77  84
ATOM     84  N   UNL A   1      47.820  32.868  28.991  1.00  0.00    -0.274 N 
ATOM     85  C   UNL A   1      47.102  31.974  28.210  1.00  0.00     0.267 C 
ATOM     86  C   UNL A   1      47.594  34.186  28.643  1.00  0.00     0.149 C 
ATOM     87  O   UNL A   1      47.413  30.819  27.986  1.00  0.00    -0.268 OA
ATOM     88  C   UNL A   1      45.986  32.656  27.471  1.00  0.00     0.084 C 
ATOM     89  S   UNL A   1      46.094  34.344  27.727  1.00  0.00    -0.054 SA
ATOM     90  S   UNL A   1      48.573  35.519  28.893  1.00  0.00    -0.052 S 
ATOM     91  C   UNL A   1      45.049  32.051  26.724  1.00  0.00     0.068 C 
BRANCH  91  92
ATOM     92  C   UNL A   1      44.929  30.645  26.799  1.00  0.00     0.128 A 
ATOM     93  C   UNL A   1      44.190  30.032  27.780  1.00  0.00     0.051 A 
ATOM     94  O   UNL A   1      45.574  29.678  26.036  1.00  0.00    -0.457 OA
ATOM     95  C   UNL A   1      44.475  28.687  27.672  1.00  0.00     0.051 A 
ATOM     96  C   UNL A   1      45.270  28.440  26.572  1.00  0.00     0.134 A 
BRANCH  96  97
ATOM     97  C   UNL A   1      45.819  27.206  25.927  1.00  0.00     0.017 A 
ATOM     98  C   UNL A   1      47.085  27.157  25.353  1.00  0.00     0.015 A 
ATOM     99  C   UNL A   1      45.133  25.969  25.940  1.00  0.00     0.015 A 
ATOM    100  C   UNL A   1      47.580  25.966  24.770  1.00  0.00     0.040 A 
ATOM    101  C   UNL A   1      45.568  24.796  25.313  1.00  0.00     0.040 A 
ATOM    102  C   UNL A   1      46.805  24.811  24.721  1.00  0.00     0.123 A 
ATOM    103  F   UNL A   1      47.272  23.700  24.135  1.00  0.00    -0.207 F 
ENDBRANCH  96  97
ENDBRANCH  91  92
ENDBRANCH  77  84
ENDBRANCH  75  77
ENDBRANCH  74  75
ENDBRANCH  73  74
ENDBRANCH  72  73
ENDBRANCH  71  72
ENDBRANCH  70  71
ENDBRANCH   1  70
TORSDOF 24
ENDMDL
MODEL 3
REMARK VINA RESULT:      -6.7      7.345     14.144
REMARK SMILES O=C(OCCOCCOCCOC(=O)[C@@H](c1ccccc1)N1C(=O)/C(=C\c2ccc(-c3ccc(F)cc3)o2)SC1=S)c1ccc(-c2c3nc(c(-c4ccc(S(=O)(=O)[O-])cc4)c4ccc([nH]4)c(-c4ccc(S(=O)(=O)[O-])cc4)c4nc(c(-c5ccc(S(=O)(=O)[O-])cc5)c5ccc2[nH]5)C=C4)C=C3)cc1
REMARK SMILES IDX 7 1 6 2 5 3 4 4 3 5 2 6 1 7 42 8 43 9 101 10 44 11 100 12
REMARK SMILES IDX 45 13 46 14 47 15 94 16 48 17 99 18 93 19 95 20 49 21 98 22
REMARK SMILES IDX 92 23 91 24 50 26 80 27 61 28 79 29 62 30 65 31 78 32 96 33
REMARK SMILES IDX 63 34 64 35 77 37 97 38 66 39 51 40 52 41 60 42 53 43 59 44
REMARK SMILES IDX 54 45 55 46 56 47 57 48 58 49 81 50 82 51 90 52 83 53 89 54
REMARK SMILES IDX 84 55 85 56 86 57 87 58 88 59 67 60 68 61 76 62 69 63 75 64
REMARK SMILES IDX 70 65 71 66 72 67 73 68 74 69 8 70 9 71 10 72 11 73 12 74
REMARK SMILES IDX 13 75 14 76 15 77 16 78 17 79 21 80 18 81 20 82 19 83 22 84
REMARK SMILES IDX 23 85 40 86 24 87 25 88 39 89 41 90 26 91 27 92 28 93 38 94
REMARK SMILES IDX 29 95 30 96 31 97 32 98 37 99 33 100 36 101 34 102 35 103
REMARK H PARENT 95 25 65 36
REMARK Flexibility Score: inf
ROOT
ATOM      1  C   UNL A   1      51.992  25.092  41.658  1.00  0.00     0.188 C 
ENDROOT
BRANCH   1   2
ATOM      2  O   UNL A   1      51.680  26.458  41.952  1.00  0.00    -0.376 OA
BRANCH   2   3
ATOM      3  C   UNL A   1      50.345  26.836  41.621  1.00  0.00     0.202 C 
BRANCH   3   4
ATOM      4  C   UNL A   1      50.063  27.009  40.118  1.00  0.00     0.261 C 
BRANCH   4   5
ATOM      5  O   UNL A   1      48.860  27.732  39.814  1.00  0.00    -0.460 OA
BRANCH   5   6
ATOM      6  C   UNL A   1      47.619  27.283  39.505  1.00  0.00     0.338 C 
ATOM      7  O   UNL A   1      47.202  26.311  40.139  1.00  0.00    -0.246 OA
BRANCH   6   8
ATOM      8  C   UNL A   1      46.712  27.866  38.453  1.00  0.00     0.060 A 
ATOM      9  C   UNL A   1      47.067  28.790  37.470  1.00  0.00     0.016 A 
ATOM     10  C   UNL A   1      45.381  27.397  38.431  1.00  0.00     0.016 A 
ATOM     11  C   UNL A   1      46.149  29.228  36.502  1.00  0.00     0.010 A 
ATOM     12  C   UNL A   1      44.455  27.829  37.461  1.00  0.00     0.010 A 
ATOM     13  C   UNL A   1      44.836  28.751  36.480  1.00  0.00    -0.014 A 
BRANCH  13  14
ATOM     14  C   UNL A   1      43.878  29.415  35.548  1.00  0.00     0.031 A 
ATOM     15  C   UNL A   1      43.162  30.598  36.050  1.00  0.00     0.074 A 
ATOM     16  C   UNL A   1      43.486  28.923  34.354  1.00  0.00     0.049 A 
ATOM     17  N   UNL A   1      42.129  31.163  35.503  1.00  0.00    -0.248 NA
ATOM     18  C   UNL A   1      43.507  31.065  37.400  1.00  0.00     0.031 C 
ATOM     19  C   UNL A   1      43.522  27.508  34.134  1.00  0.00     0.029 A 
ATOM     20  N   UNL A   1      42.846  29.412  33.218  1.00  0.00    -0.354 N 
ATOM     21  C   UNL A   1      41.633  31.993  36.477  1.00  0.00     0.074 A 
ATOM     22  C   UNL A   1      42.464  31.836  37.654  1.00  0.00     0.031 C 
ATOM     23  C   UNL A   1      43.037  27.268  32.917  1.00  0.00     0.029 A 
ATOM     24  C   UNL A   1      42.718  28.478  32.175  1.00  0.00     0.049 A 
ATOM     25  H   UNL A   1      42.510  30.334  33.151  1.00  0.00     0.167 HD
ATOM     26  C   UNL A   1      40.555  32.794  36.378  1.00  0.00     0.031 A 
ATOM     27  C   UNL A   1      42.321  28.614  30.856  1.00  0.00     0.031 A 
ATOM     28  C   UNL A   1      39.722  32.849  35.211  1.00  0.00     0.049 A 
ATOM     29  C   UNL A   1      41.319  29.718  30.726  1.00  0.00     0.074 A 
ATOM     30  C   UNL A   1      38.633  33.662  34.977  1.00  0.00     0.029 A 
ATOM     31  N   UNL A   1      39.884  32.049  34.078  1.00  0.00    -0.354 N 
ATOM     32  N   UNL A   1      40.850  30.472  31.686  1.00  0.00    -0.248 NA
ATOM     33  C   UNL A   1      40.653  29.876  29.430  1.00  0.00     0.031 C 
ATOM     34  C   UNL A   1      38.127  33.353  33.711  1.00  0.00     0.029 A 
ATOM     35  C   UNL A   1      38.935  32.389  33.128  1.00  0.00     0.049 A 
ATOM     36  H   UNL A   1      40.568  31.350  33.971  1.00  0.00     0.167 HD
ATOM     37  C   UNL A   1      39.739  31.083  31.159  1.00  0.00     0.074 A 
ATOM     38  C   UNL A   1      39.658  30.686  29.764  1.00  0.00     0.031 C 
ATOM     39  C   UNL A   1      38.842  31.869  31.790  1.00  0.00     0.031 A 
BRANCH  26  40
ATOM     40  C   UNL A   1      40.286  33.630  37.586  1.00  0.00    -0.014 A 
ATOM     41  C   UNL A   1      39.435  33.138  38.596  1.00  0.00     0.010 A 
ATOM     42  C   UNL A   1      40.754  34.951  37.654  1.00  0.00     0.010 A 
ATOM     43  C   UNL A   1      38.983  33.980  39.606  1.00  0.00     0.020 A 
ATOM     44  C   UNL A   1      40.337  35.785  38.693  1.00  0.00     0.020 A 
ATOM     45  C   UNL A   1      39.431  35.302  39.641  1.00  0.00     0.054 A 
BRANCH  45  46
ATOM     46  S   UNL A   1      38.806  36.381  40.955  1.00  0.00     0.124 S 
ATOM     47  O   UNL A   1      38.424  37.575  40.206  1.00  0.00    -0.237 OA
ATOM     48  O   UNL A   1      37.697  35.605  41.505  1.00  0.00    -0.237 OA
ATOM     49  O   UNL A   1      39.953  36.539  41.844  1.00  0.00    -0.744 OA
ENDBRANCH  45  46
ENDBRANCH  26  40
BRANCH  27  50
ATOM     50  C   UNL A   1      42.516  27.711  29.586  1.00  0.00    -0.014 A 
ATOM     51  C   UNL A   1      43.668  27.858  28.782  1.00  0.00     0.010 A 
ATOM     52  C   UNL A   1      41.593  26.738  29.101  1.00  0.00     0.010 A 
ATOM     53  C   UNL A   1      43.973  26.959  27.722  1.00  0.00     0.020 A 
ATOM     54  C   UNL A   1      41.928  25.773  28.118  1.00  0.00     0.020 A 
ATOM     55  C   UNL A   1      43.144  25.865  27.456  1.00  0.00     0.054 A 
BRANCH  55  56
ATOM     56  S   UNL A   1      43.688  24.506  26.357  1.00  0.00     0.124 S 
ATOM     57  O   UNL A   1      43.713  23.358  27.256  1.00  0.00    -0.237 OA
ATOM     58  O   UNL A   1      42.652  24.472  25.326  1.00  0.00    -0.237 OA
ATOM     59  O   UNL A   1      44.993  24.955  25.880  1.00  0.00    -0.744 OA
ENDBRANCH  55  56
ENDBRANCH  27  50
BRANCH  39  60
ATOM     60  C   UNL A   1      37.712  32.317  30.933  1.00  0.00    -0.014 A 
ATOM     61  C   UNL A   1      37.830  33.446  30.103  1.00  0.00     0.010 A 
ATOM     62  C   UNL A   1      36.504  31.612  31.012  1.00  0.00     0.010 A 
ATOM     63  C   UNL A   1      36.728  33.869  29.363  1.00  0.00     0.020 A 
ATOM     64  C   UNL A   1      35.411  32.024  30.263  1.00  0.00     0.020 A 
ATOM     65  C   UNL A   1      35.527  33.154  29.450  1.00  0.00     0.054 A 
BRANCH  65  66
ATOM     66  S   UNL A   1      34.115  33.698  28.461  1.00  0.00     0.124 S 
ATOM     67  O   UNL A   1      33.274  34.343  29.467  1.00  0.00    -0.237 OA
ATOM     68  O   UNL A   1      34.736  34.592  27.488  1.00  0.00    -0.237 OA
ATOM     69  O   UNL A   1      33.582  32.455  27.909  1.00  0.00    -0.744 OA
ENDBRANCH  65  66
ENDBRANCH  39  60
ENDBRANCH  13  14
ENDBRANCH   6   8
ENDBRANCH   5   6
ENDBRANCH   4   5
ENDBRANCH   3   4
ENDBRANCH   2   3
ENDBRANCH   1   2
BRANCH   1  70
ATOM     70  C   UNL A   1      50.992  24.061  42.192  1.00  0.00     0.188 C 
BRANCH  70  71
ATOM     71  O   UNL A   1      50.878  22.922  41.345  1.00  0.00    -0.376 OA
BRANCH  71  72
ATOM     72  C   UNL A   1      51.005  23.189  39.945  1.00  0.00     0.202 C 
BRANCH  72  73
ATOM     73  C   UNL A   1      49.705  23.533  39.204  1.00  0.00     0.261 C 
BRANCH  73  74
ATOM     74  O   UNL A   1      49.761  23.166  37.815  1.00  0.00    -0.461 OA
BRANCH  74  75
ATOM     75  C   UNL A   1      50.461  23.963  36.961  1.00  0.00     0.334 C 
ATOM     76  O   UNL A   1      51.332  24.726  37.358  1.00  0.00    -0.249 OA
BRANCH  75  77
ATOM     77  C   UNL A   1      50.121  23.705  35.449  1.00  0.00     0.232 C 
BRANCH  77  78
ATOM     78  C   UNL A   1      50.879  22.506  34.873  1.00  0.00    -0.014 A 
ATOM     79  C   UNL A   1      51.443  21.543  35.726  1.00  0.00     0.006 A 
ATOM     80  C   UNL A   1      50.956  22.302  33.483  1.00  0.00     0.006 A 
ATOM     81  C   UNL A   1      52.066  20.424  35.202  1.00  0.00     0.000 A 
ATOM     82  C   UNL A   1      51.568  21.161  32.964  1.00  0.00     0.000 A 
ATOM     83  C   UNL A   1      52.112  20.220  33.827  1.00  0.00     0.000 A 
ENDBRANCH  77  78
BRANCH  77  84
ATOM     84  N   UNL A   1      48.640  23.724  35.203  1.00  0.00    -0.274 N 
ATOM     85  C   UNL A   1      47.858  22.582  35.302  1.00  0.00     0.267 C 
ATOM     86  C   UNL A   1      47.978  24.777  34.602  1.00  0.00     0.149 C 
ATOM     87  O   UNL A   1      48.274  21.440  35.362  1.00  0.00    -0.268 OA
ATOM     88  C   UNL A   1      46.401  22.890  35.102  1.00  0.00     0.084 C 
ATOM     89  S   UNL A   1      46.232  24.533  34.657  1.00  0.00    -0.054 SA
ATOM     90  S   UNL A   1      48.620  26.100  33.804  1.00  0.00    -0.052 S 
ATOM     91  C   UNL A   1      45.385  22.024  35.246  1.00  0.00     0.068 C 
BRANCH  91  92
ATOM     92  C   UNL A   1      45.641  20.775  35.854  1.00  0.00     0.128 A 
ATOM     93  C   UNL A   1      45.394  19.590  35.207  1.00  0.00     0.051 A 
ATOM     94  O   UNL A   1      46.044  20.513  37.159  1.00  0.00    -0.457 OA
ATOM     95  C   UNL A   1      45.551  18.607  36.163  1.00  0.00     0.051 A 
ATOM     96  C   UNL A   1      46.010  19.144  37.348  1.00  0.00     0.134 A 
BRANCH  96  97
ATOM     97  C   UNL A   1      46.421  18.574  38.670  1.00  0.00     0.017 A 
ATOM     98  C   UNL A   1      45.577  17.786  39.445  1.00  0.00     0.015 A 
ATOM     99  C   UNL A   1      47.731  18.712  39.185  1.00  0.00     0.015 A 
ATOM    100  C   UNL A   1      46.007  17.247  40.681  1.00  0.00     0.040 A 
ATOM    101  C   UNL A   1      48.163  18.249  40.433  1.00  0.00     0.040 A 
ATOM    102  C   UNL A   1      47.279  17.514  41.181  1.00  0.00     0.123 A 
ATOM    103  F   UNL A   1      47.661  17.026  42.368  1.00  0.00    -0.207 F 
ENDBRANCH  96  97
ENDBRANCH  91  92
ENDBRANCH  77  84
ENDBRANCH  75  77
ENDBRANCH  74  75
ENDBRANCH  73  74
ENDBRANCH  72  73
ENDBRANCH  71  72
ENDBRANCH  70  71
ENDBRANCH   1  70
TORSDOF 24
ENDMDL
