MODEL 1
REMARK VINA RESULT:     -10.3      0.000      0.000
REMARK SMILES O=C(OCCOCCOCCOC(=O)[C@H]1CC=CC[C@H]1C(=O)N[C@@H]1CCN(c2cccc(Cl)c2)C1)c1ccc(-c2c3nc(c(-c4ccc(S(=O)(=O)[O-])cc4)c4ccc([nH]4)c(-c4ccc(S(=O)(=O)[O-])cc4)c4nc(c(-c5ccc(S(=O)(=O)[O-])cc5)c5ccc2[nH]5)C=C4)C=C3)cc1
REMARK SMILES IDX 7 1 6 2 5 3 4 4 3 5 2 6 1 7 36 8 37 9 95 10 38 11 94 12
REMARK SMILES IDX 39 13 40 14 41 15 88 16 42 17 93 18 87 19 89 20 43 21 92 22
REMARK SMILES IDX 86 23 85 24 44 26 74 27 55 28 73 29 56 30 59 31 72 32 90 33
REMARK SMILES IDX 57 34 58 35 71 37 91 38 60 39 45 40 46 41 54 42 47 43 53 44
REMARK SMILES IDX 48 45 49 46 50 47 51 48 52 49 75 50 76 51 84 52 77 53 83 54
REMARK SMILES IDX 78 55 79 56 80 57 81 58 82 59 61 60 62 61 70 62 63 63 69 64
REMARK SMILES IDX 64 65 65 66 66 67 67 68 68 69 8 70 9 71 10 72 11 73 12 74
REMARK SMILES IDX 13 75 14 76 15 77 16 78 20 79 17 80 19 81 18 82 21 83 22 84
REMARK SMILES IDX 23 85 24 87 25 88 35 89 26 90 27 91 28 92 29 93 34 94 30 95
REMARK SMILES IDX 32 96 31 97 33 98
REMARK H PARENT 89 25 59 36 23 86
REMARK Flexibility Score: inf
ROOT
ATOM      1  C   UNL A   1      38.340  21.618  25.579  1.00  0.00     0.188 C 
ENDROOT
BRANCH   1   2
ATOM      2  O   UNL A   1      39.245  22.203  26.499  1.00  0.00    -0.376 OA
BRANCH   2   3
ATOM      3  C   UNL A   1      40.624  21.992  26.147  1.00  0.00     0.202 C 
BRANCH   3   4
ATOM      4  C   UNL A   1      41.578  23.260  26.322  1.00  0.00     0.261 C 
BRANCH   4   5
ATOM      5  O   UNL A   1      40.979  24.420  27.078  1.00  0.00    -0.460 OA
BRANCH   5   6
ATOM      6  C   UNL A   1      40.768  25.688  26.571  1.00  0.00     0.338 C 
ATOM      7  O   UNL A   1      40.806  25.946  25.368  1.00  0.00    -0.246 OA
BRANCH   6   8
ATOM      8  C   UNL A   1      40.474  26.758  27.659  1.00  0.00     0.060 A 
ATOM      9  C   UNL A   1      39.649  26.500  28.753  1.00  0.00     0.016 A 
ATOM     10  C   UNL A   1      41.008  28.049  27.655  1.00  0.00     0.016 A 
ATOM     11  C   UNL A   1      39.659  27.275  29.941  1.00  0.00     0.010 A 
ATOM     12  C   UNL A   1      40.902  28.915  28.805  1.00  0.00     0.010 A 
ATOM     13  C   UNL A   1      40.319  28.501  30.022  1.00  0.00    -0.014 A 
BRANCH  13  14
ATOM     14  C   UNL A   1      40.380  29.252  31.359  1.00  0.00     0.031 A 
ATOM     15  C   UNL A   1      39.246  30.161  31.795  1.00  0.00     0.074 A 
ATOM     16  C   UNL A   1      41.363  29.044  32.276  1.00  0.00     0.049 A 
ATOM     17  N   UNL A   1      39.124  30.837  32.913  1.00  0.00    -0.248 NA
ATOM     18  C   UNL A   1      38.123  30.354  30.866  1.00  0.00     0.031 C 
ATOM     19  C   UNL A   1      42.522  28.212  32.037  1.00  0.00     0.029 A 
ATOM     20  N   UNL A   1      41.563  29.448  33.587  1.00  0.00    -0.354 N 
ATOM     21  C   UNL A   1      37.957  31.581  32.785  1.00  0.00     0.074 A 
ATOM     22  C   UNL A   1      37.338  31.181  31.542  1.00  0.00     0.031 C 
ATOM     23  C   UNL A   1      43.219  28.020  33.165  1.00  0.00     0.029 A 
ATOM     24  C   UNL A   1      42.666  28.865  34.207  1.00  0.00     0.049 A 
ATOM     25  H   UNL A   1      40.976  30.092  34.043  1.00  0.00     0.167 HD
ATOM     26  C   UNL A   1      37.505  32.598  33.559  1.00  0.00     0.031 A 
ATOM     27  C   UNL A   1      43.234  29.034  35.428  1.00  0.00     0.031 A 
ATOM     28  C   UNL A   1      38.193  33.102  34.718  1.00  0.00     0.049 A 
ATOM     29  C   UNL A   1      42.715  30.179  36.261  1.00  0.00     0.074 A 
ATOM     30  C   UNL A   1      37.906  34.234  35.461  1.00  0.00     0.029 A 
ATOM     31  N   UNL A   1      39.322  32.530  35.280  1.00  0.00    -0.354 N 
ATOM     32  N   UNL A   1      41.653  30.921  36.058  1.00  0.00    -0.248 NA
ATOM     33  C   UNL A   1      43.522  30.587  37.422  1.00  0.00     0.031 C 
ATOM     34  C   UNL A   1      38.907  34.388  36.425  1.00  0.00     0.029 A 
ATOM     35  C   UNL A   1      39.766  33.304  36.338  1.00  0.00     0.049 A 
ATOM     36  H   UNL A   1      39.746  31.696  34.974  1.00  0.00     0.167 HD
ATOM     37  C   UNL A   1      41.702  31.918  37.023  1.00  0.00     0.074 A 
ATOM     38  C   UNL A   1      42.841  31.633  37.869  1.00  0.00     0.031 C 
ATOM     39  C   UNL A   1      40.909  33.006  37.160  1.00  0.00     0.031 A 
BRANCH  26  40
ATOM     40  C   UNL A   1      36.323  33.371  33.038  1.00  0.00    -0.014 A 
ATOM     41  C   UNL A   1      36.444  34.345  32.035  1.00  0.00     0.010 A 
ATOM     42  C   UNL A   1      35.054  33.104  33.590  1.00  0.00     0.010 A 
ATOM     43  C   UNL A   1      35.316  35.055  31.608  1.00  0.00     0.020 A 
ATOM     44  C   UNL A   1      33.924  33.793  33.151  1.00  0.00     0.020 A 
ATOM     45  C   UNL A   1      34.064  34.772  32.167  1.00  0.00     0.054 A 
BRANCH  45  46
ATOM     46  S   UNL A   1      32.611  35.678  31.567  1.00  0.00     0.124 S 
ATOM     47  O   UNL A   1      32.459  35.144  30.216  1.00  0.00    -0.237 OA
ATOM     48  O   UNL A   1      31.576  35.283  32.519  1.00  0.00    -0.237 OA
ATOM     49  O   UNL A   1      33.019  37.078  31.640  1.00  0.00    -0.744 OA
ENDBRANCH  45  46
ENDBRANCH  26  40
BRANCH  27  50
ATOM     50  C   UNL A   1      44.452  28.267  35.897  1.00  0.00    -0.014 A 
ATOM     51  C   UNL A   1      44.326  27.078  36.648  1.00  0.00     0.010 A 
ATOM     52  C   UNL A   1      45.754  28.759  35.682  1.00  0.00     0.010 A 
ATOM     53  C   UNL A   1      45.452  26.424  37.181  1.00  0.00     0.020 A 
ATOM     54  C   UNL A   1      46.885  28.083  36.160  1.00  0.00     0.020 A 
ATOM     55  C   UNL A   1      46.728  26.932  36.931  1.00  0.00     0.054 A 
BRANCH  55  56
ATOM     56  S   UNL A   1      48.189  26.081  37.602  1.00  0.00     0.124 S 
ATOM     57  O   UNL A   1      49.212  26.411  36.616  1.00  0.00    -0.237 OA
ATOM     58  O   UNL A   1      48.351  26.701  38.914  1.00  0.00    -0.237 OA
ATOM     59  O   UNL A   1      47.778  24.678  37.632  1.00  0.00    -0.744 OA
ENDBRANCH  55  56
ENDBRANCH  27  50
BRANCH  39  60
ATOM     60  C   UNL A   1      41.253  33.976  38.255  1.00  0.00    -0.014 A 
ATOM     61  C   UNL A   1      42.083  35.084  38.005  1.00  0.00     0.010 A 
ATOM     62  C   UNL A   1      40.677  33.817  39.527  1.00  0.00     0.010 A 
ATOM     63  C   UNL A   1      42.345  36.009  39.017  1.00  0.00     0.020 A 
ATOM     64  C   UNL A   1      40.915  34.755  40.533  1.00  0.00     0.020 A 
ATOM     65  C   UNL A   1      41.755  35.840  40.274  1.00  0.00     0.054 A 
BRANCH  65  66
ATOM     66  S   UNL A   1      42.062  37.087  41.553  1.00  0.00     0.124 S 
ATOM     67  O   UNL A   1      40.720  37.317  42.081  1.00  0.00    -0.237 OA
ATOM     68  O   UNL A   1      42.984  36.401  42.454  1.00  0.00    -0.237 OA
ATOM     69  O   UNL A   1      42.640  38.206  40.813  1.00  0.00    -0.744 OA
ENDBRANCH  65  66
ENDBRANCH  39  60
ENDBRANCH  13  14
ENDBRANCH   6   8
ENDBRANCH   5   6
ENDBRANCH   4   5
ENDBRANCH   3   4
ENDBRANCH   2   3
ENDBRANCH   1   2
BRANCH   1  70
ATOM     70  C   UNL A   1      37.086  22.463  25.308  1.00  0.00     0.188 C 
BRANCH  70  71
ATOM     71  O   UNL A   1      36.531  23.154  26.424  1.00  0.00    -0.376 OA
BRANCH  71  72
ATOM     72  C   UNL A   1      35.124  23.418  26.375  1.00  0.00     0.202 C 
BRANCH  72  73
ATOM     73  C   UNL A   1      34.686  24.639  25.550  1.00  0.00     0.261 C 
BRANCH  73  74
ATOM     74  O   UNL A   1      33.495  25.254  26.083  1.00  0.00    -0.463 OA
BRANCH  74  75
ATOM     75  C   UNL A   1      33.441  26.601  26.023  1.00  0.00     0.310 C 
ATOM     76  O   UNL A   1      34.426  27.311  25.833  1.00  0.00    -0.252 OA
BRANCH  75  77
ATOM     77  C   UNL A   1      32.044  27.196  26.067  1.00  0.00     0.115 C 
ATOM     78  C   UNL A   1      31.965  28.070  27.350  1.00  0.00     0.043 C 
ATOM     79  C   UNL A   1      31.366  27.821  24.805  1.00  0.00     0.096 C 
ATOM     80  C   UNL A   1      32.174  29.532  27.126  1.00  0.00    -0.030 C 
ATOM     81  C   UNL A   1      31.018  29.305  24.978  1.00  0.00     0.041 C 
ATOM     82  C   UNL A   1      31.762  30.099  25.994  1.00  0.00    -0.030 C 
BRANCH  79  83
ATOM     83  C   UNL A   1      31.821  27.336  23.387  1.00  0.00     0.224 C 
ATOM     84  O   UNL A   1      31.581  28.019  22.389  1.00  0.00    -0.275 OA
ATOM     85  N   UNL A   1      32.609  26.187  23.246  1.00  0.00    -0.351 N 
ATOM     86  H   UNL A   1      33.503  26.128  23.655  1.00  0.00     0.163 HD
BRANCH  85  87
ATOM     87  C   UNL A   1      32.045  25.053  22.451  1.00  0.00     0.103 C 
ATOM     88  C   UNL A   1      30.787  24.631  23.162  1.00  0.00     0.048 C 
ATOM     89  C   UNL A   1      32.801  23.626  22.385  1.00  0.00     0.141 C 
ATOM     90  C   UNL A   1      31.392  23.753  24.212  1.00  0.00     0.119 C 
ATOM     91  N   UNL A   1      32.260  22.832  23.514  1.00  0.00    -0.369 N 
BRANCH  91  92
ATOM     92  C   UNL A   1      32.350  21.486  23.824  1.00  0.00     0.038 A 
ATOM     93  C   UNL A   1      32.597  21.021  25.139  1.00  0.00     0.026 A 
ATOM     94  C   UNL A   1      32.276  20.451  22.903  1.00  0.00     0.046 A 
ATOM     95  C   UNL A   1      32.754  19.693  25.560  1.00  0.00     0.004 A 
ATOM     96  C   UNL A   1      32.424  19.093  23.293  1.00  0.00     0.043 A 
ATOM     97  C   UNL A   1      32.654  18.706  24.615  1.00  0.00     0.020 A 
ATOM     98  Cl  UNL A   1      32.351  17.854  22.098  1.00  0.00    -0.084 Cl
ENDBRANCH  91  92
ENDBRANCH  85  87
ENDBRANCH  79  83
ENDBRANCH  75  77
ENDBRANCH  74  75
ENDBRANCH  73  74
ENDBRANCH  72  73
ENDBRANCH  71  72
ENDBRANCH  70  71
ENDBRANCH   1  70
TORSDOF 23
ENDMDL
MODEL 2
REMARK VINA RESULT:     -10.1      2.371      4.324
REMARK SMILES O=C(OCCOCCOCCOC(=O)[C@H]1CC=CC[C@H]1C(=O)N[C@@H]1CCN(c2cccc(Cl)c2)C1)c1ccc(-c2c3nc(c(-c4ccc(S(=O)(=O)[O-])cc4)c4ccc([nH]4)c(-c4ccc(S(=O)(=O)[O-])cc4)c4nc(c(-c5ccc(S(=O)(=O)[O-])cc5)c5ccc2[nH]5)C=C4)C=C3)cc1
REMARK SMILES IDX 7 1 6 2 5 3 4 4 3 5 2 6 1 7 36 8 37 9 95 10 38 11 94 12
REMARK SMILES IDX 39 13 40 14 41 15 88 16 42 17 93 18 87 19 89 20 43 21 92 22
REMARK SMILES IDX 86 23 85 24 44 26 74 27 55 28 73 29 56 30 59 31 72 32 90 33
REMARK SMILES IDX 57 34 58 35 71 37 91 38 60 39 45 40 46 41 54 42 47 43 53 44
REMARK SMILES IDX 48 45 49 46 50 47 51 48 52 49 75 50 76 51 84 52 77 53 83 54
REMARK SMILES IDX 78 55 79 56 80 57 81 58 82 59 61 60 62 61 70 62 63 63 69 64
REMARK SMILES IDX 64 65 65 66 66 67 67 68 68 69 8 70 9 71 10 72 11 73 12 74
REMARK SMILES IDX 13 75 14 76 15 77 16 78 20 79 17 80 19 81 18 82 21 83 22 84
REMARK SMILES IDX 23 85 24 87 25 88 35 89 26 90 27 91 28 92 29 93 34 94 30 95
REMARK SMILES IDX 32 96 31 97 33 98
REMARK H PARENT 89 25 59 36 23 86
REMARK Flexibility Score: inf
ROOT
ATOM      1  C   UNL A   1      40.961  21.813  27.725  1.00  0.00     0.188 C 
ENDROOT
BRANCH   1   2
ATOM      2  O   UNL A   1      42.284  21.435  27.386  1.00  0.00    -0.376 OA
BRANCH   2   3
ATOM      3  C   UNL A   1      42.595  21.648  25.999  1.00  0.00     0.202 C 
BRANCH   3   4
ATOM      4  C   UNL A   1      43.659  22.801  25.703  1.00  0.00     0.261 C 
BRANCH   4   5
ATOM      5  O   UNL A   1      43.520  24.040  26.553  1.00  0.00    -0.460 OA
BRANCH   5   6
ATOM      6  C   UNL A   1      43.504  25.339  26.084  1.00  0.00     0.338 C 
ATOM      7  O   UNL A   1      43.993  25.670  25.004  1.00  0.00    -0.246 OA
BRANCH   6   8
ATOM      8  C   UNL A   1      42.807  26.344  27.043  1.00  0.00     0.060 A 
ATOM      9  C   UNL A   1      41.880  25.937  28.002  1.00  0.00     0.016 A 
ATOM     10  C   UNL A   1      43.046  27.720  27.048  1.00  0.00     0.016 A 
ATOM     11  C   UNL A   1      41.520  26.722  29.127  1.00  0.00     0.010 A 
ATOM     12  C   UNL A   1      42.562  28.568  28.111  1.00  0.00     0.010 A 
ATOM     13  C   UNL A   1      41.880  28.065  29.240  1.00  0.00    -0.014 A 
BRANCH  13  14
ATOM     14  C   UNL A   1      41.549  28.842  30.521  1.00  0.00     0.031 A 
ATOM     15  C   UNL A   1      40.280  29.666  30.627  1.00  0.00     0.074 A 
ATOM     16  C   UNL A   1      42.283  28.729  31.661  1.00  0.00     0.049 A 
ATOM     17  N   UNL A   1      39.832  30.350  31.654  1.00  0.00    -0.248 NA
ATOM     18  C   UNL A   1      39.415  29.753  29.441  1.00  0.00     0.031 C 
ATOM     19  C   UNL A   1      43.522  27.988  31.749  1.00  0.00     0.029 A 
ATOM     20  N   UNL A   1      42.118  29.171  32.965  1.00  0.00    -0.354 N 
ATOM     21  C   UNL A   1      38.684  30.997  31.212  1.00  0.00     0.074 A 
ATOM     22  C   UNL A   1      38.427  30.526  29.870  1.00  0.00     0.031 C 
ATOM     23  C   UNL A   1      43.925  27.871  33.021  1.00  0.00     0.029 A 
ATOM     24  C   UNL A   1      43.069  28.689  33.861  1.00  0.00     0.049 A 
ATOM     25  H   UNL A   1      41.390  29.775  33.235  1.00  0.00     0.167 HD
ATOM     26  C   UNL A   1      37.980  31.988  31.811  1.00  0.00     0.031 A 
ATOM     27  C   UNL A   1      43.299  28.923  35.178  1.00  0.00     0.031 A 
ATOM     28  C   UNL A   1      38.317  32.566  33.085  1.00  0.00     0.049 A 
ATOM     29  C   UNL A   1      42.506  30.039  35.812  1.00  0.00     0.074 A 
ATOM     30  C   UNL A   1      37.771  33.685  33.691  1.00  0.00     0.029 A 
ATOM     31  N   UNL A   1      39.307  32.095  33.931  1.00  0.00    -0.354 N 
ATOM     32  N   UNL A   1      41.478  30.691  35.324  1.00  0.00    -0.248 NA
ATOM     33  C   UNL A   1      42.964  30.530  37.121  1.00  0.00     0.031 C 
ATOM     34  C   UNL A   1      38.485  33.935  34.867  1.00  0.00     0.029 A 
ATOM     35  C   UNL A   1      39.414  32.921  35.037  1.00  0.00     0.049 A 
ATOM     36  H   UNL A   1      39.854  31.292  33.771  1.00  0.00     0.167 HD
ATOM     37  C   UNL A   1      41.211  31.705  36.233  1.00  0.00     0.074 A 
ATOM     38  C   UNL A   1      42.119  31.527  37.346  1.00  0.00     0.031 C 
ATOM     39  C   UNL A   1      40.332  32.729  36.128  1.00  0.00     0.031 A 
BRANCH  26  40
ATOM     40  C   UNL A   1      36.914  32.655  30.984  1.00  0.00    -0.014 A 
ATOM     41  C   UNL A   1      37.215  33.448  29.865  1.00  0.00     0.010 A 
ATOM     42  C   UNL A   1      35.567  32.478  31.360  1.00  0.00     0.010 A 
ATOM     43  C   UNL A   1      36.186  34.069  29.149  1.00  0.00     0.020 A 
ATOM     44  C   UNL A   1      34.538  33.076  30.634  1.00  0.00     0.020 A 
ATOM     45  C   UNL A   1      34.855  33.877  29.537  1.00  0.00     0.054 A 
BRANCH  45  46
ATOM     46  S   UNL A   1      33.537  34.661  28.567  1.00  0.00     0.124 S 
ATOM     47  O   UNL A   1      34.235  35.798  27.972  1.00  0.00    -0.237 OA
ATOM     48  O   UNL A   1      33.155  33.601  27.637  1.00  0.00    -0.237 OA
ATOM     49  O   UNL A   1      32.527  35.004  29.565  1.00  0.00    -0.744 OA
ENDBRANCH  45  46
ENDBRANCH  26  40
BRANCH  27  50
ATOM     50  C   UNL A   1      44.412  28.264  35.962  1.00  0.00    -0.014 A 
ATOM     51  C   UNL A   1      45.708  28.824  36.011  1.00  0.00     0.010 A 
ATOM     52  C   UNL A   1      44.223  27.020  36.596  1.00  0.00     0.010 A 
ATOM     53  C   UNL A   1      46.772  28.156  36.644  1.00  0.00     0.020 A 
ATOM     54  C   UNL A   1      45.265  26.376  37.279  1.00  0.00     0.020 A 
ATOM     55  C   UNL A   1      46.542  26.934  37.278  1.00  0.00     0.054 A 
BRANCH  55  56
ATOM     56  S   UNL A   1      47.911  26.076  38.113  1.00  0.00     0.124 S 
ATOM     57  O   UNL A   1      47.704  24.694  37.694  1.00  0.00    -0.237 OA
ATOM     58  O   UNL A   1      49.091  26.735  37.561  1.00  0.00    -0.237 OA
ATOM     59  O   UNL A   1      47.663  26.344  39.529  1.00  0.00    -0.744 OA
ENDBRANCH  55  56
ENDBRANCH  27  50
BRANCH  39  60
ATOM     60  C   UNL A   1      40.320  33.742  37.237  1.00  0.00    -0.014 A 
ATOM     61  C   UNL A   1      40.917  35.005  37.069  1.00  0.00     0.010 A 
ATOM     62  C   UNL A   1      39.636  33.455  38.431  1.00  0.00     0.010 A 
ATOM     63  C   UNL A   1      40.845  35.957  38.087  1.00  0.00     0.020 A 
ATOM     64  C   UNL A   1      39.538  34.415  39.439  1.00  0.00     0.020 A 
ATOM     65  C   UNL A   1      40.152  35.657  39.265  1.00  0.00     0.054 A 
BRANCH  65  66
ATOM     66  S   UNL A   1      40.020  36.932  40.547  1.00  0.00     0.124 S 
ATOM     67  O   UNL A   1      40.943  37.952  40.057  1.00  0.00    -0.237 OA
ATOM     68  O   UNL A   1      38.604  37.288  40.498  1.00  0.00    -0.237 OA
ATOM     69  O   UNL A   1      40.441  36.242  41.764  1.00  0.00    -0.744 OA
ENDBRANCH  65  66
ENDBRANCH  39  60
ENDBRANCH  13  14
ENDBRANCH   6   8
ENDBRANCH   5   6
ENDBRANCH   4   5
ENDBRANCH   3   4
ENDBRANCH   2   3
ENDBRANCH   1   2
BRANCH   1  70
ATOM     70  C   UNL A   1      40.103  22.241  26.525  1.00  0.00     0.188 C 
BRANCH  70  71
ATOM     71  O   UNL A   1      39.868  23.639  26.376  1.00  0.00    -0.376 OA
BRANCH  71  72
ATOM     72  C   UNL A   1      38.518  24.082  26.557  1.00  0.00     0.202 C 
BRANCH  72  73
ATOM     73  C   UNL A   1      37.521  23.707  25.449  1.00  0.00     0.261 C 
BRANCH  73  74
ATOM     74  O   UNL A   1      36.565  22.721  25.892  1.00  0.00    -0.463 OA
BRANCH  74  75
ATOM     75  C   UNL A   1      35.293  22.895  25.478  1.00  0.00     0.310 C 
ATOM     76  O   UNL A   1      34.572  23.812  25.868  1.00  0.00    -0.252 OA
BRANCH  75  77
ATOM     77  C   UNL A   1      34.837  21.956  24.374  1.00  0.00     0.115 C 
ATOM     78  C   UNL A   1      34.644  20.556  25.024  1.00  0.00     0.043 C 
ATOM     79  C   UNL A   1      33.734  22.358  23.343  1.00  0.00     0.096 C 
ATOM     80  C   UNL A   1      33.233  20.220  25.378  1.00  0.00    -0.030 C 
ATOM     81  C   UNL A   1      32.505  21.441  23.383  1.00  0.00     0.041 C 
ATOM     82  C   UNL A   1      32.230  20.670  24.627  1.00  0.00    -0.030 C 
BRANCH  79  83
ATOM     83  C   UNL A   1      33.504  23.877  23.038  1.00  0.00     0.224 C 
ATOM     84  O   UNL A   1      34.415  24.562  22.568  1.00  0.00    -0.275 OA
ATOM     85  N   UNL A   1      32.232  24.447  23.179  1.00  0.00    -0.351 N 
ATOM     86  H   UNL A   1      31.469  24.129  22.645  1.00  0.00     0.163 HD
BRANCH  85  87
ATOM     87  C   UNL A   1      32.076  25.557  24.168  1.00  0.00     0.103 C 
ATOM     88  C   UNL A   1      30.795  25.279  24.907  1.00  0.00     0.048 C 
ATOM     89  C   UNL A   1      31.777  27.069  23.683  1.00  0.00     0.141 C 
ATOM     90  C   UNL A   1      29.825  25.856  23.924  1.00  0.00     0.119 C 
ATOM     91  N   UNL A   1      30.300  27.188  23.627  1.00  0.00    -0.369 N 
BRANCH  91  92
ATOM     92  C   UNL A   1      29.466  28.285  23.507  1.00  0.00     0.038 A 
ATOM     93  C   UNL A   1      28.101  28.171  23.141  1.00  0.00     0.026 A 
ATOM     94  C   UNL A   1      29.861  29.606  23.660  1.00  0.00     0.046 A 
ATOM     95  C   UNL A   1      27.180  29.208  22.944  1.00  0.00     0.004 A 
ATOM     96  C   UNL A   1      28.954  30.684  23.475  1.00  0.00     0.043 A 
ATOM     97  C   UNL A   1      27.615  30.494  23.126  1.00  0.00     0.020 A 
ATOM     98  Cl  UNL A   1      29.512  32.304  23.652  1.00  0.00    -0.084 Cl
ENDBRANCH  91  92
ENDBRANCH  85  87
ENDBRANCH  79  83
ENDBRANCH  75  77
ENDBRANCH  74  75
ENDBRANCH  73  74
ENDBRANCH  72  73
ENDBRANCH  71  72
ENDBRANCH  70  71
ENDBRANCH   1  70
TORSDOF 23
ENDMDL
MODEL 3
REMARK VINA RESULT:      -9.8      1.618      8.126
REMARK SMILES O=C(OCCOCCOCCOC(=O)[C@H]1CC=CC[C@H]1C(=O)N[C@@H]1CCN(c2cccc(Cl)c2)C1)c1ccc(-c2c3nc(c(-c4ccc(S(=O)(=O)[O-])cc4)c4ccc([nH]4)c(-c4ccc(S(=O)(=O)[O-])cc4)c4nc(c(-c5ccc(S(=O)(=O)[O-])cc5)c5ccc2[nH]5)C=C4)C=C3)cc1
REMARK SMILES IDX 7 1 6 2 5 3 4 4 3 5 2 6 1 7 36 8 37 9 95 10 38 11 94 12
REMARK SMILES IDX 39 13 40 14 41 15 88 16 42 17 93 18 87 19 89 20 43 21 92 22
REMARK SMILES IDX 86 23 85 24 44 26 74 27 55 28 73 29 56 30 59 31 72 32 90 33
REMARK SMILES IDX 57 34 58 35 71 37 91 38 60 39 45 40 46 41 54 42 47 43 53 44
REMARK SMILES IDX 48 45 49 46 50 47 51 48 52 49 75 50 76 51 84 52 77 53 83 54
REMARK SMILES IDX 78 55 79 56 80 57 81 58 82 59 61 60 62 61 70 62 63 63 69 64
REMARK SMILES IDX 64 65 65 66 66 67 67 68 68 69 8 70 9 71 10 72 11 73 12 74
REMARK SMILES IDX 13 75 14 76 15 77 16 78 20 79 17 80 19 81 18 82 21 83 22 84
REMARK SMILES IDX 23 85 24 87 25 88 35 89 26 90 27 91 28 92 29 93 34 94 30 95
REMARK SMILES IDX 32 96 31 97 33 98
REMARK H PARENT 89 25 59 36 23 86
REMARK Flexibility Score: inf
ROOT
ATOM      1  C   UNL A   1      34.841  22.961  26.911  1.00  0.00     0.188 C 
ENDROOT
BRANCH   1   2
ATOM      2  O   UNL A   1      35.858  22.088  26.451  1.00  0.00    -0.376 OA
BRANCH   2   3
ATOM      3  C   UNL A   1      36.916  22.769  25.755  1.00  0.00     0.202 C 
BRANCH   3   4
ATOM      4  C   UNL A   1      37.413  24.130  26.424  1.00  0.00     0.261 C 
BRANCH   4   5
ATOM      5  O   UNL A   1      38.830  24.530  26.097  1.00  0.00    -0.460 OA
BRANCH   5   6
ATOM      6  C   UNL A   1      39.847  24.710  27.015  1.00  0.00     0.338 C 
ATOM      7  O   UNL A   1      40.835  23.979  27.076  1.00  0.00    -0.246 OA
BRANCH   6   8
ATOM      8  C   UNL A   1      39.630  25.923  27.962  1.00  0.00     0.060 A 
ATOM      9  C   UNL A   1      38.920  25.817  29.158  1.00  0.00     0.016 A 
ATOM     10  C   UNL A   1      40.126  27.207  27.721  1.00  0.00     0.016 A 
ATOM     11  C   UNL A   1      39.023  26.756  30.216  1.00  0.00     0.010 A 
ATOM     12  C   UNL A   1      40.106  28.229  28.739  1.00  0.00     0.010 A 
ATOM     13  C   UNL A   1      39.653  27.989  30.054  1.00  0.00    -0.014 A 
BRANCH  13  14
ATOM     14  C   UNL A   1      39.821  28.928  31.256  1.00  0.00     0.031 A 
ATOM     15  C   UNL A   1      41.111  28.948  32.055  1.00  0.00     0.074 A 
ATOM     16  C   UNL A   1      38.901  29.875  31.584  1.00  0.00     0.049 A 
ATOM     17  N   UNL A   1      41.429  29.711  33.075  1.00  0.00    -0.248 NA
ATOM     18  C   UNL A   1      42.164  27.992  31.685  1.00  0.00     0.031 C 
ATOM     19  C   UNL A   1      37.616  30.006  30.936  1.00  0.00     0.029 A 
ATOM     20  N   UNL A   1      38.879  30.929  32.486  1.00  0.00    -0.354 N 
ATOM     21  C   UNL A   1      42.678  29.276  33.504  1.00  0.00     0.074 A 
ATOM     22  C   UNL A   1      43.119  28.274  32.561  1.00  0.00     0.031 C 
ATOM     23  C   UNL A   1      37.000  31.136  31.310  1.00  0.00     0.029 A 
ATOM     24  C   UNL A   1      37.760  31.752  32.381  1.00  0.00     0.049 A 
ATOM     25  H   UNL A   1      39.593  31.083  33.145  1.00  0.00     0.167 HD
ATOM     26  C   UNL A   1      43.340  29.581  34.646  1.00  0.00     0.031 A 
ATOM     27  C   UNL A   1      37.332  32.823  33.097  1.00  0.00     0.031 A 
ATOM     28  C   UNL A   1      42.839  30.466  35.663  1.00  0.00     0.049 A 
ATOM     29  C   UNL A   1      38.085  33.130  34.367  1.00  0.00     0.074 A 
ATOM     30  C   UNL A   1      43.354  30.701  36.926  1.00  0.00     0.029 A 
ATOM     31  N   UNL A   1      41.690  31.232  35.550  1.00  0.00    -0.354 N 
ATOM     32  N   UNL A   1      39.224  32.629  34.782  1.00  0.00    -0.248 NA
ATOM     33  C   UNL A   1      37.452  34.058  35.318  1.00  0.00     0.031 C 
ATOM     34  C   UNL A   1      42.474  31.551  37.605  1.00  0.00     0.029 A 
ATOM     35  C   UNL A   1      41.461  31.914  36.733  1.00  0.00     0.049 A 
ATOM     36  H   UNL A   1      41.123  31.285  34.748  1.00  0.00     0.167 HD
ATOM     37  C   UNL A   1      39.407  33.130  36.064  1.00  0.00     0.074 A 
ATOM     38  C   UNL A   1      38.317  34.045  36.322  1.00  0.00     0.031 C 
ATOM     39  C   UNL A   1      40.362  32.813  36.970  1.00  0.00     0.031 A 
BRANCH  26  40
ATOM     40  C   UNL A   1      44.574  28.772  34.948  1.00  0.00    -0.014 A 
ATOM     41  C   UNL A   1      44.535  27.597  35.714  1.00  0.00     0.010 A 
ATOM     42  C   UNL A   1      45.810  29.226  34.445  1.00  0.00     0.010 A 
ATOM     43  C   UNL A   1      45.716  26.899  35.988  1.00  0.00     0.020 A 
ATOM     44  C   UNL A   1      46.987  28.521  34.698  1.00  0.00     0.020 A 
ATOM     45  C   UNL A   1      46.933  27.365  35.477  1.00  0.00     0.054 A 
BRANCH  45  46
ATOM     46  S   UNL A   1      48.445  26.421  35.815  1.00  0.00     0.124 S 
ATOM     47  O   UNL A   1      48.868  26.037  34.470  1.00  0.00    -0.237 OA
ATOM     48  O   UNL A   1      49.292  27.407  36.481  1.00  0.00    -0.237 OA
ATOM     49  O   UNL A   1      47.988  25.322  36.660  1.00  0.00    -0.744 OA
ENDBRANCH  45  46
ENDBRANCH  26  40
BRANCH  27  50
ATOM     50  C   UNL A   1      36.060  33.581  32.786  1.00  0.00    -0.014 A 
ATOM     51  C   UNL A   1      36.094  34.920  32.336  1.00  0.00     0.010 A 
ATOM     52  C   UNL A   1      34.793  33.013  33.022  1.00  0.00     0.010 A 
ATOM     53  C   UNL A   1      34.913  35.663  32.155  1.00  0.00     0.020 A 
ATOM     54  C   UNL A   1      33.609  33.728  32.789  1.00  0.00     0.020 A 
ATOM     55  C   UNL A   1      33.675  35.060  32.381  1.00  0.00     0.054 A 
BRANCH  55  56
ATOM     56  S   UNL A   1      32.145  36.011  32.131  1.00  0.00     0.124 S 
ATOM     57  O   UNL A   1      31.152  35.165  32.784  1.00  0.00    -0.237 OA
ATOM     58  O   UNL A   1      32.437  37.276  32.800  1.00  0.00    -0.237 OA
ATOM     59  O   UNL A   1      32.035  36.095  30.676  1.00  0.00    -0.744 OA
ENDBRANCH  55  56
ENDBRANCH  27  50
BRANCH  39  60
ATOM     60  C   UNL A   1      40.262  33.450  38.327  1.00  0.00    -0.014 A 
ATOM     61  C   UNL A   1      40.903  34.671  38.601  1.00  0.00     0.010 A 
ATOM     62  C   UNL A   1      39.455  32.856  39.313  1.00  0.00     0.010 A 
ATOM     63  C   UNL A   1      40.752  35.280  39.848  1.00  0.00     0.020 A 
ATOM     64  C   UNL A   1      39.279  33.477  40.551  1.00  0.00     0.020 A 
ATOM     65  C   UNL A   1      39.937  34.680  40.814  1.00  0.00     0.054 A 
BRANCH  65  66
ATOM     66  S   UNL A   1      39.707  35.521  42.403  1.00  0.00     0.124 S 
ATOM     67  O   UNL A   1      38.645  34.728  43.016  1.00  0.00    -0.237 OA
ATOM     68  O   UNL A   1      41.024  35.396  43.024  1.00  0.00    -0.237 OA
ATOM     69  O   UNL A   1      39.330  36.880  42.024  1.00  0.00    -0.744 OA
ENDBRANCH  65  66
ENDBRANCH  39  60
ENDBRANCH  13  14
ENDBRANCH   6   8
ENDBRANCH   5   6
ENDBRANCH   4   5
ENDBRANCH   3   4
ENDBRANCH   2   3
ENDBRANCH   1   2
BRANCH   1  70
ATOM     70  C   UNL A   1      33.597  22.245  27.458  1.00  0.00     0.188 C 
BRANCH  70  71
ATOM     71  O   UNL A   1      32.467  22.181  26.592  1.00  0.00    -0.376 OA
BRANCH  71  72
ATOM     72  C   UNL A   1      31.317  22.939  26.986  1.00  0.00     0.202 C 
BRANCH  72  73
ATOM     73  C   UNL A   1      31.429  24.467  26.860  1.00  0.00     0.261 C 
BRANCH  73  74
ATOM     74  O   UNL A   1      30.472  25.004  25.924  1.00  0.00    -0.463 OA
BRANCH  74  75
ATOM     75  C   UNL A   1      30.740  26.233  25.435  1.00  0.00     0.310 C 
ATOM     76  O   UNL A   1      31.061  27.188  26.140  1.00  0.00    -0.252 OA
BRANCH  75  77
ATOM     77  C   UNL A   1      30.758  26.338  23.919  1.00  0.00     0.115 C 
ATOM     78  C   UNL A   1      30.263  27.767  23.560  1.00  0.00     0.043 C 
ATOM     79  C   UNL A   1      31.961  25.826  23.065  1.00  0.00     0.096 C 
ATOM     80  C   UNL A   1      31.348  28.750  23.266  1.00  0.00    -0.030 C 
ATOM     81  C   UNL A   1      32.631  26.933  22.241  1.00  0.00     0.041 C 
ATOM     82  C   UNL A   1      32.474  28.346  22.681  1.00  0.00    -0.030 C 
BRANCH  79  83
ATOM     83  C   UNL A   1      32.873  24.694  23.647  1.00  0.00     0.224 C 
ATOM     84  O   UNL A   1      33.963  24.969  24.150  1.00  0.00    -0.275 OA
ATOM     85  N   UNL A   1      32.412  23.372  23.715  1.00  0.00    -0.351 N 
ATOM     86  H   UNL A   1      31.619  23.136  24.248  1.00  0.00     0.163 HD
BRANCH  85  87
ATOM     87  C   UNL A   1      33.168  22.334  22.951  1.00  0.00     0.103 C 
ATOM     88  C   UNL A   1      32.137  21.376  22.418  1.00  0.00     0.048 C 
ATOM     89  C   UNL A   1      34.138  21.285  23.706  1.00  0.00     0.141 C 
ATOM     90  C   UNL A   1      31.957  20.522  23.634  1.00  0.00     0.119 C 
ATOM     91  N   UNL A   1      33.285  20.120  24.041  1.00  0.00    -0.369 N 
BRANCH  91  92
ATOM     92  C   UNL A   1      33.594  18.843  24.475  1.00  0.00     0.038 A 
ATOM     93  C   UNL A   1      34.910  18.318  24.430  1.00  0.00     0.026 A 
ATOM     94  C   UNL A   1      32.672  17.914  24.936  1.00  0.00     0.046 A 
ATOM     95  C   UNL A   1      35.329  17.032  24.796  1.00  0.00     0.004 A 
ATOM     96  C   UNL A   1      33.060  16.603  25.322  1.00  0.00     0.043 A 
ATOM     97  C   UNL A   1      34.383  16.159  25.263  1.00  0.00     0.020 A 
ATOM     98  Cl  UNL A   1      31.864  15.486  25.859  1.00  0.00    -0.084 Cl
ENDBRANCH  91  92
ENDBRANCH  85  87
ENDBRANCH  79  83
ENDBRANCH  75  77
ENDBRANCH  74  75
ENDBRANCH  73  74
ENDBRANCH  72  73
ENDBRANCH  71  72
ENDBRANCH  70  71
ENDBRANCH   1  70
TORSDOF 23
ENDMDL
