MODEL 1
REMARK VINA RESULT:     -10.1      0.000      0.000
REMARK SMILES CC(C)(C)c1cc2c(cc1Cl)C=C(C(=O)OCCOCCOCCOC(=O)c1ccc(-c3c4nc(c(-c5ccc(S(=O)(=O)[O-])cc5)c5ccc([nH]5)c(-c5ccc(S(=O)(=O)[O-])cc5)c5nc(c(-c6ccc(S(=O)(=O)[O-])cc6)c6ccc3[nH]6)C=C5)C=C4)cc1)[C@H](C(F)(F)F)O2
REMARK SMILES IDX 21 1 20 2 19 3 18 4 17 5 16 6 14 7 15 8 13 9 5 10 6 11 10 12
REMARK SMILES IDX 7 13 9 14 11 15 8 16 93 17 12 18 88 19 2 20 1 21 3 22 4 23
REMARK SMILES IDX 89 24 90 25 91 26 92 27 22 28 23 29 24 30 25 31 26 32 27 33
REMARK SMILES IDX 28 34 29 35 87 36 30 37 86 38 31 39 32 40 33 41 80 42 34 43
REMARK SMILES IDX 85 44 79 45 81 46 35 47 84 48 78 49 77 50 36 52 66 53 47 54
REMARK SMILES IDX 65 55 48 56 51 57 64 58 82 59 49 60 50 61 63 63 83 64 52 65
REMARK SMILES IDX 37 66 38 67 46 68 39 69 45 70 40 71 41 72 42 73 43 74 44 75
REMARK SMILES IDX 67 76 68 77 76 78 69 79 75 80 70 81 71 82 72 83 73 84 74 85
REMARK SMILES IDX 53 86 54 87 62 88 55 89 61 90 56 91 57 92 58 93 59 94 60 95
REMARK H PARENT 81 51 51 62
REMARK Flexibility Score: inf
ROOT
ATOM      1  C   UNL A   1      32.386  29.741  26.589  1.00  0.00     0.188 C 
ENDROOT
BRANCH   1   2
ATOM      2  C   UNL A   1      32.597  28.218  26.497  1.00  0.00     0.188 C 
BRANCH   2   3
ATOM      3  O   UNL A   1      32.837  27.613  25.240  1.00  0.00    -0.376 OA
BRANCH   3   4
ATOM      4  C   UNL A   1      31.791  26.882  24.612  1.00  0.00     0.202 C 
BRANCH   4   5
ATOM      5  C   UNL A   1      32.152  25.751  23.647  1.00  0.00     0.261 C 
BRANCH   5   6
ATOM      6  O   UNL A   1      33.015  24.783  24.267  1.00  0.00    -0.460 OA
BRANCH   6   7
ATOM      7  C   UNL A   1      33.963  24.268  23.459  1.00  0.00     0.338 C 
ATOM      8  O   UNL A   1      34.092  24.478  22.266  1.00  0.00    -0.246 OA
BRANCH   7   9
ATOM      9  C   UNL A   1      34.933  23.485  24.241  1.00  0.00     0.087 C 
ATOM     10  C   UNL A   1      39.343  22.270  26.403  1.00  0.00    -0.020 A 
ATOM     11  C   UNL A   1      38.399  21.625  25.556  1.00  0.00     0.053 A 
ATOM     12  C   UNL A   1      38.956  23.528  26.908  1.00  0.00     0.045 A 
ATOM     13  C   UNL A   1      37.202  22.224  25.160  1.00  0.00     0.128 A 
ATOM     14  C   UNL A   1      37.743  24.128  26.509  1.00  0.00     0.032 A 
ATOM     15  Cl  UNL A   1      39.869  24.487  28.016  1.00  0.00    -0.084 Cl
ATOM     16  C   UNL A   1      36.883  23.495  25.613  1.00  0.00     0.019 A 
ATOM     17  O   UNL A   1      36.455  21.535  24.243  1.00  0.00    -0.475 OA
ATOM     18  C   UNL A   1      35.746  24.192  25.037  1.00  0.00     0.027 C 
ATOM     19  C   UNL A   1      35.106  22.016  23.972  1.00  0.00     0.316 C 
BRANCH  10  20
ATOM     20  C   UNL A   1      40.702  21.546  26.590  1.00  0.00    -0.012 C 
ATOM     21  C   UNL A   1      41.796  22.266  25.767  1.00  0.00     0.016 C 
ATOM     22  C   UNL A   1      40.791  20.055  26.207  1.00  0.00     0.016 C 
ATOM     23  C   UNL A   1      41.079  21.607  28.095  1.00  0.00     0.016 C 
ENDBRANCH  10  20
BRANCH  19  24
ATOM     24  C   UNL A   1      34.102  21.095  24.686  1.00  0.00     0.430 C 
ATOM     25  F   UNL A   1      33.066  20.787  23.862  1.00  0.00    -0.167 F 
ATOM     26  F   UNL A   1      34.657  19.925  25.075  1.00  0.00    -0.167 F 
ATOM     27  F   UNL A   1      33.555  21.688  25.769  1.00  0.00    -0.167 F 
ENDBRANCH  19  24
ENDBRANCH   7   9
ENDBRANCH   6   7
ENDBRANCH   5   6
ENDBRANCH   4   5
ENDBRANCH   3   4
ENDBRANCH   2   3
ENDBRANCH   1   2
BRANCH   1  28
ATOM     28  O   UNL A   1      33.053  30.522  27.555  1.00  0.00    -0.376 OA
BRANCH  28  29
ATOM     29  C   UNL A   1      34.432  30.822  27.426  1.00  0.00     0.202 C 
BRANCH  29  30
ATOM     30  C   UNL A   1      35.550  29.862  27.851  1.00  0.00     0.261 C 
BRANCH  30  31
ATOM     31  O   UNL A   1      36.682  30.460  28.482  1.00  0.00    -0.460 OA
BRANCH  31  32
ATOM     32  C   UNL A   1      37.272  29.703  29.443  1.00  0.00     0.338 C 
ATOM     33  O   UNL A   1      36.737  29.172  30.402  1.00  0.00    -0.246 OA
BRANCH  32  34
ATOM     34  C   UNL A   1      38.660  29.443  29.026  1.00  0.00     0.060 A 
ATOM     35  C   UNL A   1      38.999  29.430  27.672  1.00  0.00     0.016 A 
ATOM     36  C   UNL A   1      39.621  29.189  30.011  1.00  0.00     0.016 A 
ATOM     37  C   UNL A   1      40.320  29.173  27.304  1.00  0.00     0.010 A 
ATOM     38  C   UNL A   1      40.936  28.911  29.641  1.00  0.00     0.010 A 
ATOM     39  C   UNL A   1      41.296  28.921  28.286  1.00  0.00    -0.014 A 
BRANCH  39  40
ATOM     40  C   UNL A   1      42.723  28.847  27.904  1.00  0.00     0.031 A 
ATOM     41  C   UNL A   1      43.648  30.011  28.076  1.00  0.00     0.074 A 
ATOM     42  C   UNL A   1      43.169  27.689  27.383  1.00  0.00     0.049 A 
ATOM     43  N   UNL A   1      44.935  30.064  27.852  1.00  0.00    -0.248 NA
ATOM     44  C   UNL A   1      43.065  31.271  28.561  1.00  0.00     0.031 C 
ATOM     45  C   UNL A   1      42.341  26.499  27.170  1.00  0.00     0.029 A 
ATOM     46  N   UNL A   1      44.413  27.315  26.948  1.00  0.00    -0.354 N 
ATOM     47  C   UNL A   1      45.328  31.352  28.193  1.00  0.00     0.074 A 
ATOM     48  C   UNL A   1      44.131  32.063  28.594  1.00  0.00     0.031 C 
ATOM     49  C   UNL A   1      43.106  25.521  26.664  1.00  0.00     0.029 A 
ATOM     50  C   UNL A   1      44.468  26.020  26.491  1.00  0.00     0.049 A 
ATOM     51  H   UNL A   1      45.193  27.916  26.961  1.00  0.00     0.167 HD
ATOM     52  C   UNL A   1      46.576  31.875  28.185  1.00  0.00     0.031 A 
ATOM     53  C   UNL A   1      45.496  25.306  25.991  1.00  0.00     0.031 A 
ATOM     54  C   UNL A   1      47.750  31.154  27.757  1.00  0.00     0.049 A 
ATOM     55  C   UNL A   1      46.859  25.932  25.932  1.00  0.00     0.074 A 
ATOM     56  C   UNL A   1      49.064  31.590  27.752  1.00  0.00     0.029 A 
ATOM     57  N   UNL A   1      47.759  29.861  27.253  1.00  0.00    -0.354 N 
ATOM     58  N   UNL A   1      47.228  27.126  26.329  1.00  0.00    -0.248 NA
ATOM     59  C   UNL A   1      47.948  25.118  25.375  1.00  0.00     0.031 C 
ATOM     60  C   UNL A   1      49.854  30.596  27.173  1.00  0.00     0.029 A 
ATOM     61  C   UNL A   1      49.048  29.503  26.894  1.00  0.00     0.049 A 
ATOM     62  H   UNL A   1      46.966  29.285  27.161  1.00  0.00     0.167 HD
ATOM     63  C   UNL A   1      48.595  27.200  26.093  1.00  0.00     0.074 A 
ATOM     64  C   UNL A   1      48.991  25.927  25.525  1.00  0.00     0.031 C 
ATOM     65  C   UNL A   1      49.439  28.232  26.329  1.00  0.00     0.031 A 
BRANCH  52  66
ATOM     66  C   UNL A   1      46.772  33.290  28.668  1.00  0.00    -0.014 A 
ATOM     67  C   UNL A   1      46.834  33.560  30.048  1.00  0.00     0.010 A 
ATOM     68  C   UNL A   1      46.728  34.366  27.763  1.00  0.00     0.010 A 
ATOM     69  C   UNL A   1      46.808  34.876  30.517  1.00  0.00     0.020 A 
ATOM     70  C   UNL A   1      46.729  35.685  28.228  1.00  0.00     0.020 A 
ATOM     71  C   UNL A   1      46.743  35.931  29.603  1.00  0.00     0.054 A 
BRANCH  71  72
ATOM     72  S   UNL A   1      46.663  37.632  30.231  1.00  0.00     0.124 S 
ATOM     73  O   UNL A   1      46.845  37.440  31.667  1.00  0.00    -0.237 OA
ATOM     74  O   UNL A   1      47.771  38.281  29.534  1.00  0.00    -0.237 OA
ATOM     75  O   UNL A   1      45.334  38.083  29.826  1.00  0.00    -0.744 OA
ENDBRANCH  71  72
ENDBRANCH  52  66
BRANCH  53  76
ATOM     76  C   UNL A   1      45.252  23.901  25.568  1.00  0.00    -0.014 A 
ATOM     77  C   UNL A   1      45.347  22.852  26.501  1.00  0.00     0.010 A 
ATOM     78  C   UNL A   1      45.041  23.595  24.212  1.00  0.00     0.010 A 
ATOM     79  C   UNL A   1      45.299  21.521  26.080  1.00  0.00     0.020 A 
ATOM     80  C   UNL A   1      44.963  22.264  23.791  1.00  0.00     0.020 A 
ATOM     81  C   UNL A   1      45.124  21.237  24.723  1.00  0.00     0.054 A 
BRANCH  81  82
ATOM     82  S   UNL A   1      45.137  19.503  24.190  1.00  0.00     0.124 S 
ATOM     83  O   UNL A   1      44.402  19.573  22.930  1.00  0.00    -0.237 OA
ATOM     84  O   UNL A   1      46.563  19.215  24.072  1.00  0.00    -0.237 OA
ATOM     85  O   UNL A   1      44.451  18.807  25.276  1.00  0.00    -0.744 OA
ENDBRANCH  81  82
ENDBRANCH  53  76
BRANCH  65  86
ATOM     86  C   UNL A   1      50.897  28.064  25.982  1.00  0.00    -0.014 A 
ATOM     87  C   UNL A   1      51.347  28.398  24.690  1.00  0.00     0.010 A 
ATOM     88  C   UNL A   1      51.777  27.421  26.869  1.00  0.00     0.010 A 
ATOM     89  C   UNL A   1      52.629  28.037  24.270  1.00  0.00     0.020 A 
ATOM     90  C   UNL A   1      53.072  27.085  26.462  1.00  0.00     0.020 A 
ATOM     91  C   UNL A   1      53.477  27.366  25.155  1.00  0.00     0.054 A 
BRANCH  91  92
ATOM     92  S   UNL A   1      55.108  26.833  24.564  1.00  0.00     0.124 S 
ATOM     93  O   UNL A   1      55.021  25.381  24.688  1.00  0.00    -0.237 OA
ATOM     94  O   UNL A   1      55.139  27.348  23.198  1.00  0.00    -0.237 OA
ATOM     95  O   UNL A   1      56.037  27.483  25.487  1.00  0.00    -0.744 OA
ENDBRANCH  91  92
ENDBRANCH  65  86
ENDBRANCH  39  40
ENDBRANCH  32  34
ENDBRANCH  31  32
ENDBRANCH  30  31
ENDBRANCH  29  30
ENDBRANCH  28  29
ENDBRANCH   1  28
TORSDOF 22
ENDMDL
MODEL 2
REMARK VINA RESULT:     -10.0      2.258      3.444
REMARK SMILES CC(C)(C)c1cc2c(cc1Cl)C=C(C(=O)OCCOCCOCCOC(=O)c1ccc(-c3c4nc(c(-c5ccc(S(=O)(=O)[O-])cc5)c5ccc([nH]5)c(-c5ccc(S(=O)(=O)[O-])cc5)c5nc(c(-c6ccc(S(=O)(=O)[O-])cc6)c6ccc3[nH]6)C=C5)C=C4)cc1)[C@H](C(F)(F)F)O2
REMARK SMILES IDX 21 1 20 2 19 3 18 4 17 5 16 6 14 7 15 8 13 9 5 10 6 11 10 12
REMARK SMILES IDX 7 13 9 14 11 15 8 16 93 17 12 18 88 19 2 20 1 21 3 22 4 23
REMARK SMILES IDX 89 24 90 25 91 26 92 27 22 28 23 29 24 30 25 31 26 32 27 33
REMARK SMILES IDX 28 34 29 35 87 36 30 37 86 38 31 39 32 40 33 41 80 42 34 43
REMARK SMILES IDX 85 44 79 45 81 46 35 47 84 48 78 49 77 50 36 52 66 53 47 54
REMARK SMILES IDX 65 55 48 56 51 57 64 58 82 59 49 60 50 61 63 63 83 64 52 65
REMARK SMILES IDX 37 66 38 67 46 68 39 69 45 70 40 71 41 72 42 73 43 74 44 75
REMARK SMILES IDX 67 76 68 77 76 78 69 79 75 80 70 81 71 82 72 83 73 84 74 85
REMARK SMILES IDX 53 86 54 87 62 88 55 89 61 90 56 91 57 92 58 93 59 94 60 95
REMARK H PARENT 81 51 51 62
REMARK Flexibility Score: inf
ROOT
ATOM      1  C   UNL A   1      32.931  30.602  27.012  1.00  0.00     0.188 C 
ENDROOT
BRANCH   1   2
ATOM      2  C   UNL A   1      33.681  29.287  26.727  1.00  0.00     0.188 C 
BRANCH   2   3
ATOM      3  O   UNL A   1      32.956  28.082  26.562  1.00  0.00    -0.376 OA
BRANCH   3   4
ATOM      4  C   UNL A   1      31.588  28.144  26.175  1.00  0.00     0.202 C 
BRANCH   4   5
ATOM      5  C   UNL A   1      31.010  27.021  25.313  1.00  0.00     0.261 C 
BRANCH   5   6
ATOM      6  O   UNL A   1      31.933  25.927  25.181  1.00  0.00    -0.460 OA
BRANCH   6   7
ATOM      7  C   UNL A   1      31.569  24.797  25.820  1.00  0.00     0.338 C 
ATOM      8  O   UNL A   1      30.613  24.660  26.564  1.00  0.00    -0.246 OA
BRANCH   7   9
ATOM      9  C   UNL A   1      32.426  23.675  25.407  1.00  0.00     0.087 C 
ATOM     10  C   UNL A   1      33.699  18.934  24.181  1.00  0.00    -0.020 A 
ATOM     11  C   UNL A   1      34.186  19.935  25.067  1.00  0.00     0.053 A 
ATOM     12  C   UNL A   1      32.677  19.340  23.298  1.00  0.00     0.045 A 
ATOM     13  C   UNL A   1      33.636  21.215  25.142  1.00  0.00     0.128 A 
ATOM     14  C   UNL A   1      32.126  20.636  23.373  1.00  0.00     0.032 A 
ATOM     15  Cl  UNL A   1      31.964  18.357  22.071  1.00  0.00    -0.084 Cl
ATOM     16  C   UNL A   1      32.580  21.562  24.312  1.00  0.00     0.019 A 
ATOM     17  O   UNL A   1      34.124  22.028  26.128  1.00  0.00    -0.475 OA
ATOM     18  C   UNL A   1      31.879  22.815  24.536  1.00  0.00     0.027 C 
ATOM     19  C   UNL A   1      33.737  23.433  26.100  1.00  0.00     0.316 C 
BRANCH  10  20
ATOM     20  C   UNL A   1      34.294  17.513  24.358  1.00  0.00    -0.012 C 
ATOM     21  C   UNL A   1      35.742  17.616  24.896  1.00  0.00     0.016 C 
ATOM     22  C   UNL A   1      34.363  16.593  23.123  1.00  0.00     0.016 C 
ATOM     23  C   UNL A   1      33.424  16.749  25.392  1.00  0.00     0.016 C 
ENDBRANCH  10  20
BRANCH  19  24
ATOM     24  C   UNL A   1      34.922  24.260  25.572  1.00  0.00     0.430 C 
ATOM     25  F   UNL A   1      35.051  24.107  24.228  1.00  0.00    -0.167 F 
ATOM     26  F   UNL A   1      34.776  25.583  25.806  1.00  0.00    -0.167 F 
ATOM     27  F   UNL A   1      36.096  23.860  26.109  1.00  0.00    -0.167 F 
ENDBRANCH  19  24
ENDBRANCH   7   9
ENDBRANCH   6   7
ENDBRANCH   5   6
ENDBRANCH   4   5
ENDBRANCH   3   4
ENDBRANCH   2   3
ENDBRANCH   1   2
BRANCH   1  28
ATOM     28  O   UNL A   1      33.569  31.696  27.632  1.00  0.00    -0.376 OA
BRANCH  28  29
ATOM     29  C   UNL A   1      34.852  31.556  28.218  1.00  0.00     0.202 C 
BRANCH  29  30
ATOM     30  C   UNL A   1      35.151  31.876  29.688  1.00  0.00     0.261 C 
BRANCH  30  31
ATOM     31  O   UNL A   1      36.527  31.849  30.066  1.00  0.00    -0.460 OA
BRANCH  31  32
ATOM     32  C   UNL A   1      36.895  30.781  30.821  1.00  0.00     0.338 C 
ATOM     33  O   UNL A   1      36.246  30.231  31.695  1.00  0.00    -0.246 OA
BRANCH  32  34
ATOM     34  C   UNL A   1      38.149  30.245  30.266  1.00  0.00     0.060 A 
ATOM     35  C   UNL A   1      38.307  30.102  28.887  1.00  0.00     0.016 A 
ATOM     36  C   UNL A   1      39.165  29.862  31.149  1.00  0.00     0.016 A 
ATOM     37  C   UNL A   1      39.502  29.584  28.388  1.00  0.00     0.010 A 
ATOM     38  C   UNL A   1      40.350  29.325  30.651  1.00  0.00     0.010 A 
ATOM     39  C   UNL A   1      40.532  29.201  29.265  1.00  0.00    -0.014 A 
BRANCH  39  40
ATOM     40  C   UNL A   1      41.863  28.841  28.728  1.00  0.00     0.031 A 
ATOM     41  C   UNL A   1      42.970  29.842  28.627  1.00  0.00     0.074 A 
ATOM     42  C   UNL A   1      42.046  27.572  28.319  1.00  0.00     0.049 A 
ATOM     43  N   UNL A   1      44.206  29.649  28.245  1.00  0.00    -0.248 NA
ATOM     44  C   UNL A   1      42.662  31.230  29.003  1.00  0.00     0.031 C 
ATOM     45  C   UNL A   1      41.023  26.524  28.372  1.00  0.00     0.029 A 
ATOM     46  N   UNL A   1      43.144  26.944  27.792  1.00  0.00    -0.354 N 
ATOM     47  C   UNL A   1      44.836  30.881  28.357  1.00  0.00     0.074 A 
ATOM     48  C   UNL A   1      43.832  31.827  28.800  1.00  0.00     0.031 C 
ATOM     49  C   UNL A   1      41.550  25.379  27.915  1.00  0.00     0.029 A 
ATOM     50  C   UNL A   1      42.934  25.615  27.512  1.00  0.00     0.049 A 
ATOM     51  H   UNL A   1      44.002  27.400  27.630  1.00  0.00     0.167 HD
ATOM     52  C   UNL A   1      46.136  31.180  28.128  1.00  0.00     0.031 A 
ATOM     53  C   UNL A   1      43.758  24.684  26.994  1.00  0.00     0.031 A 
ATOM     54  C   UNL A   1      47.113  30.224  27.663  1.00  0.00     0.049 A 
ATOM     55  C   UNL A   1      45.180  25.057  26.686  1.00  0.00     0.074 A 
ATOM     56  C   UNL A   1      48.465  30.427  27.440  1.00  0.00     0.029 A 
ATOM     57  N   UNL A   1      46.851  28.900  27.342  1.00  0.00    -0.354 N 
ATOM     58  N   UNL A   1      45.780  26.208  26.870  1.00  0.00    -0.248 NA
ATOM     59  C   UNL A   1      46.040  24.011  26.117  1.00  0.00     0.031 C 
ATOM     60  C   UNL A   1      49.001  29.253  26.910  1.00  0.00     0.029 A 
ATOM     61  C   UNL A   1      48.006  28.288  26.883  1.00  0.00     0.049 A 
ATOM     62  H   UNL A   1      45.974  28.461  27.426  1.00  0.00     0.167 HD
ATOM     63  C   UNL A   1      47.095  26.020  26.462  1.00  0.00     0.074 A 
ATOM     64  C   UNL A   1      47.206  24.642  26.030  1.00  0.00     0.031 C 
ATOM     65  C   UNL A   1      48.113  26.913  26.452  1.00  0.00     0.031 A 
BRANCH  52  66
ATOM     66  C   UNL A   1      46.614  32.586  28.386  1.00  0.00    -0.014 A 
ATOM     67  C   UNL A   1      47.133  32.931  29.649  1.00  0.00     0.010 A 
ATOM     68  C   UNL A   1      46.395  33.600  27.437  1.00  0.00     0.010 A 
ATOM     69  C   UNL A   1      47.387  34.267  29.971  1.00  0.00     0.020 A 
ATOM     70  C   UNL A   1      46.674  34.936  27.747  1.00  0.00     0.020 A 
ATOM     71  C   UNL A   1      47.143  35.263  29.021  1.00  0.00     0.054 A 
BRANCH  71  72
ATOM     72  S   UNL A   1      47.435  36.996  29.474  1.00  0.00     0.124 S 
ATOM     73  O   UNL A   1      47.992  36.875  30.818  1.00  0.00    -0.237 OA
ATOM     74  O   UNL A   1      48.366  37.442  28.441  1.00  0.00    -0.237 OA
ATOM     75  O   UNL A   1      46.104  37.596  29.401  1.00  0.00    -0.744 OA
ENDBRANCH  71  72
ENDBRANCH  52  66
BRANCH  53  76
ATOM     76  C   UNL A   1      43.244  23.302  26.798  1.00  0.00    -0.014 A 
ATOM     77  C   UNL A   1      43.074  22.444  27.902  1.00  0.00     0.010 A 
ATOM     78  C   UNL A   1      43.034  22.800  25.502  1.00  0.00     0.010 A 
ATOM     79  C   UNL A   1      42.767  21.095  27.711  1.00  0.00     0.020 A 
ATOM     80  C   UNL A   1      42.697  21.456  25.310  1.00  0.00     0.020 A 
ATOM     81  C   UNL A   1      42.597  20.607  26.413  1.00  0.00     0.054 A 
BRANCH  81  82
ATOM     82  S   UNL A   1      42.269  18.838  26.187  1.00  0.00     0.124 S 
ATOM     83  O   UNL A   1      43.252  18.479  25.168  1.00  0.00    -0.237 OA
ATOM     84  O   UNL A   1      42.514  18.293  27.519  1.00  0.00    -0.237 OA
ATOM     85  O   UNL A   1      40.875  18.802  25.749  1.00  0.00    -0.744 OA
ENDBRANCH  81  82
ENDBRANCH  53  76
BRANCH  65  86
ATOM     86  C   UNL A   1      49.464  26.461  25.958  1.00  0.00    -0.014 A 
ATOM     87  C   UNL A   1      50.366  25.856  26.854  1.00  0.00     0.010 A 
ATOM     88  C   UNL A   1      49.900  26.787  24.662  1.00  0.00     0.010 A 
ATOM     89  C   UNL A   1      51.695  25.641  26.486  1.00  0.00     0.020 A 
ATOM     90  C   UNL A   1      51.224  26.546  24.280  1.00  0.00     0.020 A 
ATOM     91  C   UNL A   1      52.120  26.006  25.205  1.00  0.00     0.054 A 
BRANCH  91  92
ATOM     92  S   UNL A   1      53.870  25.795  24.774  1.00  0.00     0.124 S 
ATOM     93  O   UNL A   1      53.894  26.211  23.374  1.00  0.00    -0.237 OA
ATOM     94  O   UNL A   1      54.542  26.693  25.709  1.00  0.00    -0.237 OA
ATOM     95  O   UNL A   1      54.112  24.372  25.006  1.00  0.00    -0.744 OA
ENDBRANCH  91  92
ENDBRANCH  65  86
ENDBRANCH  39  40
ENDBRANCH  32  34
ENDBRANCH  31  32
ENDBRANCH  30  31
ENDBRANCH  29  30
ENDBRANCH  28  29
ENDBRANCH   1  28
TORSDOF 22
ENDMDL
MODEL 3
REMARK VINA RESULT:      -9.7      2.143      3.416
REMARK SMILES CC(C)(C)c1cc2c(cc1Cl)C=C(C(=O)OCCOCCOCCOC(=O)c1ccc(-c3c4nc(c(-c5ccc(S(=O)(=O)[O-])cc5)c5ccc([nH]5)c(-c5ccc(S(=O)(=O)[O-])cc5)c5nc(c(-c6ccc(S(=O)(=O)[O-])cc6)c6ccc3[nH]6)C=C5)C=C4)cc1)[C@H](C(F)(F)F)O2
REMARK SMILES IDX 21 1 20 2 19 3 18 4 17 5 16 6 14 7 15 8 13 9 5 10 6 11 10 12
REMARK SMILES IDX 7 13 9 14 11 15 8 16 93 17 12 18 88 19 2 20 1 21 3 22 4 23
REMARK SMILES IDX 89 24 90 25 91 26 92 27 22 28 23 29 24 30 25 31 26 32 27 33
REMARK SMILES IDX 28 34 29 35 87 36 30 37 86 38 31 39 32 40 33 41 80 42 34 43
REMARK SMILES IDX 85 44 79 45 81 46 35 47 84 48 78 49 77 50 36 52 66 53 47 54
REMARK SMILES IDX 65 55 48 56 51 57 64 58 82 59 49 60 50 61 63 63 83 64 52 65
REMARK SMILES IDX 37 66 38 67 46 68 39 69 45 70 40 71 41 72 42 73 43 74 44 75
REMARK SMILES IDX 67 76 68 77 76 78 69 79 75 80 70 81 71 82 72 83 73 84 74 85
REMARK SMILES IDX 53 86 54 87 62 88 55 89 61 90 56 91 57 92 58 93 59 94 60 95
REMARK H PARENT 81 51 51 62
REMARK Flexibility Score: inf
ROOT
ATOM      1  C   UNL A   1      35.305  32.357  28.128  1.00  0.00     0.188 C 
ENDROOT
BRANCH   1   2
ATOM      2  C   UNL A   1      34.611  30.982  28.158  1.00  0.00     0.188 C 
BRANCH   2   3
ATOM      3  O   UNL A   1      34.793  30.075  27.086  1.00  0.00    -0.376 OA
BRANCH   3   4
ATOM      4  C   UNL A   1      33.700  29.797  26.221  1.00  0.00     0.202 C 
BRANCH   4   5
ATOM      5  C   UNL A   1      32.274  29.930  26.759  1.00  0.00     0.261 C 
BRANCH   5   6
ATOM      6  O   UNL A   1      31.509  28.735  26.527  1.00  0.00    -0.460 OA
BRANCH   6   7
ATOM      7  C   UNL A   1      31.257  28.465  25.231  1.00  0.00     0.338 C 
ATOM      8  O   UNL A   1      30.675  29.186  24.439  1.00  0.00    -0.246 OA
BRANCH   7   9
ATOM      9  C   UNL A   1      31.895  27.199  24.837  1.00  0.00     0.087 C 
ATOM     10  C   UNL A   1      34.983  23.201  25.125  1.00  0.00    -0.020 A 
ATOM     11  C   UNL A   1      34.668  24.191  24.153  1.00  0.00     0.053 A 
ATOM     12  C   UNL A   1      34.177  23.198  26.282  1.00  0.00     0.045 A 
ATOM     13  C   UNL A   1      33.693  25.169  24.355  1.00  0.00     0.128 A 
ATOM     14  C   UNL A   1      33.189  24.184  26.480  1.00  0.00     0.032 A 
ATOM     15  Cl  UNL A   1      34.287  22.060  27.577  1.00  0.00    -0.084 Cl
ATOM     16  C   UNL A   1      32.968  25.187  25.537  1.00  0.00     0.019 A 
ATOM     17  O   UNL A   1      33.590  26.131  23.387  1.00  0.00    -0.475 OA
ATOM     18  C   UNL A   1      32.107  26.321  25.828  1.00  0.00     0.027 C 
ATOM     19  C   UNL A   1      32.448  27.033  23.449  1.00  0.00     0.316 C 
BRANCH  10  20
ATOM     20  C   UNL A   1      36.217  22.312  24.823  1.00  0.00    -0.012 C 
ATOM     21  C   UNL A   1      35.817  20.819  24.893  1.00  0.00     0.016 C 
ATOM     22  C   UNL A   1      37.461  22.464  25.722  1.00  0.00     0.016 C 
ATOM     23  C   UNL A   1      36.708  22.637  23.386  1.00  0.00     0.016 C 
ENDBRANCH  10  20
BRANCH  19  24
ATOM     24  C   UNL A   1      31.424  26.608  22.382  1.00  0.00     0.430 C 
ATOM     25  F   UNL A   1      32.041  25.958  21.361  1.00  0.00    -0.167 F 
ATOM     26  F   UNL A   1      30.483  25.770  22.871  1.00  0.00    -0.167 F 
ATOM     27  F   UNL A   1      30.802  27.671  21.827  1.00  0.00    -0.167 F 
ENDBRANCH  19  24
ENDBRANCH   7   9
ENDBRANCH   6   7
ENDBRANCH   5   6
ENDBRANCH   4   5
ENDBRANCH   3   4
ENDBRANCH   2   3
ENDBRANCH   1   2
BRANCH   1  28
ATOM     28  O   UNL A   1      34.821  33.446  28.881  1.00  0.00    -0.376 OA
BRANCH  28  29
ATOM     29  C   UNL A   1      35.438  33.820  30.102  1.00  0.00     0.202 C 
BRANCH  29  30
ATOM     30  C   UNL A   1      35.699  32.841  31.253  1.00  0.00     0.261 C 
BRANCH  30  31
ATOM     31  O   UNL A   1      36.973  32.198  31.251  1.00  0.00    -0.460 OA
BRANCH  31  32
ATOM     32  C   UNL A   1      36.933  30.843  31.167  1.00  0.00     0.338 C 
ATOM     33  O   UNL A   1      35.971  30.117  31.348  1.00  0.00    -0.246 OA
BRANCH  32  34
ATOM     34  C   UNL A   1      38.217  30.386  30.610  1.00  0.00     0.060 A 
ATOM     35  C   UNL A   1      38.371  30.221  29.233  1.00  0.00     0.016 A 
ATOM     36  C   UNL A   1      39.268  30.100  31.490  1.00  0.00     0.016 A 
ATOM     37  C   UNL A   1      39.595  29.779  28.732  1.00  0.00     0.010 A 
ATOM     38  C   UNL A   1      40.484  29.638  30.990  1.00  0.00     0.010 A 
ATOM     39  C   UNL A   1      40.659  29.494  29.606  1.00  0.00    -0.014 A 
BRANCH  39  40
ATOM     40  C   UNL A   1      42.007  29.218  29.062  1.00  0.00     0.031 A 
ATOM     41  C   UNL A   1      43.045  30.289  28.945  1.00  0.00     0.074 A 
ATOM     42  C   UNL A   1      42.272  27.960  28.661  1.00  0.00     0.049 A 
ATOM     43  N   UNL A   1      44.288  30.175  28.554  1.00  0.00    -0.248 NA
ATOM     44  C   UNL A   1      42.649  31.657  29.311  1.00  0.00     0.031 C 
ATOM     45  C   UNL A   1      41.321  26.848  28.731  1.00  0.00     0.029 A 
ATOM     46  N   UNL A   1      43.405  27.402  28.131  1.00  0.00    -0.354 N 
ATOM     47  C   UNL A   1      44.836  31.448  28.652  1.00  0.00     0.074 A 
ATOM     48  C   UNL A   1      43.775  32.328  29.094  1.00  0.00     0.031 C 
ATOM     49  C   UNL A   1      41.919  25.736  28.279  1.00  0.00     0.029 A 
ATOM     50  C   UNL A   1      43.281  26.060  27.864  1.00  0.00     0.049 A 
ATOM     51  H   UNL A   1      44.229  27.912  27.958  1.00  0.00     0.167 HD
ATOM     52  C   UNL A   1      46.112  31.829  28.410  1.00  0.00     0.031 A 
ATOM     53  C   UNL A   1      44.162  25.181  27.346  1.00  0.00     0.031 A 
ATOM     54  C   UNL A   1      47.147  30.936  27.946  1.00  0.00     0.049 A 
ATOM     55  C   UNL A   1      45.553  25.645  27.024  1.00  0.00     0.074 A 
ATOM     56  C   UNL A   1      48.480  31.226  27.711  1.00  0.00     0.029 A 
ATOM     57  N   UNL A   1      46.971  29.595  27.637  1.00  0.00    -0.354 N 
ATOM     58  N   UNL A   1      46.077  26.834  27.195  1.00  0.00    -0.248 NA
ATOM     59  C   UNL A   1      46.477  24.653  26.458  1.00  0.00     0.031 C 
ATOM     60  C   UNL A   1      49.090  30.086  27.186  1.00  0.00     0.029 A 
ATOM     61  C   UNL A   1      48.160  29.057  27.174  1.00  0.00     0.049 A 
ATOM     62  H   UNL A   1      46.125  29.100  27.732  1.00  0.00     0.167 HD
ATOM     63  C   UNL A   1      47.399  26.731  26.779  1.00  0.00     0.074 A 
ATOM     64  C   UNL A   1      47.598  25.359  26.356  1.00  0.00     0.031 C 
ATOM     65  C   UNL A   1      48.355  27.689  26.754  1.00  0.00     0.031 A 
BRANCH  52  66
ATOM     66  C   UNL A   1      46.497  33.266  28.654  1.00  0.00    -0.014 A 
ATOM     67  C   UNL A   1      46.785  33.705  29.960  1.00  0.00     0.010 A 
ATOM     68  C   UNL A   1      46.413  34.213  27.618  1.00  0.00     0.010 A 
ATOM     69  C   UNL A   1      46.941  35.067  30.234  1.00  0.00     0.020 A 
ATOM     70  C   UNL A   1      46.596  35.575  27.884  1.00  0.00     0.020 A 
ATOM     71  C   UNL A   1      46.832  35.995  29.194  1.00  0.00     0.054 A 
BRANCH  71  72
ATOM     72  S   UNL A   1      46.992  37.762  29.577  1.00  0.00     0.124 S 
ATOM     73  O   UNL A   1      47.765  37.742  30.815  1.00  0.00    -0.237 OA
ATOM     74  O   UNL A   1      47.691  38.279  28.403  1.00  0.00    -0.237 OA
ATOM     75  O   UNL A   1      45.607  38.208  29.712  1.00  0.00    -0.744 OA
ENDBRANCH  71  72
ENDBRANCH  52  66
BRANCH  53  76
ATOM     76  C   UNL A   1      43.738  23.766  27.166  1.00  0.00    -0.014 A 
ATOM     77  C   UNL A   1      43.750  23.179  25.887  1.00  0.00     0.010 A 
ATOM     78  C   UNL A   1      43.211  23.040  28.248  1.00  0.00     0.010 A 
ATOM     79  C   UNL A   1      43.185  21.918  25.680  1.00  0.00     0.020 A 
ATOM     80  C   UNL A   1      42.674  21.765  28.050  1.00  0.00     0.020 A 
ATOM     81  C   UNL A   1      42.635  21.227  26.762  1.00  0.00     0.054 A 
BRANCH  81  82
ATOM     82  S   UNL A   1      41.845  19.623  26.458  1.00  0.00     0.124 S 
ATOM     83  O   UNL A   1      40.429  19.973  26.510  1.00  0.00    -0.237 OA
ATOM     84  O   UNL A   1      42.356  19.259  25.139  1.00  0.00    -0.237 OA
ATOM     85  O   UNL A   1      42.325  18.791  27.559  1.00  0.00    -0.744 OA
ENDBRANCH  81  82
ENDBRANCH  53  76
BRANCH  65  86
ATOM     86  C   UNL A   1      49.729  27.322  26.252  1.00  0.00    -0.014 A 
ATOM     87  C   UNL A   1      50.013  27.407  24.875  1.00  0.00     0.010 A 
ATOM     88  C   UNL A   1      50.674  26.735  27.112  1.00  0.00     0.010 A 
ATOM     89  C   UNL A   1      51.188  26.858  24.358  1.00  0.00     0.020 A 
ATOM     90  C   UNL A   1      51.865  26.211  26.601  1.00  0.00     0.020 A 
ATOM     91  C   UNL A   1      52.099  26.246  25.224  1.00  0.00     0.054 A 
BRANCH  91  92
ATOM     92  S   UNL A   1      53.579  25.467  24.523  1.00  0.00     0.124 S 
ATOM     93  O   UNL A   1      53.421  25.733  23.096  1.00  0.00    -0.237 OA
ATOM     94  O   UNL A   1      54.665  26.189  25.181  1.00  0.00    -0.237 OA
ATOM     95  O   UNL A   1      53.447  24.065  24.914  1.00  0.00    -0.744 OA
ENDBRANCH  91  92
ENDBRANCH  65  86
ENDBRANCH  39  40
ENDBRANCH  32  34
ENDBRANCH  31  32
ENDBRANCH  30  31
ENDBRANCH  29  30
ENDBRANCH  28  29
ENDBRANCH   1  28
TORSDOF 22
ENDMDL
