MODEL 1
REMARK VINA RESULT:      -8.8      0.000      0.000
REMARK SMILES C[C@@H](C(=O)OCCOCCOCCOC(=O)c1ccc(-c2c3nc(c(-c4ccc(S(=O)(=O)[O-])cc4)c4ccc([nH]4)c(-c4ccc(S(=O)(=O)[O-])cc4)c4nc(c(-c5ccc(S(=O)(=O)[O-])cc5)c5ccc2[nH]5)C=C4)C=C3)cc1)c1ccc2c3cc(Cl)ccc3n(C(=O)c3cocn3)c2c1
REMARK SMILES IDX 9 1 8 2 7 3 6 4 5 5 3 6 4 7 2 8 1 9 77 10 78 11 97 12 79 13
REMARK SMILES IDX 96 14 80 15 88 16 81 17 87 18 82 19 86 20 83 21 85 22 84 23
REMARK SMILES IDX 89 24 90 25 91 26 92 27 95 28 93 29 94 30 10 31 11 32 12 33
REMARK SMILES IDX 13 34 14 35 15 36 16 37 17 38 18 39 76 40 19 41 75 42 20 43
REMARK SMILES IDX 21 44 22 45 69 46 23 47 74 48 68 49 70 50 24 51 73 52 67 53
REMARK SMILES IDX 66 54 25 56 55 57 36 58 54 59 37 60 40 61 53 62 71 63 38 64
REMARK SMILES IDX 39 65 52 67 72 68 41 69 26 70 27 71 35 72 28 73 34 74 29 75
REMARK SMILES IDX 30 76 31 77 32 78 33 79 56 80 57 81 65 82 58 83 64 84 59 85
REMARK SMILES IDX 60 86 61 87 62 88 63 89 42 90 43 91 51 92 44 93 50 94 45 95
REMARK SMILES IDX 46 96 47 97 48 98 49 99
REMARK H PARENT 70 55 40 66
REMARK Flexibility Score: inf
ROOT
ATOM      1  C   UNL A   1      35.251  22.782  23.365  1.00  0.00     0.188 C 
ENDROOT
BRANCH   1   2
ATOM      2  O   UNL A   1      34.654  23.880  22.678  1.00  0.00    -0.376 OA
BRANCH   2   3
ATOM      3  C   UNL A   1      33.695  24.670  23.384  1.00  0.00     0.202 C 
BRANCH   3   4
ATOM      4  C   UNL A   1      33.069  25.856  22.639  1.00  0.00     0.261 C 
BRANCH   4   5
ATOM      5  O   UNL A   1      33.086  27.061  23.429  1.00  0.00    -0.463 OA
BRANCH   5   6
ATOM      6  C   UNL A   1      32.043  27.207  24.286  1.00  0.00     0.313 C 
ATOM      7  O   UNL A   1      30.865  27.144  23.948  1.00  0.00    -0.252 OA
BRANCH   6   8
ATOM      8  C   UNL A   1      32.487  27.393  25.741  1.00  0.00     0.126 C 
ATOM      9  C   UNL A   1      31.574  26.624  26.707  1.00  0.00     0.025 C 
BRANCH   8  10
ATOM     10  C   UNL A   1      32.815  28.843  26.129  1.00  0.00    -0.032 A 
ATOM     11  C   UNL A   1      31.961  29.909  25.818  1.00  0.00     0.005 A 
ATOM     12  C   UNL A   1      33.935  29.110  26.940  1.00  0.00     0.032 A 
ATOM     13  C   UNL A   1      32.165  31.193  26.348  1.00  0.00     0.011 A 
ATOM     14  C   UNL A   1      34.154  30.411  27.449  1.00  0.00     0.058 A 
ATOM     15  C   UNL A   1      33.250  31.435  27.214  1.00  0.00     0.008 A 
ATOM     16  N   UNL A   1      35.191  30.912  28.256  1.00  0.00    -0.274 N 
ATOM     17  C   UNL A   1      33.644  32.543  28.014  1.00  0.00     0.009 A 
ATOM     18  C   UNL A   1      34.823  32.194  28.692  1.00  0.00     0.057 A 
ATOM     19  C   UNL A   1      33.062  33.815  28.225  1.00  0.00     0.031 A 
ATOM     20  C   UNL A   1      35.441  33.122  29.553  1.00  0.00     0.029 A 
ATOM     21  C   UNL A   1      33.652  34.701  29.120  1.00  0.00     0.041 A 
ATOM     22  C   UNL A   1      34.817  34.355  29.782  1.00  0.00     0.023 A 
ATOM     23  Cl  UNL A   1      32.923  36.232  29.411  1.00  0.00    -0.084 Cl
BRANCH  16  24
ATOM     24  C   UNL A   1      36.395  30.194  28.496  1.00  0.00     0.284 C 
ATOM     25  O   UNL A   1      37.077  29.980  27.492  1.00  0.00    -0.266 OA
BRANCH  24  26
ATOM     26  C   UNL A   1      36.835  29.676  29.786  1.00  0.00     0.167 A 
ATOM     27  C   UNL A   1      36.381  29.989  31.047  1.00  0.00     0.231 A 
ATOM     28  N   UNL A   1      37.736  28.623  29.890  1.00  0.00    -0.211 NA
ATOM     29  O   UNL A   1      36.997  29.171  31.941  1.00  0.00    -0.451 OA
ATOM     30  C   UNL A   1      37.826  28.407  31.184  1.00  0.00     0.308 A 
ENDBRANCH  24  26
ENDBRANCH  16  24
ENDBRANCH   8  10
ENDBRANCH   6   8
ENDBRANCH   5   6
ENDBRANCH   4   5
ENDBRANCH   3   4
ENDBRANCH   2   3
ENDBRANCH   1   2
BRANCH   1  31
ATOM     31  C   UNL A   1      36.730  22.918  23.761  1.00  0.00     0.188 C 
BRANCH  31  32
ATOM     32  O   UNL A   1      37.320  21.712  24.211  1.00  0.00    -0.376 OA
BRANCH  32  33
ATOM     33  C   UNL A   1      37.810  21.684  25.543  1.00  0.00     0.202 C 
BRANCH  33  34
ATOM     34  C   UNL A   1      39.307  21.403  25.734  1.00  0.00     0.261 C 
BRANCH  34  35
ATOM     35  O   UNL A   1      40.045  22.401  26.460  1.00  0.00    -0.460 OA
BRANCH  35  36
ATOM     36  C   UNL A   1      41.396  22.375  26.350  1.00  0.00     0.338 C 
ATOM     37  O   UNL A   1      42.062  21.621  25.669  1.00  0.00    -0.246 OA
BRANCH  36  38
ATOM     38  C   UNL A   1      41.904  23.586  27.032  1.00  0.00     0.060 A 
ATOM     39  C   UNL A   1      41.753  24.832  26.409  1.00  0.00     0.016 A 
ATOM     40  C   UNL A   1      42.488  23.493  28.298  1.00  0.00     0.016 A 
ATOM     41  C   UNL A   1      42.200  25.990  27.048  1.00  0.00     0.010 A 
ATOM     42  C   UNL A   1      42.957  24.649  28.925  1.00  0.00     0.010 A 
ATOM     43  C   UNL A   1      42.838  25.899  28.294  1.00  0.00    -0.014 A 
BRANCH  43  44
ATOM     44  C   UNL A   1      43.555  27.072  28.848  1.00  0.00     0.031 A 
ATOM     45  C   UNL A   1      45.030  27.188  28.580  1.00  0.00     0.074 A 
ATOM     46  C   UNL A   1      42.919  28.002  29.585  1.00  0.00     0.049 A 
ATOM     47  N   UNL A   1      45.876  28.102  28.973  1.00  0.00    -0.248 NA
ATOM     48  C   UNL A   1      45.632  26.120  27.760  1.00  0.00     0.031 C 
ATOM     49  C   UNL A   1      41.490  28.006  29.888  1.00  0.00     0.029 A 
ATOM     50  N   UNL A   1      43.399  29.125  30.215  1.00  0.00    -0.354 N 
ATOM     51  C   UNL A   1      47.113  27.710  28.473  1.00  0.00     0.074 A 
ATOM     52  C   UNL A   1      46.908  26.475  27.749  1.00  0.00     0.031 C 
ATOM     53  C   UNL A   1      41.208  29.085  30.639  1.00  0.00     0.029 A 
ATOM     54  C   UNL A   1      42.435  29.841  30.887  1.00  0.00     0.049 A 
ATOM     55  H   UNL A   1      44.346  29.392  30.187  1.00  0.00     0.167 HD
ATOM     56  C   UNL A   1      48.313  28.317  28.614  1.00  0.00     0.031 A 
ATOM     57  C   UNL A   1      42.540  30.976  31.614  1.00  0.00     0.031 A 
ATOM     58  C   UNL A   1      48.517  29.534  29.351  1.00  0.00     0.049 A 
ATOM     59  C   UNL A   1      43.900  31.620  31.763  1.00  0.00     0.074 A 
ATOM     60  C   UNL A   1      49.697  30.225  29.559  1.00  0.00     0.029 A 
ATOM     61  N   UNL A   1      47.518  30.235  30.006  1.00  0.00    -0.354 N 
ATOM     62  N   UNL A   1      45.047  31.269  31.232  1.00  0.00    -0.248 NA
ATOM     63  C   UNL A   1      43.976  32.820  32.611  1.00  0.00     0.031 C 
ATOM     64  C   UNL A   1      49.418  31.319  30.385  1.00  0.00     0.029 A 
ATOM     65  C   UNL A   1      48.057  31.337  30.645  1.00  0.00     0.049 A 
ATOM     66  H   UNL A   1      46.565  29.985  30.017  1.00  0.00     0.167 HD
ATOM     67  C   UNL A   1      45.972  32.218  31.661  1.00  0.00     0.074 A 
ATOM     68  C   UNL A   1      45.245  33.176  32.466  1.00  0.00     0.031 C 
ATOM     69  C   UNL A   1      47.306  32.287  31.426  1.00  0.00     0.031 A 
BRANCH  56  70
ATOM     70  C   UNL A   1      49.508  27.632  28.008  1.00  0.00    -0.014 A 
ATOM     71  C   UNL A   1      50.263  26.697  28.738  1.00  0.00     0.010 A 
ATOM     72  C   UNL A   1      49.870  27.923  26.681  1.00  0.00     0.010 A 
ATOM     73  C   UNL A   1      51.383  26.091  28.161  1.00  0.00     0.020 A 
ATOM     74  C   UNL A   1      50.975  27.302  26.093  1.00  0.00     0.020 A 
ATOM     75  C   UNL A   1      51.735  26.402  26.844  1.00  0.00     0.054 A 
BRANCH  75  76
ATOM     76  S   UNL A   1      53.185  25.594  26.114  1.00  0.00     0.124 S 
ATOM     77  O   UNL A   1      52.614  24.344  25.619  1.00  0.00    -0.237 OA
ATOM     78  O   UNL A   1      53.598  26.545  25.085  1.00  0.00    -0.237 OA
ATOM     79  O   UNL A   1      54.108  25.456  27.237  1.00  0.00    -0.744 OA
ENDBRANCH  75  76
ENDBRANCH  56  70
BRANCH  57  80
ATOM     80  C   UNL A   1      41.328  31.614  32.214  1.00  0.00    -0.014 A 
ATOM     81  C   UNL A   1      40.588  32.558  31.477  1.00  0.00     0.010 A 
ATOM     82  C   UNL A   1      40.893  31.292  33.513  1.00  0.00     0.010 A 
ATOM     83  C   UNL A   1      39.434  33.142  32.003  1.00  0.00     0.020 A 
ATOM     84  C   UNL A   1      39.727  31.860  34.040  1.00  0.00     0.020 A 
ATOM     85  C   UNL A   1      39.006  32.785  33.282  1.00  0.00     0.054 A 
BRANCH  85  86
ATOM     86  S   UNL A   1      37.465  33.498  33.920  1.00  0.00     0.124 S 
ATOM     87  O   UNL A   1      36.600  33.453  32.747  1.00  0.00    -0.237 OA
ATOM     88  O   UNL A   1      37.113  32.583  35.002  1.00  0.00    -0.237 OA
ATOM     89  O   UNL A   1      37.867  34.834  34.360  1.00  0.00    -0.744 OA
ENDBRANCH  85  86
ENDBRANCH  57  80
BRANCH  69  90
ATOM     90  C   UNL A   1      48.061  33.445  32.025  1.00  0.00    -0.014 A 
ATOM     91  C   UNL A   1      48.203  34.657  31.326  1.00  0.00     0.010 A 
ATOM     92  C   UNL A   1      48.578  33.341  33.330  1.00  0.00     0.010 A 
ATOM     93  C   UNL A   1      48.878  35.733  31.908  1.00  0.00     0.020 A 
ATOM     94  C   UNL A   1      49.229  34.424  33.926  1.00  0.00     0.020 A 
ATOM     95  C   UNL A   1      49.389  35.609  33.204  1.00  0.00     0.054 A 
BRANCH  95  96
ATOM     96  S   UNL A   1      50.220  37.036  33.955  1.00  0.00     0.124 S 
ATOM     97  O   UNL A   1      49.214  38.084  33.807  1.00  0.00    -0.237 OA
ATOM     98  O   UNL A   1      50.461  36.586  35.324  1.00  0.00    -0.237 OA
ATOM     99  O   UNL A   1      51.422  37.204  33.141  1.00  0.00    -0.744 OA
ENDBRANCH  95  96
ENDBRANCH  69  90
ENDBRANCH  43  44
ENDBRANCH  36  38
ENDBRANCH  35  36
ENDBRANCH  34  35
ENDBRANCH  33  34
ENDBRANCH  32  33
ENDBRANCH  31  32
ENDBRANCH   1  31
TORSDOF 23
ENDMDL
MODEL 2
REMARK VINA RESULT:      -8.6      4.839      6.514
REMARK SMILES C[C@@H](C(=O)OCCOCCOCCOC(=O)c1ccc(-c2c3nc(c(-c4ccc(S(=O)(=O)[O-])cc4)c4ccc([nH]4)c(-c4ccc(S(=O)(=O)[O-])cc4)c4nc(c(-c5ccc(S(=O)(=O)[O-])cc5)c5ccc2[nH]5)C=C4)C=C3)cc1)c1ccc2c3cc(Cl)ccc3n(C(=O)c3cocn3)c2c1
REMARK SMILES IDX 9 1 8 2 7 3 6 4 5 5 3 6 4 7 2 8 1 9 77 10 78 11 97 12 79 13
REMARK SMILES IDX 96 14 80 15 88 16 81 17 87 18 82 19 86 20 83 21 85 22 84 23
REMARK SMILES IDX 89 24 90 25 91 26 92 27 95 28 93 29 94 30 10 31 11 32 12 33
REMARK SMILES IDX 13 34 14 35 15 36 16 37 17 38 18 39 76 40 19 41 75 42 20 43
REMARK SMILES IDX 21 44 22 45 69 46 23 47 74 48 68 49 70 50 24 51 73 52 67 53
REMARK SMILES IDX 66 54 25 56 55 57 36 58 54 59 37 60 40 61 53 62 71 63 38 64
REMARK SMILES IDX 39 65 52 67 72 68 41 69 26 70 27 71 35 72 28 73 34 74 29 75
REMARK SMILES IDX 30 76 31 77 32 78 33 79 56 80 57 81 65 82 58 83 64 84 59 85
REMARK SMILES IDX 60 86 61 87 62 88 63 89 42 90 43 91 51 92 44 93 50 94 45 95
REMARK SMILES IDX 46 96 47 97 48 98 49 99
REMARK H PARENT 70 55 40 66
REMARK Flexibility Score: inf
ROOT
ATOM      1  C   UNL A   1      34.456  23.085  23.452  1.00  0.00     0.188 C 
ENDROOT
BRANCH   1   2
ATOM      2  O   UNL A   1      33.965  24.306  22.901  1.00  0.00    -0.376 OA
BRANCH   2   3
ATOM      3  C   UNL A   1      33.946  25.461  23.742  1.00  0.00     0.202 C 
BRANCH   3   4
ATOM      4  C   UNL A   1      33.571  26.800  23.096  1.00  0.00     0.261 C 
BRANCH   4   5
ATOM      5  O   UNL A   1      34.184  27.916  23.770  1.00  0.00    -0.463 OA
BRANCH   5   6
ATOM      6  C   UNL A   1      33.378  28.585  24.634  1.00  0.00     0.313 C 
ATOM      7  O   UNL A   1      32.458  29.317  24.285  1.00  0.00    -0.252 OA
BRANCH   6   8
ATOM      8  C   UNL A   1      33.694  28.282  26.103  1.00  0.00     0.126 C 
ATOM      9  C   UNL A   1      32.625  27.375  26.729  1.00  0.00     0.025 C 
BRANCH   8  10
ATOM     10  C   UNL A   1      34.116  29.504  26.932  1.00  0.00    -0.032 A 
ATOM     11  C   UNL A   1      33.480  30.746  26.805  1.00  0.00     0.005 A 
ATOM     12  C   UNL A   1      35.076  29.355  27.952  1.00  0.00     0.032 A 
ATOM     13  C   UNL A   1      33.732  31.796  27.702  1.00  0.00     0.011 A 
ATOM     14  C   UNL A   1      35.349  30.423  28.837  1.00  0.00     0.058 A 
ATOM     15  C   UNL A   1      34.644  31.615  28.762  1.00  0.00     0.008 A 
ATOM     16  N   UNL A   1      36.257  30.513  29.907  1.00  0.00    -0.274 N 
ATOM     17  C   UNL A   1      35.005  32.396  29.895  1.00  0.00     0.009 A 
ATOM     18  C   UNL A   1      35.971  31.685  30.624  1.00  0.00     0.057 A 
ATOM     19  C   UNL A   1      34.555  33.652  30.363  1.00  0.00     0.031 A 
ATOM     20  C   UNL A   1      36.516  32.240  31.800  1.00  0.00     0.029 A 
ATOM     21  C   UNL A   1      35.060  34.163  31.554  1.00  0.00     0.041 A 
ATOM     22  C   UNL A   1      36.016  33.462  32.267  1.00  0.00     0.023 A 
ATOM     23  Cl  UNL A   1      34.483  35.672  32.148  1.00  0.00    -0.084 Cl
BRANCH  16  24
ATOM     24  C   UNL A   1      37.290  29.560  30.121  1.00  0.00     0.284 C 
ATOM     25  O   UNL A   1      37.103  28.800  31.073  1.00  0.00    -0.266 OA
BRANCH  24  26
ATOM     26  C   UNL A   1      38.525  29.456  29.351  1.00  0.00     0.167 A 
ATOM     27  C   UNL A   1      39.794  29.871  29.687  1.00  0.00     0.231 A 
ATOM     28  N   UNL A   1      38.594  28.746  28.159  1.00  0.00    -0.211 NA
ATOM     29  O   UNL A   1      40.652  29.458  28.716  1.00  0.00    -0.451 OA
ATOM     30  C   UNL A   1      39.859  28.827  27.812  1.00  0.00     0.308 A 
ENDBRANCH  24  26
ENDBRANCH  16  24
ENDBRANCH   8  10
ENDBRANCH   6   8
ENDBRANCH   5   6
ENDBRANCH   4   5
ENDBRANCH   3   4
ENDBRANCH   2   3
ENDBRANCH   1   2
BRANCH   1  31
ATOM     31  C   UNL A   1      35.963  22.997  23.739  1.00  0.00     0.188 C 
BRANCH  31  32
ATOM     32  O   UNL A   1      36.388  21.732  24.214  1.00  0.00    -0.376 OA
BRANCH  32  33
ATOM     33  C   UNL A   1      37.078  21.701  25.454  1.00  0.00     0.202 C 
BRANCH  33  34
ATOM     34  C   UNL A   1      38.490  21.097  25.455  1.00  0.00     0.261 C 
BRANCH  34  35
ATOM     35  O   UNL A   1      39.546  21.974  25.882  1.00  0.00    -0.460 OA
BRANCH  35  36
ATOM     36  C   UNL A   1      40.733  21.403  26.206  1.00  0.00     0.338 C 
ATOM     37  O   UNL A   1      41.192  20.368  25.767  1.00  0.00    -0.246 OA
BRANCH  36  38
ATOM     38  C   UNL A   1      41.475  22.391  27.021  1.00  0.00     0.060 A 
ATOM     39  C   UNL A   1      42.875  22.343  27.039  1.00  0.00     0.016 A 
ATOM     40  C   UNL A   1      40.790  23.382  27.728  1.00  0.00     0.016 A 
ATOM     41  C   UNL A   1      43.596  23.283  27.779  1.00  0.00     0.010 A 
ATOM     42  C   UNL A   1      41.511  24.305  28.488  1.00  0.00     0.010 A 
ATOM     43  C   UNL A   1      42.915  24.246  28.537  1.00  0.00    -0.014 A 
BRANCH  43  44
ATOM     44  C   UNL A   1      43.650  25.063  29.532  1.00  0.00     0.031 A 
ATOM     45  C   UNL A   1      43.921  26.505  29.198  1.00  0.00     0.074 A 
ATOM     46  C   UNL A   1      44.081  24.538  30.694  1.00  0.00     0.049 A 
ATOM     47  N   UNL A   1      44.560  27.410  29.888  1.00  0.00    -0.248 NA
ATOM     48  C   UNL A   1      43.404  26.984  27.903  1.00  0.00     0.031 C 
ATOM     49  C   UNL A   1      43.855  23.163  31.133  1.00  0.00     0.029 A 
ATOM     50  N   UNL A   1      44.803  25.103  31.716  1.00  0.00    -0.354 N 
ATOM     51  C   UNL A   1      44.545  28.559  29.105  1.00  0.00     0.074 A 
ATOM     52  C   UNL A   1      43.837  28.237  27.887  1.00  0.00     0.031 C 
ATOM     53  C   UNL A   1      44.421  22.995  32.342  1.00  0.00     0.029 A 
ATOM     54  C   UNL A   1      45.064  24.241  32.756  1.00  0.00     0.049 A 
ATOM     55  H   UNL A   1      45.106  26.040  31.705  1.00  0.00     0.167 HD
ATOM     56  C   UNL A   1      45.085  29.771  29.371  1.00  0.00     0.031 A 
ATOM     57  C   UNL A   1      45.743  24.443  33.908  1.00  0.00     0.031 A 
ATOM     58  C   UNL A   1      45.806  30.083  30.574  1.00  0.00     0.049 A 
ATOM     59  C   UNL A   1      46.346  25.805  34.166  1.00  0.00     0.074 A 
ATOM     60  C   UNL A   1      46.398  31.280  30.935  1.00  0.00     0.029 A 
ATOM     61  N   UNL A   1      46.040  29.190  31.607  1.00  0.00    -0.354 N 
ATOM     62  N   UNL A   1      46.271  26.897  33.442  1.00  0.00    -0.248 NA
ATOM     63  C   UNL A   1      47.126  25.962  35.404  1.00  0.00     0.031 C 
ATOM     64  C   UNL A   1      47.034  31.094  32.167  1.00  0.00     0.029 A 
ATOM     65  C   UNL A   1      46.792  29.799  32.595  1.00  0.00     0.049 A 
ATOM     66  H   UNL A   1      45.718  28.259  31.634  1.00  0.00     0.167 HD
ATOM     67  C   UNL A   1      46.970  27.873  34.149  1.00  0.00     0.074 A 
ATOM     68  C   UNL A   1      47.431  27.252  35.372  1.00  0.00     0.031 C 
ATOM     69  C   UNL A   1      47.223  29.163  33.814  1.00  0.00     0.031 A 
BRANCH  56  70
ATOM     70  C   UNL A   1      44.967  30.827  28.306  1.00  0.00    -0.014 A 
ATOM     71  C   UNL A   1      45.712  30.752  27.116  1.00  0.00     0.010 A 
ATOM     72  C   UNL A   1      44.085  31.904  28.498  1.00  0.00     0.010 A 
ATOM     73  C   UNL A   1      45.603  31.758  26.152  1.00  0.00     0.020 A 
ATOM     74  C   UNL A   1      43.955  32.900  27.526  1.00  0.00     0.020 A 
ATOM     75  C   UNL A   1      44.730  32.828  26.366  1.00  0.00     0.054 A 
BRANCH  75  76
ATOM     76  S   UNL A   1      44.596  34.115  25.094  1.00  0.00     0.124 S 
ATOM     77  O   UNL A   1      43.576  34.993  25.663  1.00  0.00    -0.237 OA
ATOM     78  O   UNL A   1      45.948  34.668  25.053  1.00  0.00    -0.237 OA
ATOM     79  O   UNL A   1      44.189  33.381  23.899  1.00  0.00    -0.744 OA
ENDBRANCH  75  76
ENDBRANCH  56  70
BRANCH  57  80
ATOM     80  C   UNL A   1      45.852  23.359  34.932  1.00  0.00    -0.014 A 
ATOM     81  C   UNL A   1      46.336  22.089  34.566  1.00  0.00     0.010 A 
ATOM     82  C   UNL A   1      45.482  23.571  36.272  1.00  0.00     0.010 A 
ATOM     83  C   UNL A   1      46.477  21.069  35.510  1.00  0.00     0.020 A 
ATOM     84  C   UNL A   1      45.639  22.560  37.228  1.00  0.00     0.020 A 
ATOM     85  C   UNL A   1      46.132  21.313  36.839  1.00  0.00     0.054 A 
BRANCH  85  86
ATOM     86  S   UNL A   1      46.392  20.002  38.066  1.00  0.00     0.124 S 
ATOM     87  O   UNL A   1      47.820  19.735  37.929  1.00  0.00    -0.237 OA
ATOM     88  O   UNL A   1      45.986  20.645  39.313  1.00  0.00    -0.237 OA
ATOM     89  O   UNL A   1      45.502  18.934  37.614  1.00  0.00    -0.744 OA
ENDBRANCH  85  86
ENDBRANCH  57  80
BRANCH  69  90
ATOM     90  C   UNL A   1      48.014  29.994  34.790  1.00  0.00    -0.014 A 
ATOM     91  C   UNL A   1      47.373  30.712  35.816  1.00  0.00     0.010 A 
ATOM     92  C   UNL A   1      49.420  30.005  34.720  1.00  0.00     0.010 A 
ATOM     93  C   UNL A   1      48.122  31.454  36.734  1.00  0.00     0.020 A 
ATOM     94  C   UNL A   1      50.173  30.722  35.653  1.00  0.00     0.020 A 
ATOM     95  C   UNL A   1      49.518  31.455  36.645  1.00  0.00     0.054 A 
BRANCH  95  96
ATOM     96  S   UNL A   1      50.470  32.387  37.876  1.00  0.00     0.124 S 
ATOM     97  O   UNL A   1      49.643  33.577  38.059  1.00  0.00    -0.237 OA
ATOM     98  O   UNL A   1      50.512  31.471  39.013  1.00  0.00    -0.237 OA
ATOM     99  O   UNL A   1      51.755  32.615  37.220  1.00  0.00    -0.744 OA
ENDBRANCH  95  96
ENDBRANCH  69  90
ENDBRANCH  43  44
ENDBRANCH  36  38
ENDBRANCH  35  36
ENDBRANCH  34  35
ENDBRANCH  33  34
ENDBRANCH  32  33
ENDBRANCH  31  32
ENDBRANCH   1  31
TORSDOF 23
ENDMDL
MODEL 3
REMARK VINA RESULT:      -8.6      3.775      8.650
REMARK SMILES C[C@@H](C(=O)OCCOCCOCCOC(=O)c1ccc(-c2c3nc(c(-c4ccc(S(=O)(=O)[O-])cc4)c4ccc([nH]4)c(-c4ccc(S(=O)(=O)[O-])cc4)c4nc(c(-c5ccc(S(=O)(=O)[O-])cc5)c5ccc2[nH]5)C=C4)C=C3)cc1)c1ccc2c3cc(Cl)ccc3n(C(=O)c3cocn3)c2c1
REMARK SMILES IDX 9 1 8 2 7 3 6 4 5 5 3 6 4 7 2 8 1 9 77 10 78 11 97 12 79 13
REMARK SMILES IDX 96 14 80 15 88 16 81 17 87 18 82 19 86 20 83 21 85 22 84 23
REMARK SMILES IDX 89 24 90 25 91 26 92 27 95 28 93 29 94 30 10 31 11 32 12 33
REMARK SMILES IDX 13 34 14 35 15 36 16 37 17 38 18 39 76 40 19 41 75 42 20 43
REMARK SMILES IDX 21 44 22 45 69 46 23 47 74 48 68 49 70 50 24 51 73 52 67 53
REMARK SMILES IDX 66 54 25 56 55 57 36 58 54 59 37 60 40 61 53 62 71 63 38 64
REMARK SMILES IDX 39 65 52 67 72 68 41 69 26 70 27 71 35 72 28 73 34 74 29 75
REMARK SMILES IDX 30 76 31 77 32 78 33 79 56 80 57 81 65 82 58 83 64 84 59 85
REMARK SMILES IDX 60 86 61 87 62 88 63 89 42 90 43 91 51 92 44 93 50 94 45 95
REMARK SMILES IDX 46 96 47 97 48 98 49 99
REMARK H PARENT 70 55 40 66
REMARK Flexibility Score: inf
ROOT
ATOM      1  C   UNL A   1      37.433  22.793  25.914  1.00  0.00     0.188 C 
ENDROOT
BRANCH   1   2
ATOM      2  O   UNL A   1      36.552  23.868  25.590  1.00  0.00    -0.376 OA
BRANCH   2   3
ATOM      3  C   UNL A   1      35.436  23.586  24.744  1.00  0.00     0.202 C 
BRANCH   3   4
ATOM      4  C   UNL A   1      34.034  23.834  25.317  1.00  0.00     0.261 C 
BRANCH   4   5
ATOM      5  O   UNL A   1      33.991  25.006  26.153  1.00  0.00    -0.463 OA
BRANCH   5   6
ATOM      6  C   UNL A   1      33.501  26.124  25.559  1.00  0.00     0.313 C 
ATOM      7  O   UNL A   1      33.781  26.471  24.416  1.00  0.00    -0.252 OA
BRANCH   6   8
ATOM      8  C   UNL A   1      32.504  26.882  26.442  1.00  0.00     0.126 C 
ATOM      9  C   UNL A   1      31.055  26.510  26.096  1.00  0.00     0.025 C 
BRANCH   8  10
ATOM     10  C   UNL A   1      32.799  28.380  26.599  1.00  0.00    -0.032 A 
ATOM     11  C   UNL A   1      31.860  29.365  26.262  1.00  0.00     0.005 A 
ATOM     12  C   UNL A   1      33.991  28.793  27.225  1.00  0.00     0.032 A 
ATOM     13  C   UNL A   1      32.057  30.714  26.596  1.00  0.00     0.011 A 
ATOM     14  C   UNL A   1      34.200  30.157  27.535  1.00  0.00     0.058 A 
ATOM     15  C   UNL A   1      33.222  31.107  27.284  1.00  0.00     0.008 A 
ATOM     16  N   UNL A   1      35.296  30.798  28.138  1.00  0.00    -0.274 N 
ATOM     17  C   UNL A   1      33.649  32.326  27.882  1.00  0.00     0.009 A 
ATOM     18  C   UNL A   1      34.916  32.113  28.450  1.00  0.00     0.057 A 
ATOM     19  C   UNL A   1      33.031  33.592  28.001  1.00  0.00     0.031 A 
ATOM     20  C   UNL A   1      35.582  33.169  29.104  1.00  0.00     0.029 A 
ATOM     21  C   UNL A   1      33.674  34.610  28.696  1.00  0.00     0.041 A 
ATOM     22  C   UNL A   1      34.925  34.397  29.249  1.00  0.00     0.023 A 
ATOM     23  Cl  UNL A   1      32.905  36.138  28.878  1.00  0.00    -0.084 Cl
BRANCH  16  24
ATOM     24  C   UNL A   1      36.556  30.163  28.317  1.00  0.00     0.284 C 
ATOM     25  O   UNL A   1      37.219  30.032  27.287  1.00  0.00    -0.266 OA
BRANCH  24  26
ATOM     26  C   UNL A   1      37.073  29.637  29.575  1.00  0.00     0.167 A 
ATOM     27  C   UNL A   1      38.327  29.145  29.861  1.00  0.00     0.231 A 
ATOM     28  N   UNL A   1      36.347  29.706  30.758  1.00  0.00    -0.211 NA
ATOM     29  O   UNL A   1      38.392  28.880  31.192  1.00  0.00    -0.451 OA
ATOM     30  C   UNL A   1      37.158  29.201  31.661  1.00  0.00     0.308 A 
ENDBRANCH  24  26
ENDBRANCH  16  24
ENDBRANCH   8  10
ENDBRANCH   6   8
ENDBRANCH   5   6
ENDBRANCH   4   5
ENDBRANCH   3   4
ENDBRANCH   2   3
ENDBRANCH   1   2
BRANCH   1  31
ATOM     31  C   UNL A   1      38.875  23.155  26.300  1.00  0.00     0.188 C 
BRANCH  31  32
ATOM     32  O   UNL A   1      38.975  24.004  27.430  1.00  0.00    -0.376 OA
BRANCH  32  33
ATOM     33  C   UNL A   1      39.651  25.241  27.257  1.00  0.00     0.202 C 
BRANCH  33  34
ATOM     34  C   UNL A   1      41.057  25.191  26.641  1.00  0.00     0.261 C 
BRANCH  34  35
ATOM     35  O   UNL A   1      41.963  26.224  27.063  1.00  0.00    -0.460 OA
BRANCH  35  36
ATOM     36  C   UNL A   1      42.873  26.657  26.157  1.00  0.00     0.338 C 
ATOM     37  O   UNL A   1      43.127  26.161  25.077  1.00  0.00    -0.246 OA
BRANCH  36  38
ATOM     38  C   UNL A   1      43.344  27.981  26.622  1.00  0.00     0.060 A 
ATOM     39  C   UNL A   1      44.452  28.047  27.477  1.00  0.00     0.016 A 
ATOM     40  C   UNL A   1      42.717  29.149  26.181  1.00  0.00     0.016 A 
ATOM     41  C   UNL A   1      44.929  29.288  27.905  1.00  0.00     0.010 A 
ATOM     42  C   UNL A   1      43.180  30.387  26.630  1.00  0.00     0.010 A 
ATOM     43  C   UNL A   1      44.272  30.462  27.512  1.00  0.00    -0.014 A 
BRANCH  43  44
ATOM     44  C   UNL A   1      44.594  31.750  28.173  1.00  0.00     0.031 A 
ATOM     45  C   UNL A   1      43.698  32.213  29.290  1.00  0.00     0.074 A 
ATOM     46  C   UNL A   1      45.643  32.498  27.784  1.00  0.00     0.049 A 
ATOM     47  N   UNL A   1      43.758  33.306  30.002  1.00  0.00    -0.248 NA
ATOM     48  C   UNL A   1      42.579  31.321  29.643  1.00  0.00     0.031 C 
ATOM     49  C   UNL A   1      46.592  32.138  26.732  1.00  0.00     0.029 A 
ATOM     50  N   UNL A   1      46.084  33.720  28.229  1.00  0.00    -0.354 N 
ATOM     51  C   UNL A   1      42.673  33.248  30.870  1.00  0.00     0.074 A 
ATOM     52  C   UNL A   1      41.972  32.014  30.595  1.00  0.00     0.031 C 
ATOM     53  C   UNL A   1      47.509  33.115  26.620  1.00  0.00     0.029 A 
ATOM     54  C   UNL A   1      47.205  34.179  27.577  1.00  0.00     0.049 A 
ATOM     55  H   UNL A   1      45.638  34.221  28.949  1.00  0.00     0.167 HD
ATOM     56  C   UNL A   1      42.289  34.147  31.804  1.00  0.00     0.031 A 
ATOM     57  C   UNL A   1      47.902  35.326  27.742  1.00  0.00     0.031 A 
ATOM     58  C   UNL A   1      42.977  35.382  32.062  1.00  0.00     0.049 A 
ATOM     59  C   UNL A   1      47.435  36.316  28.785  1.00  0.00     0.074 A 
ATOM     60  C   UNL A   1      42.662  36.365  32.983  1.00  0.00     0.029 A 
ATOM     61  N   UNL A   1      44.112  35.807  31.392  1.00  0.00    -0.354 N 
ATOM     62  N   UNL A   1      46.443  36.217  29.638  1.00  0.00    -0.248 NA
ATOM     63  C   UNL A   1      48.188  37.576  28.887  1.00  0.00     0.031 C 
ATOM     64  C   UNL A   1      43.581  37.409  32.834  1.00  0.00     0.029 A 
ATOM     65  C   UNL A   1      44.497  37.051  31.858  1.00  0.00     0.049 A 
ATOM     66  H   UNL A   1      44.576  35.299  30.687  1.00  0.00     0.167 HD
ATOM     67  C   UNL A   1      46.471  37.387  30.393  1.00  0.00     0.074 A 
ATOM     68  C   UNL A   1      47.598  38.163  29.919  1.00  0.00     0.031 C 
ATOM     69  C   UNL A   1      45.635  37.795  31.381  1.00  0.00     0.031 A 
BRANCH  56  70
ATOM     70  C   UNL A   1      41.028  33.851  32.569  1.00  0.00    -0.014 A 
ATOM     71  C   UNL A   1      41.042  33.038  33.716  1.00  0.00     0.010 A 
ATOM     72  C   UNL A   1      39.812  34.410  32.138  1.00  0.00     0.010 A 
ATOM     73  C   UNL A   1      39.854  32.758  34.397  1.00  0.00     0.020 A 
ATOM     74  C   UNL A   1      38.625  34.151  32.829  1.00  0.00     0.020 A 
ATOM     75  C   UNL A   1      38.652  33.312  33.945  1.00  0.00     0.054 A 
BRANCH  75  76
ATOM     76  S   UNL A   1      37.125  32.944  34.852  1.00  0.00     0.124 S 
ATOM     77  O   UNL A   1      37.641  32.316  36.066  1.00  0.00    -0.237 OA
ATOM     78  O   UNL A   1      36.533  34.267  35.033  1.00  0.00    -0.237 OA
ATOM     79  O   UNL A   1      36.394  32.055  33.954  1.00  0.00    -0.744 OA
ENDBRANCH  75  76
ENDBRANCH  56  70
BRANCH  57  80
ATOM     80  C   UNL A   1      49.140  35.589  26.946  1.00  0.00    -0.014 A 
ATOM     81  C   UNL A   1      49.055  36.244  25.703  1.00  0.00     0.010 A 
ATOM     82  C   UNL A   1      50.410  35.199  27.409  1.00  0.00     0.010 A 
ATOM     83  C   UNL A   1      50.200  36.530  24.956  1.00  0.00     0.020 A 
ATOM     84  C   UNL A   1      51.564  35.498  26.675  1.00  0.00     0.020 A 
ATOM     85  C   UNL A   1      51.451  36.160  25.450  1.00  0.00     0.054 A 
BRANCH  85  86
ATOM     86  S   UNL A   1      52.933  36.605  24.503  1.00  0.00     0.124 S 
ATOM     87  O   UNL A   1      53.969  35.832  25.178  1.00  0.00    -0.237 OA
ATOM     88  O   UNL A   1      52.594  36.164  23.153  1.00  0.00    -0.237 OA
ATOM     89  O   UNL A   1      53.016  38.056  24.667  1.00  0.00    -0.744 OA
ENDBRANCH  85  86
ENDBRANCH  57  80
BRANCH  69  90
ATOM     90  C   UNL A   1      45.917  39.125  32.029  1.00  0.00    -0.014 A 
ATOM     91  C   UNL A   1      45.521  40.328  31.418  1.00  0.00     0.010 A 
ATOM     92  C   UNL A   1      46.529  39.168  33.296  1.00  0.00     0.010 A 
ATOM     93  C   UNL A   1      45.762  41.553  32.046  1.00  0.00     0.020 A 
ATOM     94  C   UNL A   1      46.746  40.390  33.939  1.00  0.00     0.020 A 
ATOM     95  C   UNL A   1      46.374  41.576  33.303  1.00  0.00     0.054 A 
BRANCH  95  96
ATOM     96  S   UNL A   1      46.633  43.175  34.119  1.00  0.00     0.124 S 
ATOM     97  O   UNL A   1      46.269  42.872  35.500  1.00  0.00    -0.237 OA
ATOM     98  O   UNL A   1      48.052  43.431  33.885  1.00  0.00    -0.237 OA
ATOM     99  O   UNL A   1      45.721  44.074  33.416  1.00  0.00    -0.744 OA
ENDBRANCH  95  96
ENDBRANCH  69  90
ENDBRANCH  43  44
ENDBRANCH  36  38
ENDBRANCH  35  36
ENDBRANCH  34  35
ENDBRANCH  33  34
ENDBRANCH  32  33
ENDBRANCH  31  32
ENDBRANCH   1  31
TORSDOF 23
ENDMDL
