MODEL 1
REMARK VINA RESULT:      -7.1      0.000      0.000
REMARK SMILES CCCc1nc2cc(C(=O)OCCOCCOCCOC(=O)c3ccc(-c4c5nc(c(-c6ccc(S(=O)(=O)[O-])cc6)c6ccc([nH]6)c(-c6ccc(S(=O)(=O)[O-])cc6)c6nc(c(-c7ccc(S(=O)(=O)[O-])cc7)c7ccc4[nH]7)C=C6)C=C5)cc3)ccc2n1[C@H](CO)C(C)C
REMARK SMILES IDX 15 1 14 2 13 3 12 4 11 5 9 6 10 7 8 8 4 9 5 10 86 11 6 12
REMARK SMILES IDX 85 13 7 14 84 15 83 16 3 17 2 18 1 19 87 20 90 21 91 22
REMARK SMILES IDX 92 23 88 24 89 25 16 27 17 28 18 29 19 30 20 31 21 32 22 33
REMARK SMILES IDX 23 34 24 35 82 36 25 37 81 38 26 39 27 40 28 41 75 42 29 43
REMARK SMILES IDX 80 44 74 45 76 46 30 47 79 48 73 49 72 50 31 52 61 53 42 54
REMARK SMILES IDX 60 55 43 56 46 57 59 58 77 59 44 60 45 61 58 63 78 64 47 65
REMARK SMILES IDX 32 66 33 67 41 68 34 69 40 70 35 71 36 72 37 73 38 74 39 75
REMARK SMILES IDX 62 76 63 77 71 78 64 79 70 80 65 81 66 82 67 83 68 84 69 85
REMARK SMILES IDX 48 86 49 87 57 88 50 89 56 90 51 91 52 92 53 93 54 94 55 95
REMARK H PARENT 89 26 76 51 46 62
REMARK Flexibility Score: inf
ROOT
ATOM      1  C   UNL A   1      50.368  32.502  28.965  1.00  0.00     0.188 C 
ENDROOT
BRANCH   1   2
ATOM      2  O   UNL A   1      50.837  31.234  29.346  1.00  0.00    -0.376 OA
BRANCH   2   3
ATOM      3  C   UNL A   1      50.098  30.086  28.986  1.00  0.00     0.202 C 
BRANCH   3   4
ATOM      4  C   UNL A   1      49.672  29.793  27.538  1.00  0.00     0.261 C 
BRANCH   4   5
ATOM      5  O   UNL A   1      48.504  28.959  27.391  1.00  0.00    -0.460 OA
BRANCH   5   6
ATOM      6  C   UNL A   1      48.774  27.645  27.190  1.00  0.00     0.338 C 
ATOM      7  O   UNL A   1      49.873  27.171  26.913  1.00  0.00    -0.246 OA
BRANCH   6   8
ATOM      8  C   UNL A   1      47.616  26.765  27.467  1.00  0.00     0.062 A 
ATOM      9  C   UNL A   1      45.258  23.118  26.209  1.00  0.00     0.110 A 
ATOM     10  N   UNL A   1      46.522  23.315  26.516  1.00  0.00    -0.233 NA
ATOM     11  N   UNL A   1      44.511  24.156  26.741  1.00  0.00    -0.322 N 
ATOM     12  C   UNL A   1      46.622  24.597  27.005  1.00  0.00     0.090 A 
ATOM     13  C   UNL A   1      45.372  25.160  27.158  1.00  0.00     0.069 A 
ATOM     14  C   UNL A   1      47.755  25.389  27.253  1.00  0.00     0.046 A 
ATOM     15  C   UNL A   1      45.213  26.489  27.594  1.00  0.00     0.029 A 
ATOM     16  C   UNL A   1      46.358  27.300  27.691  1.00  0.00     0.018 A 
BRANCH   9  17
ATOM     17  C   UNL A   1      44.767  22.067  25.239  1.00  0.00     0.075 C 
BRANCH  17  18
ATOM     18  C   UNL A   1      45.639  20.823  25.054  1.00  0.00     0.005 C 
ATOM     19  C   UNL A   1      45.021  19.742  24.190  1.00  0.00     0.004 C 
ENDBRANCH  17  18
ENDBRANCH   9  17
BRANCH  11  20
ATOM     20  C   UNL A   1      43.057  24.243  26.758  1.00  0.00     0.117 C 
BRANCH  20  21
ATOM     21  C   UNL A   1      42.498  24.096  28.202  1.00  0.00     0.008 C 
ATOM     22  C   UNL A   1      40.979  24.258  28.228  1.00  0.00     0.009 C 
ATOM     23  C   UNL A   1      42.861  22.761  28.866  1.00  0.00     0.009 C 
ENDBRANCH  20  21
BRANCH  20  24
ATOM     24  C   UNL A   1      42.611  25.536  26.056  1.00  0.00     0.181 C 
BRANCH  24  25
ATOM     25  O   UNL A   1      41.846  25.243  24.897  1.00  0.00    -0.394 OA
ATOM     26  H   UNL A   1      42.203  25.734  24.141  1.00  0.00     0.210 HD
ENDBRANCH  24  25
ENDBRANCH  20  24
ENDBRANCH  11  20
ENDBRANCH   6   8
ENDBRANCH   5   6
ENDBRANCH   4   5
ENDBRANCH   3   4
ENDBRANCH   2   3
ENDBRANCH   1   2
BRANCH   1  27
ATOM     27  C   UNL A   1      51.137  33.238  27.842  1.00  0.00     0.188 C 
BRANCH  27  28
ATOM     28  O   UNL A   1      50.548  33.353  26.555  1.00  0.00    -0.376 OA
BRANCH  28  29
ATOM     29  C   UNL A   1      49.145  33.569  26.499  1.00  0.00     0.202 C 
BRANCH  29  30
ATOM     30  C   UNL A   1      48.630  34.614  25.493  1.00  0.00     0.261 C 
BRANCH  30  31
ATOM     31  O   UNL A   1      47.188  34.632  25.395  1.00  0.00    -0.460 OA
BRANCH  31  32
ATOM     32  C   UNL A   1      46.514  35.358  26.323  1.00  0.00     0.338 C 
ATOM     33  O   UNL A   1      46.232  36.555  26.236  1.00  0.00    -0.246 OA
BRANCH  32  34
ATOM     34  C   UNL A   1      45.849  34.418  27.269  1.00  0.00     0.060 A 
ATOM     35  C   UNL A   1      45.009  33.365  26.876  1.00  0.00     0.016 A 
ATOM     36  C   UNL A   1      45.895  34.774  28.613  1.00  0.00     0.016 A 
ATOM     37  C   UNL A   1      44.105  32.783  27.804  1.00  0.00     0.010 A 
ATOM     38  C   UNL A   1      45.010  34.179  29.515  1.00  0.00     0.010 A 
ATOM     39  C   UNL A   1      44.034  33.238  29.129  1.00  0.00    -0.014 A 
BRANCH  39  40
ATOM     40  C   UNL A   1      43.274  32.506  30.198  1.00  0.00     0.031 A 
ATOM     41  C   UNL A   1      43.814  31.144  30.294  1.00  0.00     0.074 A 
ATOM     42  C   UNL A   1      42.280  32.795  31.094  1.00  0.00     0.049 A 
ATOM     43  N   UNL A   1      43.237  30.125  29.749  1.00  0.00    -0.248 NA
ATOM     44  C   UNL A   1      45.169  30.894  30.795  1.00  0.00     0.031 C 
ATOM     45  C   UNL A   1      41.465  33.998  31.230  1.00  0.00     0.029 A 
ATOM     46  N   UNL A   1      41.839  32.071  32.197  1.00  0.00    -0.354 N 
ATOM     47  C   UNL A   1      44.030  29.056  30.090  1.00  0.00     0.074 A 
ATOM     48  C   UNL A   1      45.308  29.609  30.466  1.00  0.00     0.031 C 
ATOM     49  C   UNL A   1      40.943  34.099  32.478  1.00  0.00     0.029 A 
ATOM     50  C   UNL A   1      41.165  32.836  33.164  1.00  0.00     0.049 A 
ATOM     51  H   UNL A   1      41.986  31.103  32.293  1.00  0.00     0.167 HD
ATOM     52  C   UNL A   1      43.457  27.857  30.367  1.00  0.00     0.031 A 
ATOM     53  C   UNL A   1      40.526  32.443  34.301  1.00  0.00     0.031 A 
ATOM     54  C   UNL A   1      42.058  27.835  30.000  1.00  0.00     0.049 A 
ATOM     55  C   UNL A   1      39.977  31.109  34.030  1.00  0.00     0.074 A 
ATOM     56  C   UNL A   1      41.342  27.881  28.823  1.00  0.00     0.029 A 
ATOM     57  N   UNL A   1      41.194  28.171  31.012  1.00  0.00    -0.354 N 
ATOM     58  N   UNL A   1      38.993  30.904  33.205  1.00  0.00    -0.248 NA
ATOM     59  C   UNL A   1      40.694  29.924  34.478  1.00  0.00     0.031 C 
ATOM     60  C   UNL A   1      40.063  28.418  29.148  1.00  0.00     0.029 A 
ATOM     61  C   UNL A   1      40.007  28.654  30.518  1.00  0.00     0.049 A 
ATOM     62  H   UNL A   1      41.400  28.079  31.972  1.00  0.00     0.167 HD
ATOM     63  C   UNL A   1      39.302  29.682  32.652  1.00  0.00     0.074 A 
ATOM     64  C   UNL A   1      40.202  29.045  33.603  1.00  0.00     0.031 C 
ATOM     65  C   UNL A   1      39.109  29.463  31.323  1.00  0.00     0.031 A 
BRANCH  52  66
ATOM     66  C   UNL A   1      44.036  26.886  31.358  1.00  0.00    -0.014 A 
ATOM     67  C   UNL A   1      44.052  27.107  32.750  1.00  0.00     0.010 A 
ATOM     68  C   UNL A   1      44.395  25.600  30.912  1.00  0.00     0.010 A 
ATOM     69  C   UNL A   1      44.470  26.135  33.651  1.00  0.00     0.020 A 
ATOM     70  C   UNL A   1      44.771  24.597  31.813  1.00  0.00     0.020 A 
ATOM     71  C   UNL A   1      44.827  24.882  33.176  1.00  0.00     0.054 A 
BRANCH  71  72
ATOM     72  S   UNL A   1      45.313  23.634  34.386  1.00  0.00     0.124 S 
ATOM     73  O   UNL A   1      45.077  24.336  35.645  1.00  0.00    -0.237 OA
ATOM     74  O   UNL A   1      44.391  22.540  34.094  1.00  0.00    -0.237 OA
ATOM     75  O   UNL A   1      46.714  23.374  34.067  1.00  0.00    -0.744 OA
ENDBRANCH  71  72
ENDBRANCH  52  66
BRANCH  53  76
ATOM     76  C   UNL A   1      40.469  33.003  35.682  1.00  0.00    -0.014 A 
ATOM     77  C   UNL A   1      41.541  32.803  36.562  1.00  0.00     0.010 A 
ATOM     78  C   UNL A   1      39.234  33.407  36.248  1.00  0.00     0.010 A 
ATOM     79  C   UNL A   1      41.357  32.879  37.953  1.00  0.00     0.020 A 
ATOM     80  C   UNL A   1      39.042  33.475  37.641  1.00  0.00     0.020 A 
ATOM     81  C   UNL A   1      40.099  33.162  38.487  1.00  0.00     0.054 A 
BRANCH  81  82
ATOM     82  S   UNL A   1      39.863  32.959  40.280  1.00  0.00     0.124 S 
ATOM     83  O   UNL A   1      38.667  32.121  40.328  1.00  0.00    -0.237 OA
ATOM     84  O   UNL A   1      41.099  32.295  40.686  1.00  0.00    -0.237 OA
ATOM     85  O   UNL A   1      39.694  34.322  40.771  1.00  0.00    -0.744 OA
ENDBRANCH  81  82
ENDBRANCH  53  76
BRANCH  65  86
ATOM     86  C   UNL A   1      38.026  30.247  30.618  1.00  0.00    -0.014 A 
ATOM     87  C   UNL A   1      36.829  29.563  30.344  1.00  0.00     0.010 A 
ATOM     88  C   UNL A   1      38.166  31.565  30.142  1.00  0.00     0.010 A 
ATOM     89  C   UNL A   1      35.821  30.150  29.578  1.00  0.00     0.020 A 
ATOM     90  C   UNL A   1      37.144  32.173  29.393  1.00  0.00     0.020 A 
ATOM     91  C   UNL A   1      35.989  31.448  29.094  1.00  0.00     0.054 A 
BRANCH  91  92
ATOM     92  S   UNL A   1      34.675  32.143  28.054  1.00  0.00     0.124 S 
ATOM     93  O   UNL A   1      35.344  33.287  27.436  1.00  0.00    -0.237 OA
ATOM     94  O   UNL A   1      34.364  31.041  27.145  1.00  0.00    -0.237 OA
ATOM     95  O   UNL A   1      33.613  32.481  28.998  1.00  0.00    -0.744 OA
ENDBRANCH  91  92
ENDBRANCH  65  86
ENDBRANCH  39  40
ENDBRANCH  32  34
ENDBRANCH  31  32
ENDBRANCH  30  31
ENDBRANCH  29  30
ENDBRANCH  28  29
ENDBRANCH  27  28
ENDBRANCH   1  27
TORSDOF 26
ENDMDL
MODEL 2
REMARK VINA RESULT:      -6.6      7.576     14.393
REMARK SMILES CCCc1nc2cc(C(=O)OCCOCCOCCOC(=O)c3ccc(-c4c5nc(c(-c6ccc(S(=O)(=O)[O-])cc6)c6ccc([nH]6)c(-c6ccc(S(=O)(=O)[O-])cc6)c6nc(c(-c7ccc(S(=O)(=O)[O-])cc7)c7ccc4[nH]7)C=C6)C=C5)cc3)ccc2n1[C@H](CO)C(C)C
REMARK SMILES IDX 15 1 14 2 13 3 12 4 11 5 9 6 10 7 8 8 4 9 5 10 86 11 6 12
REMARK SMILES IDX 85 13 7 14 84 15 83 16 3 17 2 18 1 19 87 20 90 21 91 22
REMARK SMILES IDX 92 23 88 24 89 25 16 27 17 28 18 29 19 30 20 31 21 32 22 33
REMARK SMILES IDX 23 34 24 35 82 36 25 37 81 38 26 39 27 40 28 41 75 42 29 43
REMARK SMILES IDX 80 44 74 45 76 46 30 47 79 48 73 49 72 50 31 52 61 53 42 54
REMARK SMILES IDX 60 55 43 56 46 57 59 58 77 59 44 60 45 61 58 63 78 64 47 65
REMARK SMILES IDX 32 66 33 67 41 68 34 69 40 70 35 71 36 72 37 73 38 74 39 75
REMARK SMILES IDX 62 76 63 77 71 78 64 79 70 80 65 81 66 82 67 83 68 84 69 85
REMARK SMILES IDX 48 86 49 87 57 88 50 89 56 90 51 91 52 92 53 93 54 94 55 95
REMARK H PARENT 89 26 76 51 46 62
REMARK Flexibility Score: inf
ROOT
ATOM      1  C   UNL A   1      47.745  20.344  34.836  1.00  0.00     0.188 C 
ENDROOT
BRANCH   1   2
ATOM      2  O   UNL A   1      46.365  20.087  34.778  1.00  0.00    -0.376 OA
BRANCH   2   3
ATOM      3  C   UNL A   1      45.651  19.866  35.975  1.00  0.00     0.202 C 
BRANCH   3   4
ATOM      4  C   UNL A   1      46.307  19.284  37.239  1.00  0.00     0.261 C 
BRANCH   4   5
ATOM      5  O   UNL A   1      45.640  19.588  38.481  1.00  0.00    -0.460 OA
BRANCH   5   6
ATOM      6  C   UNL A   1      46.418  19.451  39.584  1.00  0.00     0.338 C 
ATOM      7  O   UNL A   1      47.223  20.279  40.004  1.00  0.00    -0.246 OA
BRANCH   6   8
ATOM      8  C   UNL A   1      46.120  18.224  40.356  1.00  0.00     0.062 A 
ATOM      9  C   UNL A   1      42.929  15.437  41.935  1.00  0.00     0.110 A 
ATOM     10  N   UNL A   1      43.235  15.870  40.731  1.00  0.00    -0.233 NA
ATOM     11  N   UNL A   1      44.033  15.604  42.756  1.00  0.00    -0.322 N 
ATOM     12  C   UNL A   1      44.425  16.552  40.840  1.00  0.00     0.090 A 
ATOM     13  C   UNL A   1      44.956  16.408  42.105  1.00  0.00     0.069 A 
ATOM     14  C   UNL A   1      45.071  17.402  39.928  1.00  0.00     0.046 A 
ATOM     15  C   UNL A   1      46.147  17.059  42.480  1.00  0.00     0.029 A 
ATOM     16  C   UNL A   1      46.689  18.015  41.602  1.00  0.00     0.018 A 
BRANCH   9  17
ATOM     17  C   UNL A   1      41.534  15.057  42.379  1.00  0.00     0.075 C 
BRANCH  17  18
ATOM     18  C   UNL A   1      41.129  13.589  42.233  1.00  0.00     0.005 C 
ATOM     19  C   UNL A   1      42.258  12.659  41.834  1.00  0.00     0.004 C 
ENDBRANCH  17  18
ENDBRANCH   9  17
BRANCH  11  20
ATOM     20  C   UNL A   1      44.165  15.118  44.122  1.00  0.00     0.117 C 
BRANCH  20  21
ATOM     21  C   UNL A   1      45.098  13.876  44.194  1.00  0.00     0.008 C 
ATOM     22  C   UNL A   1      46.567  14.288  44.271  1.00  0.00     0.009 C 
ATOM     23  C   UNL A   1      44.787  12.945  45.374  1.00  0.00     0.009 C 
ENDBRANCH  20  21
BRANCH  20  24
ATOM     24  C   UNL A   1      44.610  16.271  45.037  1.00  0.00     0.181 C 
BRANCH  24  25
ATOM     25  O   UNL A   1      44.892  15.798  46.344  1.00  0.00    -0.394 OA
ATOM     26  H   UNL A   1      45.777  16.091  46.610  1.00  0.00     0.210 HD
ENDBRANCH  24  25
ENDBRANCH  20  24
ENDBRANCH  11  20
ENDBRANCH   6   8
ENDBRANCH   5   6
ENDBRANCH   4   5
ENDBRANCH   3   4
ENDBRANCH   2   3
ENDBRANCH   1   2
BRANCH   1  27
ATOM     27  C   UNL A   1      48.640  19.678  33.766  1.00  0.00     0.188 C 
BRANCH  27  28
ATOM     28  O   UNL A   1      49.982  20.114  33.610  1.00  0.00    -0.376 OA
BRANCH  28  29
ATOM     29  C   UNL A   1      50.760  20.255  34.790  1.00  0.00     0.202 C 
BRANCH  29  30
ATOM     30  C   UNL A   1      51.296  21.659  35.122  1.00  0.00     0.261 C 
BRANCH  30  31
ATOM     31  O   UNL A   1      50.530  22.712  34.495  1.00  0.00    -0.460 OA
BRANCH  31  32
ATOM     32  C   UNL A   1      51.115  23.933  34.405  1.00  0.00     0.338 C 
ATOM     33  O   UNL A   1      52.179  24.263  34.933  1.00  0.00    -0.246 OA
BRANCH  32  34
ATOM     34  C   UNL A   1      50.484  24.680  33.280  1.00  0.00     0.060 A 
ATOM     35  C   UNL A   1      49.145  25.098  33.264  1.00  0.00     0.016 A 
ATOM     36  C   UNL A   1      51.222  24.745  32.103  1.00  0.00     0.016 A 
ATOM     37  C   UNL A   1      48.511  25.428  32.036  1.00  0.00     0.010 A 
ATOM     38  C   UNL A   1      50.586  25.088  30.908  1.00  0.00     0.010 A 
ATOM     39  C   UNL A   1      49.203  25.351  30.819  1.00  0.00    -0.014 A 
BRANCH  39  40
ATOM     40  C   UNL A   1      48.656  25.910  29.537  1.00  0.00     0.031 A 
ATOM     41  C   UNL A   1      47.655  26.930  29.873  1.00  0.00     0.074 A 
ATOM     42  C   UNL A   1      48.881  25.743  28.197  1.00  0.00     0.049 A 
ATOM     43  N   UNL A   1      46.385  26.697  29.844  1.00  0.00    -0.248 NA
ATOM     44  C   UNL A   1      48.038  28.197  30.503  1.00  0.00     0.031 C 
ATOM     45  C   UNL A   1      49.727  24.777  27.505  1.00  0.00     0.029 A 
ATOM     46  N   UNL A   1      48.456  26.515  27.121  1.00  0.00    -0.354 N 
ATOM     47  C   UNL A   1      45.806  27.895  30.188  1.00  0.00     0.074 A 
ATOM     48  C   UNL A   1      46.836  28.663  30.843  1.00  0.00     0.031 C 
ATOM     49  C   UNL A   1      50.055  25.212  26.262  1.00  0.00     0.029 A 
ATOM     50  C   UNL A   1      49.231  26.371  25.958  1.00  0.00     0.049 A 
ATOM     51  H   UNL A   1      47.676  27.113  27.169  1.00  0.00     0.167 HD
ATOM     52  C   UNL A   1      44.647  28.275  29.595  1.00  0.00     0.031 A 
ATOM     53  C   UNL A   1      49.045  26.891  24.713  1.00  0.00     0.031 A 
ATOM     54  C   UNL A   1      44.051  27.193  28.842  1.00  0.00     0.049 A 
ATOM     55  C   UNL A   1      47.595  26.997  24.518  1.00  0.00     0.074 A 
ATOM     56  C   UNL A   1      43.474  25.978  29.141  1.00  0.00     0.029 A 
ATOM     57  N   UNL A   1      44.399  27.159  27.514  1.00  0.00    -0.354 N 
ATOM     58  N   UNL A   1      46.823  25.959  24.383  1.00  0.00    -0.248 NA
ATOM     59  C   UNL A   1      46.923  28.269  24.734  1.00  0.00     0.031 C 
ATOM     60  C   UNL A   1      43.640  25.155  27.990  1.00  0.00     0.029 A 
ATOM     61  C   UNL A   1      44.279  25.892  26.997  1.00  0.00     0.049 A 
ATOM     62  H   UNL A   1      44.698  27.944  26.998  1.00  0.00     0.167 HD
ATOM     63  C   UNL A   1      45.659  26.357  24.999  1.00  0.00     0.074 A 
ATOM     64  C   UNL A   1      45.697  27.812  24.994  1.00  0.00     0.031 C 
ATOM     65  C   UNL A   1      44.966  25.486  25.784  1.00  0.00     0.031 A 
BRANCH  52  66
ATOM     66  C   UNL A   1      44.297  29.714  29.333  1.00  0.00    -0.014 A 
ATOM     67  C   UNL A   1      43.799  30.588  30.320  1.00  0.00     0.010 A 
ATOM     68  C   UNL A   1      44.673  30.287  28.104  1.00  0.00     0.010 A 
ATOM     69  C   UNL A   1      43.612  31.945  30.084  1.00  0.00     0.020 A 
ATOM     70  C   UNL A   1      44.536  31.661  27.870  1.00  0.00     0.020 A 
ATOM     71  C   UNL A   1      43.983  32.475  28.858  1.00  0.00     0.054 A 
BRANCH  71  72
ATOM     72  S   UNL A   1      43.772  34.250  28.613  1.00  0.00     0.124 S 
ATOM     73  O   UNL A   1      43.744  34.347  27.156  1.00  0.00    -0.237 OA
ATOM     74  O   UNL A   1      42.502  34.509  29.285  1.00  0.00    -0.237 OA
ATOM     75  O   UNL A   1      44.949  34.827  29.257  1.00  0.00    -0.744 OA
ENDBRANCH  71  72
ENDBRANCH  52  66
BRANCH  53  76
ATOM     76  C   UNL A   1      49.975  27.484  23.709  1.00  0.00    -0.014 A 
ATOM     77  C   UNL A   1      51.178  28.067  24.130  1.00  0.00     0.010 A 
ATOM     78  C   UNL A   1      49.522  27.804  22.405  1.00  0.00     0.010 A 
ATOM     79  C   UNL A   1      51.834  29.023  23.336  1.00  0.00     0.020 A 
ATOM     80  C   UNL A   1      50.170  28.768  21.609  1.00  0.00     0.020 A 
ATOM     81  C   UNL A   1      51.301  29.408  22.105  1.00  0.00     0.054 A 
BRANCH  81  82
ATOM     82  S   UNL A   1      52.031  30.848  21.267  1.00  0.00     0.124 S 
ATOM     83  O   UNL A   1      52.995  30.213  20.372  1.00  0.00    -0.237 OA
ATOM     84  O   UNL A   1      50.875  31.446  20.605  1.00  0.00    -0.237 OA
ATOM     85  O   UNL A   1      52.607  31.635  22.352  1.00  0.00    -0.744 OA
ENDBRANCH  81  82
ENDBRANCH  53  76
BRANCH  65  86
ATOM     86  C   UNL A   1      45.079  24.009  25.486  1.00  0.00    -0.014 A 
ATOM     87  C   UNL A   1      44.102  23.460  24.637  1.00  0.00     0.010 A 
ATOM     88  C   UNL A   1      46.025  23.140  26.063  1.00  0.00     0.010 A 
ATOM     89  C   UNL A   1      44.032  22.086  24.409  1.00  0.00     0.020 A 
ATOM     90  C   UNL A   1      45.980  21.757  25.816  1.00  0.00     0.020 A 
ATOM     91  C   UNL A   1      44.964  21.238  25.010  1.00  0.00     0.054 A 
BRANCH  91  92
ATOM     92  S   UNL A   1      44.795  19.454  24.729  1.00  0.00     0.124 S 
ATOM     93  O   UNL A   1      45.979  19.156  23.925  1.00  0.00    -0.237 OA
ATOM     94  O   UNL A   1      44.813  18.909  26.085  1.00  0.00    -0.237 OA
ATOM     95  O   UNL A   1      43.520  19.322  24.028  1.00  0.00    -0.744 OA
ENDBRANCH  91  92
ENDBRANCH  65  86
ENDBRANCH  39  40
ENDBRANCH  32  34
ENDBRANCH  31  32
ENDBRANCH  30  31
ENDBRANCH  29  30
ENDBRANCH  28  29
ENDBRANCH  27  28
ENDBRANCH   1  27
TORSDOF 26
ENDMDL
MODEL 3
REMARK VINA RESULT:      -6.4      1.566      2.413
REMARK SMILES CCCc1nc2cc(C(=O)OCCOCCOCCOC(=O)c3ccc(-c4c5nc(c(-c6ccc(S(=O)(=O)[O-])cc6)c6ccc([nH]6)c(-c6ccc(S(=O)(=O)[O-])cc6)c6nc(c(-c7ccc(S(=O)(=O)[O-])cc7)c7ccc4[nH]7)C=C6)C=C5)cc3)ccc2n1[C@H](CO)C(C)C
REMARK SMILES IDX 15 1 14 2 13 3 12 4 11 5 9 6 10 7 8 8 4 9 5 10 86 11 6 12
REMARK SMILES IDX 85 13 7 14 84 15 83 16 3 17 2 18 1 19 87 20 90 21 91 22
REMARK SMILES IDX 92 23 88 24 89 25 16 27 17 28 18 29 19 30 20 31 21 32 22 33
REMARK SMILES IDX 23 34 24 35 82 36 25 37 81 38 26 39 27 40 28 41 75 42 29 43
REMARK SMILES IDX 80 44 74 45 76 46 30 47 79 48 73 49 72 50 31 52 61 53 42 54
REMARK SMILES IDX 60 55 43 56 46 57 59 58 77 59 44 60 45 61 58 63 78 64 47 65
REMARK SMILES IDX 32 66 33 67 41 68 34 69 40 70 35 71 36 72 37 73 38 74 39 75
REMARK SMILES IDX 62 76 63 77 71 78 64 79 70 80 65 81 66 82 67 83 68 84 69 85
REMARK SMILES IDX 48 86 49 87 57 88 50 89 56 90 51 91 52 92 53 93 54 94 55 95
REMARK H PARENT 89 26 76 51 46 62
REMARK Flexibility Score: inf
ROOT
ATOM      1  C   UNL A   1      51.807  31.242  25.328  1.00  0.00     0.188 C 
ENDROOT
BRANCH   1   2
ATOM      2  O   UNL A   1      51.638  30.298  26.354  1.00  0.00    -0.376 OA
BRANCH   2   3
ATOM      3  C   UNL A   1      50.338  29.862  26.686  1.00  0.00     0.202 C 
BRANCH   3   4
ATOM      4  C   UNL A   1      50.028  28.413  27.101  1.00  0.00     0.261 C 
BRANCH   4   5
ATOM      5  O   UNL A   1      50.520  27.393  26.209  1.00  0.00    -0.460 OA
BRANCH   5   6
ATOM      6  C   UNL A   1      49.971  27.419  24.969  1.00  0.00     0.338 C 
ATOM      7  O   UNL A   1      50.507  27.857  23.954  1.00  0.00    -0.246 OA
BRANCH   6   8
ATOM      8  C   UNL A   1      48.662  26.732  24.898  1.00  0.00     0.062 A 
ATOM      9  C   UNL A   1      44.215  26.989  25.676  1.00  0.00     0.110 A 
ATOM     10  N   UNL A   1      45.053  27.722  24.975  1.00  0.00    -0.233 NA
ATOM     11  N   UNL A   1      44.783  25.742  25.876  1.00  0.00    -0.322 N 
ATOM     12  C   UNL A   1      46.253  27.049  24.954  1.00  0.00     0.090 A 
ATOM     13  C   UNL A   1      46.121  25.797  25.517  1.00  0.00     0.069 A 
ATOM     14  C   UNL A   1      47.529  27.481  24.558  1.00  0.00     0.046 A 
ATOM     15  C   UNL A   1      47.226  24.935  25.661  1.00  0.00     0.029 A 
ATOM     16  C   UNL A   1      48.509  25.447  25.394  1.00  0.00     0.018 A 
BRANCH   9  17
ATOM     17  C   UNL A   1      42.965  27.521  26.342  1.00  0.00     0.075 C 
BRANCH  17  18
ATOM     18  C   UNL A   1      41.954  28.247  25.453  1.00  0.00     0.005 C 
ATOM     19  C   UNL A   1      40.738  28.781  26.186  1.00  0.00     0.004 C 
ENDBRANCH  17  18
ENDBRANCH   9  17
BRANCH  11  20
ATOM     20  C   UNL A   1      44.126  24.588  26.474  1.00  0.00     0.117 C 
BRANCH  20  21
ATOM     21  C   UNL A   1      43.928  24.779  28.005  1.00  0.00     0.008 C 
ATOM     22  C   UNL A   1      43.907  23.436  28.734  1.00  0.00     0.009 C 
ATOM     23  C   UNL A   1      44.996  25.672  28.652  1.00  0.00     0.009 C 
ENDBRANCH  20  21
BRANCH  20  24
ATOM     24  C   UNL A   1      42.818  24.294  25.720  1.00  0.00     0.181 C 
BRANCH  24  25
ATOM     25  O   UNL A   1      41.845  23.743  26.594  1.00  0.00    -0.394 OA
ATOM     26  H   UNL A   1      42.225  23.642  27.480  1.00  0.00     0.210 HD
ENDBRANCH  24  25
ENDBRANCH  20  24
ENDBRANCH  11  20
ENDBRANCH   6   8
ENDBRANCH   5   6
ENDBRANCH   4   5
ENDBRANCH   3   4
ENDBRANCH   2   3
ENDBRANCH   1   2
BRANCH   1  27
ATOM     27  C   UNL A   1      52.393  32.621  25.716  1.00  0.00     0.188 C 
BRANCH  27  28
ATOM     28  O   UNL A   1      51.605  33.787  25.537  1.00  0.00    -0.376 OA
BRANCH  28  29
ATOM     29  C   UNL A   1      50.451  33.923  26.355  1.00  0.00     0.202 C 
BRANCH  29  30
ATOM     30  C   UNL A   1      49.167  34.447  25.686  1.00  0.00     0.261 C 
BRANCH  30  31
ATOM     31  O   UNL A   1      48.079  33.498  25.744  1.00  0.00    -0.460 OA
BRANCH  31  32
ATOM     32  C   UNL A   1      46.823  34.003  25.839  1.00  0.00     0.338 C 
ATOM     33  O   UNL A   1      46.259  34.695  24.989  1.00  0.00    -0.246 OA
BRANCH  32  34
ATOM     34  C   UNL A   1      46.106  33.289  26.932  1.00  0.00     0.060 A 
ATOM     35  C   UNL A   1      45.242  32.201  26.732  1.00  0.00     0.016 A 
ATOM     36  C   UNL A   1      46.130  33.905  28.179  1.00  0.00     0.016 A 
ATOM     37  C   UNL A   1      44.299  31.841  27.730  1.00  0.00     0.010 A 
ATOM     38  C   UNL A   1      45.206  33.526  29.155  1.00  0.00     0.010 A 
ATOM     39  C   UNL A   1      44.210  32.553  28.936  1.00  0.00    -0.014 A 
BRANCH  39  40
ATOM     40  C   UNL A   1      43.402  32.070  30.106  1.00  0.00     0.031 A 
ATOM     41  C   UNL A   1      43.929  30.763  30.519  1.00  0.00     0.074 A 
ATOM     42  C   UNL A   1      42.374  32.545  30.875  1.00  0.00     0.049 A 
ATOM     43  N   UNL A   1      43.368  29.649  30.186  1.00  0.00    -0.248 NA
ATOM     44  C   UNL A   1      45.260  30.632  31.118  1.00  0.00     0.031 C 
ATOM     45  C   UNL A   1      41.562  33.747  30.711  1.00  0.00     0.029 A 
ATOM     46  N   UNL A   1      41.883  32.079  32.090  1.00  0.00    -0.354 N 
ATOM     47  C   UNL A   1      44.139  28.682  30.785  1.00  0.00     0.074 A 
ATOM     48  C   UNL A   1      45.404  29.307  31.084  1.00  0.00     0.031 C 
ATOM     49  C   UNL A   1      40.990  34.116  31.884  1.00  0.00     0.029 A 
ATOM     50  C   UNL A   1      41.175  33.035  32.838  1.00  0.00     0.049 A 
ATOM     51  H   UNL A   1      42.019  31.155  32.401  1.00  0.00     0.167 HD
ATOM     52  C   UNL A   1      43.548  27.571  31.292  1.00  0.00     0.031 A 
ATOM     53  C   UNL A   1      40.487  32.897  34.005  1.00  0.00     0.031 A 
ATOM     54  C   UNL A   1      42.165  27.465  30.881  1.00  0.00     0.049 A 
ATOM     55  C   UNL A   1      39.941  31.535  34.010  1.00  0.00     0.074 A 
ATOM     56  C   UNL A   1      41.498  27.252  29.694  1.00  0.00     0.029 A 
ATOM     57  N   UNL A   1      41.262  28.012  31.759  1.00  0.00    -0.354 N 
ATOM     58  N   UNL A   1      38.991  31.152  33.209  1.00  0.00    -0.248 NA
ATOM     59  C   UNL A   1      40.631  30.478  34.734  1.00  0.00     0.031 C 
ATOM     60  C   UNL A   1      40.210  27.843  29.840  1.00  0.00     0.029 A 
ATOM     61  C   UNL A   1      40.099  28.373  31.122  1.00  0.00     0.049 A 
ATOM     62  H   UNL A   1      41.427  28.133  32.723  1.00  0.00     0.167 HD
ATOM     63  C   UNL A   1      39.314  29.840  32.950  1.00  0.00     0.074 A 
ATOM     64  C   UNL A   1      40.169  29.428  34.053  1.00  0.00     0.031 C 
ATOM     65  C   UNL A   1      39.174  29.335  31.693  1.00  0.00     0.031 A 
BRANCH  52  66
ATOM     66  C   UNL A   1      44.079  26.841  32.495  1.00  0.00    -0.014 A 
ATOM     67  C   UNL A   1      43.858  27.260  33.822  1.00  0.00     0.010 A 
ATOM     68  C   UNL A   1      44.648  25.567  32.313  1.00  0.00     0.010 A 
ATOM     69  C   UNL A   1      44.245  26.494  34.917  1.00  0.00     0.020 A 
ATOM     70  C   UNL A   1      44.997  24.764  33.407  1.00  0.00     0.020 A 
ATOM     71  C   UNL A   1      44.813  25.247  34.701  1.00  0.00     0.054 A 
BRANCH  71  72
ATOM     72  S   UNL A   1      45.252  24.265  36.150  1.00  0.00     0.124 S 
ATOM     73  O   UNL A   1      44.408  24.864  37.180  1.00  0.00    -0.237 OA
ATOM     74  O   UNL A   1      44.877  22.915  35.737  1.00  0.00    -0.237 OA
ATOM     75  O   UNL A   1      46.685  24.497  36.301  1.00  0.00    -0.744 OA
ENDBRANCH  71  72
ENDBRANCH  52  66
BRANCH  53  76
ATOM     76  C   UNL A   1      40.376  33.746  35.227  1.00  0.00    -0.014 A 
ATOM     77  C   UNL A   1      41.525  34.057  35.967  1.00  0.00     0.010 A 
ATOM     78  C   UNL A   1      39.125  33.936  35.864  1.00  0.00     0.010 A 
ATOM     79  C   UNL A   1      41.435  34.423  37.321  1.00  0.00     0.020 A 
ATOM     80  C   UNL A   1      39.029  34.293  37.222  1.00  0.00     0.020 A 
ATOM     81  C   UNL A   1      40.194  34.488  37.956  1.00  0.00     0.054 A 
BRANCH  81  82
ATOM     82  S   UNL A   1      40.165  34.678  39.765  1.00  0.00     0.124 S 
ATOM     83  O   UNL A   1      38.742  34.887  40.019  1.00  0.00    -0.237 OA
ATOM     84  O   UNL A   1      40.693  33.396  40.224  1.00  0.00    -0.237 OA
ATOM     85  O   UNL A   1      41.022  35.833  40.013  1.00  0.00    -0.744 OA
ENDBRANCH  81  82
ENDBRANCH  53  76
BRANCH  65  86
ATOM     86  C   UNL A   1      38.126  29.944  30.789  1.00  0.00    -0.014 A 
ATOM     87  C   UNL A   1      38.342  31.271  30.379  1.00  0.00     0.010 A 
ATOM     88  C   UNL A   1      36.924  29.315  30.412  1.00  0.00     0.010 A 
ATOM     89  C   UNL A   1      37.373  31.971  29.660  1.00  0.00     0.020 A 
ATOM     90  C   UNL A   1      35.955  30.004  29.663  1.00  0.00     0.020 A 
ATOM     91  C   UNL A   1      36.177  31.339  29.317  1.00  0.00     0.054 A 
BRANCH  91  92
ATOM     92  S   UNL A   1      34.926  32.310  28.433  1.00  0.00     0.124 S 
ATOM     93  O   UNL A   1      34.125  31.270  27.790  1.00  0.00    -0.237 OA
ATOM     94  O   UNL A   1      34.254  33.033  29.512  1.00  0.00    -0.237 OA
ATOM     95  O   UNL A   1      35.702  33.148  27.522  1.00  0.00    -0.744 OA
ENDBRANCH  91  92
ENDBRANCH  65  86
ENDBRANCH  39  40
ENDBRANCH  32  34
ENDBRANCH  31  32
ENDBRANCH  30  31
ENDBRANCH  29  30
ENDBRANCH  28  29
ENDBRANCH  27  28
ENDBRANCH   1  27
TORSDOF 26
ENDMDL
