MODEL 1
REMARK VINA RESULT:     -10.4      0.000      0.000
REMARK SMILES O=C(OCCOCCOCCOC(=O)[C@H](c1c[nH]c2cc(F)ccc12)[NH+]1CC[NH+](Cc2cccc(Cl)c2)CC1)c1ccc(-c2c3nc(c(-c4ccc(S(=O)(=O)[O-])cc4)c4ccc([nH]4)c(-c4ccc(S(=O)(=O)[O-])cc4)c4nc(c(-c5ccc(S(=O)(=O)[O-])cc5)c5ccc2[nH]5)C=C4)C=C3)cc1
REMARK SMILES IDX 7 1 6 2 5 3 4 4 3 5 2 6 1 7 40 8 41 9 99 10 42 11 98 12
REMARK SMILES IDX 43 13 44 14 45 15 92 16 46 17 97 18 91 19 93 20 47 21 96 22
REMARK SMILES IDX 90 23 89 24 48 26 78 27 59 28 77 29 60 30 63 31 76 32 94 33
REMARK SMILES IDX 61 34 62 35 75 37 95 38 64 39 49 40 50 41 58 42 51 43 57 44
REMARK SMILES IDX 52 45 53 46 54 47 55 48 56 49 79 50 80 51 88 52 81 53 87 54
REMARK SMILES IDX 82 55 83 56 84 57 85 58 86 59 65 60 66 61 74 62 67 63 73 64
REMARK SMILES IDX 68 65 69 66 70 67 71 68 72 69 8 70 9 71 10 72 11 73 12 74
REMARK SMILES IDX 13 75 14 76 15 77 26 78 27 79 39 80 28 82 38 83 29 84 30 86
REMARK SMILES IDX 31 87 32 88 37 89 33 90 35 91 34 92 36 93 16 94 17 95 25 96
REMARK SMILES IDX 18 97 19 98 24 99 20 101 23 102 21 103 22 104
REMARK H PARENT 93 25 63 36 26 81 29 85 18 100
REMARK Flexibility Score: inf
ROOT
ATOM      1  C   UNL A   1      34.333  31.522  27.574  1.00  0.00     0.188 C 
ENDROOT
BRANCH   1   2
ATOM      2  O   UNL A   1      34.627  31.681  28.964  1.00  0.00    -0.376 OA
BRANCH   2   3
ATOM      3  C   UNL A   1      35.787  32.467  29.247  1.00  0.00     0.202 C 
BRANCH   3   4
ATOM      4  C   UNL A   1      36.992  31.691  29.800  1.00  0.00     0.261 C 
BRANCH   4   5
ATOM      5  O   UNL A   1      36.813  30.268  29.754  1.00  0.00    -0.460 OA
BRANCH   5   6
ATOM      6  C   UNL A   1      37.159  29.463  28.720  1.00  0.00     0.338 C 
ATOM      7  O   UNL A   1      36.280  28.966  28.015  1.00  0.00    -0.246 OA
BRANCH   6   8
ATOM      8  C   UNL A   1      38.581  29.169  28.392  1.00  0.00     0.060 A 
ATOM      9  C   UNL A   1      39.140  29.354  27.124  1.00  0.00     0.016 A 
ATOM     10  C   UNL A   1      39.439  28.874  29.453  1.00  0.00     0.016 A 
ATOM     11  C   UNL A   1      40.491  29.140  26.878  1.00  0.00     0.010 A 
ATOM     12  C   UNL A   1      40.817  28.799  29.232  1.00  0.00     0.010 A 
ATOM     13  C   UNL A   1      41.356  28.891  27.933  1.00  0.00    -0.014 A 
BRANCH  13  14
ATOM     14  C   UNL A   1      42.798  28.621  27.697  1.00  0.00     0.031 A 
ATOM     15  C   UNL A   1      43.748  29.775  27.869  1.00  0.00     0.074 A 
ATOM     16  C   UNL A   1      43.260  27.405  27.333  1.00  0.00     0.049 A 
ATOM     17  N   UNL A   1      45.001  29.884  27.521  1.00  0.00    -0.248 NA
ATOM     18  C   UNL A   1      43.192  30.990  28.496  1.00  0.00     0.031 C 
ATOM     19  C   UNL A   1      42.467  26.178  27.212  1.00  0.00     0.029 A 
ATOM     20  N   UNL A   1      44.520  27.003  26.961  1.00  0.00    -0.354 N 
ATOM     21  C   UNL A   1      45.358  31.186  27.850  1.00  0.00     0.074 A 
ATOM     22  C   UNL A   1      44.170  31.859  28.315  1.00  0.00     0.031 C 
ATOM     23  C   UNL A   1      43.235  25.185  26.739  1.00  0.00     0.029 A 
ATOM     24  C   UNL A   1      44.575  25.702  26.511  1.00  0.00     0.049 A 
ATOM     25  H   UNL A   1      45.309  27.590  27.012  1.00  0.00     0.167 HD
ATOM     26  C   UNL A   1      46.584  31.755  27.839  1.00  0.00     0.031 A 
ATOM     27  C   UNL A   1      45.589  25.011  25.956  1.00  0.00     0.031 A 
ATOM     28  C   UNL A   1      47.767  31.049  27.449  1.00  0.00     0.049 A 
ATOM     29  C   UNL A   1      46.931  25.682  25.864  1.00  0.00     0.074 A 
ATOM     30  C   UNL A   1      49.077  31.488  27.450  1.00  0.00     0.029 A 
ATOM     31  N   UNL A   1      47.778  29.732  27.006  1.00  0.00    -0.354 N 
ATOM     32  N   UNL A   1      47.258  26.907  26.200  1.00  0.00    -0.248 NA
ATOM     33  C   UNL A   1      48.046  24.868  25.368  1.00  0.00     0.031 C 
ATOM     34  C   UNL A   1      49.878  30.443  26.978  1.00  0.00     0.029 A 
ATOM     35  C   UNL A   1      49.073  29.341  26.727  1.00  0.00     0.049 A 
ATOM     36  H   UNL A   1      46.982  29.164  26.905  1.00  0.00     0.167 HD
ATOM     37  C   UNL A   1      48.633  26.992  26.022  1.00  0.00     0.074 A 
ATOM     38  C   UNL A   1      49.068  25.698  25.531  1.00  0.00     0.031 C 
ATOM     39  C   UNL A   1      49.465  28.035  26.263  1.00  0.00     0.031 A 
BRANCH  26  40
ATOM     40  C   UNL A   1      46.669  33.187  28.292  1.00  0.00    -0.014 A 
ATOM     41  C   UNL A   1      46.681  34.240  27.356  1.00  0.00     0.010 A 
ATOM     42  C   UNL A   1      46.812  33.485  29.657  1.00  0.00     0.010 A 
ATOM     43  C   UNL A   1      46.915  35.554  27.768  1.00  0.00     0.020 A 
ATOM     44  C   UNL A   1      47.009  34.804  30.078  1.00  0.00     0.020 A 
ATOM     45  C   UNL A   1      47.089  35.824  29.127  1.00  0.00     0.054 A 
BRANCH  45  46
ATOM     46  S   UNL A   1      47.415  37.537  29.629  1.00  0.00     0.124 S 
ATOM     47  O   UNL A   1      48.161  38.048  28.478  1.00  0.00    -0.237 OA
ATOM     48  O   UNL A   1      46.083  38.082  29.808  1.00  0.00    -0.237 OA
ATOM     49  O   UNL A   1      48.202  37.390  30.858  1.00  0.00    -0.744 OA
ENDBRANCH  45  46
ENDBRANCH  26  40
BRANCH  27  50
ATOM     50  C   UNL A   1      45.390  23.611  25.485  1.00  0.00    -0.014 A 
ATOM     51  C   UNL A   1      44.909  23.353  24.189  1.00  0.00     0.010 A 
ATOM     52  C   UNL A   1      45.673  22.522  26.332  1.00  0.00     0.010 A 
ATOM     53  C   UNL A   1      44.687  22.040  23.759  1.00  0.00     0.020 A 
ATOM     54  C   UNL A   1      45.470  21.206  25.899  1.00  0.00     0.020 A 
ATOM     55  C   UNL A   1      44.965  20.974  24.619  1.00  0.00     0.054 A 
BRANCH  55  56
ATOM     56  S   UNL A   1      44.685  19.280  24.026  1.00  0.00     0.124 S 
ATOM     57  O   UNL A   1      43.448  18.919  24.712  1.00  0.00    -0.237 OA
ATOM     58  O   UNL A   1      44.576  19.469  22.582  1.00  0.00    -0.237 OA
ATOM     59  O   UNL A   1      45.878  18.561  24.465  1.00  0.00    -0.744 OA
ENDBRANCH  55  56
ENDBRANCH  27  50
BRANCH  39  60
ATOM     60  C   UNL A   1      50.934  27.791  26.078  1.00  0.00    -0.014 A 
ATOM     61  C   UNL A   1      51.730  27.302  27.125  1.00  0.00     0.010 A 
ATOM     62  C   UNL A   1      51.502  27.993  24.807  1.00  0.00     0.010 A 
ATOM     63  C   UNL A   1      53.083  27.037  26.909  1.00  0.00     0.020 A 
ATOM     64  C   UNL A   1      52.846  27.701  24.580  1.00  0.00     0.020 A 
ATOM     65  C   UNL A   1      53.631  27.234  25.636  1.00  0.00     0.054 A 
BRANCH  65  66
ATOM     66  S   UNL A   1      55.373  26.819  25.363  1.00  0.00     0.124 S 
ATOM     67  O   UNL A   1      55.600  25.786  26.369  1.00  0.00    -0.237 OA
ATOM     68  O   UNL A   1      55.379  26.358  23.976  1.00  0.00    -0.237 OA
ATOM     69  O   UNL A   1      56.070  28.081  25.596  1.00  0.00    -0.744 OA
ENDBRANCH  65  66
ENDBRANCH  39  60
ENDBRANCH  13  14
ENDBRANCH   6   8
ENDBRANCH   5   6
ENDBRANCH   4   5
ENDBRANCH   3   4
ENDBRANCH   2   3
ENDBRANCH   1   2
BRANCH   1  70
ATOM     70  C   UNL A   1      32.915  30.972  27.367  1.00  0.00     0.188 C 
BRANCH  70  71
ATOM     71  O   UNL A   1      32.687  30.295  26.134  1.00  0.00    -0.376 OA
BRANCH  71  72
ATOM     72  C   UNL A   1      33.481  29.137  25.895  1.00  0.00     0.202 C 
BRANCH  72  73
ATOM     73  C   UNL A   1      34.240  29.023  24.559  1.00  0.00     0.261 C 
BRANCH  73  74
ATOM     74  O   UNL A   1      33.483  28.706  23.368  1.00  0.00    -0.459 OA
BRANCH  74  75
ATOM     75  C   UNL A   1      33.481  27.374  23.021  1.00  0.00     0.370 C 
ATOM     76  O   UNL A   1      34.087  26.951  22.039  1.00  0.00    -0.245 OA
BRANCH  75  77
ATOM     77  C   UNL A   1      32.538  26.516  23.905  1.00  0.00     0.328 C 
BRANCH  77  78
ATOM     78  N   UNL A   1      31.125  26.874  23.734  1.00  0.00    -0.310 N 
ATOM     79  C   UNL A   1      30.847  28.287  23.549  1.00  0.00     0.325 C 
ATOM     80  C   UNL A   1      30.035  26.271  24.483  1.00  0.00     0.325 C 
ATOM     81  H   UNL A   1      31.088  26.336  22.868  1.00  0.00     0.349 HD
ATOM     82  C   UNL A   1      29.770  28.311  22.463  1.00  0.00     0.324 C 
ATOM     83  C   UNL A   1      28.626  26.654  23.850  1.00  0.00     0.324 C 
ATOM     84  N   UNL A   1      28.484  27.870  22.998  1.00  0.00    -0.322 N 
ATOM     85  H   UNL A   1      27.897  27.534  22.234  1.00  0.00     0.348 HD
BRANCH  84  86
ATOM     86  C   UNL A   1      27.672  28.981  23.508  1.00  0.00     0.299 C 
BRANCH  86  87
ATOM     87  C   UNL A   1      27.782  30.298  22.762  1.00  0.00     0.008 A 
ATOM     88  C   UNL A   1      27.475  30.390  21.388  1.00  0.00     0.009 A 
ATOM     89  C   UNL A   1      28.333  31.412  23.404  1.00  0.00     0.030 A 
ATOM     90  C   UNL A   1      27.840  31.519  20.650  1.00  0.00     0.002 A 
ATOM     91  C   UNL A   1      28.650  32.554  22.671  1.00  0.00     0.041 A 
ATOM     92  C   UNL A   1      28.439  32.598  21.294  1.00  0.00     0.020 A 
ATOM     93  Cl  UNL A   1      29.339  33.911  23.472  1.00  0.00    -0.084 Cl
ENDBRANCH  86  87
ENDBRANCH  84  86
ENDBRANCH  77  78
BRANCH  77  94
ATOM     94  C   UNL A   1      32.492  25.003  23.654  1.00  0.00     0.046 A 
ATOM     95  C   UNL A   1      31.818  24.310  22.662  1.00  0.00     0.094 A 
ATOM     96  C   UNL A   1      32.847  24.006  24.647  1.00  0.00     0.009 A 
ATOM     97  N   UNL A   1      31.625  23.016  23.074  1.00  0.00    -0.361 N 
ATOM     98  C   UNL A   1      32.262  22.797  24.269  1.00  0.00     0.049 A 
ATOM     99  C   UNL A   1      33.524  24.049  25.886  1.00  0.00     0.014 A 
ATOM    100  H   UNL A   1      31.104  22.341  22.582  1.00  0.00     0.166 HD
ATOM    101  C   UNL A   1      32.369  21.627  25.031  1.00  0.00     0.065 A 
ATOM    102  C   UNL A   1      33.715  22.874  26.620  1.00  0.00     0.040 A 
ATOM    103  C   UNL A   1      33.140  21.690  26.189  1.00  0.00     0.125 A 
ATOM    104  F   UNL A   1      33.329  20.571  26.902  1.00  0.00    -0.207 F 
ENDBRANCH  77  94
ENDBRANCH  75  77
ENDBRANCH  74  75
ENDBRANCH  73  74
ENDBRANCH  72  73
ENDBRANCH  71  72
ENDBRANCH  70  71
ENDBRANCH   1  70
TORSDOF 24
ENDMDL
MODEL 2
REMARK VINA RESULT:      -8.6      6.723     13.514
REMARK SMILES O=C(OCCOCCOCCOC(=O)[C@H](c1c[nH]c2cc(F)ccc12)[NH+]1CC[NH+](Cc2cccc(Cl)c2)CC1)c1ccc(-c2c3nc(c(-c4ccc(S(=O)(=O)[O-])cc4)c4ccc([nH]4)c(-c4ccc(S(=O)(=O)[O-])cc4)c4nc(c(-c5ccc(S(=O)(=O)[O-])cc5)c5ccc2[nH]5)C=C4)C=C3)cc1
REMARK SMILES IDX 7 1 6 2 5 3 4 4 3 5 2 6 1 7 40 8 41 9 99 10 42 11 98 12
REMARK SMILES IDX 43 13 44 14 45 15 92 16 46 17 97 18 91 19 93 20 47 21 96 22
REMARK SMILES IDX 90 23 89 24 48 26 78 27 59 28 77 29 60 30 63 31 76 32 94 33
REMARK SMILES IDX 61 34 62 35 75 37 95 38 64 39 49 40 50 41 58 42 51 43 57 44
REMARK SMILES IDX 52 45 53 46 54 47 55 48 56 49 79 50 80 51 88 52 81 53 87 54
REMARK SMILES IDX 82 55 83 56 84 57 85 58 86 59 65 60 66 61 74 62 67 63 73 64
REMARK SMILES IDX 68 65 69 66 70 67 71 68 72 69 8 70 9 71 10 72 11 73 12 74
REMARK SMILES IDX 13 75 14 76 15 77 26 78 27 79 39 80 28 82 38 83 29 84 30 86
REMARK SMILES IDX 31 87 32 88 37 89 33 90 35 91 34 92 36 93 16 94 17 95 25 96
REMARK SMILES IDX 18 97 19 98 24 99 20 101 23 102 21 103 22 104
REMARK H PARENT 93 25 63 36 26 81 29 85 18 100
REMARK Flexibility Score: inf
ROOT
ATOM      1  C   UNL A   1      46.442  41.640  33.792  1.00  0.00     0.188 C 
ENDROOT
BRANCH   1   2
ATOM      2  O   UNL A   1      46.722  40.684  32.767  1.00  0.00    -0.376 OA
BRANCH   2   3
ATOM      3  C   UNL A   1      46.733  39.322  33.201  1.00  0.00     0.202 C 
BRANCH   3   4
ATOM      4  C   UNL A   1      47.400  38.327  32.240  1.00  0.00     0.261 C 
BRANCH   4   5
ATOM      5  O   UNL A   1      46.636  37.125  32.057  1.00  0.00    -0.460 OA
BRANCH   5   6
ATOM      6  C   UNL A   1      46.791  35.979  32.763  1.00  0.00     0.338 C 
ATOM      7  O   UNL A   1      46.972  36.033  33.981  1.00  0.00    -0.246 OA
BRANCH   6   8
ATOM      8  C   UNL A   1      46.732  34.640  32.115  1.00  0.00     0.060 A 
ATOM      9  C   UNL A   1      46.719  33.434  32.822  1.00  0.00     0.016 A 
ATOM     10  C   UNL A   1      46.487  34.600  30.742  1.00  0.00     0.016 A 
ATOM     11  C   UNL A   1      46.587  32.208  32.182  1.00  0.00     0.010 A 
ATOM     12  C   UNL A   1      46.212  33.379  30.120  1.00  0.00     0.010 A 
ATOM     13  C   UNL A   1      46.299  32.163  30.827  1.00  0.00    -0.014 A 
BRANCH  13  14
ATOM     14  C   UNL A   1      46.189  30.866  30.108  1.00  0.00     0.031 A 
ATOM     15  C   UNL A   1      44.803  30.332  29.868  1.00  0.00     0.074 A 
ATOM     16  C   UNL A   1      47.270  30.174  29.688  1.00  0.00     0.049 A 
ATOM     17  N   UNL A   1      44.423  29.147  29.475  1.00  0.00    -0.248 NA
ATOM     18  C   UNL A   1      43.689  31.259  30.143  1.00  0.00     0.031 C 
ATOM     19  C   UNL A   1      48.667  30.612  29.776  1.00  0.00     0.029 A 
ATOM     20  N   UNL A   1      47.367  28.925  29.124  1.00  0.00    -0.354 N 
ATOM     21  C   UNL A   1      43.034  29.185  29.498  1.00  0.00     0.074 A 
ATOM     22  C   UNL A   1      42.643  30.459  30.050  1.00  0.00     0.031 C 
ATOM     23  C   UNL A   1      49.478  29.632  29.348  1.00  0.00     0.029 A 
ATOM     24  C   UNL A   1      48.665  28.490  28.963  1.00  0.00     0.049 A 
ATOM     25  H   UNL A   1      46.583  28.392  28.860  1.00  0.00     0.167 HD
ATOM     26  C   UNL A   1      42.155  28.271  29.032  1.00  0.00     0.031 A 
ATOM     27  C   UNL A   1      49.144  27.294  28.570  1.00  0.00     0.031 A 
ATOM     28  C   UNL A   1      42.560  27.043  28.416  1.00  0.00     0.049 A 
ATOM     29  C   UNL A   1      48.155  26.248  28.137  1.00  0.00     0.074 A 
ATOM     30  C   UNL A   1      41.774  26.060  27.847  1.00  0.00     0.029 A 
ATOM     31  N   UNL A   1      43.883  26.646  28.268  1.00  0.00    -0.354 N 
ATOM     32  N   UNL A   1      46.844  26.307  28.144  1.00  0.00    -0.248 NA
ATOM     33  C   UNL A   1      48.705  24.999  27.599  1.00  0.00     0.031 C 
ATOM     34  C   UNL A   1      42.624  25.051  27.381  1.00  0.00     0.029 A 
ATOM     35  C   UNL A   1      43.938  25.428  27.619  1.00  0.00     0.049 A 
ATOM     36  H   UNL A   1      44.664  27.156  28.580  1.00  0.00     0.167 HD
ATOM     37  C   UNL A   1      46.411  25.130  27.547  1.00  0.00     0.074 A 
ATOM     38  C   UNL A   1      47.602  24.374  27.209  1.00  0.00     0.031 C 
ATOM     39  C   UNL A   1      45.147  24.721  27.281  1.00  0.00     0.031 A 
BRANCH  26  40
ATOM     40  C   UNL A   1      40.694  28.610  29.161  1.00  0.00    -0.014 A 
ATOM     41  C   UNL A   1      40.020  29.301  28.135  1.00  0.00     0.010 A 
ATOM     42  C   UNL A   1      40.005  28.303  30.346  1.00  0.00     0.010 A 
ATOM     43  C   UNL A   1      38.710  29.749  28.322  1.00  0.00     0.020 A 
ATOM     44  C   UNL A   1      38.681  28.717  30.522  1.00  0.00     0.020 A 
ATOM     45  C   UNL A   1      38.054  29.463  29.521  1.00  0.00     0.054 A 
BRANCH  45  46
ATOM     46  S   UNL A   1      36.362  30.079  29.744  1.00  0.00     0.124 S 
ATOM     47  O   UNL A   1      35.674  29.483  28.598  1.00  0.00    -0.237 OA
ATOM     48  O   UNL A   1      35.993  29.551  31.044  1.00  0.00    -0.237 OA
ATOM     49  O   UNL A   1      36.517  31.536  29.683  1.00  0.00    -0.744 OA
ENDBRANCH  45  46
ENDBRANCH  26  40
BRANCH  27  50
ATOM     50  C   UNL A   1      50.611  27.036  28.530  1.00  0.00    -0.014 A 
ATOM     51  C   UNL A   1      51.366  27.370  27.391  1.00  0.00     0.010 A 
ATOM     52  C   UNL A   1      51.266  26.448  29.628  1.00  0.00     0.010 A 
ATOM     53  C   UNL A   1      52.736  27.094  27.337  1.00  0.00     0.020 A 
ATOM     54  C   UNL A   1      52.642  26.189  29.587  1.00  0.00     0.020 A 
ATOM     55  C   UNL A   1      53.366  26.501  28.435  1.00  0.00     0.054 A 
BRANCH  55  56
ATOM     56  S   UNL A   1      55.150  26.173  28.344  1.00  0.00     0.124 S 
ATOM     57  O   UNL A   1      55.211  25.091  27.366  1.00  0.00    -0.237 OA
ATOM     58  O   UNL A   1      55.682  27.459  27.900  1.00  0.00    -0.237 OA
ATOM     59  O   UNL A   1      55.500  25.802  29.713  1.00  0.00    -0.744 OA
ENDBRANCH  55  56
ENDBRANCH  27  50
BRANCH  39  60
ATOM     60  C   UNL A   1      44.993  23.437  26.518  1.00  0.00    -0.014 A 
ATOM     61  C   UNL A   1      46.072  22.867  25.825  1.00  0.00     0.010 A 
ATOM     62  C   UNL A   1      43.759  22.763  26.563  1.00  0.00     0.010 A 
ATOM     63  C   UNL A   1      45.912  21.646  25.167  1.00  0.00     0.020 A 
ATOM     64  C   UNL A   1      43.605  21.530  25.932  1.00  0.00     0.020 A 
ATOM     65  C   UNL A   1      44.680  20.984  25.228  1.00  0.00     0.054 A 
BRANCH  65  66
ATOM     66  S   UNL A   1      44.517  19.369  24.424  1.00  0.00     0.124 S 
ATOM     67  O   UNL A   1      45.740  18.694  24.849  1.00  0.00    -0.237 OA
ATOM     68  O   UNL A   1      43.279  18.848  24.999  1.00  0.00    -0.237 OA
ATOM     69  O   UNL A   1      44.446  19.697  23.002  1.00  0.00    -0.744 OA
ENDBRANCH  65  66
ENDBRANCH  39  60
ENDBRANCH  13  14
ENDBRANCH   6   8
ENDBRANCH   5   6
ENDBRANCH   4   5
ENDBRANCH   3   4
ENDBRANCH   2   3
ENDBRANCH   1   2
BRANCH   1  70
ATOM     70  C   UNL A   1      46.026  42.990  33.192  1.00  0.00     0.188 C 
BRANCH  70  71
ATOM     71  O   UNL A   1      45.174  42.925  32.051  1.00  0.00    -0.376 OA
BRANCH  71  72
ATOM     72  C   UNL A   1      43.778  43.066  32.299  1.00  0.00     0.202 C 
BRANCH  72  73
ATOM     73  C   UNL A   1      42.792  42.203  31.490  1.00  0.00     0.261 C 
BRANCH  73  74
ATOM     74  O   UNL A   1      43.124  41.892  30.117  1.00  0.00    -0.459 OA
BRANCH  74  75
ATOM     75  C   UNL A   1      43.656  40.638  29.919  1.00  0.00     0.370 C 
ATOM     76  O   UNL A   1      44.022  39.926  30.852  1.00  0.00    -0.245 OA
BRANCH  75  77
ATOM     77  C   UNL A   1      43.864  40.295  28.421  1.00  0.00     0.328 C 
BRANCH  77  78
ATOM     78  N   UNL A   1      44.001  38.852  28.188  1.00  0.00    -0.310 N 
ATOM     79  C   UNL A   1      44.865  38.468  27.086  1.00  0.00     0.325 C 
ATOM     80  C   UNL A   1      42.903  37.904  28.280  1.00  0.00     0.325 C 
ATOM     81  H   UNL A   1      44.435  38.739  29.103  1.00  0.00     0.349 HD
ATOM     82  C   UNL A   1      45.636  37.263  27.628  1.00  0.00     0.324 C 
ATOM     83  C   UNL A   1      43.440  36.406  28.272  1.00  0.00     0.324 C 
ATOM     84  N   UNL A   1      44.777  36.083  27.695  1.00  0.00    -0.322 N 
ATOM     85  H   UNL A   1      45.157  35.427  28.378  1.00  0.00     0.348 HD
BRANCH  84  86
ATOM     86  C   UNL A   1      44.825  35.276  26.470  1.00  0.00     0.299 C 
BRANCH  86  87
ATOM     87  C   UNL A   1      45.229  33.823  26.634  1.00  0.00     0.008 A 
ATOM     88  C   UNL A   1      46.585  33.447  26.739  1.00  0.00     0.009 A 
ATOM     89  C   UNL A   1      44.258  32.820  26.537  1.00  0.00     0.030 A 
ATOM     90  C   UNL A   1      46.965  32.108  26.610  1.00  0.00     0.002 A 
ATOM     91  C   UNL A   1      44.642  31.483  26.458  1.00  0.00     0.041 A 
ATOM     92  C   UNL A   1      45.990  31.127  26.457  1.00  0.00     0.020 A 
ATOM     93  Cl  UNL A   1      43.437  30.262  26.325  1.00  0.00    -0.084 Cl
ENDBRANCH  86  87
ENDBRANCH  84  86
ENDBRANCH  77  78
BRANCH  77  94
ATOM     94  C   UNL A   1      42.741  40.648  27.436  1.00  0.00     0.046 A 
ATOM     95  C   UNL A   1      41.496  40.056  27.295  1.00  0.00     0.094 A 
ATOM     96  C   UNL A   1      42.938  41.423  26.225  1.00  0.00     0.009 A 
ATOM     97  N   UNL A   1      41.022  40.310  26.033  1.00  0.00    -0.361 N 
ATOM     98  C   UNL A   1      41.869  41.159  25.368  1.00  0.00     0.049 A 
ATOM     99  C   UNL A   1      43.982  42.242  25.741  1.00  0.00     0.014 A 
ATOM    100  H   UNL A   1      40.193  39.935  25.658  1.00  0.00     0.166 HD
ATOM    101  C   UNL A   1      41.765  41.714  24.087  1.00  0.00     0.065 A 
ATOM    102  C   UNL A   1      43.858  42.873  24.500  1.00  0.00     0.040 A 
ATOM    103  C   UNL A   1      42.763  42.604  23.695  1.00  0.00     0.125 A 
ATOM    104  F   UNL A   1      42.656  43.214  22.506  1.00  0.00    -0.207 F 
ENDBRANCH  77  94
ENDBRANCH  75  77
ENDBRANCH  74  75
ENDBRANCH  73  74
ENDBRANCH  72  73
ENDBRANCH  71  72
ENDBRANCH  70  71
ENDBRANCH   1  70
TORSDOF 24
ENDMDL
MODEL 3
REMARK VINA RESULT:      -8.6      9.430     17.641
REMARK SMILES O=C(OCCOCCOCCOC(=O)[C@H](c1c[nH]c2cc(F)ccc12)[NH+]1CC[NH+](Cc2cccc(Cl)c2)CC1)c1ccc(-c2c3nc(c(-c4ccc(S(=O)(=O)[O-])cc4)c4ccc([nH]4)c(-c4ccc(S(=O)(=O)[O-])cc4)c4nc(c(-c5ccc(S(=O)(=O)[O-])cc5)c5ccc2[nH]5)C=C4)C=C3)cc1
REMARK SMILES IDX 7 1 6 2 5 3 4 4 3 5 2 6 1 7 40 8 41 9 99 10 42 11 98 12
REMARK SMILES IDX 43 13 44 14 45 15 92 16 46 17 97 18 91 19 93 20 47 21 96 22
REMARK SMILES IDX 90 23 89 24 48 26 78 27 59 28 77 29 60 30 63 31 76 32 94 33
REMARK SMILES IDX 61 34 62 35 75 37 95 38 64 39 49 40 50 41 58 42 51 43 57 44
REMARK SMILES IDX 52 45 53 46 54 47 55 48 56 49 79 50 80 51 88 52 81 53 87 54
REMARK SMILES IDX 82 55 83 56 84 57 85 58 86 59 65 60 66 61 74 62 67 63 73 64
REMARK SMILES IDX 68 65 69 66 70 67 71 68 72 69 8 70 9 71 10 72 11 73 12 74
REMARK SMILES IDX 13 75 14 76 15 77 26 78 27 79 39 80 28 82 38 83 29 84 30 86
REMARK SMILES IDX 31 87 32 88 37 89 33 90 35 91 34 92 36 93 16 94 17 95 25 96
REMARK SMILES IDX 18 97 19 98 24 99 20 101 23 102 21 103 22 104
REMARK H PARENT 93 25 63 36 26 81 29 85 18 100
REMARK Flexibility Score: inf
ROOT
ATOM      1  C   UNL A   1      49.636  24.741  40.780  1.00  0.00     0.188 C 
ENDROOT
BRANCH   1   2
ATOM      2  O   UNL A   1      49.423  26.050  40.248  1.00  0.00    -0.376 OA
BRANCH   2   3
ATOM      3  C   UNL A   1      50.594  26.689  39.735  1.00  0.00     0.202 C 
BRANCH   3   4
ATOM      4  C   UNL A   1      50.344  27.947  38.889  1.00  0.00     0.261 C 
BRANCH   4   5
ATOM      5  O   UNL A   1      49.061  27.946  38.246  1.00  0.00    -0.460 OA
BRANCH   5   6
ATOM      6  C   UNL A   1      48.850  28.027  36.909  1.00  0.00     0.338 C 
ATOM      7  O   UNL A   1      49.751  27.710  36.131  1.00  0.00    -0.246 OA
BRANCH   6   8
ATOM      8  C   UNL A   1      47.548  28.474  36.342  1.00  0.00     0.060 A 
ATOM      9  C   UNL A   1      46.306  28.123  36.878  1.00  0.00     0.016 A 
ATOM     10  C   UNL A   1      47.583  29.443  35.339  1.00  0.00     0.016 A 
ATOM     11  C   UNL A   1      45.116  28.623  36.364  1.00  0.00     0.010 A 
ATOM     12  C   UNL A   1      46.396  30.051  34.920  1.00  0.00     0.010 A 
ATOM     13  C   UNL A   1      45.143  29.619  35.400  1.00  0.00    -0.014 A 
BRANCH  13  14
ATOM     14  C   UNL A   1      43.887  30.147  34.805  1.00  0.00     0.031 A 
ATOM     15  C   UNL A   1      43.501  29.625  33.448  1.00  0.00     0.074 A 
ATOM     16  C   UNL A   1      43.115  31.061  35.431  1.00  0.00     0.049 A 
ATOM     17  N   UNL A   1      42.599  30.063  32.612  1.00  0.00    -0.248 NA
ATOM     18  C   UNL A   1      44.265  28.464  32.953  1.00  0.00     0.031 C 
ATOM     19  C   UNL A   1      43.321  31.590  36.783  1.00  0.00     0.029 A 
ATOM     20  N   UNL A   1      42.004  31.741  34.993  1.00  0.00    -0.354 N 
ATOM     21  C   UNL A   1      42.724  29.256  31.487  1.00  0.00     0.074 A 
ATOM     22  C   UNL A   1      43.855  28.385  31.700  1.00  0.00     0.031 C 
ATOM     23  C   UNL A   1      42.417  32.548  37.039  1.00  0.00     0.029 A 
ATOM     24  C   UNL A   1      41.570  32.713  35.869  1.00  0.00     0.049 A 
ATOM     25  H   UNL A   1      41.560  31.551  34.135  1.00  0.00     0.167 HD
ATOM     26  C   UNL A   1      41.923  29.189  30.401  1.00  0.00     0.031 A 
ATOM     27  C   UNL A   1      40.610  33.647  35.732  1.00  0.00     0.031 A 
ATOM     28  C   UNL A   1      40.758  30.007  30.240  1.00  0.00     0.049 A 
ATOM     29  C   UNL A   1      39.780  33.625  34.479  1.00  0.00     0.074 A 
ATOM     30  C   UNL A   1      39.829  29.997  29.219  1.00  0.00     0.029 A 
ATOM     31  N   UNL A   1      40.353  30.972  31.153  1.00  0.00    -0.354 N 
ATOM     32  N   UNL A   1      39.896  32.840  33.434  1.00  0.00    -0.248 NA
ATOM     33  C   UNL A   1      38.663  34.574  34.407  1.00  0.00     0.031 C 
ATOM     34  C   UNL A   1      38.875  30.981  29.500  1.00  0.00     0.029 A 
ATOM     35  C   UNL A   1      39.186  31.569  30.718  1.00  0.00     0.049 A 
ATOM     36  H   UNL A   1      40.827  31.198  31.985  1.00  0.00     0.167 HD
ATOM     37  C   UNL A   1      38.824  33.154  32.607  1.00  0.00     0.074 A 
ATOM     38  C   UNL A   1      38.085  34.211  33.269  1.00  0.00     0.031 C 
ATOM     39  C   UNL A   1      38.469  32.603  31.420  1.00  0.00     0.031 A 
BRANCH  26  40
ATOM     40  C   UNL A   1      42.292  28.177  29.350  1.00  0.00    -0.014 A 
ATOM     41  C   UNL A   1      43.296  28.456  28.402  1.00  0.00     0.010 A 
ATOM     42  C   UNL A   1      41.581  26.969  29.258  1.00  0.00     0.010 A 
ATOM     43  C   UNL A   1      43.529  27.582  27.337  1.00  0.00     0.020 A 
ATOM     44  C   UNL A   1      41.837  26.075  28.214  1.00  0.00     0.020 A 
ATOM     45  C   UNL A   1      42.788  26.402  27.245  1.00  0.00     0.054 A 
BRANCH  45  46
ATOM     46  S   UNL A   1      43.095  25.301  25.837  1.00  0.00     0.124 S 
ATOM     47  O   UNL A   1      42.440  24.067  26.274  1.00  0.00    -0.237 OA
ATOM     48  O   UNL A   1      42.457  25.996  24.735  1.00  0.00    -0.237 OA
ATOM     49  O   UNL A   1      44.559  25.232  25.768  1.00  0.00    -0.744 OA
ENDBRANCH  45  46
ENDBRANCH  26  40
BRANCH  27  50
ATOM     50  C   UNL A   1      40.358  34.645  36.810  1.00  0.00    -0.014 A 
ATOM     51  C   UNL A   1      41.140  35.810  36.905  1.00  0.00     0.010 A 
ATOM     52  C   UNL A   1      39.336  34.435  37.756  1.00  0.00     0.010 A 
ATOM     53  C   UNL A   1      40.928  36.728  37.939  1.00  0.00     0.020 A 
ATOM     54  C   UNL A   1      39.108  35.362  38.781  1.00  0.00     0.020 A 
ATOM     55  C   UNL A   1      39.915  36.497  38.874  1.00  0.00     0.054 A 
BRANCH  55  56
ATOM     56  S   UNL A   1      39.651  37.717  40.193  1.00  0.00     0.124 S 
ATOM     57  O   UNL A   1      40.494  38.826  39.755  1.00  0.00    -0.237 OA
ATOM     58  O   UNL A   1      38.211  37.949  40.120  1.00  0.00    -0.237 OA
ATOM     59  O   UNL A   1      40.103  37.023  41.397  1.00  0.00    -0.744 OA
ENDBRANCH  55  56
ENDBRANCH  27  50
BRANCH  39  60
ATOM     60  C   UNL A   1      37.185  33.077  30.807  1.00  0.00    -0.014 A 
ATOM     61  C   UNL A   1      35.940  32.653  31.300  1.00  0.00     0.010 A 
ATOM     62  C   UNL A   1      37.236  34.019  29.763  1.00  0.00     0.010 A 
ATOM     63  C   UNL A   1      34.762  33.151  30.742  1.00  0.00     0.020 A 
ATOM     64  C   UNL A   1      36.061  34.540  29.224  1.00  0.00     0.020 A 
ATOM     65  C   UNL A   1      34.830  34.094  29.710  1.00  0.00     0.054 A 
BRANCH  65  66
ATOM     66  S   UNL A   1      33.288  34.776  29.048  1.00  0.00     0.124 S 
ATOM     67  O   UNL A   1      32.832  33.699  28.174  1.00  0.00    -0.237 OA
ATOM     68  O   UNL A   1      32.489  34.989  30.252  1.00  0.00    -0.237 OA
ATOM     69  O   UNL A   1      33.713  35.995  28.366  1.00  0.00    -0.744 OA
ENDBRANCH  65  66
ENDBRANCH  39  60
ENDBRANCH  13  14
ENDBRANCH   6   8
ENDBRANCH   5   6
ENDBRANCH   4   5
ENDBRANCH   3   4
ENDBRANCH   2   3
ENDBRANCH   1   2
BRANCH   1  70
ATOM     70  C   UNL A   1      50.849  24.066  40.125  1.00  0.00     0.188 C 
BRANCH  70  71
ATOM     71  O   UNL A   1      51.074  22.707  40.491  1.00  0.00    -0.376 OA
BRANCH  71  72
ATOM     72  C   UNL A   1      51.157  21.772  39.420  1.00  0.00     0.202 C 
BRANCH  72  73
ATOM     73  C   UNL A   1      50.193  21.923  38.229  1.00  0.00     0.261 C 
BRANCH  73  74
ATOM     74  O   UNL A   1      50.514  21.232  36.998  1.00  0.00    -0.459 OA
BRANCH  74  75
ATOM     75  C   UNL A   1      49.431  20.712  36.327  1.00  0.00     0.370 C 
ATOM     76  O   UNL A   1      49.518  20.268  35.184  1.00  0.00    -0.245 OA
BRANCH  75  77
ATOM     77  C   UNL A   1      48.098  20.874  37.104  1.00  0.00     0.328 C 
BRANCH  77  78
ATOM     78  N   UNL A   1      47.072  21.574  36.322  1.00  0.00    -0.310 N 
ATOM     79  C   UNL A   1      47.440  22.890  35.831  1.00  0.00     0.325 C 
ATOM     80  C   UNL A   1      45.655  21.569  36.647  1.00  0.00     0.325 C 
ATOM     81  H   UNL A   1      47.113  20.848  35.607  1.00  0.00     0.349 HD
ATOM     82  C   UNL A   1      46.871  22.924  34.411  1.00  0.00     0.324 C 
ATOM     83  C   UNL A   1      44.793  22.158  35.446  1.00  0.00     0.324 C 
ATOM     84  N   UNL A   1      45.416  23.063  34.437  1.00  0.00    -0.322 N 
ATOM     85  H   UNL A   1      45.028  22.714  33.561  1.00  0.00     0.348 HD
BRANCH  84  86
ATOM     86  C   UNL A   1      44.980  24.464  34.401  1.00  0.00     0.299 C 
BRANCH  86  87
ATOM     87  C   UNL A   1      44.004  24.896  35.479  1.00  0.00     0.008 A 
ATOM     88  C   UNL A   1      42.661  25.204  35.172  1.00  0.00     0.009 A 
ATOM     89  C   UNL A   1      44.468  25.134  36.777  1.00  0.00     0.030 A 
ATOM     90  C   UNL A   1      41.850  25.860  36.101  1.00  0.00     0.002 A 
ATOM     91  C   UNL A   1      43.637  25.745  37.714  1.00  0.00     0.041 A 
ATOM     92  C   UNL A   1      42.346  26.141  37.371  1.00  0.00     0.020 A 
ATOM     93  Cl  UNL A   1      44.227  26.043  39.303  1.00  0.00    -0.084 Cl
ENDBRANCH  86  87
ENDBRANCH  84  86
ENDBRANCH  77  78
BRANCH  77  94
ATOM     94  C   UNL A   1      47.342  19.603  37.513  1.00  0.00     0.046 A 
ATOM     95  C   UNL A   1      46.150  19.105  37.009  1.00  0.00     0.094 A 
ATOM     96  C   UNL A   1      47.554  18.900  38.764  1.00  0.00     0.009 A 
ATOM     97  N   UNL A   1      45.583  18.277  37.944  1.00  0.00    -0.361 N 
ATOM     98  C   UNL A   1      46.427  18.115  39.012  1.00  0.00     0.049 A 
ATOM     99  C   UNL A   1      48.557  18.942  39.757  1.00  0.00     0.014 A 
ATOM    100  H   UNL A   1      44.696  17.858  37.860  1.00  0.00     0.166 HD
ATOM    101  C   UNL A   1      46.282  17.334  40.165  1.00  0.00     0.065 A 
ATOM    102  C   UNL A   1      48.471  18.106  40.875  1.00  0.00     0.040 A 
ATOM    103  C   UNL A   1      47.345  17.320  41.064  1.00  0.00     0.125 A 
ATOM    104  F   UNL A   1      47.274  16.523  42.140  1.00  0.00    -0.207 F 
ENDBRANCH  77  94
ENDBRANCH  75  77
ENDBRANCH  74  75
ENDBRANCH  73  74
ENDBRANCH  72  73
ENDBRANCH  71  72
ENDBRANCH  70  71
ENDBRANCH   1  70
TORSDOF 24
ENDMDL
