MODEL 1
REMARK VINA RESULT:      -8.5      0.000      0.000
REMARK SMILES CC(C)Cc1noc(CCCCC(=O)OCCOCCOCCOC(=O)c2ccc(-c3c4nc(c(-c5ccc(S(=O)(=O)[O-])cc5)c5ccc([nH]5)c(-c5ccc(S(=O)(=O)[O-])cc5)c5nc(c(-c6ccc(S(=O)(=O)[O-])cc6)c6ccc3[nH]6)C=C5)C=C4)cc2)n1
REMARK SMILES IDX 18 1 17 2 16 3 15 4 13 5 14 6 12 7 11 8 10 9 9 10 8 11 5 12
REMARK SMILES IDX 6 13 87 14 7 15 4 16 2 17 1 18 3 19 19 20 20 21 21 22 22 23
REMARK SMILES IDX 23 24 24 25 25 26 26 27 27 28 28 29 86 30 29 31 85 32 30 33
REMARK SMILES IDX 31 34 32 35 79 36 33 37 84 38 78 39 80 40 34 41 83 42 77 43
REMARK SMILES IDX 76 44 35 46 65 47 46 48 64 49 47 50 50 51 63 52 81 53 48 54
REMARK SMILES IDX 49 55 62 57 82 58 51 59 36 60 37 61 45 62 38 63 44 64 39 65
REMARK SMILES IDX 40 66 41 67 42 68 43 69 66 70 67 71 75 72 68 73 74 74 69 75
REMARK SMILES IDX 70 76 71 77 72 78 73 79 52 80 53 81 61 82 54 83 60 84 55 85
REMARK SMILES IDX 56 86 57 87 58 88 59 89
REMARK H PARENT 80 45 50 56
REMARK Flexibility Score: inf
ROOT
ATOM      1  O   UNL A   1      42.431  19.554  25.388  1.00  0.00    -0.376 OA
ENDROOT
BRANCH   1   2
ATOM      2  C   UNL A   1      43.370  20.497  25.904  1.00  0.00     0.202 C 
BRANCH   2   3
ATOM      3  C   UNL A   1      44.219  21.242  24.864  1.00  0.00     0.261 C 
BRANCH   3   4
ATOM      4  O   UNL A   1      43.867  22.634  24.737  1.00  0.00    -0.463 OA
BRANCH   4   5
ATOM      5  C   UNL A   1      44.901  23.513  24.738  1.00  0.00     0.305 C 
ATOM      6  O   UNL A   1      45.786  23.554  23.891  1.00  0.00    -0.252 OA
BRANCH   5   7
ATOM      7  C   UNL A   1      44.825  24.530  25.861  1.00  0.00     0.123 C 
BRANCH   7   8
ATOM      8  C   UNL A   1      46.065  24.779  26.719  1.00  0.00     0.012 C 
BRANCH   8   9
ATOM      9  C   UNL A   1      46.793  26.113  26.520  1.00  0.00     0.010 C 
BRANCH   9  10
ATOM     10  C   UNL A   1      46.411  26.899  25.265  1.00  0.00     0.100 C 
BRANCH  10  11
ATOM     11  C   UNL A   1      47.572  27.171  24.391  1.00  0.00     0.226 A 
ATOM     12  C   UNL A   1      49.041  27.288  22.917  1.00  0.00     0.172 A 
ATOM     13  N   UNL A   1      49.551  28.032  23.905  1.00  0.00    -0.063 NA
ATOM     14  N   UNL A   1      47.806  26.749  23.170  1.00  0.00    -0.196 NA
ATOM     15  O   UNL A   1      48.566  27.961  24.892  1.00  0.00    -0.339 OA
BRANCH  12  16
ATOM     16  C   UNL A   1      49.752  27.045  21.639  1.00  0.00     0.084 C 
BRANCH  16  17
ATOM     17  C   UNL A   1      51.061  27.844  21.501  1.00  0.00    -0.010 C 
ATOM     18  C   UNL A   1      52.305  26.953  21.571  1.00  0.00     0.008 C 
ATOM     19  C   UNL A   1      51.051  28.610  20.177  1.00  0.00     0.008 C 
ENDBRANCH  16  17
ENDBRANCH  12  16
ENDBRANCH  10  11
ENDBRANCH   9  10
ENDBRANCH   8   9
ENDBRANCH   7   8
ENDBRANCH   5   7
ENDBRANCH   4   5
ENDBRANCH   3   4
ENDBRANCH   2   3
ENDBRANCH   1   2
BRANCH   1  20
ATOM     20  C   UNL A   1      41.231  19.374  26.134  1.00  0.00     0.188 C 
BRANCH  20  21
ATOM     21  C   UNL A   1      40.439  20.643  26.452  1.00  0.00     0.188 C 
BRANCH  21  22
ATOM     22  O   UNL A   1      40.710  21.253  27.708  1.00  0.00    -0.376 OA
BRANCH  22  23
ATOM     23  C   UNL A   1      40.743  22.685  27.714  1.00  0.00     0.202 C 
BRANCH  23  24
ATOM     24  C   UNL A   1      40.179  23.404  26.469  1.00  0.00     0.261 C 
BRANCH  24  25
ATOM     25  O   UNL A   1      39.606  24.709  26.700  1.00  0.00    -0.460 OA
BRANCH  25  26
ATOM     26  C   UNL A   1      40.389  25.797  26.505  1.00  0.00     0.338 C 
ATOM     27  O   UNL A   1      40.988  26.083  25.482  1.00  0.00    -0.246 OA
BRANCH  26  28
ATOM     28  C   UNL A   1      40.177  26.734  27.645  1.00  0.00     0.060 A 
ATOM     29  C   UNL A   1      40.595  28.067  27.502  1.00  0.00     0.016 A 
ATOM     30  C   UNL A   1      39.508  26.342  28.810  1.00  0.00     0.016 A 
ATOM     31  C   UNL A   1      40.392  28.991  28.532  1.00  0.00     0.010 A 
ATOM     32  C   UNL A   1      39.315  27.263  29.845  1.00  0.00     0.010 A 
ATOM     33  C   UNL A   1      39.791  28.582  29.729  1.00  0.00    -0.014 A 
BRANCH  33  34
ATOM     34  C   UNL A   1      39.883  29.433  30.946  1.00  0.00     0.031 A 
ATOM     35  C   UNL A   1      41.032  29.179  31.887  1.00  0.00     0.074 A 
ATOM     36  C   UNL A   1      38.988  30.398  31.231  1.00  0.00     0.049 A 
ATOM     37  N   UNL A   1      41.282  29.702  33.058  1.00  0.00    -0.248 NA
ATOM     38  C   UNL A   1      42.033  28.192  31.442  1.00  0.00     0.031 C 
ATOM     39  C   UNL A   1      37.863  30.795  30.388  1.00  0.00     0.029 A 
ATOM     40  N   UNL A   1      38.887  31.214  32.333  1.00  0.00    -0.354 N 
ATOM     41  C   UNL A   1      42.454  29.097  33.498  1.00  0.00     0.074 A 
ATOM     42  C   UNL A   1      42.853  28.151  32.481  1.00  0.00     0.031 C 
ATOM     43  C   UNL A   1      37.177  31.771  31.009  1.00  0.00     0.029 A 
ATOM     44  C   UNL A   1      37.786  32.039  32.312  1.00  0.00     0.049 A 
ATOM     45  H   UNL A   1      39.541  31.208  33.068  1.00  0.00     0.167 HD
ATOM     46  C   UNL A   1      43.142  29.306  34.645  1.00  0.00     0.031 A 
ATOM     47  C   UNL A   1      37.311  32.890  33.246  1.00  0.00     0.031 A 
ATOM     48  C   UNL A   1      42.744  30.236  35.668  1.00  0.00     0.049 A 
ATOM     49  C   UNL A   1      38.046  33.047  34.558  1.00  0.00     0.074 A 
ATOM     50  C   UNL A   1      43.379  30.519  36.864  1.00  0.00     0.029 A 
ATOM     51  N   UNL A   1      41.607  31.027  35.619  1.00  0.00    -0.354 N 
ATOM     52  N   UNL A   1      39.156  32.472  34.957  1.00  0.00    -0.248 NA
ATOM     53  C   UNL A   1      37.463  33.972  35.543  1.00  0.00     0.031 C 
ATOM     54  C   UNL A   1      42.594  31.439  37.566  1.00  0.00     0.029 A 
ATOM     55  C   UNL A   1      41.509  31.781  36.775  1.00  0.00     0.049 A 
ATOM     56  H   UNL A   1      40.964  31.048  34.873  1.00  0.00     0.167 HD
ATOM     57  C   UNL A   1      39.423  32.995  36.221  1.00  0.00     0.074 A 
ATOM     58  C   UNL A   1      38.362  33.934  36.519  1.00  0.00     0.031 C 
ATOM     59  C   UNL A   1      40.456  32.724  37.057  1.00  0.00     0.031 A 
BRANCH  46  60
ATOM     60  C   UNL A   1      44.378  28.477  34.871  1.00  0.00    -0.014 A 
ATOM     61  C   UNL A   1      45.645  28.927  34.460  1.00  0.00     0.010 A 
ATOM     62  C   UNL A   1      44.269  27.237  35.527  1.00  0.00     0.010 A 
ATOM     63  C   UNL A   1      46.776  28.132  34.663  1.00  0.00     0.020 A 
ATOM     64  C   UNL A   1      45.401  26.454  35.759  1.00  0.00     0.020 A 
ATOM     65  C   UNL A   1      46.645  26.900  35.310  1.00  0.00     0.054 A 
BRANCH  65  66
ATOM     66  S   UNL A   1      48.132  25.896  35.576  1.00  0.00     0.124 S 
ATOM     67  O   UNL A   1      48.650  25.760  34.217  1.00  0.00    -0.237 OA
ATOM     68  O   UNL A   1      48.928  26.734  36.470  1.00  0.00    -0.237 OA
ATOM     69  O   UNL A   1      47.619  24.665  36.172  1.00  0.00    -0.744 OA
ENDBRANCH  65  66
ENDBRANCH  46  60
BRANCH  47  70
ATOM     70  C   UNL A   1      36.053  33.652  32.998  1.00  0.00    -0.014 A 
ATOM     71  C   UNL A   1      36.094  34.979  32.535  1.00  0.00     0.010 A 
ATOM     72  C   UNL A   1      34.802  33.057  33.248  1.00  0.00     0.010 A 
ATOM     73  C   UNL A   1      34.911  35.702  32.344  1.00  0.00     0.020 A 
ATOM     74  C   UNL A   1      33.617  33.766  33.029  1.00  0.00     0.020 A 
ATOM     75  C   UNL A   1      33.679  35.090  32.589  1.00  0.00     0.054 A 
BRANCH  75  76
ATOM     76  S   UNL A   1      32.157  36.030  32.287  1.00  0.00     0.124 S 
ATOM     77  O   UNL A   1      31.125  35.061  32.642  1.00  0.00    -0.237 OA
ATOM     78  O   UNL A   1      32.302  37.164  33.198  1.00  0.00    -0.237 OA
ATOM     79  O   UNL A   1      32.239  36.367  30.868  1.00  0.00    -0.744 OA
ENDBRANCH  75  76
ENDBRANCH  47  70
BRANCH  59  80
ATOM     80  C   UNL A   1      40.540  33.491  38.353  1.00  0.00    -0.014 A 
ATOM     81  C   UNL A   1      41.233  34.710  38.446  1.00  0.00     0.010 A 
ATOM     82  C   UNL A   1      39.839  33.016  39.479  1.00  0.00     0.010 A 
ATOM     83  C   UNL A   1      41.244  35.426  39.649  1.00  0.00     0.020 A 
ATOM     84  C   UNL A   1      39.823  33.743  40.671  1.00  0.00     0.020 A 
ATOM     85  C   UNL A   1      40.536  34.940  40.752  1.00  0.00     0.054 A 
BRANCH  85  86
ATOM     86  S   UNL A   1      40.519  35.917  42.282  1.00  0.00     0.124 S 
ATOM     87  O   UNL A   1      40.835  34.908  43.290  1.00  0.00    -0.237 OA
ATOM     88  O   UNL A   1      41.563  36.910  42.039  1.00  0.00    -0.237 OA
ATOM     89  O   UNL A   1      39.160  36.450  42.339  1.00  0.00    -0.744 OA
ENDBRANCH  85  86
ENDBRANCH  59  80
ENDBRANCH  33  34
ENDBRANCH  26  28
ENDBRANCH  25  26
ENDBRANCH  24  25
ENDBRANCH  23  24
ENDBRANCH  22  23
ENDBRANCH  21  22
ENDBRANCH  20  21
ENDBRANCH   1  20
TORSDOF 26
ENDMDL
MODEL 2
REMARK VINA RESULT:      -7.9      4.856     10.396
REMARK SMILES CC(C)Cc1noc(CCCCC(=O)OCCOCCOCCOC(=O)c2ccc(-c3c4nc(c(-c5ccc(S(=O)(=O)[O-])cc5)c5ccc([nH]5)c(-c5ccc(S(=O)(=O)[O-])cc5)c5nc(c(-c6ccc(S(=O)(=O)[O-])cc6)c6ccc3[nH]6)C=C5)C=C4)cc2)n1
REMARK SMILES IDX 18 1 17 2 16 3 15 4 13 5 14 6 12 7 11 8 10 9 9 10 8 11 5 12
REMARK SMILES IDX 6 13 87 14 7 15 4 16 2 17 1 18 3 19 19 20 20 21 21 22 22 23
REMARK SMILES IDX 23 24 24 25 25 26 26 27 27 28 28 29 86 30 29 31 85 32 30 33
REMARK SMILES IDX 31 34 32 35 79 36 33 37 84 38 78 39 80 40 34 41 83 42 77 43
REMARK SMILES IDX 76 44 35 46 65 47 46 48 64 49 47 50 50 51 63 52 81 53 48 54
REMARK SMILES IDX 49 55 62 57 82 58 51 59 36 60 37 61 45 62 38 63 44 64 39 65
REMARK SMILES IDX 40 66 41 67 42 68 43 69 66 70 67 71 75 72 68 73 74 74 69 75
REMARK SMILES IDX 70 76 71 77 72 78 73 79 52 80 53 81 61 82 54 83 60 84 55 85
REMARK SMILES IDX 56 86 57 87 58 88 59 89
REMARK H PARENT 80 45 50 56
REMARK Flexibility Score: inf
ROOT
ATOM      1  O   UNL A   1      33.649  28.210  27.267  1.00  0.00    -0.376 OA
ENDROOT
BRANCH   1   2
ATOM      2  C   UNL A   1      33.157  27.233  26.350  1.00  0.00     0.202 C 
BRANCH   2   3
ATOM      3  C   UNL A   1      34.078  26.888  25.171  1.00  0.00     0.261 C 
BRANCH   3   4
ATOM      4  O   UNL A   1      33.795  27.659  23.987  1.00  0.00    -0.463 OA
BRANCH   4   5
ATOM      5  C   UNL A   1      32.899  27.116  23.122  1.00  0.00     0.305 C 
ATOM      6  O   UNL A   1      33.178  26.320  22.234  1.00  0.00    -0.252 OA
BRANCH   5   7
ATOM      7  C   UNL A   1      31.466  27.522  23.408  1.00  0.00     0.123 C 
BRANCH   7   8
ATOM      8  C   UNL A   1      30.329  26.653  22.871  1.00  0.00     0.012 C 
BRANCH   8   9
ATOM      9  C   UNL A   1      29.706  25.643  23.841  1.00  0.00     0.010 C 
BRANCH   9  10
ATOM     10  C   UNL A   1      30.496  25.377  25.123  1.00  0.00     0.100 C 
BRANCH  10  11
ATOM     11  C   UNL A   1      31.217  24.086  25.087  1.00  0.00     0.226 A 
ATOM     12  C   UNL A   1      32.485  22.459  24.797  1.00  0.00     0.172 A 
ATOM     13  N   UNL A   1      31.464  21.923  25.476  1.00  0.00    -0.063 NA
ATOM     14  N   UNL A   1      32.381  23.803  24.550  1.00  0.00    -0.196 NA
ATOM     15  O   UNL A   1      30.615  23.013  25.678  1.00  0.00    -0.339 OA
BRANCH  12  16
ATOM     16  C   UNL A   1      33.648  21.666  24.330  1.00  0.00     0.084 C 
BRANCH  16  17
ATOM     17  C   UNL A   1      34.508  21.101  25.475  1.00  0.00    -0.010 C 
ATOM     18  C   UNL A   1      35.786  20.421  24.972  1.00  0.00     0.008 C 
ATOM     19  C   UNL A   1      34.874  22.229  26.441  1.00  0.00     0.008 C 
ENDBRANCH  16  17
ENDBRANCH  12  16
ENDBRANCH  10  11
ENDBRANCH   9  10
ENDBRANCH   8   9
ENDBRANCH   7   8
ENDBRANCH   5   7
ENDBRANCH   4   5
ENDBRANCH   3   4
ENDBRANCH   2   3
ENDBRANCH   1   2
BRANCH   1  20
ATOM     20  C   UNL A   1      33.974  29.487  26.727  1.00  0.00     0.188 C 
BRANCH  20  21
ATOM     21  C   UNL A   1      32.816  30.270  26.107  1.00  0.00     0.188 C 
BRANCH  21  22
ATOM     22  O   UNL A   1      31.923  30.899  27.019  1.00  0.00    -0.376 OA
BRANCH  22  23
ATOM     23  C   UNL A   1      31.324  32.119  26.568  1.00  0.00     0.202 C 
BRANCH  23  24
ATOM     24  C   UNL A   1      31.862  33.432  27.177  1.00  0.00     0.261 C 
BRANCH  24  25
ATOM     25  O   UNL A   1      33.218  33.390  27.671  1.00  0.00    -0.460 OA
BRANCH  25  26
ATOM     26  C   UNL A   1      33.528  34.129  28.763  1.00  0.00     0.338 C 
ATOM     27  O   UNL A   1      32.798  34.930  29.323  1.00  0.00    -0.246 OA
BRANCH  26  28
ATOM     28  C   UNL A   1      34.797  33.601  29.339  1.00  0.00     0.060 A 
ATOM     29  C   UNL A   1      34.732  32.481  30.184  1.00  0.00     0.016 A 
ATOM     30  C   UNL A   1      36.043  34.139  29.000  1.00  0.00     0.016 A 
ATOM     31  C   UNL A   1      35.899  31.931  30.726  1.00  0.00     0.010 A 
ATOM     32  C   UNL A   1      37.209  33.597  29.552  1.00  0.00     0.010 A 
ATOM     33  C   UNL A   1      37.142  32.515  30.449  1.00  0.00    -0.014 A 
BRANCH  33  34
ATOM     34  C   UNL A   1      38.332  32.180  31.275  1.00  0.00     0.031 A 
ATOM     35  C   UNL A   1      39.258  31.109  30.759  1.00  0.00     0.074 A 
ATOM     36  C   UNL A   1      38.599  32.784  32.448  1.00  0.00     0.049 A 
ATOM     37  N   UNL A   1      40.298  30.559  31.329  1.00  0.00    -0.248 NA
ATOM     38  C   UNL A   1      38.963  30.586  29.413  1.00  0.00     0.031 C 
ATOM     39  C   UNL A   1      37.829  33.874  33.042  1.00  0.00     0.029 A 
ATOM     40  N   UNL A   1      39.602  32.547  33.359  1.00  0.00    -0.354 N 
ATOM     41  C   UNL A   1      40.768  29.615  30.424  1.00  0.00     0.074 A 
ATOM     42  C   UNL A   1      39.888  29.648  29.278  1.00  0.00     0.031 C 
ATOM     43  C   UNL A   1      38.379  34.202  34.225  1.00  0.00     0.029 A 
ATOM     44  C   UNL A   1      39.515  33.320  34.493  1.00  0.00     0.049 A 
ATOM     45  H   UNL A   1      40.315  31.884  33.213  1.00  0.00     0.167 HD
ATOM     46  C   UNL A   1      41.837  28.791  30.531  1.00  0.00     0.031 A 
ATOM     47  C   UNL A   1      40.248  33.298  35.627  1.00  0.00     0.031 A 
ATOM     48  C   UNL A   1      42.708  28.742  31.675  1.00  0.00     0.049 A 
ATOM     49  C   UNL A   1      41.385  32.310  35.763  1.00  0.00     0.074 A 
ATOM     50  C   UNL A   1      43.819  27.941  31.873  1.00  0.00     0.029 A 
ATOM     51  N   UNL A   1      42.564  29.520  32.812  1.00  0.00    -0.354 N 
ATOM     52  N   UNL A   1      41.821  31.427  34.897  1.00  0.00    -0.248 NA
ATOM     53  C   UNL A   1      42.129  32.321  37.033  1.00  0.00     0.031 C 
ATOM     54  C   UNL A   1      44.312  28.193  33.157  1.00  0.00     0.029 A 
ATOM     55  C   UNL A   1      43.552  29.201  33.728  1.00  0.00     0.049 A 
ATOM     56  H   UNL A   1      41.863  30.198  32.950  1.00  0.00     0.167 HD
ATOM     57  C   UNL A   1      42.913  30.807  35.502  1.00  0.00     0.074 A 
ATOM     58  C   UNL A   1      43.073  31.418  36.804  1.00  0.00     0.031 C 
ATOM     59  C   UNL A   1      43.712  29.824  35.018  1.00  0.00     0.031 A 
BRANCH  46  60
ATOM     60  C   UNL A   1      42.094  27.841  29.393  1.00  0.00    -0.014 A 
ATOM     61  C   UNL A   1      41.382  26.634  29.273  1.00  0.00     0.010 A 
ATOM     62  C   UNL A   1      43.049  28.174  28.415  1.00  0.00     0.010 A 
ATOM     63  C   UNL A   1      41.650  25.759  28.218  1.00  0.00     0.020 A 
ATOM     64  C   UNL A   1      43.298  27.315  27.342  1.00  0.00     0.020 A 
ATOM     65  C   UNL A   1      42.608  26.105  27.261  1.00  0.00     0.054 A 
BRANCH  65  66
ATOM     66  S   UNL A   1      42.925  24.957  25.893  1.00  0.00     0.124 S 
ATOM     67  O   UNL A   1      42.014  23.859  26.205  1.00  0.00    -0.237 OA
ATOM     68  O   UNL A   1      42.571  25.752  24.720  1.00  0.00    -0.237 OA
ATOM     69  O   UNL A   1      44.345  24.643  26.024  1.00  0.00    -0.744 OA
ENDBRANCH  65  66
ENDBRANCH  46  60
BRANCH  47  70
ATOM     70  C   UNL A   1      39.923  34.224  36.750  1.00  0.00    -0.014 A 
ATOM     71  C   UNL A   1      40.231  35.593  36.667  1.00  0.00     0.010 A 
ATOM     72  C   UNL A   1      39.321  33.732  37.923  1.00  0.00     0.010 A 
ATOM     73  C   UNL A   1      39.960  36.449  37.741  1.00  0.00     0.020 A 
ATOM     74  C   UNL A   1      39.022  34.590  38.987  1.00  0.00     0.020 A 
ATOM     75  C   UNL A   1      39.354  35.942  38.893  1.00  0.00     0.054 A 
BRANCH  75  76
ATOM     76  S   UNL A   1      38.968  37.080  40.253  1.00  0.00     0.124 S 
ATOM     77  O   UNL A   1      37.930  36.351  40.974  1.00  0.00    -0.237 OA
ATOM     78  O   UNL A   1      40.253  37.197  40.939  1.00  0.00    -0.237 OA
ATOM     79  O   UNL A   1      38.523  38.292  39.570  1.00  0.00    -0.744 OA
ENDBRANCH  75  76
ENDBRANCH  47  70
BRANCH  59  80
ATOM     80  C   UNL A   1      44.878  29.377  35.864  1.00  0.00    -0.014 A 
ATOM     81  C   UNL A   1      44.769  28.300  36.761  1.00  0.00     0.010 A 
ATOM     82  C   UNL A   1      46.130  29.999  35.693  1.00  0.00     0.010 A 
ATOM     83  C   UNL A   1      45.885  27.872  37.490  1.00  0.00     0.020 A 
ATOM     84  C   UNL A   1      47.252  29.556  36.397  1.00  0.00     0.020 A 
ATOM     85  C   UNL A   1      47.120  28.500  37.301  1.00  0.00     0.054 A 
BRANCH  85  86
ATOM     86  S   UNL A   1      48.563  27.889  38.216  1.00  0.00     0.124 S 
ATOM     87  O   UNL A   1      48.117  26.565  38.639  1.00  0.00    -0.237 OA
ATOM     88  O   UNL A   1      49.614  27.904  37.201  1.00  0.00    -0.237 OA
ATOM     89  O   UNL A   1      48.731  28.864  39.291  1.00  0.00    -0.744 OA
ENDBRANCH  85  86
ENDBRANCH  59  80
ENDBRANCH  33  34
ENDBRANCH  26  28
ENDBRANCH  25  26
ENDBRANCH  24  25
ENDBRANCH  23  24
ENDBRANCH  22  23
ENDBRANCH  21  22
ENDBRANCH  20  21
ENDBRANCH   1  20
TORSDOF 26
ENDMDL
MODEL 3
REMARK VINA RESULT:      -6.9      6.350     10.734
REMARK SMILES CC(C)Cc1noc(CCCCC(=O)OCCOCCOCCOC(=O)c2ccc(-c3c4nc(c(-c5ccc(S(=O)(=O)[O-])cc5)c5ccc([nH]5)c(-c5ccc(S(=O)(=O)[O-])cc5)c5nc(c(-c6ccc(S(=O)(=O)[O-])cc6)c6ccc3[nH]6)C=C5)C=C4)cc2)n1
REMARK SMILES IDX 18 1 17 2 16 3 15 4 13 5 14 6 12 7 11 8 10 9 9 10 8 11 5 12
REMARK SMILES IDX 6 13 87 14 7 15 4 16 2 17 1 18 3 19 19 20 20 21 21 22 22 23
REMARK SMILES IDX 23 24 24 25 25 26 26 27 27 28 28 29 86 30 29 31 85 32 30 33
REMARK SMILES IDX 31 34 32 35 79 36 33 37 84 38 78 39 80 40 34 41 83 42 77 43
REMARK SMILES IDX 76 44 35 46 65 47 46 48 64 49 47 50 50 51 63 52 81 53 48 54
REMARK SMILES IDX 49 55 62 57 82 58 51 59 36 60 37 61 45 62 38 63 44 64 39 65
REMARK SMILES IDX 40 66 41 67 42 68 43 69 66 70 67 71 75 72 68 73 74 74 69 75
REMARK SMILES IDX 70 76 71 77 72 78 73 79 52 80 53 81 61 82 54 83 60 84 55 85
REMARK SMILES IDX 56 86 57 87 58 88 59 89
REMARK H PARENT 80 45 50 56
REMARK Flexibility Score: inf
ROOT
ATOM      1  O   UNL A   1      42.682  19.500  25.014  1.00  0.00    -0.376 OA
ENDROOT
BRANCH   1   2
ATOM      2  C   UNL A   1      44.010  19.787  25.450  1.00  0.00     0.202 C 
BRANCH   2   3
ATOM      3  C   UNL A   1      44.877  20.605  24.483  1.00  0.00     0.261 C 
BRANCH   3   4
ATOM      4  O   UNL A   1      44.388  21.945  24.277  1.00  0.00    -0.463 OA
BRANCH   4   5
ATOM      5  C   UNL A   1      45.286  22.944  24.474  1.00  0.00     0.305 C 
ATOM      6  O   UNL A   1      46.100  23.328  23.642  1.00  0.00    -0.252 OA
BRANCH   5   7
ATOM      7  C   UNL A   1      45.139  23.627  25.821  1.00  0.00     0.123 C 
BRANCH   7   8
ATOM      8  C   UNL A   1      46.398  23.989  26.608  1.00  0.00     0.012 C 
BRANCH   8   9
ATOM      9  C   UNL A   1      46.780  25.472  26.666  1.00  0.00     0.010 C 
BRANCH   9  10
ATOM     10  C   UNL A   1      46.263  26.339  25.518  1.00  0.00     0.100 C 
BRANCH  10  11
ATOM     11  C   UNL A   1      47.330  26.716  24.567  1.00  0.00     0.226 A 
ATOM     12  C   UNL A   1      49.077  27.081  23.491  1.00  0.00     0.172 A 
ATOM     13  N   UNL A   1      48.150  27.739  22.786  1.00  0.00    -0.063 NA
ATOM     14  N   UNL A   1      48.608  26.418  24.595  1.00  0.00    -0.196 NA
ATOM     15  O   UNL A   1      46.976  27.490  23.500  1.00  0.00    -0.339 OA
BRANCH  12  16
ATOM     16  C   UNL A   1      50.513  27.070  23.125  1.00  0.00     0.084 C 
BRANCH  16  17
ATOM     17  C   UNL A   1      50.934  28.259  22.242  1.00  0.00    -0.010 C 
ATOM     18  C   UNL A   1      52.031  29.112  22.887  1.00  0.00     0.008 C 
ATOM     19  C   UNL A   1      51.416  27.741  20.886  1.00  0.00     0.008 C 
ENDBRANCH  16  17
ENDBRANCH  12  16
ENDBRANCH  10  11
ENDBRANCH   9  10
ENDBRANCH   8   9
ENDBRANCH   7   8
ENDBRANCH   5   7
ENDBRANCH   4   5
ENDBRANCH   3   4
ENDBRANCH   2   3
ENDBRANCH   1   2
BRANCH   1  20
ATOM     20  C   UNL A   1      41.766  19.048  26.007  1.00  0.00     0.188 C 
BRANCH  20  21
ATOM     21  C   UNL A   1      41.003  20.136  26.763  1.00  0.00     0.188 C 
BRANCH  21  22
ATOM     22  O   UNL A   1      40.662  21.299  26.016  1.00  0.00    -0.376 OA
BRANCH  22  23
ATOM     23  C   UNL A   1      40.952  22.553  26.644  1.00  0.00     0.202 C 
BRANCH  23  24
ATOM     24  C   UNL A   1      42.056  22.557  27.724  1.00  0.00     0.261 C 
BRANCH  24  25
ATOM     25  O   UNL A   1      42.218  23.792  28.456  1.00  0.00    -0.460 OA
BRANCH  25  26
ATOM     26  C   UNL A   1      43.340  23.957  29.196  1.00  0.00     0.338 C 
ATOM     27  O   UNL A   1      43.994  23.073  29.723  1.00  0.00    -0.246 OA
BRANCH  26  28
ATOM     28  C   UNL A   1      43.806  25.363  29.030  1.00  0.00     0.060 A 
ATOM     29  C   UNL A   1      44.728  25.875  29.956  1.00  0.00     0.016 A 
ATOM     30  C   UNL A   1      43.411  26.148  27.941  1.00  0.00     0.016 A 
ATOM     31  C   UNL A   1      45.217  27.180  29.825  1.00  0.00     0.010 A 
ATOM     32  C   UNL A   1      43.891  27.457  27.817  1.00  0.00     0.010 A 
ATOM     33  C   UNL A   1      44.765  27.994  28.779  1.00  0.00    -0.014 A 
BRANCH  33  34
ATOM     34  C   UNL A   1      44.988  29.464  28.820  1.00  0.00     0.031 A 
ATOM     35  C   UNL A   1      43.831  30.332  29.243  1.00  0.00     0.074 A 
ATOM     36  C   UNL A   1      46.164  30.033  28.493  1.00  0.00     0.049 A 
ATOM     37  N   UNL A   1      43.729  31.635  29.262  1.00  0.00    -0.248 NA
ATOM     38  C   UNL A   1      42.621  29.627  29.702  1.00  0.00     0.031 C 
ATOM     39  C   UNL A   1      47.384  29.319  28.125  1.00  0.00     0.029 A 
ATOM     40  N   UNL A   1      46.513  31.361  28.409  1.00  0.00    -0.354 N 
ATOM     41  C   UNL A   1      42.442  31.905  29.714  1.00  0.00     0.074 A 
ATOM     42  C   UNL A   1      41.793  30.633  29.936  1.00  0.00     0.031 C 
ATOM     43  C   UNL A   1      48.345  30.218  27.841  1.00  0.00     0.029 A 
ATOM     44  C   UNL A   1      47.798  31.569  27.966  1.00  0.00     0.049 A 
ATOM     45  H   UNL A   1      45.899  32.094  28.644  1.00  0.00     0.167 HD
ATOM     46  C   UNL A   1      41.849  33.103  29.930  1.00  0.00     0.031 A 
ATOM     47  C   UNL A   1      48.447  32.715  27.668  1.00  0.00     0.031 A 
ATOM     48  C   UNL A   1      42.485  34.372  29.698  1.00  0.00     0.049 A 
ATOM     49  C   UNL A   1      47.739  34.040  27.832  1.00  0.00     0.074 A 
ATOM     50  C   UNL A   1      41.964  35.639  29.890  1.00  0.00     0.029 A 
ATOM     51  N   UNL A   1      43.774  34.536  29.220  1.00  0.00    -0.354 N 
ATOM     52  N   UNL A   1      46.524  34.280  28.266  1.00  0.00    -0.248 NA
ATOM     53  C   UNL A   1      48.494  35.250  27.467  1.00  0.00     0.031 C 
ATOM     54  C   UNL A   1      42.919  36.570  29.471  1.00  0.00     0.029 A 
ATOM     55  C   UNL A   1      44.059  35.883  29.087  1.00  0.00     0.049 A 
ATOM     56  H   UNL A   1      44.396  33.802  29.005  1.00  0.00     0.167 HD
ATOM     57  C   UNL A   1      46.385  35.667  28.263  1.00  0.00     0.074 A 
ATOM     58  C   UNL A   1      47.639  36.213  27.789  1.00  0.00     0.031 C 
ATOM     59  C   UNL A   1      45.316  36.419  28.626  1.00  0.00     0.031 A 
BRANCH  46  60
ATOM     60  C   UNL A   1      40.420  33.091  30.400  1.00  0.00    -0.014 A 
ATOM     61  C   UNL A   1      40.097  32.861  31.750  1.00  0.00     0.010 A 
ATOM     62  C   UNL A   1      39.386  33.338  29.479  1.00  0.00     0.010 A 
ATOM     63  C   UNL A   1      38.762  32.837  32.161  1.00  0.00     0.020 A 
ATOM     64  C   UNL A   1      38.051  33.344  29.892  1.00  0.00     0.020 A 
ATOM     65  C   UNL A   1      37.748  33.077  31.228  1.00  0.00     0.054 A 
BRANCH  65  66
ATOM     66  S   UNL A   1      36.024  33.055  31.792  1.00  0.00     0.124 S 
ATOM     67  O   UNL A   1      35.876  31.677  32.253  1.00  0.00    -0.237 OA
ATOM     68  O   UNL A   1      36.019  34.071  32.842  1.00  0.00    -0.237 OA
ATOM     69  O   UNL A   1      35.262  33.396  30.595  1.00  0.00    -0.744 OA
ENDBRANCH  65  66
ENDBRANCH  46  60
BRANCH  47  70
ATOM     70  C   UNL A   1      49.847  32.673  27.154  1.00  0.00    -0.014 A 
ATOM     71  C   UNL A   1      50.933  32.523  28.035  1.00  0.00     0.010 A 
ATOM     72  C   UNL A   1      50.101  32.809  25.776  1.00  0.00     0.010 A 
ATOM     73  C   UNL A   1      52.247  32.526  27.550  1.00  0.00     0.020 A 
ATOM     74  C   UNL A   1      51.411  32.783  25.286  1.00  0.00     0.020 A 
ATOM     75  C   UNL A   1      52.477  32.653  26.178  1.00  0.00     0.054 A 
BRANCH  75  76
ATOM     76  S   UNL A   1      54.185  32.605  25.568  1.00  0.00     0.124 S 
ATOM     77  O   UNL A   1      54.218  33.751  24.665  1.00  0.00    -0.237 OA
ATOM     78  O   UNL A   1      54.962  32.745  26.797  1.00  0.00    -0.237 OA
ATOM     79  O   UNL A   1      54.282  31.297  24.924  1.00  0.00    -0.744 OA
ENDBRANCH  75  76
ENDBRANCH  47  70
BRANCH  59  80
ATOM     80  C   UNL A   1      45.459  37.920  28.589  1.00  0.00    -0.014 A 
ATOM     81  C   UNL A   1      45.965  38.640  29.685  1.00  0.00     0.010 A 
ATOM     82  C   UNL A   1      45.156  38.610  27.399  1.00  0.00     0.010 A 
ATOM     83  C   UNL A   1      46.140  40.026  29.599  1.00  0.00     0.020 A 
ATOM     84  C   UNL A   1      45.357  39.989  27.301  1.00  0.00     0.020 A 
ATOM     85  C   UNL A   1      45.838  40.691  28.407  1.00  0.00     0.054 A 
BRANCH  85  86
ATOM     86  S   UNL A   1      46.128  42.480  28.302  1.00  0.00     0.124 S 
ATOM     87  O   UNL A   1      46.293  42.843  29.707  1.00  0.00    -0.237 OA
ATOM     88  O   UNL A   1      47.337  42.560  27.486  1.00  0.00    -0.237 OA
ATOM     89  O   UNL A   1      44.917  42.991  27.664  1.00  0.00    -0.744 OA
ENDBRANCH  85  86
ENDBRANCH  59  80
ENDBRANCH  33  34
ENDBRANCH  26  28
ENDBRANCH  25  26
ENDBRANCH  24  25
ENDBRANCH  23  24
ENDBRANCH  22  23
ENDBRANCH  21  22
ENDBRANCH  20  21
ENDBRANCH   1  20
TORSDOF 26
ENDMDL
