MODEL 1
REMARK VINA RESULT:     -10.7      0.000      0.000
REMARK SMILES O=C(OCCOCCOCCOC(=O)[C@H]1C[C@](O)(c2ccc(F)cc2)[C@@H](c2ccc(F)cc2)O1)c1ccc(-c2c3nc(c(-c4ccc(S(=O)(=O)[O-])cc4)c4ccc([nH]4)c(-c4ccc(S(=O)(=O)[O-])cc4)c4nc(c(-c5ccc(S(=O)(=O)[O-])cc5)c5ccc2[nH]5)C=C4)C=C3)cc1
REMARK SMILES IDX 7 1 6 2 5 3 4 4 3 5 2 6 1 7 35 8 36 9 94 10 37 11 93 12
REMARK SMILES IDX 38 13 39 14 40 15 87 16 41 17 92 18 86 19 88 20 42 21 91 22
REMARK SMILES IDX 85 23 84 24 43 26 73 27 54 28 72 29 55 30 58 31 71 32 89 33
REMARK SMILES IDX 56 34 57 35 70 37 90 38 59 39 44 40 45 41 53 42 46 43 52 44
REMARK SMILES IDX 47 45 48 46 49 47 50 48 51 49 74 50 75 51 83 52 76 53 82 54
REMARK SMILES IDX 77 55 78 56 79 57 80 58 81 59 60 60 61 61 69 62 62 63 68 64
REMARK SMILES IDX 63 65 64 66 65 67 66 68 67 69 8 70 9 71 10 72 11 73 12 74
REMARK SMILES IDX 13 75 14 76 15 77 16 78 34 79 17 80 26 81 19 82 20 83 25 84
REMARK SMILES IDX 21 85 24 86 22 87 23 88 18 89 27 91 28 92 33 93 29 94 32 95
REMARK SMILES IDX 30 96 31 97
REMARK H PARENT 88 25 58 36 18 90
REMARK Flexibility Score: inf
ROOT
ATOM      1  C   UNL A   1      41.156  21.702  26.198  1.00  0.00     0.188 C 
ENDROOT
BRANCH   1   2
ATOM      2  O   UNL A   1      41.826  20.616  26.851  1.00  0.00    -0.376 OA
BRANCH   2   3
ATOM      3  C   UNL A   1      41.569  19.339  26.251  1.00  0.00     0.202 C 
BRANCH   3   4
ATOM      4  C   UNL A   1      42.793  18.458  25.925  1.00  0.00     0.261 C 
BRANCH   4   5
ATOM      5  O   UNL A   1      43.486  18.827  24.724  1.00  0.00    -0.460 OA
BRANCH   5   6
ATOM      6  C   UNL A   1      44.646  19.517  24.591  1.00  0.00     0.338 C 
ATOM      7  O   UNL A   1      45.664  18.878  24.320  1.00  0.00    -0.246 OA
BRANCH   6   8
ATOM      8  C   UNL A   1      44.765  21.001  24.759  1.00  0.00     0.060 A 
ATOM      9  C   UNL A   1      44.603  21.962  23.756  1.00  0.00     0.016 A 
ATOM     10  C   UNL A   1      45.017  21.466  26.052  1.00  0.00     0.016 A 
ATOM     11  C   UNL A   1      44.750  23.333  23.986  1.00  0.00     0.010 A 
ATOM     12  C   UNL A   1      45.112  22.838  26.302  1.00  0.00     0.010 A 
ATOM     13  C   UNL A   1      44.982  23.798  25.265  1.00  0.00    -0.014 A 
BRANCH  13  14
ATOM     14  C   UNL A   1      45.174  25.239  25.585  1.00  0.00     0.031 A 
ATOM     15  C   UNL A   1      46.591  25.660  25.778  1.00  0.00     0.074 A 
ATOM     16  C   UNL A   1      44.181  26.155  25.713  1.00  0.00     0.049 A 
ATOM     17  N   UNL A   1      47.047  26.758  26.292  1.00  0.00    -0.248 NA
ATOM     18  C   UNL A   1      47.635  24.755  25.246  1.00  0.00     0.031 C 
ATOM     19  C   UNL A   1      42.842  26.075  25.148  1.00  0.00     0.029 A 
ATOM     20  N   UNL A   1      44.102  27.317  26.446  1.00  0.00    -0.354 N 
ATOM     21  C   UNL A   1      48.408  26.728  26.044  1.00  0.00     0.074 A 
ATOM     22  C   UNL A   1      48.739  25.439  25.494  1.00  0.00     0.031 C 
ATOM     23  C   UNL A   1      42.007  26.931  25.769  1.00  0.00     0.029 A 
ATOM     24  C   UNL A   1      42.791  27.726  26.690  1.00  0.00     0.049 A 
ATOM     25  H   UNL A   1      44.891  27.810  26.766  1.00  0.00     0.167 HD
ATOM     26  C   UNL A   1      49.266  27.759  26.162  1.00  0.00     0.031 A 
ATOM     27  C   UNL A   1      42.312  28.641  27.562  1.00  0.00     0.031 A 
ATOM     28  C   UNL A   1      48.860  29.022  26.701  1.00  0.00     0.049 A 
ATOM     29  C   UNL A   1      43.363  29.518  28.170  1.00  0.00     0.074 A 
ATOM     30  C   UNL A   1      49.599  30.175  26.852  1.00  0.00     0.029 A 
ATOM     31  N   UNL A   1      47.587  29.282  27.198  1.00  0.00    -0.354 N 
ATOM     32  N   UNL A   1      44.655  29.483  27.947  1.00  0.00    -0.248 NA
ATOM     33  C   UNL A   1      42.916  30.608  29.040  1.00  0.00     0.031 C 
ATOM     34  C   UNL A   1      48.798  31.103  27.524  1.00  0.00     0.029 A 
ATOM     35  C   UNL A   1      47.541  30.552  27.735  1.00  0.00     0.049 A 
ATOM     36  H   UNL A   1      46.831  28.652  27.171  1.00  0.00     0.167 HD
ATOM     37  C   UNL A   1      45.160  30.631  28.516  1.00  0.00     0.074 A 
ATOM     38  C   UNL A   1      44.048  31.284  29.188  1.00  0.00     0.031 C 
ATOM     39  C   UNL A   1      46.409  31.143  28.406  1.00  0.00     0.031 A 
BRANCH  26  40
ATOM     40  C   UNL A   1      50.666  27.536  25.685  1.00  0.00    -0.014 A 
ATOM     41  C   UNL A   1      51.042  27.861  24.366  1.00  0.00     0.010 A 
ATOM     42  C   UNL A   1      51.616  26.980  26.555  1.00  0.00     0.010 A 
ATOM     43  C   UNL A   1      52.344  27.622  23.924  1.00  0.00     0.020 A 
ATOM     44  C   UNL A   1      52.925  26.757  26.122  1.00  0.00     0.020 A 
ATOM     45  C   UNL A   1      53.280  27.077  24.809  1.00  0.00     0.054 A 
BRANCH  45  46
ATOM     46  S   UNL A   1      54.981  26.835  24.230  1.00  0.00     0.124 S 
ATOM     47  O   UNL A   1      55.344  25.574  24.873  1.00  0.00    -0.237 OA
ATOM     48  O   UNL A   1      54.816  26.776  22.780  1.00  0.00    -0.237 OA
ATOM     49  O   UNL A   1      55.687  28.013  24.727  1.00  0.00    -0.744 OA
ENDBRANCH  45  46
ENDBRANCH  26  40
BRANCH  27  50
ATOM     50  C   UNL A   1      40.874  28.788  27.973  1.00  0.00    -0.014 A 
ATOM     51  C   UNL A   1      39.836  29.242  27.144  1.00  0.00     0.010 A 
ATOM     52  C   UNL A   1      40.580  28.642  29.338  1.00  0.00     0.010 A 
ATOM     53  C   UNL A   1      38.561  29.542  27.679  1.00  0.00     0.020 A 
ATOM     54  C   UNL A   1      39.316  28.902  29.880  1.00  0.00     0.020 A 
ATOM     55  C   UNL A   1      38.310  29.372  29.046  1.00  0.00     0.054 A 
BRANCH  55  56
ATOM     56  S   UNL A   1      36.684  29.809  29.741  1.00  0.00     0.124 S 
ATOM     57  O   UNL A   1      35.774  29.386  28.682  1.00  0.00    -0.237 OA
ATOM     58  O   UNL A   1      36.645  29.018  30.968  1.00  0.00    -0.237 OA
ATOM     59  O   UNL A   1      36.775  31.254  29.942  1.00  0.00    -0.744 OA
ENDBRANCH  55  56
ENDBRANCH  27  50
BRANCH  39  60
ATOM     60  C   UNL A   1      46.595  32.515  28.957  1.00  0.00    -0.014 A 
ATOM     61  C   UNL A   1      47.068  32.714  30.261  1.00  0.00     0.010 A 
ATOM     62  C   UNL A   1      46.340  33.615  28.117  1.00  0.00     0.010 A 
ATOM     63  C   UNL A   1      47.277  34.009  30.725  1.00  0.00     0.020 A 
ATOM     64  C   UNL A   1      46.588  34.906  28.565  1.00  0.00     0.020 A 
ATOM     65  C   UNL A   1      47.046  35.093  29.869  1.00  0.00     0.054 A 
BRANCH  65  66
ATOM     66  S   UNL A   1      47.416  36.759  30.469  1.00  0.00     0.124 S 
ATOM     67  O   UNL A   1      47.702  36.513  31.880  1.00  0.00    -0.237 OA
ATOM     68  O   UNL A   1      48.563  37.144  29.651  1.00  0.00    -0.237 OA
ATOM     69  O   UNL A   1      46.188  37.503  30.201  1.00  0.00    -0.744 OA
ENDBRANCH  65  66
ENDBRANCH  39  60
ENDBRANCH  13  14
ENDBRANCH   6   8
ENDBRANCH   5   6
ENDBRANCH   4   5
ENDBRANCH   3   4
ENDBRANCH   2   3
ENDBRANCH   1   2
BRANCH   1  70
ATOM     70  C   UNL A   1      40.033  22.355  27.007  1.00  0.00     0.188 C 
BRANCH  70  71
ATOM     71  O   UNL A   1      39.455  23.546  26.479  1.00  0.00    -0.376 OA
BRANCH  71  72
ATOM     72  C   UNL A   1      38.085  23.488  26.114  1.00  0.00     0.202 C 
BRANCH  72  73
ATOM     73  C   UNL A   1      37.600  22.297  25.277  1.00  0.00     0.261 C 
BRANCH  73  74
ATOM     74  O   UNL A   1      36.203  22.299  24.941  1.00  0.00    -0.461 OA
BRANCH  74  75
ATOM     75  C   UNL A   1      35.838  23.107  23.902  1.00  0.00     0.335 C 
ATOM     76  O   UNL A   1      36.273  22.992  22.768  1.00  0.00    -0.249 OA
BRANCH  75  77
ATOM     77  C   UNL A   1      34.837  24.217  24.299  1.00  0.00     0.232 C 
ATOM     78  C   UNL A   1      34.265  25.102  23.207  1.00  0.00     0.087 C 
ATOM     79  O   UNL A   1      33.730  23.670  25.027  1.00  0.00    -0.355 OA
ATOM     80  C   UNL A   1      32.809  24.682  23.079  1.00  0.00     0.123 C 
ATOM     81  C   UNL A   1      32.626  23.514  24.111  1.00  0.00     0.186 C 
BRANCH  80  82
ATOM     82  C   UNL A   1      31.866  25.892  23.234  1.00  0.00    -0.013 A 
ATOM     83  C   UNL A   1      31.563  26.363  24.522  1.00  0.00     0.010 A 
ATOM     84  C   UNL A   1      31.276  26.588  22.171  1.00  0.00     0.010 A 
ATOM     85  C   UNL A   1      30.883  27.561  24.762  1.00  0.00     0.039 A 
ATOM     86  C   UNL A   1      30.514  27.752  22.405  1.00  0.00     0.039 A 
ATOM     87  C   UNL A   1      30.381  28.263  23.688  1.00  0.00     0.123 A 
ATOM     88  F   UNL A   1      29.768  29.437  23.887  1.00  0.00    -0.207 F 
ENDBRANCH  80  82
BRANCH  80  89
ATOM     89  O   UNL A   1      32.697  24.222  21.734  1.00  0.00    -0.382 OA
ATOM     90  H   UNL A   1      33.154  24.840  21.143  1.00  0.00     0.212 HD
ENDBRANCH  80  89
BRANCH  81  91
ATOM     91  C   UNL A   1      32.608  22.031  23.698  1.00  0.00    -0.016 A 
ATOM     92  C   UNL A   1      32.977  20.959  24.531  1.00  0.00     0.009 A 
ATOM     93  C   UNL A   1      32.098  21.700  22.425  1.00  0.00     0.009 A 
ATOM     94  C   UNL A   1      32.802  19.626  24.141  1.00  0.00     0.039 A 
ATOM     95  C   UNL A   1      31.926  20.367  22.028  1.00  0.00     0.039 A 
ATOM     96  C   UNL A   1      32.263  19.342  22.898  1.00  0.00     0.123 A 
ATOM     97  F   UNL A   1      32.053  18.066  22.548  1.00  0.00    -0.207 F 
ENDBRANCH  81  91
ENDBRANCH  75  77
ENDBRANCH  74  75
ENDBRANCH  73  74
ENDBRANCH  72  73
ENDBRANCH  71  72
ENDBRANCH  70  71
ENDBRANCH   1  70
TORSDOF 23
ENDMDL
MODEL 2
REMARK VINA RESULT:     -10.4      1.478      2.115
REMARK SMILES O=C(OCCOCCOCCOC(=O)[C@H]1C[C@](O)(c2ccc(F)cc2)[C@@H](c2ccc(F)cc2)O1)c1ccc(-c2c3nc(c(-c4ccc(S(=O)(=O)[O-])cc4)c4ccc([nH]4)c(-c4ccc(S(=O)(=O)[O-])cc4)c4nc(c(-c5ccc(S(=O)(=O)[O-])cc5)c5ccc2[nH]5)C=C4)C=C3)cc1
REMARK SMILES IDX 7 1 6 2 5 3 4 4 3 5 2 6 1 7 35 8 36 9 94 10 37 11 93 12
REMARK SMILES IDX 38 13 39 14 40 15 87 16 41 17 92 18 86 19 88 20 42 21 91 22
REMARK SMILES IDX 85 23 84 24 43 26 73 27 54 28 72 29 55 30 58 31 71 32 89 33
REMARK SMILES IDX 56 34 57 35 70 37 90 38 59 39 44 40 45 41 53 42 46 43 52 44
REMARK SMILES IDX 47 45 48 46 49 47 50 48 51 49 74 50 75 51 83 52 76 53 82 54
REMARK SMILES IDX 77 55 78 56 79 57 80 58 81 59 60 60 61 61 69 62 62 63 68 64
REMARK SMILES IDX 63 65 64 66 65 67 66 68 67 69 8 70 9 71 10 72 11 73 12 74
REMARK SMILES IDX 13 75 14 76 15 77 16 78 34 79 17 80 26 81 19 82 20 83 25 84
REMARK SMILES IDX 21 85 24 86 22 87 23 88 18 89 27 91 28 92 33 93 29 94 32 95
REMARK SMILES IDX 30 96 31 97
REMARK H PARENT 88 25 58 36 18 90
REMARK Flexibility Score: inf
ROOT
ATOM      1  C   UNL A   1      39.805  21.982  26.131  1.00  0.00     0.188 C 
ENDROOT
BRANCH   1   2
ATOM      2  O   UNL A   1      40.033  20.790  26.893  1.00  0.00    -0.376 OA
BRANCH   2   3
ATOM      3  C   UNL A   1      40.485  19.681  26.104  1.00  0.00     0.202 C 
BRANCH   3   4
ATOM      4  C   UNL A   1      41.816  19.022  26.520  1.00  0.00     0.261 C 
BRANCH   4   5
ATOM      5  O   UNL A   1      42.685  18.697  25.424  1.00  0.00    -0.460 OA
BRANCH   5   6
ATOM      6  C   UNL A   1      43.843  19.295  25.054  1.00  0.00     0.338 C 
ATOM      7  O   UNL A   1      44.738  18.578  24.603  1.00  0.00    -0.246 OA
BRANCH   6   8
ATOM      8  C   UNL A   1      44.103  20.766  25.164  1.00  0.00     0.060 A 
ATOM      9  C   UNL A   1      44.598  21.597  24.154  1.00  0.00     0.016 A 
ATOM     10  C   UNL A   1      43.774  21.370  26.381  1.00  0.00     0.016 A 
ATOM     11  C   UNL A   1      44.833  22.962  24.339  1.00  0.00     0.010 A 
ATOM     12  C   UNL A   1      43.955  22.745  26.557  1.00  0.00     0.010 A 
ATOM     13  C   UNL A   1      44.494  23.566  25.533  1.00  0.00    -0.014 A 
BRANCH  13  14
ATOM     14  C   UNL A   1      44.736  25.008  25.814  1.00  0.00     0.031 A 
ATOM     15  C   UNL A   1      46.164  25.377  26.034  1.00  0.00     0.074 A 
ATOM     16  C   UNL A   1      43.778  25.966  25.887  1.00  0.00     0.049 A 
ATOM     17  N   UNL A   1      46.650  26.473  26.527  1.00  0.00    -0.248 NA
ATOM     18  C   UNL A   1      47.183  24.416  25.558  1.00  0.00     0.031 C 
ATOM     19  C   UNL A   1      42.452  25.921  25.288  1.00  0.00     0.029 A 
ATOM     20  N   UNL A   1      43.727  27.153  26.582  1.00  0.00    -0.354 N 
ATOM     21  C   UNL A   1      48.014  26.380  26.317  1.00  0.00     0.074 A 
ATOM     22  C   UNL A   1      48.307  25.062  25.816  1.00  0.00     0.031 C 
ATOM     23  C   UNL A   1      41.637  26.829  25.859  1.00  0.00     0.029 A 
ATOM     24  C   UNL A   1      42.427  27.621  26.777  1.00  0.00     0.049 A 
ATOM     25  H   UNL A   1      44.527  27.624  26.908  1.00  0.00     0.167 HD
ATOM     26  C   UNL A   1      48.910  27.379  26.428  1.00  0.00     0.031 A 
ATOM     27  C   UNL A   1      41.963  28.582  27.607  1.00  0.00     0.031 A 
ATOM     28  C   UNL A   1      48.542  28.674  26.917  1.00  0.00     0.049 A 
ATOM     29  C   UNL A   1      43.033  29.435  28.217  1.00  0.00     0.074 A 
ATOM     30  C   UNL A   1      49.324  29.801  27.053  1.00  0.00     0.029 A 
ATOM     31  N   UNL A   1      47.268  29.000  27.370  1.00  0.00    -0.354 N 
ATOM     32  N   UNL A   1      44.328  29.341  28.031  1.00  0.00    -0.248 NA
ATOM     33  C   UNL A   1      42.608  30.568  29.041  1.00  0.00     0.031 C 
ATOM     34  C   UNL A   1      48.543  30.781  27.674  1.00  0.00     0.029 A 
ATOM     35  C   UNL A   1      47.259  30.287  27.867  1.00  0.00     0.049 A 
ATOM     36  H   UNL A   1      46.488  28.400  27.341  1.00  0.00     0.167 HD
ATOM     37  C   UNL A   1      44.864  30.486  28.579  1.00  0.00     0.074 A 
ATOM     38  C   UNL A   1      43.762  31.203  29.199  1.00  0.00     0.031 C 
ATOM     39  C   UNL A   1      46.135  30.944  28.488  1.00  0.00     0.031 A 
BRANCH  26  40
ATOM     40  C   UNL A   1      50.312  27.085  25.997  1.00  0.00    -0.014 A 
ATOM     41  C   UNL A   1      51.307  26.757  26.941  1.00  0.00     0.010 A 
ATOM     42  C   UNL A   1      50.649  27.152  24.637  1.00  0.00     0.010 A 
ATOM     43  C   UNL A   1      52.618  26.513  26.529  1.00  0.00     0.020 A 
ATOM     44  C   UNL A   1      51.956  26.889  24.220  1.00  0.00     0.020 A 
ATOM     45  C   UNL A   1      52.932  26.573  25.168  1.00  0.00     0.054 A 
BRANCH  45  46
ATOM     46  S   UNL A   1      54.627  26.190  24.653  1.00  0.00     0.124 S 
ATOM     47  O   UNL A   1      54.621  26.606  23.253  1.00  0.00    -0.237 OA
ATOM     48  O   UNL A   1      55.426  27.018  25.552  1.00  0.00    -0.237 OA
ATOM     49  O   UNL A   1      54.738  24.749  24.873  1.00  0.00    -0.744 OA
ENDBRANCH  45  46
ENDBRANCH  26  40
BRANCH  27  50
ATOM     50  C   UNL A   1      40.523  28.799  27.973  1.00  0.00    -0.014 A 
ATOM     51  C   UNL A   1      39.547  29.355  27.131  1.00  0.00     0.010 A 
ATOM     52  C   UNL A   1      40.168  28.607  29.318  1.00  0.00     0.010 A 
ATOM     53  C   UNL A   1      38.272  29.709  27.635  1.00  0.00     0.020 A 
ATOM     54  C   UNL A   1      38.901  28.919  29.827  1.00  0.00     0.020 A 
ATOM     55  C   UNL A   1      37.959  29.491  28.983  1.00  0.00     0.054 A 
BRANCH  55  56
ATOM     56  S   UNL A   1      36.338  29.995  29.639  1.00  0.00     0.124 S 
ATOM     57  O   UNL A   1      36.283  29.278  30.909  1.00  0.00    -0.237 OA
ATOM     58  O   UNL A   1      36.476  31.446  29.734  1.00  0.00    -0.237 OA
ATOM     59  O   UNL A   1      35.396  29.531  28.622  1.00  0.00    -0.744 OA
ENDBRANCH  55  56
ENDBRANCH  27  50
BRANCH  39  60
ATOM     60  C   UNL A   1      46.363  32.324  29.001  1.00  0.00    -0.014 A 
ATOM     61  C   UNL A   1      46.153  33.444  28.185  1.00  0.00     0.010 A 
ATOM     62  C   UNL A   1      46.741  32.485  30.347  1.00  0.00     0.010 A 
ATOM     63  C   UNL A   1      46.328  34.719  28.713  1.00  0.00     0.020 A 
ATOM     64  C   UNL A   1      46.876  33.758  30.886  1.00  0.00     0.020 A 
ATOM     65  C   UNL A   1      46.677  34.866  30.061  1.00  0.00     0.054 A 
BRANCH  65  66
ATOM     66  S   UNL A   1      46.806  36.536  30.742  1.00  0.00     0.124 S 
ATOM     67  O   UNL A   1      48.203  36.864  30.470  1.00  0.00    -0.237 OA
ATOM     68  O   UNL A   1      45.820  37.276  29.957  1.00  0.00    -0.237 OA
ATOM     69  O   UNL A   1      46.468  36.361  32.152  1.00  0.00    -0.744 OA
ENDBRANCH  65  66
ENDBRANCH  39  60
ENDBRANCH  13  14
ENDBRANCH   6   8
ENDBRANCH   5   6
ENDBRANCH   4   5
ENDBRANCH   3   4
ENDBRANCH   2   3
ENDBRANCH   1   2
BRANCH   1  70
ATOM     70  C   UNL A   1      38.351  22.459  26.086  1.00  0.00     0.188 C 
BRANCH  70  71
ATOM     71  O   UNL A   1      37.403  21.606  25.450  1.00  0.00    -0.376 OA
BRANCH  71  72
ATOM     72  C   UNL A   1      37.001  21.958  24.135  1.00  0.00     0.202 C 
BRANCH  72  73
ATOM     73  C   UNL A   1      36.321  23.316  23.916  1.00  0.00     0.261 C 
BRANCH  73  74
ATOM     74  O   UNL A   1      35.567  23.446  22.700  1.00  0.00    -0.461 OA
BRANCH  74  75
ATOM     75  C   UNL A   1      34.212  23.542  22.844  1.00  0.00     0.335 C 
ATOM     76  O   UNL A   1      33.484  22.589  23.070  1.00  0.00    -0.249 OA
BRANCH  75  77
ATOM     77  C   UNL A   1      33.668  24.979  22.661  1.00  0.00     0.232 C 
ATOM     78  C   UNL A   1      32.240  25.157  22.179  1.00  0.00     0.087 C 
ATOM     79  O   UNL A   1      33.806  25.735  23.871  1.00  0.00    -0.355 OA
ATOM     80  C   UNL A   1      31.476  25.676  23.387  1.00  0.00     0.123 C 
ATOM     81  C   UNL A   1      32.531  25.735  24.547  1.00  0.00     0.186 C 
BRANCH  80  82
ATOM     82  C   UNL A   1      30.742  26.992  23.057  1.00  0.00    -0.013 A 
ATOM     83  C   UNL A   1      29.377  27.112  23.371  1.00  0.00     0.010 A 
ATOM     84  C   UNL A   1      31.337  28.114  22.466  1.00  0.00     0.010 A 
ATOM     85  C   UNL A   1      28.675  28.319  23.295  1.00  0.00     0.039 A 
ATOM     86  C   UNL A   1      30.613  29.313  22.303  1.00  0.00     0.039 A 
ATOM     87  C   UNL A   1      29.314  29.425  22.778  1.00  0.00     0.123 A 
ATOM     88  F   UNL A   1      28.679  30.603  22.739  1.00  0.00    -0.207 F 
ENDBRANCH  80  82
BRANCH  80  89
ATOM     89  O   UNL A   1      30.483  24.681  23.624  1.00  0.00    -0.382 OA
ATOM     90  H   UNL A   1      30.247  24.679  24.565  1.00  0.00     0.212 HD
ENDBRANCH  80  89
BRANCH  81  91
ATOM     91  C   UNL A   1      32.622  24.660  25.647  1.00  0.00    -0.016 A 
ATOM     92  C   UNL A   1      31.532  23.924  26.145  1.00  0.00     0.009 A 
ATOM     93  C   UNL A   1      33.900  24.313  26.135  1.00  0.00     0.009 A 
ATOM     94  C   UNL A   1      31.705  22.864  27.042  1.00  0.00     0.039 A 
ATOM     95  C   UNL A   1      34.077  23.256  27.038  1.00  0.00     0.039 A 
ATOM     96  C   UNL A   1      32.978  22.529  27.469  1.00  0.00     0.123 A 
ATOM     97  F   UNL A   1      33.143  21.483  28.290  1.00  0.00    -0.207 F 
ENDBRANCH  81  91
ENDBRANCH  75  77
ENDBRANCH  74  75
ENDBRANCH  73  74
ENDBRANCH  72  73
ENDBRANCH  71  72
ENDBRANCH  70  71
ENDBRANCH   1  70
TORSDOF 23
ENDMDL
MODEL 3
REMARK VINA RESULT:     -10.3      6.826      9.218
REMARK SMILES O=C(OCCOCCOCCOC(=O)[C@H]1C[C@](O)(c2ccc(F)cc2)[C@@H](c2ccc(F)cc2)O1)c1ccc(-c2c3nc(c(-c4ccc(S(=O)(=O)[O-])cc4)c4ccc([nH]4)c(-c4ccc(S(=O)(=O)[O-])cc4)c4nc(c(-c5ccc(S(=O)(=O)[O-])cc5)c5ccc2[nH]5)C=C4)C=C3)cc1
REMARK SMILES IDX 7 1 6 2 5 3 4 4 3 5 2 6 1 7 35 8 36 9 94 10 37 11 93 12
REMARK SMILES IDX 38 13 39 14 40 15 87 16 41 17 92 18 86 19 88 20 42 21 91 22
REMARK SMILES IDX 85 23 84 24 43 26 73 27 54 28 72 29 55 30 58 31 71 32 89 33
REMARK SMILES IDX 56 34 57 35 70 37 90 38 59 39 44 40 45 41 53 42 46 43 52 44
REMARK SMILES IDX 47 45 48 46 49 47 50 48 51 49 74 50 75 51 83 52 76 53 82 54
REMARK SMILES IDX 77 55 78 56 79 57 80 58 81 59 60 60 61 61 69 62 62 63 68 64
REMARK SMILES IDX 63 65 64 66 65 67 66 68 67 69 8 70 9 71 10 72 11 73 12 74
REMARK SMILES IDX 13 75 14 76 15 77 16 78 34 79 17 80 26 81 19 82 20 83 25 84
REMARK SMILES IDX 21 85 24 86 22 87 23 88 18 89 27 91 28 92 33 93 29 94 32 95
REMARK SMILES IDX 30 96 31 97
REMARK H PARENT 88 25 58 36 18 90
REMARK Flexibility Score: inf
ROOT
ATOM      1  C   UNL A   1      40.463  21.253  27.233  1.00  0.00     0.188 C 
ENDROOT
BRANCH   1   2
ATOM      2  O   UNL A   1      40.556  22.641  27.579  1.00  0.00    -0.376 OA
BRANCH   2   3
ATOM      3  C   UNL A   1      41.650  23.319  26.948  1.00  0.00     0.202 C 
BRANCH   3   4
ATOM      4  C   UNL A   1      41.312  24.578  26.124  1.00  0.00     0.261 C 
BRANCH   4   5
ATOM      5  O   UNL A   1      41.025  25.744  26.910  1.00  0.00    -0.460 OA
BRANCH   5   6
ATOM      6  C   UNL A   1      39.953  25.990  27.702  1.00  0.00     0.338 C 
ATOM      7  O   UNL A   1      38.888  25.444  27.410  1.00  0.00    -0.246 OA
BRANCH   6   8
ATOM      8  C   UNL A   1      39.982  26.888  28.901  1.00  0.00     0.060 A 
ATOM      9  C   UNL A   1      39.071  26.882  29.962  1.00  0.00     0.016 A 
ATOM     10  C   UNL A   1      41.050  27.786  28.985  1.00  0.00     0.016 A 
ATOM     11  C   UNL A   1      39.152  27.767  31.040  1.00  0.00     0.010 A 
ATOM     12  C   UNL A   1      41.170  28.639  30.086  1.00  0.00     0.010 A 
ATOM     13  C   UNL A   1      40.215  28.643  31.136  1.00  0.00    -0.014 A 
BRANCH  13  14
ATOM     14  C   UNL A   1      40.359  29.633  32.239  1.00  0.00     0.031 A 
ATOM     15  C   UNL A   1      41.325  29.250  33.308  1.00  0.00     0.074 A 
ATOM     16  C   UNL A   1      39.688  30.809  32.332  1.00  0.00     0.049 A 
ATOM     17  N   UNL A   1      41.479  29.772  34.484  1.00  0.00    -0.248 NA
ATOM     18  C   UNL A   1      42.305  28.191  32.976  1.00  0.00     0.031 C 
ATOM     19  C   UNL A   1      39.078  31.554  31.241  1.00  0.00     0.029 A 
ATOM     20  N   UNL A   1      39.316  31.562  33.423  1.00  0.00    -0.354 N 
ATOM     21  C   UNL A   1      42.631  29.190  34.982  1.00  0.00     0.074 A 
ATOM     22  C   UNL A   1      43.045  28.155  34.071  1.00  0.00     0.031 C 
ATOM     23  C   UNL A   1      38.185  32.447  31.710  1.00  0.00     0.029 A 
ATOM     24  C   UNL A   1      38.260  32.433  33.155  1.00  0.00     0.049 A 
ATOM     25  H   UNL A   1      39.752  31.492  34.303  1.00  0.00     0.167 HD
ATOM     26  C   UNL A   1      43.332  29.595  36.057  1.00  0.00     0.031 A 
ATOM     27  C   UNL A   1      37.466  33.125  34.003  1.00  0.00     0.031 A 
ATOM     28  C   UNL A   1      42.868  30.647  36.910  1.00  0.00     0.049 A 
ATOM     29  C   UNL A   1      37.957  33.155  35.418  1.00  0.00     0.074 A 
ATOM     30  C   UNL A   1      43.479  31.199  38.015  1.00  0.00     0.029 A 
ATOM     31  N   UNL A   1      41.648  31.296  36.749  1.00  0.00    -0.354 N 
ATOM     32  N   UNL A   1      39.042  32.592  35.895  1.00  0.00    -0.248 NA
ATOM     33  C   UNL A   1      37.215  33.976  36.375  1.00  0.00     0.031 C 
ATOM     34  C   UNL A   1      42.586  32.119  38.575  1.00  0.00     0.029 A 
ATOM     35  C   UNL A   1      41.446  32.186  37.784  1.00  0.00     0.049 A 
ATOM     36  H   UNL A   1      41.020  31.142  36.007  1.00  0.00     0.167 HD
ATOM     37  C   UNL A   1      39.203  33.113  37.160  1.00  0.00     0.074 A 
ATOM     38  C   UNL A   1      38.042  33.953  37.412  1.00  0.00     0.031 C 
ATOM     39  C   UNL A   1      40.263  32.984  37.992  1.00  0.00     0.031 A 
BRANCH  26  40
ATOM     40  C   UNL A   1      44.637  28.911  36.315  1.00  0.00    -0.014 A 
ATOM     41  C   UNL A   1      45.833  29.391  35.743  1.00  0.00     0.010 A 
ATOM     42  C   UNL A   1      44.673  27.765  37.124  1.00  0.00     0.010 A 
ATOM     43  C   UNL A   1      47.040  28.727  35.968  1.00  0.00     0.020 A 
ATOM     44  C   UNL A   1      45.882  27.110  37.368  1.00  0.00     0.020 A 
ATOM     45  C   UNL A   1      47.056  27.593  36.786  1.00  0.00     0.054 A 
BRANCH  45  46
ATOM     46  S   UNL A   1      48.646  26.786  37.114  1.00  0.00     0.124 S 
ATOM     47  O   UNL A   1      48.230  25.439  37.499  1.00  0.00    -0.237 OA
ATOM     48  O   UNL A   1      49.326  26.889  35.826  1.00  0.00    -0.237 OA
ATOM     49  O   UNL A   1      49.227  27.589  38.188  1.00  0.00    -0.744 OA
ENDBRANCH  45  46
ENDBRANCH  26  40
BRANCH  27  50
ATOM     50  C   UNL A   1      36.167  33.786  33.640  1.00  0.00    -0.014 A 
ATOM     51  C   UNL A   1      34.900  33.189  33.732  1.00  0.00     0.010 A 
ATOM     52  C   UNL A   1      36.240  35.025  32.982  1.00  0.00     0.010 A 
ATOM     53  C   UNL A   1      33.761  33.817  33.173  1.00  0.00     0.020 A 
ATOM     54  C   UNL A   1      35.120  35.678  32.453  1.00  0.00     0.020 A 
ATOM     55  C   UNL A   1      33.880  35.058  32.534  1.00  0.00     0.054 A 
BRANCH  55  56
ATOM     56  S   UNL A   1      32.423  35.838  31.770  1.00  0.00     0.124 S 
ATOM     57  O   UNL A   1      31.326  35.266  32.545  1.00  0.00    -0.237 OA
ATOM     58  O   UNL A   1      32.680  37.260  31.986  1.00  0.00    -0.237 OA
ATOM     59  O   UNL A   1      32.493  35.404  30.377  1.00  0.00    -0.744 OA
ENDBRANCH  55  56
ENDBRANCH  27  50
BRANCH  39  60
ATOM     60  C   UNL A   1      40.238  33.845  39.209  1.00  0.00    -0.014 A 
ATOM     61  C   UNL A   1      40.749  35.150  39.183  1.00  0.00     0.010 A 
ATOM     62  C   UNL A   1      39.637  33.338  40.376  1.00  0.00     0.010 A 
ATOM     63  C   UNL A   1      40.664  35.941  40.324  1.00  0.00     0.020 A 
ATOM     64  C   UNL A   1      39.515  34.141  41.502  1.00  0.00     0.020 A 
ATOM     65  C   UNL A   1      40.039  35.435  41.470  1.00  0.00     0.054 A 
BRANCH  65  66
ATOM     66  S   UNL A   1      39.861  36.520  42.906  1.00  0.00     0.124 S 
ATOM     67  O   UNL A   1      39.665  37.822  42.276  1.00  0.00    -0.237 OA
ATOM     68  O   UNL A   1      38.691  35.963  43.582  1.00  0.00    -0.237 OA
ATOM     69  O   UNL A   1      41.124  36.356  43.621  1.00  0.00    -0.744 OA
ENDBRANCH  65  66
ENDBRANCH  39  60
ENDBRANCH  13  14
ENDBRANCH   6   8
ENDBRANCH   5   6
ENDBRANCH   4   5
ENDBRANCH   3   4
ENDBRANCH   2   3
ENDBRANCH   1   2
BRANCH   1  70
ATOM     70  C   UNL A   1      39.673  20.950  25.958  1.00  0.00     0.188 C 
BRANCH  70  71
ATOM     71  O   UNL A   1      38.425  21.616  25.788  1.00  0.00    -0.376 OA
BRANCH  71  72
ATOM     72  C   UNL A   1      37.537  21.083  24.817  1.00  0.00     0.202 C 
BRANCH  72  73
ATOM     73  C   UNL A   1      36.077  21.551  24.824  1.00  0.00     0.261 C 
BRANCH  73  74
ATOM     74  O   UNL A   1      35.815  22.768  25.542  1.00  0.00    -0.461 OA
BRANCH  74  75
ATOM     75  C   UNL A   1      34.789  22.722  26.443  1.00  0.00     0.335 C 
ATOM     76  O   UNL A   1      34.569  21.769  27.173  1.00  0.00    -0.249 OA
BRANCH  75  77
ATOM     77  C   UNL A   1      33.898  23.987  26.436  1.00  0.00     0.232 C 
ATOM     78  C   UNL A   1      34.151  25.044  25.377  1.00  0.00     0.087 C 
ATOM     79  O   UNL A   1      32.511  23.634  26.363  1.00  0.00    -0.355 OA
ATOM     80  C   UNL A   1      32.966  24.947  24.430  1.00  0.00     0.123 C 
ATOM     81  C   UNL A   1      32.085  23.775  24.991  1.00  0.00     0.186 C 
BRANCH  80  82
ATOM     82  C   UNL A   1      32.269  26.314  24.269  1.00  0.00    -0.013 A 
ATOM     83  C   UNL A   1      31.533  26.574  23.100  1.00  0.00     0.010 A 
ATOM     84  C   UNL A   1      32.299  27.344  25.217  1.00  0.00     0.010 A 
ATOM     85  C   UNL A   1      30.711  27.693  22.944  1.00  0.00     0.039 A 
ATOM     86  C   UNL A   1      31.540  28.518  25.031  1.00  0.00     0.039 A 
ATOM     87  C   UNL A   1      30.705  28.653  23.932  1.00  0.00     0.123 A 
ATOM     88  F   UNL A   1      29.890  29.711  23.828  1.00  0.00    -0.207 F 
ENDBRANCH  80  82
BRANCH  80  89
ATOM     89  O   UNL A   1      33.551  24.614  23.174  1.00  0.00    -0.382 OA
ATOM     90  H   UNL A   1      33.429  23.667  23.002  1.00  0.00     0.212 HD
ENDBRANCH  80  89
BRANCH  81  91
ATOM     91  C   UNL A   1      32.094  22.360  24.384  1.00  0.00    -0.016 A 
ATOM     92  C   UNL A   1      32.116  22.075  23.007  1.00  0.00     0.009 A 
ATOM     93  C   UNL A   1      32.182  21.259  25.262  1.00  0.00     0.009 A 
ATOM     94  C   UNL A   1      32.267  20.770  22.524  1.00  0.00     0.039 A 
ATOM     95  C   UNL A   1      32.328  19.950  24.784  1.00  0.00     0.039 A 
ATOM     96  C   UNL A   1      32.388  19.720  23.418  1.00  0.00     0.123 A 
ATOM     97  F   UNL A   1      32.581  18.479  22.952  1.00  0.00    -0.207 F 
ENDBRANCH  81  91
ENDBRANCH  75  77
ENDBRANCH  74  75
ENDBRANCH  73  74
ENDBRANCH  72  73
ENDBRANCH  71  72
ENDBRANCH  70  71
ENDBRANCH   1  70
TORSDOF 23
ENDMDL
