MODEL 1
REMARK VINA RESULT:     -12.0      0.000      0.000
REMARK SMILES CC[C@@]1(CC(=O)OCCOCCOCCOC(=O)c2ccc(-c3c4nc(c(-c5ccc(S(=O)(=O)[O-])cc5)c5ccc([nH]5)c(-c5ccc(S(=O)(=O)[O-])cc5)c5nc(c(-c6ccc(S(=O)(=O)[O-])cc6)c6ccc3[nH]6)C=C5)C=C4)cc2)OC[C@H](Cc2ccccc2)c2c1[nH]c1ccccc21
REMARK SMILES IDX 11 1 10 2 9 3 8 4 7 5 5 6 6 7 4 8 3 9 79 10 90 11 80 12
REMARK SMILES IDX 89 13 91 14 81 15 97 16 92 17 96 19 93 20 95 21 94 22 2 23
REMARK SMILES IDX 1 24 82 25 83 26 84 27 88 28 85 29 87 30 86 31 12 32 13 33
REMARK SMILES IDX 14 34 15 35 16 36 17 37 18 38 19 39 20 40 78 41 21 42 77 43
REMARK SMILES IDX 22 44 23 45 24 46 71 47 25 48 76 49 70 50 72 51 26 52 75 53
REMARK SMILES IDX 69 54 68 55 27 57 57 58 38 59 56 60 39 61 42 62 55 63 73 64
REMARK SMILES IDX 40 65 41 66 54 68 74 69 43 70 28 71 29 72 37 73 30 74 36 75
REMARK SMILES IDX 31 76 32 77 33 78 34 79 35 80 58 81 59 82 67 83 60 84 66 85
REMARK SMILES IDX 61 86 62 87 63 88 64 89 65 90 44 91 45 92 53 93 46 94 52 95
REMARK SMILES IDX 47 96 48 97 49 98 50 99 51 100
REMARK H PARENT 91 18 72 56 42 67
REMARK Flexibility Score: inf
ROOT
ATOM      1  C   UNL A   1      35.931  21.859  24.268  1.00  0.00     0.188 C 
ENDROOT
BRANCH   1   2
ATOM      2  O   UNL A   1      34.633  21.580  24.750  1.00  0.00    -0.376 OA
BRANCH   2   3
ATOM      3  C   UNL A   1      34.565  21.221  26.130  1.00  0.00     0.202 C 
BRANCH   3   4
ATOM      4  C   UNL A   1      33.544  21.999  26.983  1.00  0.00     0.261 C 
BRANCH   4   5
ATOM      5  O   UNL A   1      33.331  23.365  26.510  1.00  0.00    -0.463 OA
BRANCH   5   6
ATOM      6  C   UNL A   1      32.054  23.820  26.620  1.00  0.00     0.309 C 
ATOM      7  O   UNL A   1      31.286  23.450  27.502  1.00  0.00    -0.252 OA
BRANCH   6   8
ATOM      8  C   UNL A   1      31.735  24.994  25.701  1.00  0.00     0.164 C 
BRANCH   8   9
ATOM      9  C   UNL A   1      31.458  24.901  24.201  1.00  0.00     0.118 C 
ATOM     10  O   UNL A   1      32.691  25.038  23.447  1.00  0.00    -0.368 OA
ATOM     11  C   UNL A   1      30.614  26.053  23.822  1.00  0.00     0.053 A 
ATOM     12  C   UNL A   1      33.323  26.323  23.426  1.00  0.00     0.170 C 
ATOM     13  C   UNL A   1      31.006  27.236  23.231  1.00  0.00    -0.011 A 
ATOM     14  N   UNL A   1      29.297  26.122  24.149  1.00  0.00    -0.356 N 
ATOM     15  C   UNL A   1      32.457  27.458  22.829  1.00  0.00     0.052 C 
ATOM     16  C   UNL A   1      29.806  28.006  23.080  1.00  0.00     0.003 A 
ATOM     17  C   UNL A   1      28.756  27.254  23.621  1.00  0.00     0.046 A 
ATOM     18  H   UNL A   1      28.808  25.456  24.684  1.00  0.00     0.166 HD
ATOM     19  C   UNL A   1      29.479  29.257  22.528  1.00  0.00     0.010 A 
ATOM     20  C   UNL A   1      27.417  27.637  23.606  1.00  0.00     0.026 A 
ATOM     21  C   UNL A   1      28.133  29.661  22.497  1.00  0.00     0.001 A 
ATOM     22  C   UNL A   1      27.119  28.856  23.014  1.00  0.00     0.002 A 
BRANCH   9  23
ATOM     23  C   UNL A   1      30.821  23.575  23.741  1.00  0.00     0.039 C 
ATOM     24  C   UNL A   1      31.773  22.529  23.152  1.00  0.00     0.007 C 
ENDBRANCH   9  23
BRANCH  15  25
ATOM     25  C   UNL A   1      33.043  28.775  23.341  1.00  0.00     0.046 C 
BRANCH  25  26
ATOM     26  C   UNL A   1      32.971  29.087  24.827  1.00  0.00    -0.047 A 
ATOM     27  C   UNL A   1      33.982  28.672  25.695  1.00  0.00     0.004 A 
ATOM     28  C   UNL A   1      31.990  29.955  25.334  1.00  0.00     0.004 A 
ATOM     29  C   UNL A   1      34.044  29.167  27.003  1.00  0.00     0.000 A 
ATOM     30  C   UNL A   1      32.062  30.473  26.629  1.00  0.00     0.000 A 
ATOM     31  C   UNL A   1      33.100  30.085  27.463  1.00  0.00     0.000 A 
ENDBRANCH  25  26
ENDBRANCH  15  25
ENDBRANCH   8   9
ENDBRANCH   6   8
ENDBRANCH   5   6
ENDBRANCH   4   5
ENDBRANCH   3   4
ENDBRANCH   2   3
ENDBRANCH   1   2
BRANCH   1  32
ATOM     32  C   UNL A   1      36.842  22.573  25.271  1.00  0.00     0.188 C 
BRANCH  32  33
ATOM     33  O   UNL A   1      37.818  21.822  25.980  1.00  0.00    -0.376 OA
BRANCH  33  34
ATOM     34  C   UNL A   1      38.227  20.601  25.359  1.00  0.00     0.202 C 
BRANCH  34  35
ATOM     35  C   UNL A   1      39.636  20.077  25.711  1.00  0.00     0.261 C 
BRANCH  35  36
ATOM     36  O   UNL A   1      40.303  20.832  26.758  1.00  0.00    -0.460 OA
BRANCH  36  37
ATOM     37  C   UNL A   1      41.197  21.785  26.403  1.00  0.00     0.338 C 
ATOM     38  O   UNL A   1      41.954  21.696  25.443  1.00  0.00    -0.246 OA
BRANCH  37  39
ATOM     39  C   UNL A   1      40.893  23.074  27.130  1.00  0.00     0.060 A 
ATOM     40  C   UNL A   1      39.895  23.994  26.768  1.00  0.00     0.016 A 
ATOM     41  C   UNL A   1      41.832  23.489  28.069  1.00  0.00     0.016 A 
ATOM     42  C   UNL A   1      39.973  25.353  27.183  1.00  0.00     0.010 A 
ATOM     43  C   UNL A   1      41.894  24.831  28.477  1.00  0.00     0.010 A 
ATOM     44  C   UNL A   1      41.043  25.819  27.966  1.00  0.00    -0.014 A 
BRANCH  44  45
ATOM     45  C   UNL A   1      41.069  27.181  28.598  1.00  0.00     0.031 A 
ATOM     46  C   UNL A   1      42.233  27.908  28.065  1.00  0.00     0.074 A 
ATOM     47  C   UNL A   1      40.260  27.852  29.474  1.00  0.00     0.049 A 
ATOM     48  N   UNL A   1      43.343  28.005  28.714  1.00  0.00    -0.248 NA
ATOM     49  C   UNL A   1      42.308  28.313  26.656  1.00  0.00     0.031 C 
ATOM     50  C   UNL A   1      39.105  27.344  30.191  1.00  0.00     0.029 A 
ATOM     51  N   UNL A   1      40.233  29.178  29.892  1.00  0.00    -0.354 N 
ATOM     52  C   UNL A   1      44.161  28.754  27.897  1.00  0.00     0.074 A 
ATOM     53  C   UNL A   1      43.597  28.656  26.575  1.00  0.00     0.031 C 
ATOM     54  C   UNL A   1      38.301  28.344  30.631  1.00  0.00     0.029 A 
ATOM     55  C   UNL A   1      39.004  29.604  30.462  1.00  0.00     0.049 A 
ATOM     56  H   UNL A   1      41.008  29.777  29.799  1.00  0.00     0.167 HD
ATOM     57  C   UNL A   1      45.010  29.657  28.449  1.00  0.00     0.031 A 
ATOM     58  C   UNL A   1      38.643  30.813  31.007  1.00  0.00     0.031 A 
ATOM     59  C   UNL A   1      45.060  29.515  29.887  1.00  0.00     0.049 A 
ATOM     60  C   UNL A   1      39.885  31.360  31.574  1.00  0.00     0.074 A 
ATOM     61  C   UNL A   1      45.646  28.639  30.774  1.00  0.00     0.029 A 
ATOM     62  N   UNL A   1      44.063  30.178  30.564  1.00  0.00    -0.354 N 
ATOM     63  N   UNL A   1      40.473  30.805  32.596  1.00  0.00    -0.248 NA
ATOM     64  C   UNL A   1      40.696  32.304  30.816  1.00  0.00     0.031 C 
ATOM     65  C   UNL A   1      44.881  28.704  31.973  1.00  0.00     0.029 A 
ATOM     66  C   UNL A   1      43.874  29.651  31.818  1.00  0.00     0.049 A 
ATOM     67  H   UNL A   1      43.550  30.934  30.196  1.00  0.00     0.167 HD
ATOM     68  C   UNL A   1      41.811  30.930  32.295  1.00  0.00     0.074 A 
ATOM     69  C   UNL A   1      41.896  32.010  31.323  1.00  0.00     0.031 C 
ATOM     70  C   UNL A   1      42.681  29.927  32.589  1.00  0.00     0.031 A 
BRANCH  57  71
ATOM     71  C   UNL A   1      45.450  30.923  27.770  1.00  0.00    -0.014 A 
ATOM     72  C   UNL A   1      44.690  32.110  27.747  1.00  0.00     0.010 A 
ATOM     73  C   UNL A   1      46.777  31.005  27.311  1.00  0.00     0.010 A 
ATOM     74  C   UNL A   1      45.210  33.312  27.271  1.00  0.00     0.020 A 
ATOM     75  C   UNL A   1      47.324  32.215  26.867  1.00  0.00     0.020 A 
ATOM     76  C   UNL A   1      46.529  33.359  26.843  1.00  0.00     0.054 A 
BRANCH  76  77
ATOM     77  S   UNL A   1      47.188  34.955  26.315  1.00  0.00     0.124 S 
ATOM     78  O   UNL A   1      47.139  34.831  24.861  1.00  0.00    -0.237 OA
ATOM     79  O   UNL A   1      46.234  35.892  26.901  1.00  0.00    -0.237 OA
ATOM     80  O   UNL A   1      48.527  34.981  26.897  1.00  0.00    -0.744 OA
ENDBRANCH  76  77
ENDBRANCH  57  71
BRANCH  58  81
ATOM     81  C   UNL A   1      37.407  31.671  30.847  1.00  0.00    -0.014 A 
ATOM     82  C   UNL A   1      37.460  32.976  30.350  1.00  0.00     0.010 A 
ATOM     83  C   UNL A   1      36.182  31.308  31.458  1.00  0.00     0.010 A 
ATOM     84  C   UNL A   1      36.509  33.955  30.710  1.00  0.00     0.020 A 
ATOM     85  C   UNL A   1      35.193  32.264  31.782  1.00  0.00     0.020 A 
ATOM     86  C   UNL A   1      35.417  33.608  31.496  1.00  0.00     0.054 A 
BRANCH  86  87
ATOM     87  S   UNL A   1      34.317  34.896  32.166  1.00  0.00     0.124 S 
ATOM     88  O   UNL A   1      33.392  34.123  32.991  1.00  0.00    -0.237 OA
ATOM     89  O   UNL A   1      35.223  35.772  32.907  1.00  0.00    -0.237 OA
ATOM     90  O   UNL A   1      33.733  35.494  30.967  1.00  0.00    -0.744 OA
ENDBRANCH  86  87
ENDBRANCH  58  81
BRANCH  70  91
ATOM     91  C   UNL A   1      42.311  28.971  33.695  1.00  0.00    -0.014 A 
ATOM     92  C   UNL A   1      42.935  29.179  34.936  1.00  0.00     0.010 A 
ATOM     93  C   UNL A   1      41.475  27.849  33.540  1.00  0.00     0.010 A 
ATOM     94  C   UNL A   1      42.771  28.272  35.982  1.00  0.00     0.020 A 
ATOM     95  C   UNL A   1      41.287  26.942  34.597  1.00  0.00     0.020 A 
ATOM     96  C   UNL A   1      41.959  27.152  35.806  1.00  0.00     0.054 A 
BRANCH  96  97
ATOM     97  S   UNL A   1      41.816  25.986  37.188  1.00  0.00     0.124 S 
ATOM     98  O   UNL A   1      40.435  26.187  37.618  1.00  0.00    -0.237 OA
ATOM     99  O   UNL A   1      42.088  24.699  36.552  1.00  0.00    -0.237 OA
ATOM    100  O   UNL A   1      42.833  26.433  38.137  1.00  0.00    -0.744 OA
ENDBRANCH  96  97
ENDBRANCH  70  91
ENDBRANCH  44  45
ENDBRANCH  37  39
ENDBRANCH  36  37
ENDBRANCH  35  36
ENDBRANCH  34  35
ENDBRANCH  33  34
ENDBRANCH  32  33
ENDBRANCH   1  32
TORSDOF 24
ENDMDL
MODEL 2
REMARK VINA RESULT:     -11.9      1.995      3.685
REMARK SMILES CC[C@@]1(CC(=O)OCCOCCOCCOC(=O)c2ccc(-c3c4nc(c(-c5ccc(S(=O)(=O)[O-])cc5)c5ccc([nH]5)c(-c5ccc(S(=O)(=O)[O-])cc5)c5nc(c(-c6ccc(S(=O)(=O)[O-])cc6)c6ccc3[nH]6)C=C5)C=C4)cc2)OC[C@H](Cc2ccccc2)c2c1[nH]c1ccccc21
REMARK SMILES IDX 11 1 10 2 9 3 8 4 7 5 5 6 6 7 4 8 3 9 79 10 90 11 80 12
REMARK SMILES IDX 89 13 91 14 81 15 97 16 92 17 96 19 93 20 95 21 94 22 2 23
REMARK SMILES IDX 1 24 82 25 83 26 84 27 88 28 85 29 87 30 86 31 12 32 13 33
REMARK SMILES IDX 14 34 15 35 16 36 17 37 18 38 19 39 20 40 78 41 21 42 77 43
REMARK SMILES IDX 22 44 23 45 24 46 71 47 25 48 76 49 70 50 72 51 26 52 75 53
REMARK SMILES IDX 69 54 68 55 27 57 57 58 38 59 56 60 39 61 42 62 55 63 73 64
REMARK SMILES IDX 40 65 41 66 54 68 74 69 43 70 28 71 29 72 37 73 30 74 36 75
REMARK SMILES IDX 31 76 32 77 33 78 34 79 35 80 58 81 59 82 67 83 60 84 66 85
REMARK SMILES IDX 61 86 62 87 63 88 64 89 65 90 44 91 45 92 53 93 46 94 52 95
REMARK SMILES IDX 47 96 48 97 49 98 50 99 51 100
REMARK H PARENT 91 18 72 56 42 67
REMARK Flexibility Score: inf
ROOT
ATOM      1  C   UNL A   1      39.921  21.661  26.595  1.00  0.00     0.188 C 
ENDROOT
BRANCH   1   2
ATOM      2  O   UNL A   1      38.787  21.369  25.802  1.00  0.00    -0.376 OA
BRANCH   2   3
ATOM      3  C   UNL A   1      37.818  22.415  25.728  1.00  0.00     0.202 C 
BRANCH   3   4
ATOM      4  C   UNL A   1      37.009  22.496  24.418  1.00  0.00     0.261 C 
BRANCH   4   5
ATOM      5  O   UNL A   1      36.187  23.700  24.331  1.00  0.00    -0.463 OA
BRANCH   5   6
ATOM      6  C   UNL A   1      35.001  23.542  23.684  1.00  0.00     0.309 C 
ATOM      7  O   UNL A   1      34.658  22.484  23.166  1.00  0.00    -0.252 OA
BRANCH   6   8
ATOM      8  C   UNL A   1      34.041  24.713  23.859  1.00  0.00     0.164 C 
BRANCH   8   9
ATOM      9  C   UNL A   1      32.910  24.792  24.883  1.00  0.00     0.118 C 
ATOM     10  O   UNL A   1      31.656  24.365  24.290  1.00  0.00    -0.368 OA
ATOM     11  C   UNL A   1      32.727  26.212  25.250  1.00  0.00     0.053 A 
ATOM     12  C   UNL A   1      31.057  25.216  23.305  1.00  0.00     0.170 C 
ATOM     13  C   UNL A   1      31.776  27.096  24.784  1.00  0.00    -0.011 A 
ATOM     14  N   UNL A   1      33.611  26.872  26.045  1.00  0.00    -0.356 N 
ATOM     15  C   UNL A   1      30.703  26.635  23.809  1.00  0.00     0.052 C 
ATOM     16  C   UNL A   1      32.041  28.335  25.455  1.00  0.00     0.003 A 
ATOM     17  C   UNL A   1      33.162  28.137  26.269  1.00  0.00     0.046 A 
ATOM     18  H   UNL A   1      34.445  26.493  26.405  1.00  0.00     0.166 HD
ATOM     19  C   UNL A   1      31.446  29.609  25.483  1.00  0.00     0.010 A 
ATOM     20  C   UNL A   1      33.694  29.093  27.132  1.00  0.00     0.026 A 
ATOM     21  C   UNL A   1      31.962  30.587  26.350  1.00  0.00     0.001 A 
ATOM     22  C   UNL A   1      33.058  30.326  27.171  1.00  0.00     0.002 A 
BRANCH   9  23
ATOM     23  C   UNL A   1      33.109  23.919  26.138  1.00  0.00     0.039 C 
ATOM     24  C   UNL A   1      31.838  23.488  26.877  1.00  0.00     0.007 C 
ENDBRANCH   9  23
BRANCH  15  25
ATOM     25  C   UNL A   1      30.573  27.523  22.570  1.00  0.00     0.046 C 
BRANCH  25  26
ATOM     26  C   UNL A   1      29.639  28.721  22.616  1.00  0.00    -0.047 A 
ATOM     27  C   UNL A   1      29.985  29.922  21.993  1.00  0.00     0.004 A 
ATOM     28  C   UNL A   1      28.334  28.599  23.120  1.00  0.00     0.004 A 
ATOM     29  C   UNL A   1      29.032  30.933  21.821  1.00  0.00     0.000 A 
ATOM     30  C   UNL A   1      27.372  29.593  22.927  1.00  0.00     0.000 A 
ATOM     31  C   UNL A   1      27.721  30.761  22.265  1.00  0.00     0.000 A 
ENDBRANCH  25  26
ENDBRANCH  15  25
ENDBRANCH   8   9
ENDBRANCH   6   8
ENDBRANCH   5   6
ENDBRANCH   4   5
ENDBRANCH   3   4
ENDBRANCH   2   3
ENDBRANCH   1   2
BRANCH   1  32
ATOM     32  C   UNL A   1      40.251  23.151  26.710  1.00  0.00     0.188 C 
BRANCH  32  33
ATOM     33  O   UNL A   1      41.608  23.554  26.839  1.00  0.00    -0.376 OA
BRANCH  33  34
ATOM     34  C   UNL A   1      42.580  22.543  26.557  1.00  0.00     0.202 C 
BRANCH  34  35
ATOM     35  C   UNL A   1      43.338  22.659  25.218  1.00  0.00     0.261 C 
BRANCH  35  36
ATOM     36  O   UNL A   1      43.442  24.018  24.712  1.00  0.00    -0.460 OA
BRANCH  36  37
ATOM     37  C   UNL A   1      44.578  24.715  24.952  1.00  0.00     0.338 C 
ATOM     38  O   UNL A   1      45.662  24.462  24.443  1.00  0.00    -0.246 OA
BRANCH  37  39
ATOM     39  C   UNL A   1      44.246  26.015  25.647  1.00  0.00     0.060 A 
ATOM     40  C   UNL A   1      44.959  26.563  26.727  1.00  0.00     0.016 A 
ATOM     41  C   UNL A   1      43.005  26.572  25.354  1.00  0.00     0.016 A 
ATOM     42  C   UNL A   1      44.342  27.497  27.606  1.00  0.00     0.010 A 
ATOM     43  C   UNL A   1      42.412  27.499  26.224  1.00  0.00     0.010 A 
ATOM     44  C   UNL A   1      43.009  27.903  27.425  1.00  0.00    -0.014 A 
BRANCH  44  45
ATOM     45  C   UNL A   1      42.380  29.031  28.193  1.00  0.00     0.031 A 
ATOM     46  C   UNL A   1      43.268  30.200  28.095  1.00  0.00     0.074 A 
ATOM     47  C   UNL A   1      41.208  29.191  28.880  1.00  0.00     0.049 A 
ATOM     48  N   UNL A   1      44.089  30.525  29.035  1.00  0.00    -0.248 NA
ATOM     49  C   UNL A   1      43.490  30.892  26.820  1.00  0.00     0.031 C 
ATOM     50  C   UNL A   1      40.204  28.187  29.181  1.00  0.00     0.029 A 
ATOM     51  N   UNL A   1      40.590  30.313  29.424  1.00  0.00    -0.354 N 
ATOM     52  C   UNL A   1      44.720  31.658  28.572  1.00  0.00     0.074 A 
ATOM     53  C   UNL A   1      44.537  31.657  27.143  1.00  0.00     0.031 C 
ATOM     54  C   UNL A   1      39.006  28.743  29.492  1.00  0.00     0.029 A 
ATOM     55  C   UNL A   1      39.199  30.172  29.673  1.00  0.00     0.049 A 
ATOM     56  H   UNL A   1      41.082  31.141  29.622  1.00  0.00     0.167 HD
ATOM     57  C   UNL A   1      45.022  32.656  29.441  1.00  0.00     0.031 A 
ATOM     58  C   UNL A   1      38.299  31.047  30.232  1.00  0.00     0.031 A 
ATOM     59  C   UNL A   1      44.807  32.240  30.808  1.00  0.00     0.049 A 
ATOM     60  C   UNL A   1      39.085  31.846  31.183  1.00  0.00     0.074 A 
ATOM     61  C   UNL A   1      45.472  31.445  31.716  1.00  0.00     0.029 A 
ATOM     62  N   UNL A   1      43.512  32.373  31.252  1.00  0.00    -0.354 N 
ATOM     63  N   UNL A   1      39.602  31.319  32.257  1.00  0.00    -0.248 NA
ATOM     64  C   UNL A   1      39.624  33.144  30.797  1.00  0.00     0.031 C 
ATOM     65  C   UNL A   1      44.498  30.997  32.652  1.00  0.00     0.029 A 
ATOM     66  C   UNL A   1      43.268  31.562  32.333  1.00  0.00     0.049 A 
ATOM     67  H   UNL A   1      42.845  32.972  30.846  1.00  0.00     0.167 HD
ATOM     68  C   UNL A   1      40.824  31.945  32.359  1.00  0.00     0.074 A 
ATOM     69  C   UNL A   1      40.704  33.169  31.582  1.00  0.00     0.031 C 
ATOM     70  C   UNL A   1      41.922  31.253  32.767  1.00  0.00     0.031 A 
BRANCH  57  71
ATOM     71  C   UNL A   1      45.087  34.109  29.063  1.00  0.00    -0.014 A 
ATOM     72  C   UNL A   1      46.226  34.730  28.515  1.00  0.00     0.010 A 
ATOM     73  C   UNL A   1      43.889  34.848  29.058  1.00  0.00     0.010 A 
ATOM     74  C   UNL A   1      46.189  36.027  28.007  1.00  0.00     0.020 A 
ATOM     75  C   UNL A   1      43.830  36.137  28.515  1.00  0.00     0.020 A 
ATOM     76  C   UNL A   1      44.986  36.720  28.001  1.00  0.00     0.054 A 
BRANCH  76  77
ATOM     77  S   UNL A   1      44.964  38.364  27.255  1.00  0.00     0.124 S 
ATOM     78  O   UNL A   1      43.633  38.400  26.655  1.00  0.00    -0.237 OA
ATOM     79  O   UNL A   1      45.158  39.232  28.413  1.00  0.00    -0.237 OA
ATOM     80  O   UNL A   1      46.077  38.325  26.310  1.00  0.00    -0.744 OA
ENDBRANCH  76  77
ENDBRANCH  57  71
BRANCH  58  81
ATOM     81  C   UNL A   1      36.897  31.454  29.834  1.00  0.00    -0.014 A 
ATOM     82  C   UNL A   1      36.543  31.727  28.510  1.00  0.00     0.010 A 
ATOM     83  C   UNL A   1      35.950  31.858  30.806  1.00  0.00     0.010 A 
ATOM     84  C   UNL A   1      35.499  32.619  28.181  1.00  0.00     0.020 A 
ATOM     85  C   UNL A   1      34.867  32.710  30.490  1.00  0.00     0.020 A 
ATOM     86  C   UNL A   1      34.714  33.171  29.186  1.00  0.00     0.054 A 
BRANCH  86  87
ATOM     87  S   UNL A   1      33.526  34.498  28.803  1.00  0.00     0.124 S 
ATOM     88  O   UNL A   1      34.386  35.543  28.254  1.00  0.00    -0.237 OA
ATOM     89  O   UNL A   1      32.614  33.878  27.842  1.00  0.00    -0.237 OA
ATOM     90  O   UNL A   1      32.931  34.798  30.103  1.00  0.00    -0.744 OA
ENDBRANCH  86  87
ENDBRANCH  58  81
BRANCH  70  91
ATOM     91  C   UNL A   1      41.709  30.019  33.606  1.00  0.00    -0.014 A 
ATOM     92  C   UNL A   1      41.908  30.161  34.989  1.00  0.00     0.010 A 
ATOM     93  C   UNL A   1      41.427  28.739  33.093  1.00  0.00     0.010 A 
ATOM     94  C   UNL A   1      41.875  29.055  35.837  1.00  0.00     0.020 A 
ATOM     95  C   UNL A   1      41.370  27.622  33.944  1.00  0.00     0.020 A 
ATOM     96  C   UNL A   1      41.618  27.788  35.310  1.00  0.00     0.054 A 
BRANCH  96  97
ATOM     97  S   UNL A   1      41.628  26.382  36.455  1.00  0.00     0.124 S 
ATOM     98  O   UNL A   1      43.031  26.320  36.855  1.00  0.00    -0.237 OA
ATOM     99  O   UNL A   1      40.702  26.813  37.501  1.00  0.00    -0.237 OA
ATOM    100  O   UNL A   1      41.163  25.259  35.644  1.00  0.00    -0.744 OA
ENDBRANCH  96  97
ENDBRANCH  70  91
ENDBRANCH  44  45
ENDBRANCH  37  39
ENDBRANCH  36  37
ENDBRANCH  35  36
ENDBRANCH  34  35
ENDBRANCH  33  34
ENDBRANCH  32  33
ENDBRANCH   1  32
TORSDOF 24
ENDMDL
MODEL 3
REMARK VINA RESULT:     -11.0      1.429      3.185
REMARK SMILES CC[C@@]1(CC(=O)OCCOCCOCCOC(=O)c2ccc(-c3c4nc(c(-c5ccc(S(=O)(=O)[O-])cc5)c5ccc([nH]5)c(-c5ccc(S(=O)(=O)[O-])cc5)c5nc(c(-c6ccc(S(=O)(=O)[O-])cc6)c6ccc3[nH]6)C=C5)C=C4)cc2)OC[C@H](Cc2ccccc2)c2c1[nH]c1ccccc21
REMARK SMILES IDX 11 1 10 2 9 3 8 4 7 5 5 6 6 7 4 8 3 9 79 10 90 11 80 12
REMARK SMILES IDX 89 13 91 14 81 15 97 16 92 17 96 19 93 20 95 21 94 22 2 23
REMARK SMILES IDX 1 24 82 25 83 26 84 27 88 28 85 29 87 30 86 31 12 32 13 33
REMARK SMILES IDX 14 34 15 35 16 36 17 37 18 38 19 39 20 40 78 41 21 42 77 43
REMARK SMILES IDX 22 44 23 45 24 46 71 47 25 48 76 49 70 50 72 51 26 52 75 53
REMARK SMILES IDX 69 54 68 55 27 57 57 58 38 59 56 60 39 61 42 62 55 63 73 64
REMARK SMILES IDX 40 65 41 66 54 68 74 69 43 70 28 71 29 72 37 73 30 74 36 75
REMARK SMILES IDX 31 76 32 77 33 78 34 79 35 80 58 81 59 82 67 83 60 84 66 85
REMARK SMILES IDX 61 86 62 87 63 88 64 89 65 90 44 91 45 92 53 93 46 94 52 95
REMARK SMILES IDX 47 96 48 97 49 98 50 99 51 100
REMARK H PARENT 91 18 72 56 42 67
REMARK Flexibility Score: inf
ROOT
ATOM      1  C   UNL A   1      32.527  21.530  24.977  1.00  0.00     0.188 C 
ENDROOT
BRANCH   1   2
ATOM      2  O   UNL A   1      32.760  22.234  26.180  1.00  0.00    -0.376 OA
BRANCH   2   3
ATOM      3  C   UNL A   1      31.584  22.657  26.869  1.00  0.00     0.202 C 
BRANCH   3   4
ATOM      4  C   UNL A   1      31.042  24.051  26.491  1.00  0.00     0.261 C 
BRANCH   4   5
ATOM      5  O   UNL A   1      31.811  25.141  27.085  1.00  0.00    -0.463 OA
BRANCH   5   6
ATOM      6  C   UNL A   1      31.344  26.390  26.814  1.00  0.00     0.309 C 
ATOM      7  O   UNL A   1      30.159  26.630  26.605  1.00  0.00    -0.252 OA
BRANCH   6   8
ATOM      8  C   UNL A   1      32.376  27.493  27.018  1.00  0.00     0.164 C 
BRANCH   8   9
ATOM      9  C   UNL A   1      33.352  28.006  25.960  1.00  0.00     0.118 C 
ATOM     10  O   UNL A   1      32.885  29.263  25.405  1.00  0.00    -0.368 OA
ATOM     11  C   UNL A   1      33.359  27.041  24.841  1.00  0.00     0.053 A 
ATOM     12  C   UNL A   1      31.723  29.235  24.568  1.00  0.00     0.170 C 
ATOM     13  C   UNL A   1      32.691  27.129  23.637  1.00  0.00    -0.011 A 
ATOM     14  N   UNL A   1      33.965  25.828  24.937  1.00  0.00    -0.356 N 
ATOM     15  C   UNL A   1      31.863  28.360  23.300  1.00  0.00     0.052 C 
ATOM     16  C   UNL A   1      33.036  25.938  22.918  1.00  0.00     0.003 A 
ATOM     17  C   UNL A   1      33.871  25.178  23.745  1.00  0.00     0.046 A 
ATOM     18  H   UNL A   1      34.404  25.474  25.743  1.00  0.00     0.166 HD
ATOM     19  C   UNL A   1      32.751  25.416  21.644  1.00  0.00     0.010 A 
ATOM     20  C   UNL A   1      34.471  23.975  23.377  1.00  0.00     0.026 A 
ATOM     21  C   UNL A   1      33.349  24.208  21.249  1.00  0.00     0.001 A 
ATOM     22  C   UNL A   1      34.206  23.509  22.097  1.00  0.00     0.002 A 
BRANCH   9  23
ATOM     23  C   UNL A   1      34.782  28.269  26.471  1.00  0.00     0.039 C 
ATOM     24  C   UNL A   1      35.025  29.619  27.153  1.00  0.00     0.007 C 
ENDBRANCH   9  23
BRANCH  15  25
ATOM     25  C   UNL A   1      30.444  28.037  22.829  1.00  0.00     0.046 C 
BRANCH  25  26
ATOM     26  C   UNL A   1      29.380  29.121  22.893  1.00  0.00    -0.047 A 
ATOM     27  C   UNL A   1      28.024  28.792  22.938  1.00  0.00     0.004 A 
ATOM     28  C   UNL A   1      29.733  30.466  23.096  1.00  0.00     0.004 A 
ATOM     29  C   UNL A   1      27.066  29.766  23.246  1.00  0.00     0.000 A 
ATOM     30  C   UNL A   1      28.785  31.435  23.431  1.00  0.00     0.000 A 
ATOM     31  C   UNL A   1      27.447  31.080  23.517  1.00  0.00     0.000 A 
ENDBRANCH  25  26
ENDBRANCH  15  25
ENDBRANCH   8   9
ENDBRANCH   6   8
ENDBRANCH   5   6
ENDBRANCH   4   5
ENDBRANCH   3   4
ENDBRANCH   2   3
ENDBRANCH   1   2
BRANCH   1  32
ATOM     32  C   UNL A   1      33.635  20.546  24.591  1.00  0.00     0.188 C 
BRANCH  32  33
ATOM     33  O   UNL A   1      34.691  20.294  25.507  1.00  0.00    -0.376 OA
BRANCH  33  34
ATOM     34  C   UNL A   1      35.985  20.749  25.098  1.00  0.00     0.202 C 
BRANCH  34  35
ATOM     35  C   UNL A   1      36.634  21.861  25.949  1.00  0.00     0.261 C 
BRANCH  35  36
ATOM     36  O   UNL A   1      37.892  22.355  25.416  1.00  0.00    -0.460 OA
BRANCH  36  37
ATOM     37  C   UNL A   1      39.030  22.119  26.112  1.00  0.00     0.338 C 
ATOM     38  O   UNL A   1      39.635  21.054  26.100  1.00  0.00    -0.246 OA
BRANCH  37  39
ATOM     39  C   UNL A   1      39.609  23.422  26.610  1.00  0.00     0.060 A 
ATOM     40  C   UNL A   1      40.651  23.543  27.544  1.00  0.00     0.016 A 
ATOM     41  C   UNL A   1      38.888  24.574  26.308  1.00  0.00     0.016 A 
ATOM     42  C   UNL A   1      40.816  24.737  28.300  1.00  0.00     0.010 A 
ATOM     43  C   UNL A   1      39.066  25.748  27.055  1.00  0.00     0.010 A 
ATOM     44  C   UNL A   1      39.950  25.832  28.138  1.00  0.00    -0.014 A 
BRANCH  44  45
ATOM     45  C   UNL A   1      40.201  27.179  28.754  1.00  0.00     0.031 A 
ATOM     46  C   UNL A   1      41.358  27.783  28.074  1.00  0.00     0.074 A 
ATOM     47  C   UNL A   1      39.585  27.924  29.722  1.00  0.00     0.049 A 
ATOM     48  N   UNL A   1      42.545  27.757  28.576  1.00  0.00    -0.248 NA
ATOM     49  C   UNL A   1      41.296  28.188  26.665  1.00  0.00     0.031 C 
ATOM     50  C   UNL A   1      38.483  27.536  30.582  1.00  0.00     0.029 A 
ATOM     51  N   UNL A   1      39.751  29.243  30.133  1.00  0.00    -0.354 N 
ATOM     52  C   UNL A   1      43.328  28.421  27.658  1.00  0.00     0.074 A 
ATOM     53  C   UNL A   1      42.594  28.394  26.419  1.00  0.00     0.031 C 
ATOM     54  C   UNL A   1      37.851  28.612  31.115  1.00  0.00     0.029 A 
ATOM     55  C   UNL A   1      38.656  29.792  30.851  1.00  0.00     0.049 A 
ATOM     56  H   UNL A   1      40.568  29.757  29.939  1.00  0.00     0.167 HD
ATOM     57  C   UNL A   1      44.331  29.225  28.093  1.00  0.00     0.031 A 
ATOM     58  C   UNL A   1      38.497  31.027  31.431  1.00  0.00     0.031 A 
ATOM     59  C   UNL A   1      44.547  29.067  29.514  1.00  0.00     0.049 A 
ATOM     60  C   UNL A   1      39.852  31.436  31.833  1.00  0.00     0.074 A 
ATOM     61  C   UNL A   1      45.144  28.127  30.324  1.00  0.00     0.029 A 
ATOM     62  N   UNL A   1      43.720  29.827  30.309  1.00  0.00    -0.354 N 
ATOM     63  N   UNL A   1      40.503  30.814  32.775  1.00  0.00    -0.248 NA
ATOM     64  C   UNL A   1      40.656  32.295  30.973  1.00  0.00     0.031 C 
ATOM     65  C   UNL A   1      44.549  28.263  31.610  1.00  0.00     0.029 A 
ATOM     66  C   UNL A   1      43.637  29.312  31.579  1.00  0.00     0.049 A 
ATOM     67  H   UNL A   1      43.247  30.635  30.004  1.00  0.00     0.167 HD
ATOM     68  C   UNL A   1      41.798  30.798  32.307  1.00  0.00     0.074 A 
ATOM     69  C   UNL A   1      41.873  31.871  31.325  1.00  0.00     0.031 C 
ATOM     70  C   UNL A   1      42.587  29.707  32.494  1.00  0.00     0.031 A 
BRANCH  57  71
ATOM     71  C   UNL A   1      44.813  30.443  27.357  1.00  0.00    -0.014 A 
ATOM     72  C   UNL A   1      43.972  31.489  26.928  1.00  0.00     0.010 A 
ATOM     73  C   UNL A   1      46.200  30.661  27.270  1.00  0.00     0.010 A 
ATOM     74  C   UNL A   1      44.477  32.682  26.417  1.00  0.00     0.020 A 
ATOM     75  C   UNL A   1      46.721  31.871  26.795  1.00  0.00     0.020 A 
ATOM     76  C   UNL A   1      45.851  32.870  26.363  1.00  0.00     0.054 A 
BRANCH  76  77
ATOM     77  S   UNL A   1      46.462  34.464  25.775  1.00  0.00     0.124 S 
ATOM     78  O   UNL A   1      47.889  34.197  25.620  1.00  0.00    -0.237 OA
ATOM     79  O   UNL A   1      45.715  34.642  24.532  1.00  0.00    -0.237 OA
ATOM     80  O   UNL A   1      46.109  35.384  26.853  1.00  0.00    -0.744 OA
ENDBRANCH  76  77
ENDBRANCH  57  71
BRANCH  58  81
ATOM     81  C   UNL A   1      37.349  32.013  31.425  1.00  0.00    -0.014 A 
ATOM     82  C   UNL A   1      36.013  31.607  31.380  1.00  0.00     0.010 A 
ATOM     83  C   UNL A   1      37.570  33.389  31.174  1.00  0.00     0.010 A 
ATOM     84  C   UNL A   1      35.003  32.413  30.812  1.00  0.00     0.020 A 
ATOM     85  C   UNL A   1      36.558  34.228  30.653  1.00  0.00     0.020 A 
ATOM     86  C   UNL A   1      35.302  33.698  30.376  1.00  0.00     0.054 A 
BRANCH  86  87
ATOM     87  S   UNL A   1      34.077  34.659  29.429  1.00  0.00     0.124 S 
ATOM     88  O   UNL A   1      33.514  35.542  30.447  1.00  0.00    -0.237 OA
ATOM     89  O   UNL A   1      34.880  35.326  28.405  1.00  0.00    -0.237 OA
ATOM     90  O   UNL A   1      33.168  33.633  28.922  1.00  0.00    -0.744 OA
ENDBRANCH  86  87
ENDBRANCH  58  81
BRANCH  70  91
ATOM     91  C   UNL A   1      42.260  28.787  33.643  1.00  0.00    -0.014 A 
ATOM     92  C   UNL A   1      42.778  29.146  34.898  1.00  0.00     0.010 A 
ATOM     93  C   UNL A   1      41.570  27.566  33.522  1.00  0.00     0.010 A 
ATOM     94  C   UNL A   1      42.654  28.296  35.996  1.00  0.00     0.020 A 
ATOM     95  C   UNL A   1      41.422  26.713  34.630  1.00  0.00     0.020 A 
ATOM     96  C   UNL A   1      41.988  27.078  35.855  1.00  0.00     0.054 A 
BRANCH  96  97
ATOM     97  S   UNL A   1      41.895  25.995  37.307  1.00  0.00     0.124 S 
ATOM     98  O   UNL A   1      42.906  26.574  38.187  1.00  0.00    -0.237 OA
ATOM     99  O   UNL A   1      40.513  26.170  37.749  1.00  0.00    -0.237 OA
ATOM    100  O   UNL A   1      42.212  24.668  36.784  1.00  0.00    -0.744 OA
ENDBRANCH  96  97
ENDBRANCH  70  91
ENDBRANCH  44  45
ENDBRANCH  37  39
ENDBRANCH  36  37
ENDBRANCH  35  36
ENDBRANCH  34  35
ENDBRANCH  33  34
ENDBRANCH  32  33
ENDBRANCH   1  32
TORSDOF 24
ENDMDL
