MODEL 1
REMARK VINA RESULT:      -9.6      0.000      0.000
REMARK SMILES CC1(C(=O)N[C@H](C(=O)OCCOCCOCCOC(=O)c2ccc(-c3c4nc(c(-c5ccc(S(=O)(=O)[O-])cc5)c5ccc([nH]5)c(-c5ccc(S(=O)(=O)[O-])cc5)c5nc(c(-c6ccc(S(=O)(=O)[O-])cc6)c6ccc3[nH]6)C=C5)C=C4)cc2)C2CC2)CCCC1
REMARK SMILES IDX 14 1 13 2 12 3 11 4 10 5 9 6 7 7 8 8 6 9 5 10 3 11 4 12 2 14
REMARK SMILES IDX 1 15 84 16 87 17 85 18 86 19 81 20 82 21 83 22 15 23 16 24
REMARK SMILES IDX 17 25 18 26 19 27 20 28 21 29 22 30 80 31 23 32 79 33 24 34
REMARK SMILES IDX 25 35 26 36 73 37 27 38 78 39 72 40 74 41 28 42 77 43 71 44
REMARK SMILES IDX 70 45 29 47 59 48 40 49 58 50 41 51 44 52 57 53 75 54 42 55
REMARK SMILES IDX 43 56 56 58 76 59 45 60 30 61 31 62 39 63 32 64 38 65 33 66
REMARK SMILES IDX 34 67 35 68 36 69 37 70 60 71 61 72 69 73 62 74 68 75 63 76
REMARK SMILES IDX 64 77 65 78 66 79 67 80 46 81 47 82 55 83 48 84 54 85 49 86
REMARK SMILES IDX 50 87 51 88 52 89 53 90
REMARK H PARENT 5 13 74 46 44 57
REMARK Flexibility Score: inf
ROOT
ATOM      1  C   UNL A   1      35.692  21.538  25.824  1.00  0.00     0.188 C 
ENDROOT
BRANCH   1   2
ATOM      2  C   UNL A   1      34.430  20.848  25.310  1.00  0.00     0.188 C 
BRANCH   2   3
ATOM      3  O   UNL A   1      33.228  20.984  26.059  1.00  0.00    -0.376 OA
BRANCH   3   4
ATOM      4  C   UNL A   1      33.024  22.190  26.776  1.00  0.00     0.202 C 
BRANCH   4   5
ATOM      5  C   UNL A   1      31.649  22.845  26.601  1.00  0.00     0.261 C 
BRANCH   5   6
ATOM      6  O   UNL A   1      31.467  24.095  27.307  1.00  0.00    -0.462 OA
BRANCH   6   7
ATOM      7  C   UNL A   1      30.808  25.049  26.594  1.00  0.00     0.329 C 
ATOM      8  O   UNL A   1      29.584  25.153  26.562  1.00  0.00    -0.250 OA
BRANCH   7   9
ATOM      9  C   UNL A   1      31.719  25.960  25.723  1.00  0.00     0.195 C 
BRANCH   9  10
ATOM     10  N   UNL A   1      31.165  26.693  24.579  1.00  0.00    -0.342 N 
ATOM     11  C   UNL A   1      31.628  26.826  23.293  1.00  0.00     0.226 C 
ATOM     12  O   UNL A   1      31.327  27.871  22.710  1.00  0.00    -0.274 OA
ATOM     13  H   UNL A   1      30.322  27.167  24.764  1.00  0.00     0.164 HD
BRANCH  11  14
ATOM     14  C   UNL A   1      32.382  25.690  22.558  1.00  0.00     0.046 C 
ATOM     15  C   UNL A   1      32.376  25.793  21.026  1.00  0.00     0.022 C 
ATOM     16  C   UNL A   1      31.821  24.285  22.925  1.00  0.00     0.016 C 
ATOM     17  C   UNL A   1      33.806  25.629  23.138  1.00  0.00     0.016 C 
ATOM     18  C   UNL A   1      33.029  23.360  22.864  1.00  0.00     0.001 C 
ATOM     19  C   UNL A   1      34.089  24.185  23.554  1.00  0.00     0.001 C 
ENDBRANCH  11  14
ENDBRANCH   9  10
BRANCH   9  20
ATOM     20  C   UNL A   1      32.358  26.988  26.656  1.00  0.00     0.023 C 
ATOM     21  C   UNL A   1      33.328  28.012  26.117  1.00  0.00     0.007 C 
ATOM     22  C   UNL A   1      32.008  28.463  26.665  1.00  0.00     0.007 C 
ENDBRANCH   9  20
ENDBRANCH   7   9
ENDBRANCH   6   7
ENDBRANCH   5   6
ENDBRANCH   4   5
ENDBRANCH   3   4
ENDBRANCH   2   3
ENDBRANCH   1   2
BRANCH   1  23
ATOM     23  O   UNL A   1      36.791  21.416  24.923  1.00  0.00    -0.376 OA
BRANCH  23  24
ATOM     24  C   UNL A   1      37.990  21.951  25.488  1.00  0.00     0.202 C 
BRANCH  24  25
ATOM     25  C   UNL A   1      37.834  23.453  25.723  1.00  0.00     0.261 C 
BRANCH  25  26
ATOM     26  O   UNL A   1      38.563  23.864  26.898  1.00  0.00    -0.460 OA
BRANCH  26  27
ATOM     27  C   UNL A   1      39.550  24.756  26.662  1.00  0.00     0.338 C 
ATOM     28  O   UNL A   1      40.157  24.868  25.601  1.00  0.00    -0.246 OA
BRANCH  27  29
ATOM     29  C   UNL A   1      39.818  25.626  27.841  1.00  0.00     0.060 A 
ATOM     30  C   UNL A   1      39.102  25.540  29.039  1.00  0.00     0.016 A 
ATOM     31  C   UNL A   1      40.770  26.636  27.697  1.00  0.00     0.016 A 
ATOM     32  C   UNL A   1      39.209  26.553  30.004  1.00  0.00     0.010 A 
ATOM     33  C   UNL A   1      40.952  27.585  28.706  1.00  0.00     0.010 A 
ATOM     34  C   UNL A   1      40.121  27.605  29.841  1.00  0.00    -0.014 A 
BRANCH  34  35
ATOM     35  C   UNL A   1      40.174  28.785  30.760  1.00  0.00     0.031 A 
ATOM     36  C   UNL A   1      41.218  28.822  31.855  1.00  0.00     0.074 A 
ATOM     37  C   UNL A   1      39.310  29.815  30.659  1.00  0.00     0.049 A 
ATOM     38  N   UNL A   1      41.271  29.562  32.934  1.00  0.00    -0.248 NA
ATOM     39  C   UNL A   1      42.338  27.876  31.724  1.00  0.00     0.031 C 
ATOM     40  C   UNL A   1      38.299  29.985  29.617  1.00  0.00     0.029 A 
ATOM     41  N   UNL A   1      39.145  30.919  31.465  1.00  0.00    -0.354 N 
ATOM     42  C   UNL A   1      42.376  29.109  33.652  1.00  0.00     0.074 A 
ATOM     43  C   UNL A   1      42.968  28.039  32.878  1.00  0.00     0.031 C 
ATOM     44  C   UNL A   1      37.643  31.138  29.826  1.00  0.00     0.029 A 
ATOM     45  C   UNL A   1      38.109  31.733  31.075  1.00  0.00     0.049 A 
ATOM     46  H   UNL A   1      39.714  31.106  32.246  1.00  0.00     0.167 HD
ATOM     47  C   UNL A   1      42.842  29.530  34.854  1.00  0.00     0.031 A 
ATOM     48  C   UNL A   1      37.549  32.804  31.677  1.00  0.00     0.031 A 
ATOM     49  C   UNL A   1      42.275  30.624  35.601  1.00  0.00     0.049 A 
ATOM     50  C   UNL A   1      38.061  33.249  33.019  1.00  0.00     0.074 A 
ATOM     51  C   UNL A   1      42.656  31.118  36.836  1.00  0.00     0.029 A 
ATOM     52  N   UNL A   1      41.217  31.409  35.168  1.00  0.00    -0.354 N 
ATOM     53  N   UNL A   1      39.031  32.741  33.742  1.00  0.00    -0.248 NA
ATOM     54  C   UNL A   1      37.388  34.401  33.634  1.00  0.00     0.031 C 
ATOM     55  C   UNL A   1      41.802  32.179  37.168  1.00  0.00     0.029 A 
ATOM     56  C   UNL A   1      40.928  32.380  36.113  1.00  0.00     0.049 A 
ATOM     57  H   UNL A   1      40.741  31.294  34.315  1.00  0.00     0.167 HD
ATOM     58  C   UNL A   1      39.090  33.517  34.896  1.00  0.00     0.074 A 
ATOM     59  C   UNL A   1      38.075  34.543  34.760  1.00  0.00     0.031 C 
ATOM     60  C   UNL A   1      39.907  33.388  35.971  1.00  0.00     0.031 A 
BRANCH  47  61
ATOM     61  C   UNL A   1      43.972  28.741  35.469  1.00  0.00    -0.014 A 
ATOM     62  C   UNL A   1      45.289  28.812  34.980  1.00  0.00     0.010 A 
ATOM     63  C   UNL A   1      43.695  27.885  36.552  1.00  0.00     0.010 A 
ATOM     64  C   UNL A   1      46.288  27.989  35.512  1.00  0.00     0.020 A 
ATOM     65  C   UNL A   1      44.697  27.084  37.107  1.00  0.00     0.020 A 
ATOM     66  C   UNL A   1      45.981  27.118  36.561  1.00  0.00     0.054 A 
BRANCH  66  67
ATOM     67  S   UNL A   1      47.279  26.025  37.205  1.00  0.00     0.124 S 
ATOM     68  O   UNL A   1      48.458  26.882  37.123  1.00  0.00    -0.237 OA
ATOM     69  O   UNL A   1      46.810  25.728  38.556  1.00  0.00    -0.237 OA
ATOM     70  O   UNL A   1      47.267  24.892  36.282  1.00  0.00    -0.744 OA
ENDBRANCH  66  67
ENDBRANCH  47  61
BRANCH  48  71
ATOM     71  C   UNL A   1      36.395  33.487  31.028  1.00  0.00    -0.014 A 
ATOM     72  C   UNL A   1      35.215  33.743  31.746  1.00  0.00     0.010 A 
ATOM     73  C   UNL A   1      36.495  33.937  29.697  1.00  0.00     0.010 A 
ATOM     74  C   UNL A   1      34.163  34.448  31.153  1.00  0.00     0.020 A 
ATOM     75  C   UNL A   1      35.460  34.671  29.111  1.00  0.00     0.020 A 
ATOM     76  C   UNL A   1      34.298  34.920  29.843  1.00  0.00     0.054 A 
BRANCH  76  77
ATOM     77  S   UNL A   1      32.969  35.930  29.132  1.00  0.00     0.124 S 
ATOM     78  O   UNL A   1      32.354  35.003  28.188  1.00  0.00    -0.237 OA
ATOM     79  O   UNL A   1      32.166  36.266  30.304  1.00  0.00    -0.237 OA
ATOM     80  O   UNL A   1      33.681  37.057  28.532  1.00  0.00    -0.744 OA
ENDBRANCH  76  77
ENDBRANCH  48  71
BRANCH  60  81
ATOM     81  C   UNL A   1      39.759  34.408  37.070  1.00  0.00    -0.014 A 
ATOM     82  C   UNL A   1      40.364  35.675  36.983  1.00  0.00     0.010 A 
ATOM     83  C   UNL A   1      38.988  34.094  38.205  1.00  0.00     0.010 A 
ATOM     84  C   UNL A   1      40.242  36.589  38.033  1.00  0.00     0.020 A 
ATOM     85  C   UNL A   1      38.842  35.016  39.244  1.00  0.00     0.020 A 
ATOM     86  C   UNL A   1      39.489  36.250  39.161  1.00  0.00     0.054 A 
BRANCH  86  87
ATOM     87  S   UNL A   1      39.341  37.452  40.512  1.00  0.00     0.124 S 
ATOM     88  O   UNL A   1      38.342  38.378  39.985  1.00  0.00    -0.237 OA
ATOM     89  O   UNL A   1      38.903  36.625  41.634  1.00  0.00    -0.237 OA
ATOM     90  O   UNL A   1      40.690  37.997  40.638  1.00  0.00    -0.744 OA
ENDBRANCH  86  87
ENDBRANCH  60  81
ENDBRANCH  34  35
ENDBRANCH  27  29
ENDBRANCH  26  27
ENDBRANCH  25  26
ENDBRANCH  24  25
ENDBRANCH  23  24
ENDBRANCH   1  23
TORSDOF 23
ENDMDL
MODEL 2
REMARK VINA RESULT:      -9.6      4.911     12.053
REMARK SMILES CC1(C(=O)N[C@H](C(=O)OCCOCCOCCOC(=O)c2ccc(-c3c4nc(c(-c5ccc(S(=O)(=O)[O-])cc5)c5ccc([nH]5)c(-c5ccc(S(=O)(=O)[O-])cc5)c5nc(c(-c6ccc(S(=O)(=O)[O-])cc6)c6ccc3[nH]6)C=C5)C=C4)cc2)C2CC2)CCCC1
REMARK SMILES IDX 14 1 13 2 12 3 11 4 10 5 9 6 7 7 8 8 6 9 5 10 3 11 4 12 2 14
REMARK SMILES IDX 1 15 84 16 87 17 85 18 86 19 81 20 82 21 83 22 15 23 16 24
REMARK SMILES IDX 17 25 18 26 19 27 20 28 21 29 22 30 80 31 23 32 79 33 24 34
REMARK SMILES IDX 25 35 26 36 73 37 27 38 78 39 72 40 74 41 28 42 77 43 71 44
REMARK SMILES IDX 70 45 29 47 59 48 40 49 58 50 41 51 44 52 57 53 75 54 42 55
REMARK SMILES IDX 43 56 56 58 76 59 45 60 30 61 31 62 39 63 32 64 38 65 33 66
REMARK SMILES IDX 34 67 35 68 36 69 37 70 60 71 61 72 69 73 62 74 68 75 63 76
REMARK SMILES IDX 64 77 65 78 66 79 67 80 46 81 47 82 55 83 48 84 54 85 49 86
REMARK SMILES IDX 50 87 51 88 52 89 53 90
REMARK H PARENT 5 13 74 46 44 57
REMARK Flexibility Score: inf
ROOT
ATOM      1  C   UNL A   1      33.080  34.138  28.017  1.00  0.00     0.188 C 
ENDROOT
BRANCH   1   2
ATOM      2  C   UNL A   1      32.617  35.231  28.980  1.00  0.00     0.188 C 
BRANCH   2   3
ATOM      3  O   UNL A   1      33.604  36.005  29.653  1.00  0.00    -0.376 OA
BRANCH   3   4
ATOM      4  C   UNL A   1      33.241  36.630  30.873  1.00  0.00     0.202 C 
BRANCH   4   5
ATOM      5  C   UNL A   1      33.453  35.794  32.139  1.00  0.00     0.261 C 
BRANCH   5   6
ATOM      6  O   UNL A   1      34.788  35.265  32.313  1.00  0.00    -0.462 OA
BRANCH   6   7
ATOM      7  C   UNL A   1      34.870  33.909  32.221  1.00  0.00     0.329 C 
ATOM      8  O   UNL A   1      33.913  33.155  32.378  1.00  0.00    -0.250 OA
BRANCH   7   9
ATOM      9  C   UNL A   1      36.306  33.356  31.998  1.00  0.00     0.195 C 
BRANCH   9  10
ATOM     10  N   UNL A   1      36.849  32.316  32.879  1.00  0.00    -0.342 N 
ATOM     11  C   UNL A   1      38.077  32.210  33.487  1.00  0.00     0.226 C 
ATOM     12  O   UNL A   1      38.482  31.064  33.700  1.00  0.00    -0.274 OA
ATOM     13  H   UNL A   1      36.232  31.572  33.068  1.00  0.00     0.164 HD
BRANCH  11  14
ATOM     14  C   UNL A   1      38.866  33.444  33.992  1.00  0.00     0.046 C 
ATOM     15  C   UNL A   1      39.382  34.379  32.889  1.00  0.00     0.022 C 
ATOM     16  C   UNL A   1      40.091  33.036  34.860  1.00  0.00     0.016 C 
ATOM     17  C   UNL A   1      37.977  34.174  35.013  1.00  0.00     0.016 C 
ATOM     18  C   UNL A   1      40.229  34.157  35.881  1.00  0.00     0.001 C 
ATOM     19  C   UNL A   1      38.793  34.384  36.289  1.00  0.00     0.001 C 
ENDBRANCH  11  14
ENDBRANCH   9  10
BRANCH   9  20
ATOM     20  C   UNL A   1      36.369  32.819  30.568  1.00  0.00     0.023 C 
ATOM     21  C   UNL A   1      36.356  33.767  29.394  1.00  0.00     0.007 C 
ATOM     22  C   UNL A   1      37.580  32.945  29.665  1.00  0.00     0.007 C 
ENDBRANCH   9  20
ENDBRANCH   7   9
ENDBRANCH   6   7
ENDBRANCH   5   6
ENDBRANCH   4   5
ENDBRANCH   3   4
ENDBRANCH   2   3
ENDBRANCH   1   2
BRANCH   1  23
ATOM     23  O   UNL A   1      32.017  33.278  27.612  1.00  0.00    -0.376 OA
BRANCH  23  24
ATOM     24  C   UNL A   1      32.455  32.337  26.628  1.00  0.00     0.202 C 
BRANCH  24  25
ATOM     25  C   UNL A   1      32.601  30.952  27.258  1.00  0.00     0.261 C 
BRANCH  25  26
ATOM     26  O   UNL A   1      33.877  30.825  27.919  1.00  0.00    -0.460 OA
BRANCH  26  27
ATOM     27  C   UNL A   1      34.514  29.656  27.689  1.00  0.00     0.338 C 
ATOM     28  O   UNL A   1      34.004  28.669  27.166  1.00  0.00    -0.246 OA
BRANCH  27  29
ATOM     29  C   UNL A   1      35.937  29.693  28.124  1.00  0.00     0.060 A 
ATOM     30  C   UNL A   1      36.994  30.032  27.273  1.00  0.00     0.016 A 
ATOM     31  C   UNL A   1      36.228  29.276  29.424  1.00  0.00     0.016 A 
ATOM     32  C   UNL A   1      38.321  29.786  27.655  1.00  0.00     0.010 A 
ATOM     33  C   UNL A   1      37.555  29.133  29.841  1.00  0.00     0.010 A 
ATOM     34  C   UNL A   1      38.620  29.311  28.940  1.00  0.00    -0.014 A 
BRANCH  34  35
ATOM     35  C   UNL A   1      39.997  28.893  29.352  1.00  0.00     0.031 A 
ATOM     36  C   UNL A   1      40.871  29.871  30.106  1.00  0.00     0.074 A 
ATOM     37  C   UNL A   1      40.497  27.676  29.059  1.00  0.00     0.049 A 
ATOM     38  N   UNL A   1      42.167  29.859  30.298  1.00  0.00    -0.248 NA
ATOM     39  C   UNL A   1      40.191  31.034  30.700  1.00  0.00     0.031 C 
ATOM     40  C   UNL A   1      39.769  26.582  28.417  1.00  0.00     0.029 A 
ATOM     41  N   UNL A   1      41.757  27.160  29.265  1.00  0.00    -0.354 N 
ATOM     42  C   UNL A   1      42.466  31.051  30.953  1.00  0.00     0.074 A 
ATOM     43  C   UNL A   1      41.214  31.755  31.134  1.00  0.00     0.031 C 
ATOM     44  C   UNL A   1      40.580  25.517  28.310  1.00  0.00     0.029 A 
ATOM     45  C   UNL A   1      41.915  25.885  28.774  1.00  0.00     0.049 A 
ATOM     46  H   UNL A   1      42.475  27.656  29.719  1.00  0.00     0.167 HD
ATOM     47  C   UNL A   1      43.673  31.526  31.348  1.00  0.00     0.031 A 
ATOM     48  C   UNL A   1      43.015  25.114  28.650  1.00  0.00     0.031 A 
ATOM     49  C   UNL A   1      44.911  30.804  31.204  1.00  0.00     0.049 A 
ATOM     50  C   UNL A   1      44.352  25.660  29.073  1.00  0.00     0.074 A 
ATOM     51  C   UNL A   1      46.191  31.201  31.550  1.00  0.00     0.029 A 
ATOM     52  N   UNL A   1      45.019  29.521  30.688  1.00  0.00    -0.354 N 
ATOM     53  N   UNL A   1      44.640  26.834  29.584  1.00  0.00    -0.248 NA
ATOM     54  C   UNL A   1      45.514  24.782  28.884  1.00  0.00     0.031 C 
ATOM     55  C   UNL A   1      47.079  30.173  31.208  1.00  0.00     0.029 A 
ATOM     56  C   UNL A   1      46.343  29.113  30.702  1.00  0.00     0.049 A 
ATOM     57  H   UNL A   1      44.266  28.979  30.360  1.00  0.00     0.167 HD
ATOM     58  C   UNL A   1      46.017  26.832  29.785  1.00  0.00     0.074 A 
ATOM     59  C   UNL A   1      46.498  25.531  29.363  1.00  0.00     0.031 C 
ATOM     60  C   UNL A   1      46.811  27.820  30.269  1.00  0.00     0.031 A 
BRANCH  47  61
ATOM     61  C   UNL A   1      43.714  32.933  31.895  1.00  0.00    -0.014 A 
ATOM     62  C   UNL A   1      43.985  34.046  31.079  1.00  0.00     0.010 A 
ATOM     63  C   UNL A   1      43.500  33.135  33.271  1.00  0.00     0.010 A 
ATOM     64  C   UNL A   1      44.114  35.322  31.641  1.00  0.00     0.020 A 
ATOM     65  C   UNL A   1      43.597  34.412  33.833  1.00  0.00     0.020 A 
ATOM     66  C   UNL A   1      43.936  35.493  33.017  1.00  0.00     0.054 A 
BRANCH  66  67
ATOM     67  S   UNL A   1      44.155  37.146  33.733  1.00  0.00     0.124 S 
ATOM     68  O   UNL A   1      43.446  37.984  32.771  1.00  0.00    -0.237 OA
ATOM     69  O   UNL A   1      43.520  37.018  35.043  1.00  0.00    -0.237 OA
ATOM     70  O   UNL A   1      45.605  37.322  33.763  1.00  0.00    -0.744 OA
ENDBRANCH  66  67
ENDBRANCH  47  61
BRANCH  48  71
ATOM     71  C   UNL A   1      42.895  23.760  28.042  1.00  0.00    -0.014 A 
ATOM     72  C   UNL A   1      42.327  22.696  28.763  1.00  0.00     0.010 A 
ATOM     73  C   UNL A   1      43.300  23.542  26.710  1.00  0.00     0.010 A 
ATOM     74  C   UNL A   1      42.152  21.446  28.162  1.00  0.00     0.020 A 
ATOM     75  C   UNL A   1      43.096  22.304  26.095  1.00  0.00     0.020 A 
ATOM     76  C   UNL A   1      42.525  21.262  26.827  1.00  0.00     0.054 A 
BRANCH  76  77
ATOM     77  S   UNL A   1      42.184  19.667  26.031  1.00  0.00     0.124 S 
ATOM     78  O   UNL A   1      43.069  19.710  24.872  1.00  0.00    -0.237 OA
ATOM     79  O   UNL A   1      42.550  18.710  27.072  1.00  0.00    -0.237 OA
ATOM     80  O   UNL A   1      40.755  19.733  25.733  1.00  0.00    -0.744 OA
ENDBRANCH  76  77
ENDBRANCH  48  71
BRANCH  60  81
ATOM     81  C   UNL A   1      48.280  27.515  30.402  1.00  0.00    -0.014 A 
ATOM     82  C   UNL A   1      49.188  27.810  29.370  1.00  0.00     0.010 A 
ATOM     83  C   UNL A   1      48.759  26.932  31.591  1.00  0.00     0.010 A 
ATOM     84  C   UNL A   1      50.540  27.483  29.504  1.00  0.00     0.020 A 
ATOM     85  C   UNL A   1      50.115  26.628  31.738  1.00  0.00     0.020 A 
ATOM     86  C   UNL A   1      50.993  26.886  30.684  1.00  0.00     0.054 A 
BRANCH  86  87
ATOM     87  S   UNL A   1      52.753  26.471  30.839  1.00  0.00     0.124 S 
ATOM     88  O   UNL A   1      52.704  25.231  31.609  1.00  0.00    -0.237 OA
ATOM     89  O   UNL A   1      53.175  26.330  29.447  1.00  0.00    -0.237 OA
ATOM     90  O   UNL A   1      53.318  27.620  31.541  1.00  0.00    -0.744 OA
ENDBRANCH  86  87
ENDBRANCH  60  81
ENDBRANCH  34  35
ENDBRANCH  27  29
ENDBRANCH  26  27
ENDBRANCH  25  26
ENDBRANCH  24  25
ENDBRANCH  23  24
ENDBRANCH   1  23
TORSDOF 23
ENDMDL
MODEL 3
REMARK VINA RESULT:      -9.5      0.875      2.451
REMARK SMILES CC1(C(=O)N[C@H](C(=O)OCCOCCOCCOC(=O)c2ccc(-c3c4nc(c(-c5ccc(S(=O)(=O)[O-])cc5)c5ccc([nH]5)c(-c5ccc(S(=O)(=O)[O-])cc5)c5nc(c(-c6ccc(S(=O)(=O)[O-])cc6)c6ccc3[nH]6)C=C5)C=C4)cc2)C2CC2)CCCC1
REMARK SMILES IDX 14 1 13 2 12 3 11 4 10 5 9 6 7 7 8 8 6 9 5 10 3 11 4 12 2 14
REMARK SMILES IDX 1 15 84 16 87 17 85 18 86 19 81 20 82 21 83 22 15 23 16 24
REMARK SMILES IDX 17 25 18 26 19 27 20 28 21 29 22 30 80 31 23 32 79 33 24 34
REMARK SMILES IDX 25 35 26 36 73 37 27 38 78 39 72 40 74 41 28 42 77 43 71 44
REMARK SMILES IDX 70 45 29 47 59 48 40 49 58 50 41 51 44 52 57 53 75 54 42 55
REMARK SMILES IDX 43 56 56 58 76 59 45 60 30 61 31 62 39 63 32 64 38 65 33 66
REMARK SMILES IDX 34 67 35 68 36 69 37 70 60 71 61 72 69 73 62 74 68 75 63 76
REMARK SMILES IDX 64 77 65 78 66 79 67 80 46 81 47 82 55 83 48 84 54 85 49 86
REMARK SMILES IDX 50 87 51 88 52 89 53 90
REMARK H PARENT 5 13 74 46 44 57
REMARK Flexibility Score: inf
ROOT
ATOM      1  C   UNL A   1      35.610  21.870  25.792  1.00  0.00     0.188 C 
ENDROOT
BRANCH   1   2
ATOM      2  C   UNL A   1      34.285  21.278  25.314  1.00  0.00     0.188 C 
BRANCH   2   3
ATOM      3  O   UNL A   1      33.189  21.248  26.221  1.00  0.00    -0.376 OA
BRANCH   3   4
ATOM      4  C   UNL A   1      32.921  22.414  26.982  1.00  0.00     0.202 C 
BRANCH   4   5
ATOM      5  C   UNL A   1      31.501  22.977  26.863  1.00  0.00     0.261 C 
BRANCH   5   6
ATOM      6  O   UNL A   1      31.343  24.350  27.290  1.00  0.00    -0.462 OA
BRANCH   6   7
ATOM      7  C   UNL A   1      30.686  25.142  26.399  1.00  0.00     0.329 C 
ATOM      8  O   UNL A   1      29.462  25.188  26.298  1.00  0.00    -0.250 OA
BRANCH   7   9
ATOM      9  C   UNL A   1      31.607  25.929  25.424  1.00  0.00     0.195 C 
BRANCH   9  10
ATOM     10  N   UNL A   1      32.939  26.373  25.852  1.00  0.00    -0.342 N 
ATOM     11  C   UNL A   1      33.410  27.628  26.150  1.00  0.00     0.226 C 
ATOM     12  O   UNL A   1      34.612  27.822  25.948  1.00  0.00    -0.274 OA
ATOM     13  H   UNL A   1      33.604  25.652  25.940  1.00  0.00     0.164 HD
BRANCH  11  14
ATOM     14  C   UNL A   1      32.527  28.712  26.817  1.00  0.00     0.046 C 
ATOM     15  C   UNL A   1      31.443  28.175  27.762  1.00  0.00     0.022 C 
ATOM     16  C   UNL A   1      31.816  29.612  25.766  1.00  0.00     0.016 C 
ATOM     17  C   UNL A   1      33.468  29.712  27.512  1.00  0.00     0.016 C 
ATOM     18  C   UNL A   1      31.723  30.980  26.429  1.00  0.00     0.001 C 
ATOM     19  C   UNL A   1      33.094  31.120  27.047  1.00  0.00     0.001 C 
ENDBRANCH  11  14
ENDBRANCH   9  10
BRANCH   9  20
ATOM     20  C   UNL A   1      31.795  25.064  24.178  1.00  0.00     0.023 C 
ATOM     21  C   UNL A   1      30.604  24.426  23.504  1.00  0.00     0.007 C 
ATOM     22  C   UNL A   1      31.383  25.484  22.781  1.00  0.00     0.007 C 
ENDBRANCH   9  20
ENDBRANCH   7   9
ENDBRANCH   6   7
ENDBRANCH   5   6
ENDBRANCH   4   5
ENDBRANCH   3   4
ENDBRANCH   2   3
ENDBRANCH   1   2
BRANCH   1  23
ATOM     23  O   UNL A   1      36.650  21.738  24.824  1.00  0.00    -0.376 OA
BRANCH  23  24
ATOM     24  C   UNL A   1      37.921  22.093  25.375  1.00  0.00     0.202 C 
BRANCH  24  25
ATOM     25  C   UNL A   1      37.924  23.568  25.777  1.00  0.00     0.261 C 
BRANCH  25  26
ATOM     26  O   UNL A   1      38.931  23.822  26.779  1.00  0.00    -0.460 OA
BRANCH  26  27
ATOM     27  C   UNL A   1      39.711  24.895  26.529  1.00  0.00     0.338 C 
ATOM     28  O   UNL A   1      40.170  25.190  25.429  1.00  0.00    -0.246 OA
BRANCH  27  29
ATOM     29  C   UNL A   1      39.947  25.717  27.748  1.00  0.00     0.060 A 
ATOM     30  C   UNL A   1      39.133  25.661  28.883  1.00  0.00     0.016 A 
ATOM     31  C   UNL A   1      40.981  26.654  27.707  1.00  0.00     0.016 A 
ATOM     32  C   UNL A   1      39.236  26.642  29.881  1.00  0.00     0.010 A 
ATOM     33  C   UNL A   1      41.150  27.565  28.754  1.00  0.00     0.010 A 
ATOM     34  C   UNL A   1      40.235  27.625  29.819  1.00  0.00    -0.014 A 
BRANCH  34  35
ATOM     35  C   UNL A   1      40.300  28.777  30.771  1.00  0.00     0.031 A 
ATOM     36  C   UNL A   1      41.315  28.751  31.893  1.00  0.00     0.074 A 
ATOM     37  C   UNL A   1      39.473  29.837  30.676  1.00  0.00     0.049 A 
ATOM     38  N   UNL A   1      41.363  29.460  32.994  1.00  0.00    -0.248 NA
ATOM     39  C   UNL A   1      42.407  27.772  31.766  1.00  0.00     0.031 C 
ATOM     40  C   UNL A   1      38.497  30.069  29.613  1.00  0.00     0.029 A 
ATOM     41  N   UNL A   1      39.322  30.924  31.507  1.00  0.00    -0.354 N 
ATOM     42  C   UNL A   1      42.433  28.952  33.727  1.00  0.00     0.074 A 
ATOM     43  C   UNL A   1      43.011  27.884  32.940  1.00  0.00     0.031 C 
ATOM     44  C   UNL A   1      37.873  31.237  29.836  1.00  0.00     0.029 A 
ATOM     45  C   UNL A   1      38.324  31.783  31.113  1.00  0.00     0.049 A 
ATOM     46  H   UNL A   1      39.876  31.072  32.307  1.00  0.00     0.167 HD
ATOM     47  C   UNL A   1      42.880  29.326  34.952  1.00  0.00     0.031 A 
ATOM     48  C   UNL A   1      37.782  32.854  31.729  1.00  0.00     0.031 A 
ATOM     49  C   UNL A   1      42.328  30.417  35.714  1.00  0.00     0.049 A 
ATOM     50  C   UNL A   1      38.272  33.247  33.096  1.00  0.00     0.074 A 
ATOM     51  C   UNL A   1      42.692  30.865  36.972  1.00  0.00     0.029 A 
ATOM     52  N   UNL A   1      41.308  31.248  35.275  1.00  0.00    -0.354 N 
ATOM     53  N   UNL A   1      39.205  32.688  33.830  1.00  0.00    -0.248 NA
ATOM     54  C   UNL A   1      37.621  34.404  33.724  1.00  0.00     0.031 C 
ATOM     55  C   UNL A   1      41.864  31.944  37.310  1.00  0.00     0.029 A 
ATOM     56  C   UNL A   1      41.025  32.203  36.238  1.00  0.00     0.049 A 
ATOM     57  H   UNL A   1      40.852  31.171  34.407  1.00  0.00     0.167 HD
ATOM     58  C   UNL A   1      39.259  33.431  35.005  1.00  0.00     0.074 A 
ATOM     59  C   UNL A   1      38.281  34.493  34.871  1.00  0.00     0.031 C 
ATOM     60  C   UNL A   1      40.042  33.247  36.097  1.00  0.00     0.031 A 
BRANCH  47  61
ATOM     61  C   UNL A   1      43.967  28.483  35.575  1.00  0.00    -0.014 A 
ATOM     62  C   UNL A   1      43.682  27.335  36.336  1.00  0.00     0.010 A 
ATOM     63  C   UNL A   1      45.310  28.874  35.411  1.00  0.00     0.010 A 
ATOM     64  C   UNL A   1      44.711  26.639  36.981  1.00  0.00     0.020 A 
ATOM     65  C   UNL A   1      46.344  28.164  36.028  1.00  0.00     0.020 A 
ATOM     66  C   UNL A   1      46.034  27.069  36.836  1.00  0.00     0.054 A 
BRANCH  66  67
ATOM     67  S   UNL A   1      47.348  26.181  37.718  1.00  0.00     0.124 S 
ATOM     68  O   UNL A   1      46.684  24.925  38.057  1.00  0.00    -0.237 OA
ATOM     69  O   UNL A   1      48.403  26.084  36.713  1.00  0.00    -0.237 OA
ATOM     70  O   UNL A   1      47.651  27.051  38.853  1.00  0.00    -0.744 OA
ENDBRANCH  66  67
ENDBRANCH  47  61
BRANCH  48  71
ATOM     71  C   UNL A   1      36.669  33.593  31.069  1.00  0.00    -0.014 A 
ATOM     72  C   UNL A   1      36.711  33.877  29.693  1.00  0.00     0.010 A 
ATOM     73  C   UNL A   1      35.531  33.968  31.809  1.00  0.00     0.010 A 
ATOM     74  C   UNL A   1      35.632  34.507  29.067  1.00  0.00     0.020 A 
ATOM     75  C   UNL A   1      34.436  34.567  31.180  1.00  0.00     0.020 A 
ATOM     76  C   UNL A   1      34.495  34.836  29.812  1.00  0.00     0.054 A 
BRANCH  76  77
ATOM     77  S   UNL A   1      33.061  35.548  28.958  1.00  0.00     0.124 S 
ATOM     78  O   UNL A   1      33.673  36.619  28.178  1.00  0.00    -0.237 OA
ATOM     79  O   UNL A   1      32.555  34.414  28.190  1.00  0.00    -0.237 OA
ATOM     80  O   UNL A   1      32.196  35.985  30.052  1.00  0.00    -0.744 OA
ENDBRANCH  76  77
ENDBRANCH  48  71
BRANCH  60  81
ATOM     81  C   UNL A   1      39.897  34.242  37.220  1.00  0.00    -0.014 A 
ATOM     82  C   UNL A   1      39.093  33.971  38.342  1.00  0.00     0.010 A 
ATOM     83  C   UNL A   1      40.590  35.465  37.153  1.00  0.00     0.010 A 
ATOM     84  C   UNL A   1      38.945  34.926  39.352  1.00  0.00     0.020 A 
ATOM     85  C   UNL A   1      40.465  36.410  38.174  1.00  0.00     0.020 A 
ATOM     86  C   UNL A   1      39.626  36.143  39.257  1.00  0.00     0.054 A 
BRANCH  86  87
ATOM     87  S   UNL A   1      39.423  37.368  40.580  1.00  0.00     0.124 S 
ATOM     88  O   UNL A   1      40.806  37.745  40.858  1.00  0.00    -0.237 OA
ATOM     89  O   UNL A   1      38.605  38.398  39.944  1.00  0.00    -0.237 OA
ATOM     90  O   UNL A   1      38.755  36.621  41.643  1.00  0.00    -0.744 OA
ENDBRANCH  86  87
ENDBRANCH  60  81
ENDBRANCH  34  35
ENDBRANCH  27  29
ENDBRANCH  26  27
ENDBRANCH  25  26
ENDBRANCH  24  25
ENDBRANCH  23  24
ENDBRANCH   1  23
TORSDOF 23
ENDMDL
