MODEL 1
REMARK VINA RESULT:     -10.0      0.000      0.000
REMARK SMILES O=C(OCCOCCOCCOC(=O)[C@H]1[C@H]2C[C@@H]3[C@@H](OC(=O)[C@@H]31)[C@@H]2Sc1ccccc1)c1ccc(-c2c3nc(c(-c4ccc(S(=O)(=O)[O-])cc4)c4ccc([nH]4)c(-c4ccc(S(=O)(=O)[O-])cc4)c4nc(c(-c5ccc(S(=O)(=O)[O-])cc5)c5ccc2[nH]5)C=C4)C=C3)cc1
REMARK SMILES IDX 7 1 6 2 5 3 4 4 3 5 2 6 1 7 32 8 33 9 91 10 34 11 90 12
REMARK SMILES IDX 35 13 36 14 37 15 84 16 38 17 89 18 83 19 85 20 39 21 88 22
REMARK SMILES IDX 82 23 81 24 40 26 70 27 51 28 69 29 52 30 55 31 68 32 86 33
REMARK SMILES IDX 53 34 54 35 67 37 87 38 56 39 41 40 42 41 50 42 43 43 49 44
REMARK SMILES IDX 44 45 45 46 46 47 47 48 48 49 71 50 72 51 80 52 73 53 79 54
REMARK SMILES IDX 74 55 75 56 76 57 77 58 78 59 57 60 58 61 66 62 59 63 65 64
REMARK SMILES IDX 60 65 61 66 62 67 63 68 64 69 8 70 9 71 10 72 11 73 12 74
REMARK SMILES IDX 13 75 14 76 15 77 16 78 23 79 17 80 24 81 18 82 21 83 19 84
REMARK SMILES IDX 20 85 22 86 25 87 26 88 27 89 31 90 28 91 30 92 29 93
REMARK H PARENT 85 25 55 36
REMARK Flexibility Score: inf
ROOT
ATOM      1  C   UNL A   1      40.080  22.267  27.127  1.00  0.00     0.188 C 
ENDROOT
BRANCH   1   2
ATOM      2  O   UNL A   1      41.103  21.294  26.910  1.00  0.00    -0.376 OA
BRANCH   2   3
ATOM      3  C   UNL A   1      42.342  21.775  26.403  1.00  0.00     0.202 C 
BRANCH   3   4
ATOM      4  C   UNL A   1      43.203  22.509  27.435  1.00  0.00     0.261 C 
BRANCH   4   5
ATOM      5  O   UNL A   1      43.640  23.785  26.935  1.00  0.00    -0.460 OA
BRANCH   5   6
ATOM      6  C   UNL A   1      42.815  24.792  26.551  1.00  0.00     0.338 C 
ATOM      7  O   UNL A   1      42.566  24.928  25.355  1.00  0.00    -0.246 OA
BRANCH   6   8
ATOM      8  C   UNL A   1      42.408  25.887  27.502  1.00  0.00     0.060 A 
ATOM      9  C   UNL A   1      43.098  27.083  27.726  1.00  0.00     0.016 A 
ATOM     10  C   UNL A   1      41.217  25.680  28.225  1.00  0.00     0.016 A 
ATOM     11  C   UNL A   1      42.653  28.020  28.659  1.00  0.00     0.010 A 
ATOM     12  C   UNL A   1      40.764  26.616  29.165  1.00  0.00     0.010 A 
ATOM     13  C   UNL A   1      41.504  27.781  29.406  1.00  0.00    -0.014 A 
BRANCH  13  14
ATOM     14  C   UNL A   1      41.202  28.660  30.557  1.00  0.00     0.031 A 
ATOM     15  C   UNL A   1      42.007  28.480  31.809  1.00  0.00     0.074 A 
ATOM     16  C   UNL A   1      40.311  29.663  30.462  1.00  0.00     0.049 A 
ATOM     17  N   UNL A   1      41.976  29.180  32.909  1.00  0.00    -0.248 NA
ATOM     18  C   UNL A   1      43.018  27.408  31.796  1.00  0.00     0.031 C 
ATOM     19  C   UNL A   1      39.601  30.045  29.245  1.00  0.00     0.029 A 
ATOM     20  N   UNL A   1      39.852  30.550  31.401  1.00  0.00    -0.354 N 
ATOM     21  C   UNL A   1      43.002  28.675  33.696  1.00  0.00     0.074 A 
ATOM     22  C   UNL A   1      43.592  27.567  32.978  1.00  0.00     0.031 C 
ATOM     23  C   UNL A   1      38.731  31.028  29.530  1.00  0.00     0.029 A 
ATOM     24  C   UNL A   1      38.835  31.354  30.944  1.00  0.00     0.049 A 
ATOM     25  H   UNL A   1      40.216  30.604  32.314  1.00  0.00     0.167 HD
ATOM     26  C   UNL A   1      43.433  29.119  34.898  1.00  0.00     0.031 A 
ATOM     27  C   UNL A   1      38.067  32.252  31.593  1.00  0.00     0.031 A 
ATOM     28  C   UNL A   1      42.799  30.181  35.628  1.00  0.00     0.049 A 
ATOM     29  C   UNL A   1      38.415  32.574  33.019  1.00  0.00     0.074 A 
ATOM     30  C   UNL A   1      43.118  30.678  36.877  1.00  0.00     0.029 A 
ATOM     31  N   UNL A   1      41.696  30.893  35.178  1.00  0.00    -0.354 N 
ATOM     32  N   UNL A   1      39.401  32.101  33.746  1.00  0.00    -0.248 NA
ATOM     33  C   UNL A   1      37.589  33.577  33.700  1.00  0.00     0.031 C 
ATOM     34  C   UNL A   1      42.172  31.656  37.207  1.00  0.00     0.029 A 
ATOM     35  C   UNL A   1      41.297  31.802  36.140  1.00  0.00     0.049 A 
ATOM     36  H   UNL A   1      41.262  30.769  34.304  1.00  0.00     0.167 HD
ATOM     37  C   UNL A   1      39.352  32.795  34.947  1.00  0.00     0.074 A 
ATOM     38  C   UNL A   1      38.228  33.707  34.856  1.00  0.00     0.031 C 
ATOM     39  C   UNL A   1      40.177  32.703  36.019  1.00  0.00     0.031 A 
BRANCH  26  40
ATOM     40  C   UNL A   1      44.620  28.417  35.487  1.00  0.00    -0.014 A 
ATOM     41  C   UNL A   1      44.454  27.438  36.486  1.00  0.00     0.010 A 
ATOM     42  C   UNL A   1      45.916  28.761  35.069  1.00  0.00     0.010 A 
ATOM     43  C   UNL A   1      45.569  26.850  37.089  1.00  0.00     0.020 A 
ATOM     44  C   UNL A   1      47.032  28.161  35.656  1.00  0.00     0.020 A 
ATOM     45  C   UNL A   1      46.851  27.224  36.676  1.00  0.00     0.054 A 
BRANCH  45  46
ATOM     46  S   UNL A   1      48.283  26.462  37.488  1.00  0.00     0.124 S 
ATOM     47  O   UNL A   1      49.353  27.398  37.149  1.00  0.00    -0.237 OA
ATOM     48  O   UNL A   1      47.886  26.446  38.893  1.00  0.00    -0.237 OA
ATOM     49  O   UNL A   1      48.381  25.149  36.856  1.00  0.00    -0.744 OA
ENDBRANCH  45  46
ENDBRANCH  26  40
BRANCH  27  50
ATOM     50  C   UNL A   1      36.908  32.893  30.910  1.00  0.00    -0.014 A 
ATOM     51  C   UNL A   1      37.089  33.895  29.941  1.00  0.00     0.010 A 
ATOM     52  C   UNL A   1      35.596  32.503  31.245  1.00  0.00     0.010 A 
ATOM     53  C   UNL A   1      35.982  34.520  29.351  1.00  0.00     0.020 A 
ATOM     54  C   UNL A   1      34.488  33.111  30.643  1.00  0.00     0.020 A 
ATOM     55  C   UNL A   1      34.689  34.128  29.710  1.00  0.00     0.054 A 
BRANCH  55  56
ATOM     56  S   UNL A   1      33.274  34.965  28.939  1.00  0.00     0.124 S 
ATOM     57  O   UNL A   1      33.915  36.094  28.270  1.00  0.00    -0.237 OA
ATOM     58  O   UNL A   1      32.737  33.933  28.055  1.00  0.00    -0.237 OA
ATOM     59  O   UNL A   1      32.417  35.318  30.070  1.00  0.00    -0.744 OA
ENDBRANCH  55  56
ENDBRANCH  27  50
BRANCH  39  60
ATOM     60  C   UNL A   1      39.926  33.649  37.159  1.00  0.00    -0.014 A 
ATOM     61  C   UNL A   1      40.174  35.025  37.032  1.00  0.00     0.010 A 
ATOM     62  C   UNL A   1      39.374  33.152  38.354  1.00  0.00     0.010 A 
ATOM     63  C   UNL A   1      39.894  35.890  38.092  1.00  0.00     0.020 A 
ATOM     64  C   UNL A   1      39.069  34.017  39.406  1.00  0.00     0.020 A 
ATOM     65  C   UNL A   1      39.342  35.379  39.272  1.00  0.00     0.054 A 
BRANCH  65  66
ATOM     66  S   UNL A   1      38.929  36.528  40.612  1.00  0.00     0.124 S 
ATOM     67  O   UNL A   1      37.892  35.796  41.332  1.00  0.00    -0.237 OA
ATOM     68  O   UNL A   1      40.202  36.674  41.316  1.00  0.00    -0.237 OA
ATOM     69  O   UNL A   1      38.474  37.727  39.909  1.00  0.00    -0.744 OA
ENDBRANCH  65  66
ENDBRANCH  39  60
ENDBRANCH  13  14
ENDBRANCH   6   8
ENDBRANCH   5   6
ENDBRANCH   4   5
ENDBRANCH   3   4
ENDBRANCH   2   3
ENDBRANCH   1   2
BRANCH   1  70
ATOM     70  C   UNL A   1      38.860  22.173  26.211  1.00  0.00     0.188 C 
BRANCH  70  71
ATOM     71  O   UNL A   1      38.972  21.085  25.303  1.00  0.00    -0.376 OA
BRANCH  71  72
ATOM     72  C   UNL A   1      37.798  20.283  25.179  1.00  0.00     0.202 C 
BRANCH  72  73
ATOM     73  C   UNL A   1      36.489  21.072  25.085  1.00  0.00     0.261 C 
BRANCH  73  74
ATOM     74  O   UNL A   1      36.525  22.362  24.432  1.00  0.00    -0.463 OA
BRANCH  74  75
ATOM     75  C   UNL A   1      35.512  22.808  23.655  1.00  0.00     0.310 C 
ATOM     76  O   UNL A   1      35.633  23.204  22.505  1.00  0.00    -0.252 OA
BRANCH  75  77
ATOM     77  C   UNL A   1      34.180  22.797  24.395  1.00  0.00     0.118 C 
ATOM     78  C   UNL A   1      33.538  24.209  24.614  1.00  0.00     0.022 C 
ATOM     79  C   UNL A   1      33.036  22.046  23.679  1.00  0.00     0.120 C 
ATOM     80  C   UNL A   1      32.799  24.399  23.291  1.00  0.00     0.014 C 
ATOM     81  C   UNL A   1      32.367  24.022  25.630  1.00  0.00     0.097 C 
ATOM     82  C   UNL A   1      31.992  23.128  23.431  1.00  0.00     0.047 C 
ATOM     83  C   UNL A   1      32.356  21.153  24.669  1.00  0.00     0.310 C 
ATOM     84  C   UNL A   1      31.347  23.189  24.812  1.00  0.00     0.194 C 
ATOM     85  O   UNL A   1      31.325  21.829  25.257  1.00  0.00    -0.461 OA
ATOM     86  O   UNL A   1      32.730  20.034  24.966  1.00  0.00    -0.252 OA
BRANCH  81  87
ATOM     87  S   UNL A   1      31.690  25.523  26.460  1.00  0.00    -0.119 SA
BRANCH  87  88
ATOM     88  C   UNL A   1      30.834  26.423  25.187  1.00  0.00     0.008 A 
ATOM     89  C   UNL A   1      29.524  26.052  24.864  1.00  0.00     0.015 A 
ATOM     90  C   UNL A   1      31.455  27.432  24.442  1.00  0.00     0.015 A 
ATOM     91  C   UNL A   1      28.829  26.712  23.848  1.00  0.00     0.001 A 
ATOM     92  C   UNL A   1      30.756  28.103  23.436  1.00  0.00     0.001 A 
ATOM     93  C   UNL A   1      29.441  27.746  23.142  1.00  0.00     0.000 A 
ENDBRANCH  87  88
ENDBRANCH  81  87
ENDBRANCH  75  77
ENDBRANCH  74  75
ENDBRANCH  73  74
ENDBRANCH  72  73
ENDBRANCH  71  72
ENDBRANCH  70  71
ENDBRANCH   1  70
TORSDOF 22
ENDMDL
MODEL 2
REMARK VINA RESULT:      -9.7      2.031      2.853
REMARK SMILES O=C(OCCOCCOCCOC(=O)[C@H]1[C@H]2C[C@@H]3[C@@H](OC(=O)[C@@H]31)[C@@H]2Sc1ccccc1)c1ccc(-c2c3nc(c(-c4ccc(S(=O)(=O)[O-])cc4)c4ccc([nH]4)c(-c4ccc(S(=O)(=O)[O-])cc4)c4nc(c(-c5ccc(S(=O)(=O)[O-])cc5)c5ccc2[nH]5)C=C4)C=C3)cc1
REMARK SMILES IDX 7 1 6 2 5 3 4 4 3 5 2 6 1 7 32 8 33 9 91 10 34 11 90 12
REMARK SMILES IDX 35 13 36 14 37 15 84 16 38 17 89 18 83 19 85 20 39 21 88 22
REMARK SMILES IDX 82 23 81 24 40 26 70 27 51 28 69 29 52 30 55 31 68 32 86 33
REMARK SMILES IDX 53 34 54 35 67 37 87 38 56 39 41 40 42 41 50 42 43 43 49 44
REMARK SMILES IDX 44 45 45 46 46 47 47 48 48 49 71 50 72 51 80 52 73 53 79 54
REMARK SMILES IDX 74 55 75 56 76 57 77 58 78 59 57 60 58 61 66 62 59 63 65 64
REMARK SMILES IDX 60 65 61 66 62 67 63 68 64 69 8 70 9 71 10 72 11 73 12 74
REMARK SMILES IDX 13 75 14 76 15 77 16 78 23 79 17 80 24 81 18 82 21 83 19 84
REMARK SMILES IDX 20 85 22 86 25 87 26 88 27 89 31 90 28 91 30 92 29 93
REMARK H PARENT 85 25 55 36
REMARK Flexibility Score: inf
ROOT
ATOM      1  C   UNL A   1      38.473  22.460  25.882  1.00  0.00     0.188 C 
ENDROOT
BRANCH   1   2
ATOM      2  O   UNL A   1      39.083  21.350  26.542  1.00  0.00    -0.376 OA
BRANCH   2   3
ATOM      3  C   UNL A   1      40.281  20.845  25.965  1.00  0.00     0.202 C 
BRANCH   3   4
ATOM      4  C   UNL A   1      41.496  20.889  26.896  1.00  0.00     0.261 C 
BRANCH   4   5
ATOM      5  O   UNL A   1      42.622  21.510  26.253  1.00  0.00    -0.460 OA
BRANCH   5   6
ATOM      6  C   UNL A   1      42.620  22.757  25.717  1.00  0.00     0.338 C 
ATOM      7  O   UNL A   1      43.000  22.902  24.557  1.00  0.00    -0.246 OA
BRANCH   6   8
ATOM      8  C   UNL A   1      42.415  23.983  26.568  1.00  0.00     0.060 A 
ATOM      9  C   UNL A   1      43.167  25.161  26.511  1.00  0.00     0.016 A 
ATOM     10  C   UNL A   1      41.363  23.931  27.502  1.00  0.00     0.016 A 
ATOM     11  C   UNL A   1      42.918  26.231  27.372  1.00  0.00     0.010 A 
ATOM     12  C   UNL A   1      41.107  25.000  28.371  1.00  0.00     0.010 A 
ATOM     13  C   UNL A   1      41.909  26.146  28.327  1.00  0.00    -0.014 A 
BRANCH  13  14
ATOM     14  C   UNL A   1      41.836  27.179  29.384  1.00  0.00     0.031 A 
ATOM     15  C   UNL A   1      42.835  27.112  30.501  1.00  0.00     0.074 A 
ATOM     16  C   UNL A   1      40.979  28.211  29.302  1.00  0.00     0.049 A 
ATOM     17  N   UNL A   1      43.015  27.945  31.489  1.00  0.00    -0.248 NA
ATOM     18  C   UNL A   1      43.792  25.992  30.466  1.00  0.00     0.031 C 
ATOM     19  C   UNL A   1      40.087  28.476  28.178  1.00  0.00     0.029 A 
ATOM     20  N   UNL A   1      40.715  29.233  30.178  1.00  0.00    -0.354 N 
ATOM     21  C   UNL A   1      44.140  27.485  32.158  1.00  0.00     0.074 A 
ATOM     22  C   UNL A   1      44.562  26.265  31.508  1.00  0.00     0.031 C 
ATOM     23  C   UNL A   1      39.312  29.535  28.467  1.00  0.00     0.029 A 
ATOM     24  C   UNL A   1      39.664  30.030  29.790  1.00  0.00     0.049 A 
ATOM     25  H   UNL A   1      41.230  29.381  31.004  1.00  0.00     0.167 HD
ATOM     26  C   UNL A   1      44.782  28.052  33.204  1.00  0.00     0.031 A 
ATOM     27  C   UNL A   1      39.049  31.043  30.429  1.00  0.00     0.031 A 
ATOM     28  C   UNL A   1      44.318  29.231  33.880  1.00  0.00     0.049 A 
ATOM     29  C   UNL A   1      39.643  31.522  31.724  1.00  0.00     0.074 A 
ATOM     30  C   UNL A   1      44.860  29.862  34.983  1.00  0.00     0.029 A 
ATOM     31  N   UNL A   1      43.181  29.942  33.525  1.00  0.00    -0.354 N 
ATOM     32  N   UNL A   1      40.721  31.088  32.337  1.00  0.00    -0.248 NA
ATOM     33  C   UNL A   1      38.979  32.647  32.391  1.00  0.00     0.031 C 
ATOM     34  C   UNL A   1      44.018  30.925  35.330  1.00  0.00     0.029 A 
ATOM     35  C   UNL A   1      42.982  30.986  34.409  1.00  0.00     0.049 A 
ATOM     36  H   UNL A   1      42.601  29.734  32.757  1.00  0.00     0.167 HD
ATOM     37  C   UNL A   1      40.899  31.930  33.427  1.00  0.00     0.074 A 
ATOM     38  C   UNL A   1      39.808  32.884  33.399  1.00  0.00     0.031 C 
ATOM     39  C   UNL A   1      41.889  31.926  34.353  1.00  0.00     0.031 A 
BRANCH  26  40
ATOM     40  C   UNL A   1      46.027  27.363  33.681  1.00  0.00    -0.014 A 
ATOM     41  C   UNL A   1      47.180  27.319  32.874  1.00  0.00     0.010 A 
ATOM     42  C   UNL A   1      46.035  26.720  34.930  1.00  0.00     0.010 A 
ATOM     43  C   UNL A   1      48.305  26.603  33.290  1.00  0.00     0.020 A 
ATOM     44  C   UNL A   1      47.166  26.019  35.358  1.00  0.00     0.020 A 
ATOM     45  C   UNL A   1      48.285  25.949  34.526  1.00  0.00     0.054 A 
BRANCH  45  46
ATOM     46  S   UNL A   1      49.751  25.010  35.035  1.00  0.00     0.124 S 
ATOM     47  O   UNL A   1      50.689  25.307  33.954  1.00  0.00    -0.237 OA
ATOM     48  O   UNL A   1      50.079  25.601  36.330  1.00  0.00    -0.237 OA
ATOM     49  O   UNL A   1      49.277  23.629  35.086  1.00  0.00    -0.744 OA
ENDBRANCH  45  46
ENDBRANCH  26  40
BRANCH  27  50
ATOM     50  C   UNL A   1      37.814  31.658  29.864  1.00  0.00    -0.014 A 
ATOM     51  C   UNL A   1      37.867  32.813  29.066  1.00  0.00     0.010 A 
ATOM     52  C   UNL A   1      36.557  31.084  30.143  1.00  0.00     0.010 A 
ATOM     53  C   UNL A   1      36.689  33.403  28.590  1.00  0.00     0.020 A 
ATOM     54  C   UNL A   1      35.379  31.659  29.653  1.00  0.00     0.020 A 
ATOM     55  C   UNL A   1      35.452  32.826  28.892  1.00  0.00     0.054 A 
BRANCH  55  56
ATOM     56  S   UNL A   1      33.941  33.619  28.273  1.00  0.00     0.124 S 
ATOM     57  O   UNL A   1      33.336  34.125  29.503  1.00  0.00    -0.237 OA
ATOM     58  O   UNL A   1      34.464  34.637  27.365  1.00  0.00    -0.237 OA
ATOM     59  O   UNL A   1      33.213  32.529  27.626  1.00  0.00    -0.744 OA
ENDBRANCH  55  56
ENDBRANCH  27  50
BRANCH  39  60
ATOM     60  C   UNL A   1      41.867  33.020  35.382  1.00  0.00    -0.014 A 
ATOM     61  C   UNL A   1      41.267  32.828  36.637  1.00  0.00     0.010 A 
ATOM     62  C   UNL A   1      42.515  34.237  35.104  1.00  0.00     0.010 A 
ATOM     63  C   UNL A   1      41.296  33.846  37.593  1.00  0.00     0.020 A 
ATOM     64  C   UNL A   1      42.568  35.248  36.065  1.00  0.00     0.020 A 
ATOM     65  C   UNL A   1      41.948  35.049  37.299  1.00  0.00     0.054 A 
BRANCH  65  66
ATOM     66  S   UNL A   1      42.026  36.334  38.577  1.00  0.00     0.124 S 
ATOM     67  O   UNL A   1      42.468  35.575  39.743  1.00  0.00    -0.237 OA
ATOM     68  O   UNL A   1      43.003  37.274  38.030  1.00  0.00    -0.237 OA
ATOM     69  O   UNL A   1      40.655  36.838  38.642  1.00  0.00    -0.744 OA
ENDBRANCH  65  66
ENDBRANCH  39  60
ENDBRANCH  13  14
ENDBRANCH   6   8
ENDBRANCH   5   6
ENDBRANCH   4   5
ENDBRANCH   3   4
ENDBRANCH   2   3
ENDBRANCH   1   2
BRANCH   1  70
ATOM     70  C   UNL A   1      37.322  22.126  24.933  1.00  0.00     0.188 C 
BRANCH  70  71
ATOM     71  O   UNL A   1      36.657  20.930  25.319  1.00  0.00    -0.376 OA
BRANCH  71  72
ATOM     72  C   UNL A   1      35.252  21.063  25.525  1.00  0.00     0.202 C 
BRANCH  72  73
ATOM     73  C   UNL A   1      34.733  22.503  25.496  1.00  0.00     0.261 C 
BRANCH  73  74
ATOM     74  O   UNL A   1      33.669  22.818  24.569  1.00  0.00    -0.463 OA
BRANCH  74  75
ATOM     75  C   UNL A   1      33.699  23.914  23.777  1.00  0.00     0.310 C 
ATOM     76  O   UNL A   1      34.399  24.042  22.784  1.00  0.00    -0.252 OA
BRANCH  75  77
ATOM     77  C   UNL A   1      32.772  25.011  24.288  1.00  0.00     0.118 C 
ATOM     78  C   UNL A   1      32.492  26.165  23.267  1.00  0.00     0.022 C 
ATOM     79  C   UNL A   1      31.339  24.552  24.635  1.00  0.00     0.120 C 
ATOM     80  C   UNL A   1      31.339  25.568  22.465  1.00  0.00     0.014 C 
ATOM     81  C   UNL A   1      31.792  27.313  24.061  1.00  0.00     0.097 C 
ATOM     82  C   UNL A   1      30.462  25.348  23.677  1.00  0.00     0.047 C 
ATOM     83  C   UNL A   1      30.965  25.116  25.970  1.00  0.00     0.310 C 
ATOM     84  C   UNL A   1      30.420  26.684  24.412  1.00  0.00     0.194 C 
ATOM     85  O   UNL A   1      30.360  26.328  25.797  1.00  0.00    -0.461 OA
ATOM     86  O   UNL A   1      31.246  24.611  27.041  1.00  0.00    -0.252 OA
BRANCH  81  87
ATOM     87  S   UNL A   1      31.731  28.987  23.292  1.00  0.00    -0.119 SA
BRANCH  87  88
ATOM     88  C   UNL A   1      30.016  29.462  23.326  1.00  0.00     0.008 A 
ATOM     89  C   UNL A   1      29.067  28.598  22.768  1.00  0.00     0.015 A 
ATOM     90  C   UNL A   1      29.597  30.704  23.816  1.00  0.00     0.015 A 
ATOM     91  C   UNL A   1      27.715  28.948  22.746  1.00  0.00     0.001 A 
ATOM     92  C   UNL A   1      28.243  31.049  23.807  1.00  0.00     0.001 A 
ATOM     93  C   UNL A   1      27.302  30.169  23.276  1.00  0.00     0.000 A 
ENDBRANCH  87  88
ENDBRANCH  81  87
ENDBRANCH  75  77
ENDBRANCH  74  75
ENDBRANCH  73  74
ENDBRANCH  72  73
ENDBRANCH  71  72
ENDBRANCH  70  71
ENDBRANCH   1  70
TORSDOF 22
ENDMDL
MODEL 3
REMARK VINA RESULT:      -9.6      5.139      6.540
REMARK SMILES O=C(OCCOCCOCCOC(=O)[C@H]1[C@H]2C[C@@H]3[C@@H](OC(=O)[C@@H]31)[C@@H]2Sc1ccccc1)c1ccc(-c2c3nc(c(-c4ccc(S(=O)(=O)[O-])cc4)c4ccc([nH]4)c(-c4ccc(S(=O)(=O)[O-])cc4)c4nc(c(-c5ccc(S(=O)(=O)[O-])cc5)c5ccc2[nH]5)C=C4)C=C3)cc1
REMARK SMILES IDX 7 1 6 2 5 3 4 4 3 5 2 6 1 7 32 8 33 9 91 10 34 11 90 12
REMARK SMILES IDX 35 13 36 14 37 15 84 16 38 17 89 18 83 19 85 20 39 21 88 22
REMARK SMILES IDX 82 23 81 24 40 26 70 27 51 28 69 29 52 30 55 31 68 32 86 33
REMARK SMILES IDX 53 34 54 35 67 37 87 38 56 39 41 40 42 41 50 42 43 43 49 44
REMARK SMILES IDX 44 45 45 46 46 47 47 48 48 49 71 50 72 51 80 52 73 53 79 54
REMARK SMILES IDX 74 55 75 56 76 57 77 58 78 59 57 60 58 61 66 62 59 63 65 64
REMARK SMILES IDX 60 65 61 66 62 67 63 68 64 69 8 70 9 71 10 72 11 73 12 74
REMARK SMILES IDX 13 75 14 76 15 77 16 78 23 79 17 80 24 81 18 82 21 83 19 84
REMARK SMILES IDX 20 85 22 86 25 87 26 88 27 89 31 90 28 91 30 92 29 93
REMARK H PARENT 85 25 55 36
REMARK Flexibility Score: inf
ROOT
ATOM      1  C   UNL A   1      37.919  23.564  25.890  1.00  0.00     0.188 C 
ENDROOT
BRANCH   1   2
ATOM      2  O   UNL A   1      38.206  22.208  26.231  1.00  0.00    -0.376 OA
BRANCH   2   3
ATOM      3  C   UNL A   1      39.487  21.714  25.854  1.00  0.00     0.202 C 
BRANCH   3   4
ATOM      4  C   UNL A   1      40.338  21.212  27.025  1.00  0.00     0.261 C 
BRANCH   4   5
ATOM      5  O   UNL A   1      41.685  21.706  26.938  1.00  0.00    -0.460 OA
BRANCH   5   6
ATOM      6  C   UNL A   1      42.085  22.736  26.149  1.00  0.00     0.338 C 
ATOM      7  O   UNL A   1      42.561  22.484  25.045  1.00  0.00    -0.246 OA
BRANCH   6   8
ATOM      8  C   UNL A   1      42.201  24.140  26.681  1.00  0.00     0.060 A 
ATOM      9  C   UNL A   1      42.218  25.312  25.918  1.00  0.00     0.016 A 
ATOM     10  C   UNL A   1      42.296  24.276  28.080  1.00  0.00     0.016 A 
ATOM     11  C   UNL A   1      42.366  26.568  26.509  1.00  0.00     0.010 A 
ATOM     12  C   UNL A   1      42.446  25.533  28.681  1.00  0.00     0.010 A 
ATOM     13  C   UNL A   1      42.512  26.685  27.888  1.00  0.00    -0.014 A 
BRANCH  13  14
ATOM     14  C   UNL A   1      42.921  27.988  28.456  1.00  0.00     0.031 A 
ATOM     15  C   UNL A   1      44.389  28.268  28.587  1.00  0.00     0.074 A 
ATOM     16  C   UNL A   1      42.021  28.943  28.749  1.00  0.00     0.049 A 
ATOM     17  N   UNL A   1      44.982  29.362  28.980  1.00  0.00    -0.248 NA
ATOM     18  C   UNL A   1      45.306  27.195  28.166  1.00  0.00     0.031 C 
ATOM     19  C   UNL A   1      40.586  28.851  28.496  1.00  0.00     0.029 A 
ATOM     20  N   UNL A   1      42.175  30.180  29.319  1.00  0.00    -0.354 N 
ATOM     21  C   UNL A   1      46.338  29.132  28.797  1.00  0.00     0.074 A 
ATOM     22  C   UNL A   1      46.486  27.774  28.322  1.00  0.00     0.031 C 
ATOM     23  C   UNL A   1      39.979  29.944  28.989  1.00  0.00     0.029 A 
ATOM     24  C   UNL A   1      40.984  30.817  29.577  1.00  0.00     0.049 A 
ATOM     25  H   UNL A   1      43.053  30.574  29.523  1.00  0.00     0.167 HD
ATOM     26  C   UNL A   1      47.365  29.991  28.978  1.00  0.00     0.031 A 
ATOM     27  C   UNL A   1      40.728  31.974  30.219  1.00  0.00     0.031 A 
ATOM     28  C   UNL A   1      47.211  31.317  29.508  1.00  0.00     0.049 A 
ATOM     29  C   UNL A   1      41.898  32.824  30.628  1.00  0.00     0.074 A 
ATOM     30  C   UNL A   1      48.187  32.255  29.783  1.00  0.00     0.029 A 
ATOM     31  N   UNL A   1      45.995  31.882  29.866  1.00  0.00    -0.354 N 
ATOM     32  N   UNL A   1      43.177  32.602  30.431  1.00  0.00    -0.248 NA
ATOM     33  C   UNL A   1      41.600  34.095  31.298  1.00  0.00     0.031 C 
ATOM     34  C   UNL A   1      47.566  33.369  30.360  1.00  0.00     0.029 A 
ATOM     35  C   UNL A   1      46.198  33.143  30.395  1.00  0.00     0.049 A 
ATOM     36  H   UNL A   1      45.117  31.449  29.760  1.00  0.00     0.167 HD
ATOM     37  C   UNL A   1      43.833  33.735  30.895  1.00  0.00     0.074 A 
ATOM     38  C   UNL A   1      42.810  34.630  31.400  1.00  0.00     0.031 C 
ATOM     39  C   UNL A   1      45.159  34.016  30.884  1.00  0.00     0.031 A 
BRANCH  26  40
ATOM     40  C   UNL A   1      48.734  29.485  28.629  1.00  0.00    -0.014 A 
ATOM     41  C   UNL A   1      49.247  29.639  27.327  1.00  0.00     0.010 A 
ATOM     42  C   UNL A   1      49.501  28.817  29.598  1.00  0.00     0.010 A 
ATOM     43  C   UNL A   1      50.487  29.090  26.989  1.00  0.00     0.020 A 
ATOM     44  C   UNL A   1      50.750  28.284  29.268  1.00  0.00     0.020 A 
ATOM     45  C   UNL A   1      51.224  28.407  27.961  1.00  0.00     0.054 A 
BRANCH  45  46
ATOM     46  S   UNL A   1      52.821  27.686  27.492  1.00  0.00     0.124 S 
ATOM     47  O   UNL A   1      52.768  26.383  28.154  1.00  0.00    -0.237 OA
ATOM     48  O   UNL A   1      52.745  27.652  26.034  1.00  0.00    -0.237 OA
ATOM     49  O   UNL A   1      53.799  28.622  28.041  1.00  0.00    -0.744 OA
ENDBRANCH  45  46
ENDBRANCH  26  40
BRANCH  27  50
ATOM     50  C   UNL A   1      39.326  32.382  30.516  1.00  0.00    -0.014 A 
ATOM     51  C   UNL A   1      38.612  31.829  31.593  1.00  0.00     0.010 A 
ATOM     52  C   UNL A   1      38.686  33.333  29.696  1.00  0.00     0.010 A 
ATOM     53  C   UNL A   1      37.278  32.190  31.820  1.00  0.00     0.020 A 
ATOM     54  C   UNL A   1      37.360  33.711  29.932  1.00  0.00     0.020 A 
ATOM     55  C   UNL A   1      36.657  33.123  30.984  1.00  0.00     0.054 A 
BRANCH  55  56
ATOM     56  S   UNL A   1      34.923  33.562  31.295  1.00  0.00     0.124 S 
ATOM     57  O   UNL A   1      34.294  32.250  31.415  1.00  0.00    -0.237 OA
ATOM     58  O   UNL A   1      35.006  34.334  32.532  1.00  0.00    -0.237 OA
ATOM     59  O   UNL A   1      34.539  34.330  30.111  1.00  0.00    -0.744 OA
ENDBRANCH  55  56
ENDBRANCH  27  50
BRANCH  39  60
ATOM     60  C   UNL A   1      45.575  35.370  31.384  1.00  0.00    -0.014 A 
ATOM     61  C   UNL A   1      46.060  35.547  32.690  1.00  0.00     0.010 A 
ATOM     62  C   UNL A   1      45.535  36.468  30.506  1.00  0.00     0.010 A 
ATOM     63  C   UNL A   1      46.479  36.808  33.118  1.00  0.00     0.020 A 
ATOM     64  C   UNL A   1      45.977  37.725  30.922  1.00  0.00     0.020 A 
ATOM     65  C   UNL A   1      46.436  37.889  32.230  1.00  0.00     0.054 A 
BRANCH  65  66
ATOM     66  S   UNL A   1      47.043  39.503  32.788  1.00  0.00     0.124 S 
ATOM     67  O   UNL A   1      47.643  40.040  31.570  1.00  0.00    -0.237 OA
ATOM     68  O   UNL A   1      45.823  40.170  33.237  1.00  0.00    -0.237 OA
ATOM     69  O   UNL A   1      47.987  39.166  33.853  1.00  0.00    -0.744 OA
ENDBRANCH  65  66
ENDBRANCH  39  60
ENDBRANCH  13  14
ENDBRANCH   6   8
ENDBRANCH   5   6
ENDBRANCH   4   5
ENDBRANCH   3   4
ENDBRANCH   2   3
ENDBRANCH   1   2
BRANCH   1  70
ATOM     70  C   UNL A   1      36.548  23.823  25.265  1.00  0.00     0.188 C 
BRANCH  70  71
ATOM     71  O   UNL A   1      36.233  22.850  24.276  1.00  0.00    -0.376 OA
BRANCH  71  72
ATOM     72  C   UNL A   1      34.948  22.999  23.675  1.00  0.00     0.202 C 
BRANCH  72  73
ATOM     73  C   UNL A   1      34.363  24.412  23.752  1.00  0.00     0.261 C 
BRANCH  73  74
ATOM     74  O   UNL A   1      33.212  24.712  22.931  1.00  0.00    -0.463 OA
BRANCH  74  75
ATOM     75  C   UNL A   1      33.063  25.898  22.298  1.00  0.00     0.310 C 
ATOM     76  O   UNL A   1      33.456  26.143  21.168  1.00  0.00    -0.252 OA
BRANCH  75  77
ATOM     77  C   UNL A   1      32.368  26.929  23.180  1.00  0.00     0.118 C 
ATOM     78  C   UNL A   1      33.086  27.221  24.541  1.00  0.00     0.022 C 
ATOM     79  C   UNL A   1      32.264  28.346  22.576  1.00  0.00     0.120 C 
ATOM     80  C   UNL A   1      34.102  28.277  24.111  1.00  0.00     0.014 C 
ATOM     81  C   UNL A   1      32.088  28.049  25.411  1.00  0.00     0.097 C 
ATOM     82  C   UNL A   1      33.058  29.213  23.545  1.00  0.00     0.047 C 
ATOM     83  C   UNL A   1      30.864  28.844  22.761  1.00  0.00     0.310 C 
ATOM     84  C   UNL A   1      32.017  29.395  24.645  1.00  0.00     0.194 C 
ATOM     85  O   UNL A   1      30.775  29.519  23.944  1.00  0.00    -0.461 OA
ATOM     86  O   UNL A   1      29.936  28.599  22.014  1.00  0.00    -0.252 OA
BRANCH  81  87
ATOM     87  S   UNL A   1      32.414  28.176  27.221  1.00  0.00    -0.119 SA
BRANCH  87  88
ATOM     88  C   UNL A   1      33.652  29.442  27.392  1.00  0.00     0.008 A 
ATOM     89  C   UNL A   1      34.998  29.064  27.458  1.00  0.00     0.015 A 
ATOM     90  C   UNL A   1      33.319  30.793  27.545  1.00  0.00     0.015 A 
ATOM     91  C   UNL A   1      35.998  30.025  27.625  1.00  0.00     0.001 A 
ATOM     92  C   UNL A   1      34.320  31.756  27.697  1.00  0.00     0.001 A 
ATOM     93  C   UNL A   1      35.659  31.373  27.732  1.00  0.00     0.000 A 
ENDBRANCH  87  88
ENDBRANCH  81  87
ENDBRANCH  75  77
ENDBRANCH  74  75
ENDBRANCH  73  74
ENDBRANCH  72  73
ENDBRANCH  71  72
ENDBRANCH  70  71
ENDBRANCH   1  70
TORSDOF 22
ENDMDL
