MODEL 1
REMARK VINA RESULT:     -11.3      0.000      0.000
REMARK SMILES CCn1c(N2CCC[C@H](C(=O)OCCOCCOCCOC(=O)c3ccc(-c4c5nc(c(-c6ccc(S(=O)(=O)[O-])cc6)c6ccc([nH]6)c(-c6ccc(S(=O)(=O)[O-])cc6)c6nc(c(-c7ccc(S(=O)(=O)[O-])cc7)c7ccc4[nH]7)C=C6)C=C5)cc3)C2)nc2cc(C)ccc21
REMARK SMILES IDX 17 1 16 2 15 3 14 4 13 5 12 6 10 7 11 8 9 9 5 10 6 11 84 12
REMARK SMILES IDX 7 13 8 14 4 15 3 16 92 17 85 18 86 19 91 20 87 21 90 22
REMARK SMILES IDX 88 23 89 24 2 25 1 26 18 27 19 28 20 29 21 30 22 31 23 32
REMARK SMILES IDX 24 33 25 34 83 35 26 36 82 37 27 38 28 39 29 40 76 41 30 42
REMARK SMILES IDX 81 43 75 44 77 45 31 46 80 47 74 48 73 49 32 51 62 52 43 53
REMARK SMILES IDX 61 54 44 55 47 56 60 57 78 58 45 59 46 60 59 62 79 63 48 64
REMARK SMILES IDX 33 65 34 66 42 67 35 68 41 69 36 70 37 71 38 72 39 73 40 74
REMARK SMILES IDX 63 75 64 76 72 77 65 78 71 79 66 80 67 81 68 82 69 83 70 84
REMARK SMILES IDX 49 85 50 86 58 87 51 88 57 89 52 90 53 91 54 92 55 93 56 94
REMARK H PARENT 77 50 47 61
REMARK Flexibility Score: inf
ROOT
ATOM      1  C   UNL A   1      38.951  21.747  25.964  1.00  0.00     0.188 C 
ENDROOT
BRANCH   1   2
ATOM      2  C   UNL A   1      38.765  23.161  26.516  1.00  0.00     0.188 C 
BRANCH   2   3
ATOM      3  O   UNL A   1      37.755  23.966  25.946  1.00  0.00    -0.376 OA
BRANCH   3   4
ATOM      4  C   UNL A   1      36.433  23.448  25.841  1.00  0.00     0.202 C 
BRANCH   4   5
ATOM      5  C   UNL A   1      35.491  23.977  24.750  1.00  0.00     0.261 C 
BRANCH   5   6
ATOM      6  O   UNL A   1      34.928  22.927  23.930  1.00  0.00    -0.463 OA
BRANCH   6   7
ATOM      7  C   UNL A   1      33.888  23.315  23.152  1.00  0.00     0.310 C 
ATOM      8  O   UNL A   1      33.916  24.329  22.457  1.00  0.00    -0.252 OA
BRANCH   7   9
ATOM      9  C   UNL A   1      32.694  22.356  23.064  1.00  0.00     0.119 C 
ATOM     10  N   UNL A   1      31.193  23.476  24.637  1.00  0.00    -0.341 N 
ATOM     11  C   UNL A   1      31.148  22.355  25.561  1.00  0.00     0.119 C 
ATOM     12  C   UNL A   1      31.455  23.208  23.232  1.00  0.00     0.135 C 
ATOM     13  C   UNL A   1      32.258  21.333  25.320  1.00  0.00     0.022 C 
ATOM     14  C   UNL A   1      32.471  21.066  23.849  1.00  0.00     0.019 C 
BRANCH  10  15
ATOM     15  C   UNL A   1      31.451  24.730  25.070  1.00  0.00     0.206 A 
ATOM     16  N   UNL A   1      30.826  25.829  24.519  1.00  0.00    -0.310 N 
ATOM     17  C   UNL A   1      31.479  26.951  24.990  1.00  0.00     0.070 A 
ATOM     18  N   UNL A   1      32.378  25.084  25.931  1.00  0.00    -0.213 NA
ATOM     19  C   UNL A   1      32.450  26.454  25.849  1.00  0.00     0.091 A 
ATOM     20  C   UNL A   1      31.321  28.317  24.728  1.00  0.00     0.029 A 
ATOM     21  C   UNL A   1      33.328  27.353  26.479  1.00  0.00     0.034 A 
ATOM     22  C   UNL A   1      32.185  29.197  25.381  1.00  0.00     0.006 A 
ATOM     23  C   UNL A   1      33.177  28.735  26.256  1.00  0.00    -0.049 A 
ATOM     24  C   UNL A   1      34.102  29.709  26.924  1.00  0.00     0.044 C 
BRANCH  16  25
ATOM     25  C   UNL A   1      29.711  25.918  23.590  1.00  0.00     0.122 C 
ATOM     26  C   UNL A   1      28.438  26.646  23.995  1.00  0.00     0.028 C 
ENDBRANCH  16  25
ENDBRANCH  10  15
ENDBRANCH   7   9
ENDBRANCH   6   7
ENDBRANCH   5   6
ENDBRANCH   4   5
ENDBRANCH   3   4
ENDBRANCH   2   3
ENDBRANCH   1   2
BRANCH   1  27
ATOM     27  O   UNL A   1      40.200  21.091  25.962  1.00  0.00    -0.376 OA
BRANCH  27  28
ATOM     28  C   UNL A   1      40.765  20.845  27.235  1.00  0.00     0.202 C 
BRANCH  28  29
ATOM     29  C   UNL A   1      41.703  21.921  27.824  1.00  0.00     0.261 C 
BRANCH  29  30
ATOM     30  O   UNL A   1      42.915  22.124  27.061  1.00  0.00    -0.460 OA
BRANCH  30  31
ATOM     31  C   UNL A   1      42.847  23.053  26.054  1.00  0.00     0.338 C 
ATOM     32  O   UNL A   1      42.885  22.826  24.872  1.00  0.00    -0.246 OA
BRANCH  31  33
ATOM     33  C   UNL A   1      42.360  24.351  26.639  1.00  0.00     0.060 A 
ATOM     34  C   UNL A   1      41.351  25.125  26.056  1.00  0.00     0.016 A 
ATOM     35  C   UNL A   1      43.153  24.913  27.654  1.00  0.00     0.016 A 
ATOM     36  C   UNL A   1      41.166  26.463  26.458  1.00  0.00     0.010 A 
ATOM     37  C   UNL A   1      42.982  26.254  28.031  1.00  0.00     0.010 A 
ATOM     38  C   UNL A   1      41.993  27.049  27.434  1.00  0.00    -0.014 A 
BRANCH  38  39
ATOM     39  C   UNL A   1      41.632  28.323  28.100  1.00  0.00     0.031 A 
ATOM     40  C   UNL A   1      42.639  29.374  27.948  1.00  0.00     0.074 A 
ATOM     41  C   UNL A   1      40.584  28.673  28.880  1.00  0.00     0.049 A 
ATOM     42  N   UNL A   1      43.383  29.754  28.932  1.00  0.00    -0.248 NA
ATOM     43  C   UNL A   1      42.978  29.937  26.648  1.00  0.00     0.031 C 
ATOM     44  C   UNL A   1      39.778  27.782  29.673  1.00  0.00     0.029 A 
ATOM     45  N   UNL A   1      40.050  29.910  29.198  1.00  0.00    -0.354 N 
ATOM     46  C   UNL A   1      44.163  30.768  28.436  1.00  0.00     0.074 A 
ATOM     47  C   UNL A   1      43.976  30.753  27.000  1.00  0.00     0.031 C 
ATOM     48  C   UNL A   1      38.742  28.444  30.223  1.00  0.00     0.029 A 
ATOM     49  C   UNL A   1      38.803  29.840  29.826  1.00  0.00     0.049 A 
ATOM     50  H   UNL A   1      40.504  30.760  28.998  1.00  0.00     0.167 HD
ATOM     51  C   UNL A   1      44.743  31.664  29.273  1.00  0.00     0.031 A 
ATOM     52  C   UNL A   1      38.111  30.733  30.581  1.00  0.00     0.031 A 
ATOM     53  C   UNL A   1      44.752  31.232  30.649  1.00  0.00     0.049 A 
ATOM     54  C   UNL A   1      39.116  31.428  31.410  1.00  0.00     0.074 A 
ATOM     55  C   UNL A   1      45.322  30.173  31.329  1.00  0.00     0.029 A 
ATOM     56  N   UNL A   1      43.801  31.760  31.487  1.00  0.00    -0.354 N 
ATOM     57  N   UNL A   1      39.691  30.887  32.444  1.00  0.00    -0.248 NA
ATOM     58  C   UNL A   1      39.746  32.634  30.892  1.00  0.00     0.031 C 
ATOM     59  C   UNL A   1      44.439  29.879  32.406  1.00  0.00     0.029 A 
ATOM     60  C   UNL A   1      43.378  30.784  32.358  1.00  0.00     0.049 A 
ATOM     61  H   UNL A   1      43.475  32.690  31.468  1.00  0.00     0.167 HD
ATOM     62  C   UNL A   1      40.976  31.402  32.421  1.00  0.00     0.074 A 
ATOM     63  C   UNL A   1      40.909  32.561  31.540  1.00  0.00     0.031 C 
ATOM     64  C   UNL A   1      42.032  30.685  32.897  1.00  0.00     0.031 A 
BRANCH  51  65
ATOM     65  C   UNL A   1      45.025  33.069  28.847  1.00  0.00    -0.014 A 
ATOM     66  C   UNL A   1      44.008  34.044  28.781  1.00  0.00     0.010 A 
ATOM     67  C   UNL A   1      46.352  33.499  28.690  1.00  0.00     0.010 A 
ATOM     68  C   UNL A   1      44.283  35.372  28.476  1.00  0.00     0.020 A 
ATOM     69  C   UNL A   1      46.645  34.843  28.431  1.00  0.00     0.020 A 
ATOM     70  C   UNL A   1      45.604  35.765  28.301  1.00  0.00     0.054 A 
BRANCH  70  71
ATOM     71  S   UNL A   1      45.924  37.508  27.956  1.00  0.00     0.124 S 
ATOM     72  O   UNL A   1      47.357  37.498  27.672  1.00  0.00    -0.237 OA
ATOM     73  O   UNL A   1      45.056  37.764  26.810  1.00  0.00    -0.237 OA
ATOM     74  O   UNL A   1      45.536  38.179  29.193  1.00  0.00    -0.744 OA
ENDBRANCH  70  71
ENDBRANCH  51  65
BRANCH  52  75
ATOM     75  C   UNL A   1      36.901  31.425  30.059  1.00  0.00    -0.014 A 
ATOM     76  C   UNL A   1      36.823  31.871  28.726  1.00  0.00     0.010 A 
ATOM     77  C   UNL A   1      35.822  31.720  30.917  1.00  0.00     0.010 A 
ATOM     78  C   UNL A   1      35.781  32.702  28.302  1.00  0.00     0.020 A 
ATOM     79  C   UNL A   1      34.772  32.551  30.499  1.00  0.00     0.020 A 
ATOM     80  C   UNL A   1      34.789  33.077  29.208  1.00  0.00     0.054 A 
BRANCH  80  81
ATOM     81  S   UNL A   1      33.585  34.335  28.694  1.00  0.00     0.124 S 
ATOM     82  O   UNL A   1      33.007  34.734  29.973  1.00  0.00    -0.237 OA
ATOM     83  O   UNL A   1      34.428  35.336  28.045  1.00  0.00    -0.237 OA
ATOM     84  O   UNL A   1      32.686  33.608  27.800  1.00  0.00    -0.744 OA
ENDBRANCH  80  81
ENDBRANCH  52  75
BRANCH  64  85
ATOM     85  C   UNL A   1      41.762  29.535  33.846  1.00  0.00    -0.014 A 
ATOM     86  C   UNL A   1      41.880  29.796  35.224  1.00  0.00     0.010 A 
ATOM     87  C   UNL A   1      41.567  28.201  33.437  1.00  0.00     0.010 A 
ATOM     88  C   UNL A   1      41.856  28.758  36.159  1.00  0.00     0.020 A 
ATOM     89  C   UNL A   1      41.519  27.153  34.373  1.00  0.00     0.020 A 
ATOM     90  C   UNL A   1      41.694  27.439  35.729  1.00  0.00     0.054 A 
BRANCH  90  91
ATOM     91  S   UNL A   1      41.757  26.121  36.975  1.00  0.00     0.124 S 
ATOM     92  O   UNL A   1      42.073  24.946  36.165  1.00  0.00    -0.237 OA
ATOM     93  O   UNL A   1      42.829  26.568  37.863  1.00  0.00    -0.237 OA
ATOM     94  O   UNL A   1      40.425  26.126  37.571  1.00  0.00    -0.744 OA
ENDBRANCH  90  91
ENDBRANCH  64  85
ENDBRANCH  38  39
ENDBRANCH  31  33
ENDBRANCH  30  31
ENDBRANCH  29  30
ENDBRANCH  28  29
ENDBRANCH  27  28
ENDBRANCH   1  27
TORSDOF 22
ENDMDL
MODEL 2
REMARK VINA RESULT:     -10.8      2.562      9.461
REMARK SMILES CCn1c(N2CCC[C@H](C(=O)OCCOCCOCCOC(=O)c3ccc(-c4c5nc(c(-c6ccc(S(=O)(=O)[O-])cc6)c6ccc([nH]6)c(-c6ccc(S(=O)(=O)[O-])cc6)c6nc(c(-c7ccc(S(=O)(=O)[O-])cc7)c7ccc4[nH]7)C=C6)C=C5)cc3)C2)nc2cc(C)ccc21
REMARK SMILES IDX 17 1 16 2 15 3 14 4 13 5 12 6 10 7 11 8 9 9 5 10 6 11 84 12
REMARK SMILES IDX 7 13 8 14 4 15 3 16 92 17 85 18 86 19 91 20 87 21 90 22
REMARK SMILES IDX 88 23 89 24 2 25 1 26 18 27 19 28 20 29 21 30 22 31 23 32
REMARK SMILES IDX 24 33 25 34 83 35 26 36 82 37 27 38 28 39 29 40 76 41 30 42
REMARK SMILES IDX 81 43 75 44 77 45 31 46 80 47 74 48 73 49 32 51 62 52 43 53
REMARK SMILES IDX 61 54 44 55 47 56 60 57 78 58 45 59 46 60 59 62 79 63 48 64
REMARK SMILES IDX 33 65 34 66 42 67 35 68 41 69 36 70 37 71 38 72 39 73 40 74
REMARK SMILES IDX 63 75 64 76 72 77 65 78 71 79 66 80 67 81 68 82 69 83 70 84
REMARK SMILES IDX 49 85 50 86 58 87 51 88 57 89 52 90 53 91 54 92 55 93 56 94
REMARK H PARENT 77 50 47 61
REMARK Flexibility Score: inf
ROOT
ATOM      1  C   UNL A   1      36.204  33.072  28.056  1.00  0.00     0.188 C 
ENDROOT
BRANCH   1   2
ATOM      2  C   UNL A   1      35.323  31.823  28.011  1.00  0.00     0.188 C 
BRANCH   2   3
ATOM      3  O   UNL A   1      35.926  30.601  27.639  1.00  0.00    -0.376 OA
BRANCH   3   4
ATOM      4  C   UNL A   1      35.139  29.415  27.636  1.00  0.00     0.202 C 
BRANCH   4   5
ATOM      5  C   UNL A   1      33.748  29.423  26.986  1.00  0.00     0.261 C 
BRANCH   5   6
ATOM      6  O   UNL A   1      33.674  28.601  25.798  1.00  0.00    -0.463 OA
BRANCH   6   7
ATOM      7  C   UNL A   1      32.766  27.596  25.864  1.00  0.00     0.310 C 
ATOM      8  O   UNL A   1      32.978  26.543  26.461  1.00  0.00    -0.252 OA
BRANCH   7   9
ATOM      9  C   UNL A   1      31.381  27.876  25.266  1.00  0.00     0.119 C 
ATOM     10  N   UNL A   1      31.323  26.088  23.597  1.00  0.00    -0.341 N 
ATOM     11  C   UNL A   1      31.238  26.998  22.467  1.00  0.00     0.119 C 
ATOM     12  C   UNL A   1      30.807  26.529  24.884  1.00  0.00     0.135 C 
ATOM     13  C   UNL A   1      31.607  28.436  22.824  1.00  0.00     0.022 C 
ATOM     14  C   UNL A   1      31.023  28.857  24.153  1.00  0.00     0.019 C 
BRANCH  10  15
ATOM     15  C   UNL A   1      32.229  25.085  23.622  1.00  0.00     0.206 A 
ATOM     16  N   UNL A   1      31.967  23.889  24.257  1.00  0.00    -0.310 N 
ATOM     17  C   UNL A   1      33.157  23.191  24.322  1.00  0.00     0.070 A 
ATOM     18  N   UNL A   1      33.470  25.142  23.194  1.00  0.00    -0.213 NA
ATOM     19  C   UNL A   1      34.074  24.005  23.671  1.00  0.00     0.091 A 
ATOM     20  C   UNL A   1      33.501  21.963  24.898  1.00  0.00     0.029 A 
ATOM     21  C   UNL A   1      35.415  23.592  23.592  1.00  0.00     0.034 A 
ATOM     22  C   UNL A   1      34.832  21.557  24.789  1.00  0.00     0.006 A 
ATOM     23  C   UNL A   1      35.788  22.348  24.139  1.00  0.00    -0.049 A 
ATOM     24  C   UNL A   1      37.214  21.890  24.060  1.00  0.00     0.044 C 
BRANCH  16  25
ATOM     25  C   UNL A   1      30.733  23.365  24.818  1.00  0.00     0.122 C 
ATOM     26  C   UNL A   1      30.615  23.131  26.317  1.00  0.00     0.028 C 
ENDBRANCH  16  25
ENDBRANCH  10  15
ENDBRANCH   7   9
ENDBRANCH   6   7
ENDBRANCH   5   6
ENDBRANCH   4   5
ENDBRANCH   3   4
ENDBRANCH   2   3
ENDBRANCH   1   2
BRANCH   1  27
ATOM     27  O   UNL A   1      35.698  34.347  28.382  1.00  0.00    -0.376 OA
BRANCH  27  28
ATOM     28  C   UNL A   1      34.391  34.367  28.924  1.00  0.00     0.202 C 
BRANCH  28  29
ATOM     29  C   UNL A   1      34.252  34.502  30.456  1.00  0.00     0.261 C 
BRANCH  29  30
ATOM     30  O   UNL A   1      35.368  33.955  31.196  1.00  0.00    -0.460 OA
BRANCH  30  31
ATOM     31  C   UNL A   1      35.151  32.749  31.813  1.00  0.00     0.338 C 
ATOM     32  O   UNL A   1      34.087  32.312  32.170  1.00  0.00    -0.246 OA
BRANCH  31  33
ATOM     33  C   UNL A   1      36.387  31.906  31.651  1.00  0.00     0.060 A 
ATOM     34  C   UNL A   1      37.663  32.445  31.449  1.00  0.00     0.016 A 
ATOM     35  C   UNL A   1      36.181  30.534  31.428  1.00  0.00     0.016 A 
ATOM     36  C   UNL A   1      38.710  31.624  30.986  1.00  0.00     0.010 A 
ATOM     37  C   UNL A   1      37.221  29.728  30.941  1.00  0.00     0.010 A 
ATOM     38  C   UNL A   1      38.497  30.262  30.707  1.00  0.00    -0.014 A 
BRANCH  38  39
ATOM     39  C   UNL A   1      39.623  29.315  30.531  1.00  0.00     0.031 A 
ATOM     40  C   UNL A   1      40.379  29.061  31.758  1.00  0.00     0.074 A 
ATOM     41  C   UNL A   1      40.127  28.699  29.438  1.00  0.00     0.049 A 
ATOM     42  N   UNL A   1      41.570  29.527  31.935  1.00  0.00    -0.248 NA
ATOM     43  C   UNL A   1      39.777  28.415  32.917  1.00  0.00     0.031 C 
ATOM     44  C   UNL A   1      40.018  29.156  28.076  1.00  0.00     0.029 A 
ATOM     45  N   UNL A   1      40.912  27.566  29.302  1.00  0.00    -0.354 N 
ATOM     46  C   UNL A   1      41.972  29.058  33.161  1.00  0.00     0.074 A 
ATOM     47  C   UNL A   1      40.791  28.495  33.783  1.00  0.00     0.031 C 
ATOM     48  C   UNL A   1      40.520  28.239  27.227  1.00  0.00     0.029 A 
ATOM     49  C   UNL A   1      41.007  27.101  27.987  1.00  0.00     0.049 A 
ATOM     50  H   UNL A   1      41.360  27.129  30.061  1.00  0.00     0.167 HD
ATOM     51  C   UNL A   1      43.289  28.993  33.476  1.00  0.00     0.031 A 
ATOM     52  C   UNL A   1      41.895  26.276  27.373  1.00  0.00     0.031 A 
ATOM     53  C   UNL A   1      44.123  29.768  32.590  1.00  0.00     0.049 A 
ATOM     54  C   UNL A   1      43.216  26.605  27.946  1.00  0.00     0.074 A 
ATOM     55  C   UNL A   1      44.226  31.110  32.281  1.00  0.00     0.029 A 
ATOM     56  N   UNL A   1      44.800  29.093  31.603  1.00  0.00    -0.354 N 
ATOM     57  N   UNL A   1      43.884  27.678  27.637  1.00  0.00    -0.248 NA
ATOM     58  C   UNL A   1      43.665  25.901  29.137  1.00  0.00     0.031 C 
ATOM     59  C   UNL A   1      44.649  31.168  30.923  1.00  0.00     0.029 A 
ATOM     60  C   UNL A   1      44.813  29.862  30.462  1.00  0.00     0.049 A 
ATOM     61  H   UNL A   1      45.210  28.202  31.697  1.00  0.00     0.167 HD
ATOM     62  C   UNL A   1      44.521  28.029  28.815  1.00  0.00     0.074 A 
ATOM     63  C   UNL A   1      44.462  26.837  29.652  1.00  0.00     0.031 C 
ATOM     64  C   UNL A   1      44.794  29.331  29.109  1.00  0.00     0.031 A 
BRANCH  51  65
ATOM     65  C   UNL A   1      43.822  27.967  34.423  1.00  0.00    -0.014 A 
ATOM     66  C   UNL A   1      43.405  26.620  34.371  1.00  0.00     0.010 A 
ATOM     67  C   UNL A   1      44.901  28.284  35.265  1.00  0.00     0.010 A 
ATOM     68  C   UNL A   1      43.967  25.646  35.189  1.00  0.00     0.020 A 
ATOM     69  C   UNL A   1      45.507  27.302  36.056  1.00  0.00     0.020 A 
ATOM     70  C   UNL A   1      45.017  25.995  36.030  1.00  0.00     0.054 A 
BRANCH  70  71
ATOM     71  S   UNL A   1      45.753  24.690  37.039  1.00  0.00     0.124 S 
ATOM     72  O   UNL A   1      44.622  24.281  37.869  1.00  0.00    -0.237 OA
ATOM     73  O   UNL A   1      46.180  23.721  36.034  1.00  0.00    -0.237 OA
ATOM     74  O   UNL A   1      46.833  25.372  37.746  1.00  0.00    -0.744 OA
ENDBRANCH  70  71
ENDBRANCH  51  65
BRANCH  52  75
ATOM     75  C   UNL A   1      41.529  24.889  26.977  1.00  0.00    -0.014 A 
ATOM     76  C   UNL A   1      40.407  24.237  27.525  1.00  0.00     0.010 A 
ATOM     77  C   UNL A   1      42.348  24.160  26.091  1.00  0.00     0.010 A 
ATOM     78  C   UNL A   1      40.191  22.872  27.312  1.00  0.00     0.020 A 
ATOM     79  C   UNL A   1      42.137  22.791  25.871  1.00  0.00     0.020 A 
ATOM     80  C   UNL A   1      41.089  22.147  26.527  1.00  0.00     0.054 A 
BRANCH  80  81
ATOM     81  S   UNL A   1      40.911  20.342  26.462  1.00  0.00     0.124 S 
ATOM     82  O   UNL A   1      39.594  20.195  25.851  1.00  0.00    -0.237 OA
ATOM     83  O   UNL A   1      42.040  19.941  25.625  1.00  0.00    -0.237 OA
ATOM     84  O   UNL A   1      41.002  19.933  27.862  1.00  0.00    -0.744 OA
ENDBRANCH  80  81
ENDBRANCH  52  75
BRANCH  64  85
ATOM     85  C   UNL A   1      44.814  30.343  27.981  1.00  0.00    -0.014 A 
ATOM     86  C   UNL A   1      46.040  30.978  27.709  1.00  0.00     0.010 A 
ATOM     87  C   UNL A   1      43.665  30.803  27.310  1.00  0.00     0.010 A 
ATOM     88  C   UNL A   1      46.110  32.067  26.837  1.00  0.00     0.020 A 
ATOM     89  C   UNL A   1      43.730  31.883  26.412  1.00  0.00     0.020 A 
ATOM     90  C   UNL A   1      44.952  32.527  26.206  1.00  0.00     0.054 A 
BRANCH  90  91
ATOM     91  S   UNL A   1      45.081  33.997  25.151  1.00  0.00     0.124 S 
ATOM     92  O   UNL A   1      46.521  34.250  25.148  1.00  0.00    -0.237 OA
ATOM     93  O   UNL A   1      44.531  33.532  23.879  1.00  0.00    -0.237 OA
ATOM     94  O   UNL A   1      44.275  35.004  25.836  1.00  0.00    -0.744 OA
ENDBRANCH  90  91
ENDBRANCH  64  85
ENDBRANCH  38  39
ENDBRANCH  31  33
ENDBRANCH  30  31
ENDBRANCH  29  30
ENDBRANCH  28  29
ENDBRANCH  27  28
ENDBRANCH   1  27
TORSDOF 22
ENDMDL
MODEL 3
REMARK VINA RESULT:     -10.2      4.371      8.839
REMARK SMILES CCn1c(N2CCC[C@H](C(=O)OCCOCCOCCOC(=O)c3ccc(-c4c5nc(c(-c6ccc(S(=O)(=O)[O-])cc6)c6ccc([nH]6)c(-c6ccc(S(=O)(=O)[O-])cc6)c6nc(c(-c7ccc(S(=O)(=O)[O-])cc7)c7ccc4[nH]7)C=C6)C=C5)cc3)C2)nc2cc(C)ccc21
REMARK SMILES IDX 17 1 16 2 15 3 14 4 13 5 12 6 10 7 11 8 9 9 5 10 6 11 84 12
REMARK SMILES IDX 7 13 8 14 4 15 3 16 92 17 85 18 86 19 91 20 87 21 90 22
REMARK SMILES IDX 88 23 89 24 2 25 1 26 18 27 19 28 20 29 21 30 22 31 23 32
REMARK SMILES IDX 24 33 25 34 83 35 26 36 82 37 27 38 28 39 29 40 76 41 30 42
REMARK SMILES IDX 81 43 75 44 77 45 31 46 80 47 74 48 73 49 32 51 62 52 43 53
REMARK SMILES IDX 61 54 44 55 47 56 60 57 78 58 45 59 46 60 59 62 79 63 48 64
REMARK SMILES IDX 33 65 34 66 42 67 35 68 41 69 36 70 37 71 38 72 39 73 40 74
REMARK SMILES IDX 63 75 64 76 72 77 65 78 71 79 66 80 67 81 68 82 69 83 70 84
REMARK SMILES IDX 49 85 50 86 58 87 51 88 57 89 52 90 53 91 54 92 55 93 56 94
REMARK H PARENT 77 50 47 61
REMARK Flexibility Score: inf
ROOT
ATOM      1  C   UNL A   1      44.813  19.015  25.031  1.00  0.00     0.188 C 
ENDROOT
BRANCH   1   2
ATOM      2  C   UNL A   1      46.004  19.780  24.455  1.00  0.00     0.188 C 
BRANCH   2   3
ATOM      3  O   UNL A   1      46.489  20.893  25.177  1.00  0.00    -0.376 OA
BRANCH   3   4
ATOM      4  C   UNL A   1      45.756  22.113  25.142  1.00  0.00     0.202 C 
BRANCH   4   5
ATOM      5  C   UNL A   1      46.316  23.318  24.373  1.00  0.00     0.261 C 
BRANCH   5   6
ATOM      6  O   UNL A   1      47.062  24.229  25.214  1.00  0.00    -0.463 OA
BRANCH   6   7
ATOM      7  C   UNL A   1      47.087  25.511  24.771  1.00  0.00     0.310 C 
ATOM      8  O   UNL A   1      47.784  25.877  23.828  1.00  0.00    -0.252 OA
BRANCH   7   9
ATOM      9  C   UNL A   1      46.093  26.485  25.417  1.00  0.00     0.119 C 
ATOM     10  N   UNL A   1      47.460  27.217  27.310  1.00  0.00    -0.341 N 
ATOM     11  C   UNL A   1      46.544  26.695  28.311  1.00  0.00     0.119 C 
ATOM     12  C   UNL A   1      46.925  27.600  26.013  1.00  0.00     0.135 C 
ATOM     13  C   UNL A   1      45.530  25.707  27.741  1.00  0.00     0.022 C 
ATOM     14  C   UNL A   1      44.980  26.165  26.410  1.00  0.00     0.019 C 
BRANCH  10  15
ATOM     15  C   UNL A   1      48.782  26.942  27.359  1.00  0.00     0.206 A 
ATOM     16  N   UNL A   1      49.720  27.931  27.570  1.00  0.00    -0.310 N 
ATOM     17  C   UNL A   1      50.961  27.382  27.315  1.00  0.00     0.070 A 
ATOM     18  N   UNL A   1      49.351  25.788  27.092  1.00  0.00    -0.213 NA
ATOM     19  C   UNL A   1      50.696  26.055  27.001  1.00  0.00     0.091 A 
ATOM     20  C   UNL A   1      52.251  27.923  27.311  1.00  0.00     0.029 A 
ATOM     21  C   UNL A   1      51.764  25.212  26.650  1.00  0.00     0.034 A 
ATOM     22  C   UNL A   1      53.302  27.065  26.984  1.00  0.00     0.006 A 
ATOM     23  C   UNL A   1      53.077  25.720  26.663  1.00  0.00    -0.049 A 
ATOM     24  C   UNL A   1      54.230  24.833  26.295  1.00  0.00     0.044 C 
BRANCH  16  25
ATOM     25  C   UNL A   1      49.556  29.323  27.957  1.00  0.00     0.122 C 
ATOM     26  C   UNL A   1      48.809  29.676  29.235  1.00  0.00     0.028 C 
ENDBRANCH  16  25
ENDBRANCH  10  15
ENDBRANCH   7   9
ENDBRANCH   6   7
ENDBRANCH   5   6
ENDBRANCH   4   5
ENDBRANCH   3   4
ENDBRANCH   2   3
ENDBRANCH   1   2
BRANCH   1  27
ATOM     27  O   UNL A   1      43.968  19.558  26.021  1.00  0.00    -0.376 OA
BRANCH  27  28
ATOM     28  C   UNL A   1      42.628  19.106  25.997  1.00  0.00     0.202 C 
BRANCH  28  29
ATOM     29  C   UNL A   1      41.511  20.173  25.983  1.00  0.00     0.261 C 
BRANCH  29  30
ATOM     30  O   UNL A   1      41.875  21.411  26.637  1.00  0.00    -0.460 OA
BRANCH  30  31
ATOM     31  C   UNL A   1      42.352  22.407  25.824  1.00  0.00     0.338 C 
ATOM     32  O   UNL A   1      42.580  22.315  24.645  1.00  0.00    -0.246 OA
BRANCH  31  33
ATOM     33  C   UNL A   1      42.207  23.719  26.546  1.00  0.00     0.060 A 
ATOM     34  C   UNL A   1      42.200  23.830  27.941  1.00  0.00     0.016 A 
ATOM     35  C   UNL A   1      41.792  24.814  25.771  1.00  0.00     0.016 A 
ATOM     36  C   UNL A   1      41.741  25.014  28.552  1.00  0.00     0.010 A 
ATOM     37  C   UNL A   1      41.311  25.981  26.385  1.00  0.00     0.010 A 
ATOM     38  C   UNL A   1      41.272  26.094  27.783  1.00  0.00    -0.014 A 
BRANCH  38  39
ATOM     39  C   UNL A   1      41.089  27.445  28.364  1.00  0.00     0.031 A 
ATOM     40  C   UNL A   1      42.179  28.372  28.059  1.00  0.00     0.074 A 
ATOM     41  C   UNL A   1      40.141  27.960  29.180  1.00  0.00     0.049 A 
ATOM     42  N   UNL A   1      43.029  28.746  28.957  1.00  0.00    -0.248 NA
ATOM     43  C   UNL A   1      42.474  28.798  26.698  1.00  0.00     0.031 C 
ATOM     44  C   UNL A   1      39.312  27.219  30.096  1.00  0.00     0.029 A 
ATOM     45  N   UNL A   1      39.755  29.266  29.430  1.00  0.00    -0.354 N 
ATOM     46  C   UNL A   1      43.865  29.634  28.329  1.00  0.00     0.074 A 
ATOM     47  C   UNL A   1      43.570  29.531  26.914  1.00  0.00     0.031 C 
ATOM     48  C   UNL A   1      38.390  28.025  30.657  1.00  0.00     0.029 A 
ATOM     49  C   UNL A   1      38.558  29.373  30.144  1.00  0.00     0.049 A 
ATOM     50  H   UNL A   1      40.275  30.047  29.131  1.00  0.00     0.167 HD
ATOM     51  C   UNL A   1      44.590  30.526  29.048  1.00  0.00     0.031 A 
ATOM     52  C   UNL A   1      38.015  30.387  30.867  1.00  0.00     0.031 A 
ATOM     53  C   UNL A   1      44.659  30.199  30.451  1.00  0.00     0.049 A 
ATOM     54  C   UNL A   1      39.141  31.035  31.566  1.00  0.00     0.074 A 
ATOM     55  C   UNL A   1      45.172  29.142  31.177  1.00  0.00     0.029 A 
ATOM     56  N   UNL A   1      43.830  30.885  31.305  1.00  0.00    -0.354 N 
ATOM     57  N   UNL A   1      39.737  30.516  32.601  1.00  0.00    -0.248 NA
ATOM     58  C   UNL A   1      39.847  32.126  30.911  1.00  0.00     0.031 C 
ATOM     59  C   UNL A   1      44.347  29.023  32.331  1.00  0.00     0.029 A 
ATOM     60  C   UNL A   1      43.379  30.025  32.279  1.00  0.00     0.049 A 
ATOM     61  H   UNL A   1      43.595  31.839  31.231  1.00  0.00     0.167 HD
ATOM     62  C   UNL A   1      41.061  30.892  32.451  1.00  0.00     0.074 A 
ATOM     63  C   UNL A   1      41.042  31.983  31.484  1.00  0.00     0.031 C 
ATOM     64  C   UNL A   1      42.074  30.108  32.913  1.00  0.00     0.031 A 
BRANCH  51  65
ATOM     65  C   UNL A   1      44.976  31.858  28.491  1.00  0.00    -0.014 A 
ATOM     66  C   UNL A   1      46.263  32.400  28.685  1.00  0.00     0.010 A 
ATOM     67  C   UNL A   1      44.120  32.515  27.592  1.00  0.00     0.010 A 
ATOM     68  C   UNL A   1      46.654  33.595  28.090  1.00  0.00     0.020 A 
ATOM     69  C   UNL A   1      44.521  33.692  26.949  1.00  0.00     0.020 A 
ATOM     70  C   UNL A   1      45.777  34.235  27.224  1.00  0.00     0.054 A 
BRANCH  70  71
ATOM     71  S   UNL A   1      46.341  35.758  26.432  1.00  0.00     0.124 S 
ATOM     72  O   UNL A   1      45.163  36.612  26.556  1.00  0.00    -0.237 OA
ATOM     73  O   UNL A   1      47.484  36.135  27.260  1.00  0.00    -0.237 OA
ATOM     74  O   UNL A   1      46.668  35.336  25.073  1.00  0.00    -0.744 OA
ENDBRANCH  70  71
ENDBRANCH  51  65
BRANCH  52  75
ATOM     75  C   UNL A   1      36.843  31.159  30.371  1.00  0.00    -0.014 A 
ATOM     76  C   UNL A   1      36.557  31.266  28.996  1.00  0.00     0.010 A 
ATOM     77  C   UNL A   1      36.025  31.871  31.272  1.00  0.00     0.010 A 
ATOM     78  C   UNL A   1      35.589  32.160  28.528  1.00  0.00     0.020 A 
ATOM     79  C   UNL A   1      35.050  32.768  30.810  1.00  0.00     0.020 A 
ATOM     80  C   UNL A   1      34.877  32.943  29.438  1.00  0.00     0.054 A 
BRANCH  80  81
ATOM     81  S   UNL A   1      33.799  34.251  28.788  1.00  0.00     0.124 S 
ATOM     82  O   UNL A   1      34.773  35.218  28.290  1.00  0.00    -0.237 OA
ATOM     83  O   UNL A   1      33.029  33.550  27.765  1.00  0.00    -0.237 OA
ATOM     84  O   UNL A   1      33.033  34.680  29.956  1.00  0.00    -0.744 OA
ENDBRANCH  80  81
ENDBRANCH  52  75
BRANCH  64  85
ATOM     85  C   UNL A   1      41.764  29.066  33.969  1.00  0.00    -0.014 A 
ATOM     86  C   UNL A   1      42.084  29.386  35.302  1.00  0.00     0.010 A 
ATOM     87  C   UNL A   1      41.337  27.754  33.686  1.00  0.00     0.010 A 
ATOM     88  C   UNL A   1      42.029  28.419  36.309  1.00  0.00     0.020 A 
ATOM     89  C   UNL A   1      41.258  26.780  34.696  1.00  0.00     0.020 A 
ATOM     90  C   UNL A   1      41.635  27.115  35.999  1.00  0.00     0.054 A 
BRANCH  90  91
ATOM     91  S   UNL A   1      41.665  25.877  37.324  1.00  0.00     0.124 S 
ATOM     92  O   UNL A   1      42.691  26.409  38.220  1.00  0.00    -0.237 OA
ATOM     93  O   UNL A   1      40.300  25.927  37.845  1.00  0.00    -0.237 OA
ATOM     94  O   UNL A   1      42.017  24.633  36.646  1.00  0.00    -0.744 OA
ENDBRANCH  90  91
ENDBRANCH  64  85
ENDBRANCH  38  39
ENDBRANCH  31  33
ENDBRANCH  30  31
ENDBRANCH  29  30
ENDBRANCH  28  29
ENDBRANCH  27  28
ENDBRANCH   1  27
TORSDOF 22
ENDMDL
