MODEL 1
REMARK VINA RESULT:      -9.1      0.000      0.000
REMARK SMILES CN1CC[N@H+](CC(=O)OCCOCCOCCOC(=O)c2ccc(-c3c4nc(c(-c5ccc(S(=O)(=O)[O-])cc5)c5ccc([nH]5)c(-c5ccc(S(=O)(=O)[O-])cc5)c5nc(c(-c6ccc(S(=O)(=O)[O-])cc6)c6ccc3[nH]6)C=C5)C=C4)cc2)C(C)(C)C1=O
REMARK SMILES IDX 14 1 13 2 12 3 11 4 10 5 9 6 7 7 8 8 6 9 5 10 1 11 2 12 3 13
REMARK SMILES IDX 84 14 4 15 81 16 85 17 82 18 83 19 15 21 16 22 17 23 18 24
REMARK SMILES IDX 19 25 20 26 21 27 22 28 80 29 23 30 79 31 24 32 25 33 26 34
REMARK SMILES IDX 73 35 27 36 78 37 72 38 74 39 28 40 77 41 71 42 70 43 29 45
REMARK SMILES IDX 59 46 40 47 58 48 41 49 44 50 57 51 75 52 42 53 43 54 56 56
REMARK SMILES IDX 76 57 45 58 30 59 31 60 39 61 32 62 38 63 33 64 34 65 35 66
REMARK SMILES IDX 36 67 37 68 60 69 61 70 69 71 62 72 68 73 63 74 64 75 65 76
REMARK SMILES IDX 66 77 67 78 46 79 47 80 55 81 48 82 54 83 49 84 50 85 51 86
REMARK SMILES IDX 52 87 53 88
REMARK H PARENT 5 20 74 44 44 55
REMARK Flexibility Score: inf
ROOT
ATOM      1  C   UNL A   1      42.025  21.183  27.137  1.00  0.00     0.188 C 
ENDROOT
BRANCH   1   2
ATOM      2  C   UNL A   1      40.562  21.619  27.275  1.00  0.00     0.188 C 
BRANCH   2   3
ATOM      3  O   UNL A   1      39.793  21.649  26.082  1.00  0.00    -0.376 OA
BRANCH   3   4
ATOM      4  C   UNL A   1      38.564  22.381  26.125  1.00  0.00     0.202 C 
BRANCH   4   5
ATOM      5  C   UNL A   1      37.452  21.973  25.150  1.00  0.00     0.261 C 
BRANCH   5   6
ATOM      6  O   UNL A   1      36.364  21.232  25.763  1.00  0.00    -0.459 OA
BRANCH   6   7
ATOM      7  C   UNL A   1      35.140  21.479  25.227  1.00  0.00     0.361 C 
ATOM      8  O   UNL A   1      34.144  20.804  25.487  1.00  0.00    -0.245 OA
BRANCH   7   9
ATOM      9  C   UNL A   1      35.013  22.665  24.279  1.00  0.00     0.387 C 
BRANCH   9  10
ATOM     10  N   UNL A   1      33.874  23.580  24.332  1.00  0.00    -0.312 N 
ATOM     11  C   UNL A   1      33.695  27.793  23.590  1.00  0.00     0.147 C 
ATOM     12  N   UNL A   1      33.619  26.375  23.857  1.00  0.00    -0.335 N 
ATOM     13  C   UNL A   1      33.973  25.922  25.198  1.00  0.00     0.180 C 
ATOM     14  C   UNL A   1      33.555  25.492  22.779  1.00  0.00     0.283 C 
ATOM     15  C   UNL A   1      33.759  24.436  25.499  1.00  0.00     0.285 C 
ATOM     16  C   UNL A   1      33.134  24.042  23.148  1.00  0.00     0.172 C 
ATOM     17  O   UNL A   1      33.657  25.871  21.611  1.00  0.00    -0.268 OA
ATOM     18  C   UNL A   1      31.617  24.150  23.477  1.00  0.00     0.090 C 
ATOM     19  C   UNL A   1      33.245  23.093  21.945  1.00  0.00     0.090 C 
ATOM     20  H   UNL A   1      33.290  22.751  24.444  1.00  0.00     0.349 HD
ENDBRANCH   9  10
ENDBRANCH   7   9
ENDBRANCH   6   7
ENDBRANCH   5   6
ENDBRANCH   4   5
ENDBRANCH   3   4
ENDBRANCH   2   3
ENDBRANCH   1   2
BRANCH   1  21
ATOM     21  O   UNL A   1      42.262  19.780  27.226  1.00  0.00    -0.376 OA
BRANCH  21  22
ATOM     22  C   UNL A   1      42.135  19.091  25.978  1.00  0.00     0.202 C 
BRANCH  22  23
ATOM     23  C   UNL A   1      43.493  18.645  25.432  1.00  0.00     0.261 C 
BRANCH  23  24
ATOM     24  O   UNL A   1      43.858  19.449  24.301  1.00  0.00    -0.460 OA
BRANCH  24  25
ATOM     25  C   UNL A   1      45.121  19.948  24.338  1.00  0.00     0.338 C 
ATOM     26  O   UNL A   1      46.123  19.456  23.863  1.00  0.00    -0.246 OA
BRANCH  25  27
ATOM     27  C   UNL A   1      45.081  21.314  24.903  1.00  0.00     0.060 A 
ATOM     28  C   UNL A   1      44.605  22.345  24.082  1.00  0.00     0.016 A 
ATOM     29  C   UNL A   1      45.493  21.586  26.209  1.00  0.00     0.016 A 
ATOM     30  C   UNL A   1      44.570  23.655  24.550  1.00  0.00     0.010 A 
ATOM     31  C   UNL A   1      45.463  22.901  26.677  1.00  0.00     0.010 A 
ATOM     32  C   UNL A   1      45.031  23.946  25.840  1.00  0.00    -0.014 A 
BRANCH  32  33
ATOM     33  C   UNL A   1      45.204  25.357  26.256  1.00  0.00     0.031 A 
ATOM     34  C   UNL A   1      46.571  25.977  26.157  1.00  0.00     0.074 A 
ATOM     35  C   UNL A   1      44.153  26.082  26.682  1.00  0.00     0.049 A 
ATOM     36  N   UNL A   1      46.961  27.178  26.494  1.00  0.00    -0.248 NA
ATOM     37  C   UNL A   1      47.642  25.130  25.602  1.00  0.00     0.031 C 
ATOM     38  C   UNL A   1      42.773  25.603  26.777  1.00  0.00     0.029 A 
ATOM     39  N   UNL A   1      44.087  27.382  27.114  1.00  0.00    -0.354 N 
ATOM     40  C   UNL A   1      48.320  27.230  26.201  1.00  0.00     0.074 A 
ATOM     41  C   UNL A   1      48.694  25.929  25.693  1.00  0.00     0.031 C 
ATOM     42  C   UNL A   1      41.997  26.598  27.240  1.00  0.00     0.029 A 
ATOM     43  C   UNL A   1      42.829  27.769  27.509  1.00  0.00     0.049 A 
ATOM     44  H   UNL A   1      44.868  27.981  27.140  1.00  0.00     0.167 HD
ATOM     45  C   UNL A   1      49.175  28.271  26.333  1.00  0.00     0.031 A 
ATOM     46  C   UNL A   1      42.402  28.930  28.046  1.00  0.00     0.031 A 
ATOM     47  C   UNL A   1      48.799  29.560  26.850  1.00  0.00     0.049 A 
ATOM     48  C   UNL A   1      43.396  30.045  28.257  1.00  0.00     0.074 A 
ATOM     49  C   UNL A   1      49.592  30.681  27.024  1.00  0.00     0.029 A 
ATOM     50  N   UNL A   1      47.525  29.900  27.278  1.00  0.00    -0.354 N 
ATOM     51  N   UNL A   1      44.674  30.082  27.962  1.00  0.00    -0.248 NA
ATOM     52  C   UNL A   1      42.882  31.280  28.866  1.00  0.00     0.031 C 
ATOM     53  C   UNL A   1      48.810  31.681  27.611  1.00  0.00     0.029 A 
ATOM     54  C   UNL A   1      47.514  31.207  27.739  1.00  0.00     0.049 A 
ATOM     55  H   UNL A   1      46.744  29.302  27.259  1.00  0.00     0.167 HD
ATOM     56  C   UNL A   1      45.109  31.355  28.322  1.00  0.00     0.074 A 
ATOM     57  C   UNL A   1      43.951  32.062  28.829  1.00  0.00     0.031 C 
ATOM     58  C   UNL A   1      46.353  31.893  28.245  1.00  0.00     0.031 A 
BRANCH  45  59
ATOM     59  C   UNL A   1      50.610  28.052  25.931  1.00  0.00    -0.014 A 
ATOM     60  C   UNL A   1      51.565  27.600  26.860  1.00  0.00     0.010 A 
ATOM     61  C   UNL A   1      50.997  28.242  24.592  1.00  0.00     0.010 A 
ATOM     62  C   UNL A   1      52.883  27.365  26.462  1.00  0.00     0.020 A 
ATOM     63  C   UNL A   1      52.307  27.979  24.184  1.00  0.00     0.020 A 
ATOM     64  C   UNL A   1      53.245  27.551  25.125  1.00  0.00     0.054 A 
BRANCH  64  65
ATOM     65  S   UNL A   1      54.951  27.185  24.628  1.00  0.00     0.124 S 
ATOM     66  O   UNL A   1      54.749  26.326  23.465  1.00  0.00    -0.237 OA
ATOM     67  O   UNL A   1      55.489  28.512  24.342  1.00  0.00    -0.237 OA
ATOM     68  O   UNL A   1      55.521  26.524  25.799  1.00  0.00    -0.744 OA
ENDBRANCH  64  65
ENDBRANCH  45  59
BRANCH  46  69
ATOM     69  C   UNL A   1      40.977  29.100  28.450  1.00  0.00    -0.014 A 
ATOM     70  C   UNL A   1      39.995  29.435  27.501  1.00  0.00     0.010 A 
ATOM     71  C   UNL A   1      40.604  28.971  29.800  1.00  0.00     0.010 A 
ATOM     72  C   UNL A   1      38.677  29.680  27.900  1.00  0.00     0.020 A 
ATOM     73  C   UNL A   1      39.280  29.178  30.199  1.00  0.00     0.020 A 
ATOM     74  C   UNL A   1      38.329  29.551  29.248  1.00  0.00     0.054 A 
BRANCH  74  75
ATOM     75  S   UNL A   1      36.611  29.860  29.742  1.00  0.00     0.124 S 
ATOM     76  O   UNL A   1      36.512  29.099  30.984  1.00  0.00    -0.237 OA
ATOM     77  O   UNL A   1      36.581  31.313  29.885  1.00  0.00    -0.237 OA
ATOM     78  O   UNL A   1      35.834  29.335  28.622  1.00  0.00    -0.744 OA
ENDBRANCH  74  75
ENDBRANCH  46  69
BRANCH  58  79
ATOM     79  C   UNL A   1      46.511  33.326  28.684  1.00  0.00    -0.014 A 
ATOM     80  C   UNL A   1      46.857  33.653  30.008  1.00  0.00     0.010 A 
ATOM     81  C   UNL A   1      46.321  34.362  27.751  1.00  0.00     0.010 A 
ATOM     82  C   UNL A   1      46.947  34.991  30.405  1.00  0.00     0.020 A 
ATOM     83  C   UNL A   1      46.447  35.700  28.136  1.00  0.00     0.020 A 
ATOM     84  C   UNL A   1      46.735  36.005  29.467  1.00  0.00     0.054 A 
BRANCH  84  85
ATOM     85  S   UNL A   1      46.856  37.732  30.007  1.00  0.00     0.124 S 
ATOM     86  O   UNL A   1      46.615  37.618  31.442  1.00  0.00    -0.237 OA
ATOM     87  O   UNL A   1      48.220  38.092  29.625  1.00  0.00    -0.237 OA
ATOM     88  O   UNL A   1      45.805  38.407  29.250  1.00  0.00    -0.744 OA
ENDBRANCH  84  85
ENDBRANCH  58  79
ENDBRANCH  32  33
ENDBRANCH  25  27
ENDBRANCH  24  25
ENDBRANCH  23  24
ENDBRANCH  22  23
ENDBRANCH  21  22
ENDBRANCH   1  21
TORSDOF 21
ENDMDL
MODEL 2
REMARK VINA RESULT:      -9.0      4.103      6.035
REMARK SMILES CN1CC[N@H+](CC(=O)OCCOCCOCCOC(=O)c2ccc(-c3c4nc(c(-c5ccc(S(=O)(=O)[O-])cc5)c5ccc([nH]5)c(-c5ccc(S(=O)(=O)[O-])cc5)c5nc(c(-c6ccc(S(=O)(=O)[O-])cc6)c6ccc3[nH]6)C=C5)C=C4)cc2)C(C)(C)C1=O
REMARK SMILES IDX 14 1 13 2 12 3 11 4 10 5 9 6 7 7 8 8 6 9 5 10 1 11 2 12 3 13
REMARK SMILES IDX 84 14 4 15 81 16 85 17 82 18 83 19 15 21 16 22 17 23 18 24
REMARK SMILES IDX 19 25 20 26 21 27 22 28 80 29 23 30 79 31 24 32 25 33 26 34
REMARK SMILES IDX 73 35 27 36 78 37 72 38 74 39 28 40 77 41 71 42 70 43 29 45
REMARK SMILES IDX 59 46 40 47 58 48 41 49 44 50 57 51 75 52 42 53 43 54 56 56
REMARK SMILES IDX 76 57 45 58 30 59 31 60 39 61 32 62 38 63 33 64 34 65 35 66
REMARK SMILES IDX 36 67 37 68 60 69 61 70 69 71 62 72 68 73 63 74 64 75 65 76
REMARK SMILES IDX 66 77 67 78 46 79 47 80 55 81 48 82 54 83 49 84 50 85 51 86
REMARK SMILES IDX 52 87 53 88
REMARK H PARENT 5 20 74 44 44 55
REMARK Flexibility Score: inf
ROOT
ATOM      1  C   UNL A   1      34.211  19.905  24.930  1.00  0.00     0.188 C 
ENDROOT
BRANCH   1   2
ATOM      2  C   UNL A   1      32.724  20.258  25.051  1.00  0.00     0.188 C 
BRANCH   2   3
ATOM      3  O   UNL A   1      32.228  21.233  24.147  1.00  0.00    -0.376 OA
BRANCH   3   4
ATOM      4  C   UNL A   1      31.833  22.490  24.706  1.00  0.00     0.202 C 
BRANCH   4   5
ATOM      5  C   UNL A   1      31.073  23.471  23.803  1.00  0.00     0.261 C 
BRANCH   5   6
ATOM      6  O   UNL A   1      30.509  24.611  24.503  1.00  0.00    -0.459 OA
BRANCH   6   7
ATOM      7  C   UNL A   1      31.367  25.231  25.355  1.00  0.00     0.361 C 
ATOM      8  O   UNL A   1      31.182  25.289  26.571  1.00  0.00    -0.245 OA
BRANCH   7   9
ATOM      9  C   UNL A   1      32.621  25.859  24.759  1.00  0.00     0.387 C 
BRANCH   9  10
ATOM     10  N   UNL A   1      32.557  27.005  23.854  1.00  0.00    -0.312 N 
ATOM     11  C   UNL A   1      29.530  30.003  23.424  1.00  0.00     0.147 C 
ATOM     12  N   UNL A   1      30.624  29.060  23.475  1.00  0.00    -0.335 N 
ATOM     13  C   UNL A   1      30.476  27.814  22.732  1.00  0.00     0.180 C 
ATOM     14  C   UNL A   1      31.591  29.209  24.470  1.00  0.00     0.283 C 
ATOM     15  C   UNL A   1      31.696  26.891  22.690  1.00  0.00     0.285 C 
ATOM     16  C   UNL A   1      32.888  28.383  24.247  1.00  0.00     0.172 C 
ATOM     17  O   UNL A   1      31.493  30.054  25.362  1.00  0.00    -0.268 OA
ATOM     18  C   UNL A   1      33.615  29.110  23.079  1.00  0.00     0.090 C 
ATOM     19  C   UNL A   1      33.832  28.467  25.456  1.00  0.00     0.090 C 
ATOM     20  H   UNL A   1      33.521  26.784  23.602  1.00  0.00     0.349 HD
ENDBRANCH   9  10
ENDBRANCH   7   9
ENDBRANCH   6   7
ENDBRANCH   5   6
ENDBRANCH   4   5
ENDBRANCH   3   4
ENDBRANCH   2   3
ENDBRANCH   1   2
BRANCH   1  21
ATOM     21  O   UNL A   1      35.086  21.002  24.676  1.00  0.00    -0.376 OA
BRANCH  21  22
ATOM     22  C   UNL A   1      36.015  21.257  25.734  1.00  0.00     0.202 C 
BRANCH  22  23
ATOM     23  C   UNL A   1      37.444  21.426  25.210  1.00  0.00     0.261 C 
BRANCH  23  24
ATOM     24  O   UNL A   1      37.952  22.718  25.574  1.00  0.00    -0.460 OA
BRANCH  24  25
ATOM     25  C   UNL A   1      39.120  22.697  26.269  1.00  0.00     0.338 C 
ATOM     26  O   UNL A   1      39.941  21.805  26.304  1.00  0.00    -0.246 OA
BRANCH  25  27
ATOM     27  C   UNL A   1      39.353  24.033  26.858  1.00  0.00     0.060 A 
ATOM     28  C   UNL A   1      40.037  24.977  26.082  1.00  0.00     0.016 A 
ATOM     29  C   UNL A   1      38.907  24.364  28.139  1.00  0.00     0.016 A 
ATOM     30  C   UNL A   1      40.309  26.242  26.595  1.00  0.00     0.010 A 
ATOM     31  C   UNL A   1      39.183  25.631  28.656  1.00  0.00     0.010 A 
ATOM     32  C   UNL A   1      39.913  26.565  27.898  1.00  0.00    -0.014 A 
BRANCH  32  33
ATOM     33  C   UNL A   1      40.393  27.820  28.521  1.00  0.00     0.031 A 
ATOM     34  C   UNL A   1      41.830  27.906  28.958  1.00  0.00     0.074 A 
ATOM     35  C   UNL A   1      39.571  28.876  28.662  1.00  0.00     0.049 A 
ATOM     36  N   UNL A   1      42.457  28.886  29.552  1.00  0.00    -0.248 NA
ATOM     37  C   UNL A   1      42.674  26.729  28.687  1.00  0.00     0.031 C 
ATOM     38  C   UNL A   1      38.171  28.927  28.236  1.00  0.00     0.029 A 
ATOM     39  N   UNL A   1      39.800  30.114  29.208  1.00  0.00    -0.354 N 
ATOM     40  C   UNL A   1      43.763  28.444  29.734  1.00  0.00     0.074 A 
ATOM     41  C   UNL A   1      43.830  27.095  29.219  1.00  0.00     0.031 C 
ATOM     42  C   UNL A   1      37.667  30.136  28.537  1.00  0.00     0.029 A 
ATOM     43  C   UNL A   1      38.693  30.929  29.210  1.00  0.00     0.049 A 
ATOM     44  H   UNL A   1      40.674  30.392  29.565  1.00  0.00     0.167 HD
ATOM     45  C   UNL A   1      44.815  29.108  30.270  1.00  0.00     0.031 A 
ATOM     46  C   UNL A   1      38.524  32.167  29.716  1.00  0.00     0.031 A 
ATOM     47  C   UNL A   1      44.739  30.447  30.791  1.00  0.00     0.049 A 
ATOM     48  C   UNL A   1      39.692  32.850  30.382  1.00  0.00     0.074 A 
ATOM     49  C   UNL A   1      45.748  31.208  31.356  1.00  0.00     0.029 A 
ATOM     50  N   UNL A   1      43.592  31.225  30.812  1.00  0.00    -0.354 N 
ATOM     51  N   UNL A   1      40.925  32.424  30.533  1.00  0.00    -0.248 NA
ATOM     52  C   UNL A   1      39.447  34.188  30.936  1.00  0.00     0.031 C 
ATOM     53  C   UNL A   1      45.196  32.424  31.771  1.00  0.00     0.029 A 
ATOM     54  C   UNL A   1      43.861  32.449  31.403  1.00  0.00     0.049 A 
ATOM     55  H   UNL A   1      42.715  30.948  30.461  1.00  0.00     0.167 HD
ATOM     56  C   UNL A   1      41.607  33.455  31.173  1.00  0.00     0.074 A 
ATOM     57  C   UNL A   1      40.656  34.533  31.352  1.00  0.00     0.031 C 
ATOM     58  C   UNL A   1      42.901  33.508  31.579  1.00  0.00     0.031 A 
BRANCH  45  59
ATOM     59  C   UNL A   1      46.134  28.385  30.341  1.00  0.00    -0.014 A 
ATOM     60  C   UNL A   1      46.992  28.325  29.228  1.00  0.00     0.010 A 
ATOM     61  C   UNL A   1      46.551  27.811  31.557  1.00  0.00     0.010 A 
ATOM     62  C   UNL A   1      48.230  27.684  29.322  1.00  0.00     0.020 A 
ATOM     63  C   UNL A   1      47.801  27.195  31.663  1.00  0.00     0.020 A 
ATOM     64  C   UNL A   1      48.629  27.128  30.541  1.00  0.00     0.054 A 
BRANCH  64  65
ATOM     65  S   UNL A   1      50.264  26.351  30.646  1.00  0.00     0.124 S 
ATOM     66  O   UNL A   1      51.109  27.477  31.037  1.00  0.00    -0.237 OA
ATOM     67  O   UNL A   1      50.065  25.330  31.672  1.00  0.00    -0.237 OA
ATOM     68  O   UNL A   1      50.495  25.839  29.298  1.00  0.00    -0.744 OA
ENDBRANCH  64  65
ENDBRANCH  45  59
BRANCH  46  69
ATOM     69  C   UNL A   1      37.196  32.840  29.644  1.00  0.00    -0.014 A 
ATOM     70  C   UNL A   1      36.784  33.497  28.471  1.00  0.00     0.010 A 
ATOM     71  C   UNL A   1      36.353  32.865  30.770  1.00  0.00     0.010 A 
ATOM     72  C   UNL A   1      35.575  34.201  28.439  1.00  0.00     0.020 A 
ATOM     73  C   UNL A   1      35.127  33.537  30.732  1.00  0.00     0.020 A 
ATOM     74  C   UNL A   1      34.756  34.218  29.571  1.00  0.00     0.054 A 
BRANCH  74  75
ATOM     75  S   UNL A   1      33.187  35.126  29.504  1.00  0.00     0.124 S 
ATOM     76  O   UNL A   1      33.630  36.468  29.138  1.00  0.00    -0.237 OA
ATOM     77  O   UNL A   1      32.448  34.400  28.474  1.00  0.00    -0.237 OA
ATOM     78  O   UNL A   1      32.655  34.989  30.857  1.00  0.00    -0.744 OA
ENDBRANCH  74  75
ENDBRANCH  46  69
BRANCH  58  79
ATOM     79  C   UNL A   1      43.368  34.789  32.221  1.00  0.00    -0.014 A 
ATOM     80  C   UNL A   1      43.127  35.058  33.580  1.00  0.00     0.010 A 
ATOM     81  C   UNL A   1      44.070  35.735  31.452  1.00  0.00     0.010 A 
ATOM     82  C   UNL A   1      43.524  36.275  34.142  1.00  0.00     0.020 A 
ATOM     83  C   UNL A   1      44.502  36.937  32.019  1.00  0.00     0.020 A 
ATOM     84  C   UNL A   1      44.203  37.210  33.355  1.00  0.00     0.054 A 
BRANCH  84  85
ATOM     85  S   UNL A   1      44.706  38.782  34.105  1.00  0.00     0.124 S 
ATOM     86  O   UNL A   1      45.524  38.333  35.228  1.00  0.00    -0.237 OA
ATOM     87  O   UNL A   1      45.433  39.437  33.020  1.00  0.00    -0.237 OA
ATOM     88  O   UNL A   1      43.440  39.413  34.470  1.00  0.00    -0.744 OA
ENDBRANCH  84  85
ENDBRANCH  58  79
ENDBRANCH  32  33
ENDBRANCH  25  27
ENDBRANCH  24  25
ENDBRANCH  23  24
ENDBRANCH  22  23
ENDBRANCH  21  22
ENDBRANCH   1  21
TORSDOF 21
ENDMDL
MODEL 3
REMARK VINA RESULT:      -8.9      6.438     11.070
REMARK SMILES CN1CC[N@H+](CC(=O)OCCOCCOCCOC(=O)c2ccc(-c3c4nc(c(-c5ccc(S(=O)(=O)[O-])cc5)c5ccc([nH]5)c(-c5ccc(S(=O)(=O)[O-])cc5)c5nc(c(-c6ccc(S(=O)(=O)[O-])cc6)c6ccc3[nH]6)C=C5)C=C4)cc2)C(C)(C)C1=O
REMARK SMILES IDX 14 1 13 2 12 3 11 4 10 5 9 6 7 7 8 8 6 9 5 10 1 11 2 12 3 13
REMARK SMILES IDX 84 14 4 15 81 16 85 17 82 18 83 19 15 21 16 22 17 23 18 24
REMARK SMILES IDX 19 25 20 26 21 27 22 28 80 29 23 30 79 31 24 32 25 33 26 34
REMARK SMILES IDX 73 35 27 36 78 37 72 38 74 39 28 40 77 41 71 42 70 43 29 45
REMARK SMILES IDX 59 46 40 47 58 48 41 49 44 50 57 51 75 52 42 53 43 54 56 56
REMARK SMILES IDX 76 57 45 58 30 59 31 60 39 61 32 62 38 63 33 64 34 65 35 66
REMARK SMILES IDX 36 67 37 68 60 69 61 70 69 71 62 72 68 73 63 74 64 75 65 76
REMARK SMILES IDX 66 77 67 78 46 79 47 80 55 81 48 82 54 83 49 84 50 85 51 86
REMARK SMILES IDX 52 87 53 88
REMARK H PARENT 5 20 74 44 44 55
REMARK Flexibility Score: inf
ROOT
ATOM      1  C   UNL A   1      39.848  21.499  26.529  1.00  0.00     0.188 C 
ENDROOT
BRANCH   1   2
ATOM      2  C   UNL A   1      38.694  22.406  26.088  1.00  0.00     0.188 C 
BRANCH   2   3
ATOM      3  O   UNL A   1      37.565  21.763  25.516  1.00  0.00    -0.376 OA
BRANCH   3   4
ATOM      4  C   UNL A   1      37.050  22.322  24.303  1.00  0.00     0.202 C 
BRANCH   4   5
ATOM      5  C   UNL A   1      35.540  22.581  24.217  1.00  0.00     0.261 C 
BRANCH   5   6
ATOM      6  O   UNL A   1      35.143  23.422  23.102  1.00  0.00    -0.459 OA
BRANCH   6   7
ATOM      7  C   UNL A   1      33.827  23.340  22.774  1.00  0.00     0.361 C 
ATOM      8  O   UNL A   1      33.422  23.359  21.612  1.00  0.00    -0.245 OA
BRANCH   7   9
ATOM      9  C   UNL A   1      32.825  23.197  23.913  1.00  0.00     0.387 C 
BRANCH   9  10
ATOM     10  N   UNL A   1      32.342  24.352  24.668  1.00  0.00    -0.312 N 
ATOM     11  C   UNL A   1      33.354  28.497  24.301  1.00  0.00     0.147 C 
ATOM     12  N   UNL A   1      32.921  27.135  24.520  1.00  0.00    -0.335 N 
ATOM     13  C   UNL A   1      33.760  26.289  25.362  1.00  0.00     0.180 C 
ATOM     14  C   UNL A   1      31.950  26.596  23.676  1.00  0.00     0.283 C 
ATOM     15  C   UNL A   1      33.218  24.896  25.691  1.00  0.00     0.285 C 
ATOM     16  C   UNL A   1      31.305  25.276  24.185  1.00  0.00     0.172 C 
ATOM     17  O   UNL A   1      31.520  27.203  22.694  1.00  0.00    -0.268 OA
ATOM     18  C   UNL A   1      30.394  25.720  25.366  1.00  0.00     0.090 C 
ATOM     19  C   UNL A   1      30.372  24.657  23.134  1.00  0.00     0.090 C 
ATOM     20  H   UNL A   1      31.662  23.718  25.088  1.00  0.00     0.349 HD
ENDBRANCH   9  10
ENDBRANCH   7   9
ENDBRANCH   6   7
ENDBRANCH   5   6
ENDBRANCH   4   5
ENDBRANCH   3   4
ENDBRANCH   2   3
ENDBRANCH   1   2
BRANCH   1  21
ATOM     21  O   UNL A   1      41.086  21.700  25.850  1.00  0.00    -0.376 OA
BRANCH  21  22
ATOM     22  C   UNL A   1      42.156  22.110  26.708  1.00  0.00     0.202 C 
BRANCH  22  23
ATOM     23  C   UNL A   1      42.615  23.539  26.404  1.00  0.00     0.261 C 
BRANCH  23  24
ATOM     24  O   UNL A   1      41.486  24.425  26.385  1.00  0.00    -0.460 OA
BRANCH  24  25
ATOM     25  C   UNL A   1      41.779  25.715  26.074  1.00  0.00     0.338 C 
ATOM     26  O   UNL A   1      42.150  26.150  25.004  1.00  0.00    -0.246 OA
BRANCH  25  27
ATOM     27  C   UNL A   1      41.396  26.582  27.209  1.00  0.00     0.060 A 
ATOM     28  C   UNL A   1      42.029  27.827  27.320  1.00  0.00     0.016 A 
ATOM     29  C   UNL A   1      40.434  26.195  28.144  1.00  0.00     0.016 A 
ATOM     30  C   UNL A   1      41.729  28.673  28.384  1.00  0.00     0.010 A 
ATOM     31  C   UNL A   1      40.136  27.042  29.213  1.00  0.00     0.010 A 
ATOM     32  C   UNL A   1      40.805  28.271  29.355  1.00  0.00    -0.014 A 
BRANCH  32  33
ATOM     33  C   UNL A   1      40.652  29.065  30.596  1.00  0.00     0.031 A 
ATOM     34  C   UNL A   1      39.581  30.120  30.651  1.00  0.00     0.074 A 
ATOM     35  C   UNL A   1      41.430  28.824  31.667  1.00  0.00     0.049 A 
ATOM     36  N   UNL A   1      39.289  30.953  31.614  1.00  0.00    -0.248 NA
ATOM     37  C   UNL A   1      38.725  30.254  29.459  1.00  0.00     0.031 C 
ATOM     38  C   UNL A   1      42.470  27.798  31.749  1.00  0.00     0.029 A 
ATOM     39  N   UNL A   1      41.463  29.433  32.896  1.00  0.00    -0.354 N 
ATOM     40  C   UNL A   1      38.223  31.713  31.145  1.00  0.00     0.074 A 
ATOM     41  C   UNL A   1      37.943  31.268  29.798  1.00  0.00     0.031 C 
ATOM     42  C   UNL A   1      43.039  27.849  32.965  1.00  0.00     0.029 A 
ATOM     43  C   UNL A   1      42.433  28.933  33.733  1.00  0.00     0.049 A 
ATOM     44  H   UNL A   1      40.851  30.159  33.154  1.00  0.00     0.167 HD
ATOM     45  C   UNL A   1      37.531  32.687  31.784  1.00  0.00     0.031 A 
ATOM     46  C   UNL A   1      42.800  29.322  34.970  1.00  0.00     0.031 A 
ATOM     47  C   UNL A   1      37.821  33.134  33.120  1.00  0.00     0.049 A 
ATOM     48  C   UNL A   1      42.065  30.465  35.625  1.00  0.00     0.074 A 
ATOM     49  C   UNL A   1      37.179  34.114  33.857  1.00  0.00     0.029 A 
ATOM     50  N   UNL A   1      38.836  32.632  33.920  1.00  0.00    -0.354 N 
ATOM     51  N   UNL A   1      41.050  31.164  35.174  1.00  0.00    -0.248 NA
ATOM     52  C   UNL A   1      42.521  30.862  36.965  1.00  0.00     0.031 C 
ATOM     53  C   UNL A   1      37.844  34.245  35.081  1.00  0.00     0.029 A 
ATOM     54  C   UNL A   1      38.855  33.299  35.135  1.00  0.00     0.049 A 
ATOM     55  H   UNL A   1      39.453  31.910  33.664  1.00  0.00     0.167 HD
ATOM     56  C   UNL A   1      40.729  32.063  36.187  1.00  0.00     0.074 A 
ATOM     57  C   UNL A   1      41.638  31.797  37.283  1.00  0.00     0.031 C 
ATOM     58  C   UNL A   1      39.771  33.025  36.211  1.00  0.00     0.031 A 
BRANCH  45  59
ATOM     59  C   UNL A   1      36.406  33.352  31.035  1.00  0.00    -0.014 A 
ATOM     60  C   UNL A   1      35.114  33.433  31.585  1.00  0.00     0.010 A 
ATOM     61  C   UNL A   1      36.659  33.959  29.790  1.00  0.00     0.010 A 
ATOM     62  C   UNL A   1      34.091  34.088  30.894  1.00  0.00     0.020 A 
ATOM     63  C   UNL A   1      35.645  34.639  29.110  1.00  0.00     0.020 A 
ATOM     64  C   UNL A   1      34.365  34.691  29.663  1.00  0.00     0.054 A 
BRANCH  64  65
ATOM     65  S   UNL A   1      33.029  35.580  28.817  1.00  0.00     0.124 S 
ATOM     66  O   UNL A   1      32.241  36.082  29.939  1.00  0.00    -0.237 OA
ATOM     67  O   UNL A   1      33.755  36.594  28.056  1.00  0.00    -0.237 OA
ATOM     68  O   UNL A   1      32.379  34.549  28.012  1.00  0.00    -0.744 OA
ENDBRANCH  64  65
ENDBRANCH  45  59
BRANCH  46  69
ATOM     69  C   UNL A   1      43.933  28.652  35.671  1.00  0.00    -0.014 A 
ATOM     70  C   UNL A   1      45.253  29.107  35.504  1.00  0.00     0.010 A 
ATOM     71  C   UNL A   1      43.699  27.522  36.475  1.00  0.00     0.010 A 
ATOM     72  C   UNL A   1      46.320  28.422  36.094  1.00  0.00     0.020 A 
ATOM     73  C   UNL A   1      44.759  26.854  37.096  1.00  0.00     0.020 A 
ATOM     74  C   UNL A   1      46.065  27.297  36.884  1.00  0.00     0.054 A 
BRANCH  74  75
ATOM     75  S   UNL A   1      47.463  26.431  37.649  1.00  0.00     0.124 S 
ATOM     76  O   UNL A   1      47.719  27.251  38.829  1.00  0.00    -0.237 OA
ATOM     77  O   UNL A   1      46.907  25.104  37.907  1.00  0.00    -0.237 OA
ATOM     78  O   UNL A   1      48.498  26.475  36.619  1.00  0.00    -0.744 OA
ENDBRANCH  74  75
ENDBRANCH  46  69
BRANCH  58  79
ATOM     79  C   UNL A   1      39.638  33.830  37.478  1.00  0.00    -0.014 A 
ATOM     80  C   UNL A   1      40.363  35.021  37.670  1.00  0.00     0.010 A 
ATOM     81  C   UNL A   1      38.763  33.393  38.490  1.00  0.00     0.010 A 
ATOM     82  C   UNL A   1      40.262  35.724  38.874  1.00  0.00     0.020 A 
ATOM     83  C   UNL A   1      38.631  34.113  39.680  1.00  0.00     0.020 A 
ATOM     84  C   UNL A   1      39.402  35.260  39.875  1.00  0.00     0.054 A 
BRANCH  84  85
ATOM     85  S   UNL A   1      39.290  36.189  41.428  1.00  0.00     0.124 S 
ATOM     86  O   UNL A   1      40.647  36.067  41.952  1.00  0.00    -0.237 OA
ATOM     87  O   UNL A   1      38.908  37.525  40.976  1.00  0.00    -0.237 OA
ATOM     88  O   UNL A   1      38.263  35.477  42.184  1.00  0.00    -0.744 OA
ENDBRANCH  84  85
ENDBRANCH  58  79
ENDBRANCH  32  33
ENDBRANCH  25  27
ENDBRANCH  24  25
ENDBRANCH  23  24
ENDBRANCH  22  23
ENDBRANCH  21  22
ENDBRANCH   1  21
TORSDOF 21
ENDMDL
