MODEL 1
REMARK VINA RESULT:      -8.9      0.000      0.000
REMARK SMILES Cn1ccnc(N[C@H]2C=C[C@H](C(=O)OCCOCCOCCOC(=O)c3ccc(-c4c5nc(c(-c6ccc(S(=O)(=O)[O-])cc6)c6ccc([nH]6)c(-c6ccc(S(=O)(=O)[O-])cc6)c6nc(c(-c7ccc(S(=O)(=O)[O-])cc7)c7ccc4[nH]7)C=C6)C=C5)cc3)C2)c1=O
REMARK SMILES IDX 19 1 18 2 17 3 16 4 15 5 14 6 12 7 13 8 11 9 8 10 9 11 86 12
REMARK SMILES IDX 10 13 7 14 6 16 1 17 2 18 3 19 87 20 4 21 88 22 5 23 20 24
REMARK SMILES IDX 21 25 22 26 23 27 24 28 25 29 26 30 27 31 85 32 28 33 84 34
REMARK SMILES IDX 29 35 30 36 31 37 78 38 32 39 83 40 77 41 79 42 33 43 82 44
REMARK SMILES IDX 76 45 75 46 34 48 64 49 45 50 63 51 46 52 49 53 62 54 80 55
REMARK SMILES IDX 47 56 48 57 61 59 81 60 50 61 35 62 36 63 44 64 37 65 43 66
REMARK SMILES IDX 38 67 39 68 40 69 41 70 42 71 65 72 66 73 74 74 67 75 73 76
REMARK SMILES IDX 68 77 69 78 70 79 71 80 72 81 51 82 52 83 60 84 53 85 59 86
REMARK SMILES IDX 54 87 55 88 56 89 57 90 58 91
REMARK H PARENT 7 15 79 47 49 58
REMARK Flexibility Score: inf
ROOT
ATOM      1  C   UNL A   1      35.347  32.683  29.143  1.00  0.00     0.188 C 
ENDROOT
BRANCH   1   2
ATOM      2  C   UNL A   1      35.131  31.358  28.385  1.00  0.00     0.188 C 
BRANCH   2   3
ATOM      3  O   UNL A   1      33.945  31.208  27.636  1.00  0.00    -0.376 OA
BRANCH   3   4
ATOM      4  C   UNL A   1      33.613  29.964  27.040  1.00  0.00     0.202 C 
BRANCH   4   5
ATOM      5  C   UNL A   1      32.813  29.785  25.735  1.00  0.00     0.261 C 
BRANCH   5   6
ATOM      6  O   UNL A   1      31.694  28.903  25.796  1.00  0.00    -0.463 OA
BRANCH   6   7
ATOM      7  C   UNL A   1      31.860  27.674  25.225  1.00  0.00     0.312 C 
ATOM      8  O   UNL A   1      32.222  27.475  24.072  1.00  0.00    -0.252 OA
BRANCH   7   9
ATOM      9  C   UNL A   1      31.637  26.580  26.259  1.00  0.00     0.124 C 
ATOM     10  C   UNL A   1      31.743  24.272  25.476  1.00  0.00     0.105 C 
ATOM     11  C   UNL A   1      30.338  24.700  25.721  1.00  0.00    -0.006 C 
ATOM     12  C   UNL A   1      32.609  25.408  26.015  1.00  0.00     0.048 C 
ATOM     13  C   UNL A   1      30.275  25.974  26.122  1.00  0.00    -0.014 C 
BRANCH  10  14
ATOM     14  N   UNL A   1      32.018  22.986  26.047  1.00  0.00    -0.359 N 
ATOM     15  H   UNL A   1      31.639  22.871  26.949  1.00  0.00     0.162 HD
BRANCH  14  16
ATOM     16  C   UNL A   1      32.703  21.881  25.598  1.00  0.00     0.193 A 
ATOM     17  C   UNL A   1      36.161  20.319  25.000  1.00  0.00     0.153 C 
ATOM     18  N   UNL A   1      34.730  20.524  25.079  1.00  0.00    -0.314 N 
ATOM     19  C   UNL A   1      33.853  19.561  24.649  1.00  0.00     0.109 A 
ATOM     20  C   UNL A   1      34.263  21.743  25.569  1.00  0.00     0.293 A 
ATOM     21  C   UNL A   1      32.534  19.768  24.702  1.00  0.00     0.131 A 
ATOM     22  O   UNL A   1      35.006  22.645  25.929  1.00  0.00    -0.265 OA
ATOM     23  N   UNL A   1      31.935  20.904  25.169  1.00  0.00    -0.233 NA
ENDBRANCH  14  16
ENDBRANCH  10  14
ENDBRANCH   7   9
ENDBRANCH   6   7
ENDBRANCH   5   6
ENDBRANCH   4   5
ENDBRANCH   3   4
ENDBRANCH   2   3
ENDBRANCH   1   2
BRANCH   1  24
ATOM     24  O   UNL A   1      35.422  33.887  28.415  1.00  0.00    -0.376 OA
BRANCH  24  25
ATOM     25  C   UNL A   1      34.234  34.587  28.079  1.00  0.00     0.202 C 
BRANCH  25  26
ATOM     26  C   UNL A   1      33.363  35.402  29.060  1.00  0.00     0.261 C 
BRANCH  26  27
ATOM     27  O   UNL A   1      32.872  34.748  30.233  1.00  0.00    -0.460 OA
BRANCH  27  28
ATOM     28  C   UNL A   1      33.054  35.422  31.395  1.00  0.00     0.338 C 
ATOM     29  O   UNL A   1      32.348  36.310  31.853  1.00  0.00    -0.246 OA
BRANCH  28  30
ATOM     30  C   UNL A   1      34.157  34.795  32.145  1.00  0.00     0.060 A 
ATOM     31  C   UNL A   1      35.467  35.259  31.951  1.00  0.00     0.016 A 
ATOM     32  C   UNL A   1      33.901  33.721  32.995  1.00  0.00     0.016 A 
ATOM     33  C   UNL A   1      36.534  34.634  32.594  1.00  0.00     0.010 A 
ATOM     34  C   UNL A   1      34.974  33.077  33.616  1.00  0.00     0.010 A 
ATOM     35  C   UNL A   1      36.296  33.509  33.394  1.00  0.00    -0.014 A 
BRANCH  35  36
ATOM     36  C   UNL A   1      37.418  32.641  33.826  1.00  0.00     0.031 A 
ATOM     37  C   UNL A   1      38.152  33.014  35.085  1.00  0.00     0.074 A 
ATOM     38  C   UNL A   1      37.801  31.570  33.107  1.00  0.00     0.049 A 
ATOM     39  N   UNL A   1      39.251  32.514  35.584  1.00  0.00    -0.248 NA
ATOM     40  C   UNL A   1      37.568  34.108  35.882  1.00  0.00     0.031 C 
ATOM     41  C   UNL A   1      37.134  31.068  31.908  1.00  0.00     0.029 A 
ATOM     42  N   UNL A   1      38.869  30.724  33.280  1.00  0.00    -0.354 N 
ATOM     43  C   UNL A   1      39.507  33.248  36.736  1.00  0.00     0.074 A 
ATOM     44  C   UNL A   1      38.459  34.238  36.853  1.00  0.00     0.031 C 
ATOM     45  C   UNL A   1      37.823  30.013  31.437  1.00  0.00     0.029 A 
ATOM     46  C   UNL A   1      39.003  29.796  32.274  1.00  0.00     0.049 A 
ATOM     47  H   UNL A   1      39.479  30.776  34.050  1.00  0.00     0.167 HD
ATOM     48  C   UNL A   1      40.525  33.111  37.617  1.00  0.00     0.031 A 
ATOM     49  C   UNL A   1      39.985  28.902  32.037  1.00  0.00     0.031 A 
ATOM     50  C   UNL A   1      41.571  32.134  37.486  1.00  0.00     0.049 A 
ATOM     51  C   UNL A   1      41.157  28.822  32.985  1.00  0.00     0.074 A 
ATOM     52  C   UNL A   1      42.645  31.908  38.328  1.00  0.00     0.029 A 
ATOM     53  N   UNL A   1      41.680  31.225  36.444  1.00  0.00    -0.354 N 
ATOM     54  N   UNL A   1      41.387  29.518  34.074  1.00  0.00    -0.248 NA
ATOM     55  C   UNL A   1      42.201  27.833  32.674  1.00  0.00     0.031 C 
ATOM     56  C   UNL A   1      43.438  30.906  37.762  1.00  0.00     0.029 A 
ATOM     57  C   UNL A   1      42.814  30.452  36.611  1.00  0.00     0.049 A 
ATOM     58  H   UNL A   1      41.043  31.143  35.698  1.00  0.00     0.167 HD
ATOM     59  C   UNL A   1      42.574  29.017  34.603  1.00  0.00     0.074 A 
ATOM     60  C   UNL A   1      43.018  27.965  33.713  1.00  0.00     0.031 C 
ATOM     61  C   UNL A   1      43.231  29.389  35.730  1.00  0.00     0.031 A 
BRANCH  48  62
ATOM     62  C   UNL A   1      40.580  34.071  38.776  1.00  0.00    -0.014 A 
ATOM     63  C   UNL A   1      41.243  35.307  38.673  1.00  0.00     0.010 A 
ATOM     64  C   UNL A   1      39.924  33.746  39.978  1.00  0.00     0.010 A 
ATOM     65  C   UNL A   1      41.281  36.183  39.762  1.00  0.00     0.020 A 
ATOM     66  C   UNL A   1      39.931  34.632  41.058  1.00  0.00     0.020 A 
ATOM     67  C   UNL A   1      40.624  35.839  40.948  1.00  0.00     0.054 A 
BRANCH  67  68
ATOM     68  S   UNL A   1      40.668  37.005  42.335  1.00  0.00     0.124 S 
ATOM     69  O   UNL A   1      39.278  36.991  42.785  1.00  0.00    -0.237 OA
ATOM     70  O   UNL A   1      41.627  36.382  43.244  1.00  0.00    -0.237 OA
ATOM     71  O   UNL A   1      41.111  38.256  41.725  1.00  0.00    -0.744 OA
ENDBRANCH  67  68
ENDBRANCH  48  62
BRANCH  49  72
ATOM     72  C   UNL A   1      39.920  28.021  30.836  1.00  0.00    -0.014 A 
ATOM     73  C   UNL A   1      38.944  27.014  30.738  1.00  0.00     0.010 A 
ATOM     74  C   UNL A   1      40.842  28.180  29.785  1.00  0.00     0.010 A 
ATOM     75  C   UNL A   1      38.903  26.170  29.623  1.00  0.00     0.020 A 
ATOM     76  C   UNL A   1      40.785  27.359  28.654  1.00  0.00     0.020 A 
ATOM     77  C   UNL A   1      39.822  26.351  28.587  1.00  0.00     0.054 A 
BRANCH  77  78
ATOM     78  S   UNL A   1      39.718  25.274  27.129  1.00  0.00     0.124 S 
ATOM     79  O   UNL A   1      38.276  25.133  26.957  1.00  0.00    -0.237 OA
ATOM     80  O   UNL A   1      40.403  26.062  26.109  1.00  0.00    -0.237 OA
ATOM     81  O   UNL A   1      40.420  24.063  27.548  1.00  0.00    -0.744 OA
ENDBRANCH  77  78
ENDBRANCH  49  72
BRANCH  61  82
ATOM     82  C   UNL A   1      44.459  28.612  36.127  1.00  0.00    -0.014 A 
ATOM     83  C   UNL A   1      45.750  29.020  35.751  1.00  0.00     0.010 A 
ATOM     84  C   UNL A   1      44.315  27.506  36.988  1.00  0.00     0.010 A 
ATOM     85  C   UNL A   1      46.873  28.330  36.221  1.00  0.00     0.020 A 
ATOM     86  C   UNL A   1      45.434  26.834  37.483  1.00  0.00     0.020 A 
ATOM     87  C   UNL A   1      46.708  27.246  37.090  1.00  0.00     0.054 A 
BRANCH  87  88
ATOM     88  S   UNL A   1      48.183  26.422  37.750  1.00  0.00     0.124 S 
ATOM     89  O   UNL A   1      49.034  27.556  38.099  1.00  0.00    -0.237 OA
ATOM     90  O   UNL A   1      47.649  25.666  38.880  1.00  0.00    -0.237 OA
ATOM     91  O   UNL A   1      48.658  25.609  36.633  1.00  0.00    -0.744 OA
ENDBRANCH  87  88
ENDBRANCH  61  82
ENDBRANCH  35  36
ENDBRANCH  28  30
ENDBRANCH  27  28
ENDBRANCH  26  27
ENDBRANCH  25  26
ENDBRANCH  24  25
ENDBRANCH   1  24
TORSDOF 22
ENDMDL
MODEL 2
REMARK VINA RESULT:      -8.9      2.202      3.862
REMARK SMILES Cn1ccnc(N[C@H]2C=C[C@H](C(=O)OCCOCCOCCOC(=O)c3ccc(-c4c5nc(c(-c6ccc(S(=O)(=O)[O-])cc6)c6ccc([nH]6)c(-c6ccc(S(=O)(=O)[O-])cc6)c6nc(c(-c7ccc(S(=O)(=O)[O-])cc7)c7ccc4[nH]7)C=C6)C=C5)cc3)C2)c1=O
REMARK SMILES IDX 19 1 18 2 17 3 16 4 15 5 14 6 12 7 13 8 11 9 8 10 9 11 86 12
REMARK SMILES IDX 10 13 7 14 6 16 1 17 2 18 3 19 87 20 4 21 88 22 5 23 20 24
REMARK SMILES IDX 21 25 22 26 23 27 24 28 25 29 26 30 27 31 85 32 28 33 84 34
REMARK SMILES IDX 29 35 30 36 31 37 78 38 32 39 83 40 77 41 79 42 33 43 82 44
REMARK SMILES IDX 76 45 75 46 34 48 64 49 45 50 63 51 46 52 49 53 62 54 80 55
REMARK SMILES IDX 47 56 48 57 61 59 81 60 50 61 35 62 36 63 44 64 37 65 43 66
REMARK SMILES IDX 38 67 39 68 40 69 41 70 42 71 65 72 66 73 74 74 67 75 73 76
REMARK SMILES IDX 68 77 69 78 70 79 71 80 72 81 51 82 52 83 60 84 53 85 59 86
REMARK SMILES IDX 54 87 55 88 56 89 57 90 58 91
REMARK H PARENT 7 15 79 47 49 58
REMARK Flexibility Score: inf
ROOT
ATOM      1  C   UNL A   1      32.679  29.755  26.432  1.00  0.00     0.188 C 
ENDROOT
BRANCH   1   2
ATOM      2  C   UNL A   1      32.482  28.413  25.701  1.00  0.00     0.188 C 
BRANCH   2   3
ATOM      3  O   UNL A   1      33.410  27.380  25.951  1.00  0.00    -0.376 OA
BRANCH   3   4
ATOM      4  C   UNL A   1      33.827  26.510  24.910  1.00  0.00     0.202 C 
BRANCH   4   5
ATOM      5  C   UNL A   1      34.191  25.023  25.083  1.00  0.00     0.261 C 
BRANCH   5   6
ATOM      6  O   UNL A   1      33.360  24.085  24.401  1.00  0.00    -0.463 OA
BRANCH   6   7
ATOM      7  C   UNL A   1      32.792  23.109  25.170  1.00  0.00     0.312 C 
ATOM      8  O   UNL A   1      33.410  22.291  25.839  1.00  0.00    -0.252 OA
BRANCH   7   9
ATOM      9  C   UNL A   1      31.278  23.250  25.163  1.00  0.00     0.124 C 
ATOM     10  C   UNL A   1      30.363  25.385  24.417  1.00  0.00     0.105 C 
ATOM     11  C   UNL A   1      30.278  25.244  25.897  1.00  0.00    -0.006 C 
ATOM     12  C   UNL A   1      30.819  24.019  23.908  1.00  0.00     0.048 C 
ATOM     13  C   UNL A   1      30.805  24.087  26.311  1.00  0.00    -0.014 C 
BRANCH  10  14
ATOM     14  N   UNL A   1      29.132  25.855  23.852  1.00  0.00    -0.359 N 
ATOM     15  H   UNL A   1      28.474  25.138  23.701  1.00  0.00     0.162 HD
BRANCH  14  16
ATOM     16  C   UNL A   1      28.679  27.098  23.476  1.00  0.00     0.193 A 
ATOM     17  C   UNL A   1      29.583  30.421  21.774  1.00  0.00     0.153 C 
ATOM     18  N   UNL A   1      28.860  29.362  22.445  1.00  0.00    -0.314 N 
ATOM     19  C   UNL A   1      27.551  29.529  22.825  1.00  0.00     0.109 A 
ATOM     20  C   UNL A   1      29.536  28.178  22.732  1.00  0.00     0.293 A 
ATOM     21  C   UNL A   1      26.899  28.556  23.466  1.00  0.00     0.131 A 
ATOM     22  O   UNL A   1      30.712  27.995  22.446  1.00  0.00    -0.265 OA
ATOM     23  N   UNL A   1      27.429  27.341  23.799  1.00  0.00    -0.233 NA
ENDBRANCH  14  16
ENDBRANCH  10  14
ENDBRANCH   7   9
ENDBRANCH   6   7
ENDBRANCH   5   6
ENDBRANCH   4   5
ENDBRANCH   3   4
ENDBRANCH   2   3
ENDBRANCH   1   2
BRANCH   1  24
ATOM     24  O   UNL A   1      31.627  30.693  26.444  1.00  0.00    -0.376 OA
BRANCH  24  25
ATOM     25  C   UNL A   1      31.852  32.003  26.940  1.00  0.00     0.202 C 
BRANCH  25  26
ATOM     26  C   UNL A   1      33.156  32.503  27.599  1.00  0.00     0.261 C 
BRANCH  26  27
ATOM     27  O   UNL A   1      33.476  33.893  27.499  1.00  0.00    -0.460 OA
BRANCH  27  28
ATOM     28  C   UNL A   1      33.413  34.591  28.660  1.00  0.00     0.338 C 
ATOM     29  O   UNL A   1      32.517  35.340  29.024  1.00  0.00    -0.246 OA
BRANCH  28  30
ATOM     30  C   UNL A   1      34.524  34.171  29.532  1.00  0.00     0.060 A 
ATOM     31  C   UNL A   1      35.843  34.308  29.073  1.00  0.00     0.016 A 
ATOM     32  C   UNL A   1      34.259  33.599  30.775  1.00  0.00     0.016 A 
ATOM     33  C   UNL A   1      36.907  33.851  29.851  1.00  0.00     0.010 A 
ATOM     34  C   UNL A   1      35.323  33.115  31.539  1.00  0.00     0.010 A 
ATOM     35  C   UNL A   1      36.647  33.210  31.068  1.00  0.00    -0.014 A 
BRANCH  35  36
ATOM     36  C   UNL A   1      37.711  32.439  31.755  1.00  0.00     0.031 A 
ATOM     37  C   UNL A   1      38.191  32.939  33.091  1.00  0.00     0.074 A 
ATOM     38  C   UNL A   1      38.264  31.346  31.200  1.00  0.00     0.049 A 
ATOM     39  N   UNL A   1      39.205  32.539  33.811  1.00  0.00    -0.248 NA
ATOM     40  C   UNL A   1      37.427  34.050  33.686  1.00  0.00     0.031 C 
ATOM     41  C   UNL A   1      37.844  30.725  29.945  1.00  0.00     0.029 A 
ATOM     42  N   UNL A   1      39.320  30.576  31.622  1.00  0.00    -0.354 N 
ATOM     43  C   UNL A   1      39.218  33.363  34.930  1.00  0.00     0.074 A 
ATOM     44  C   UNL A   1      38.123  34.297  34.784  1.00  0.00     0.031 C 
ATOM     45  C   UNL A   1      38.653  29.682  29.685  1.00  0.00     0.029 A 
ATOM     46  C   UNL A   1      39.672  29.591  30.730  1.00  0.00     0.049 A 
ATOM     47  H   UNL A   1      39.780  30.716  32.480  1.00  0.00     0.167 HD
ATOM     48  C   UNL A   1      40.068  33.346  35.983  1.00  0.00     0.031 A 
ATOM     49  C   UNL A   1      40.720  28.741  30.738  1.00  0.00     0.031 A 
ATOM     50  C   UNL A   1      41.163  32.423  36.113  1.00  0.00     0.049 A 
ATOM     51  C   UNL A   1      41.707  28.793  31.879  1.00  0.00     0.074 A 
ATOM     52  C   UNL A   1      42.078  32.318  37.145  1.00  0.00     0.029 A 
ATOM     53  N   UNL A   1      41.496  31.454  35.180  1.00  0.00    -0.354 N 
ATOM     54  N   UNL A   1      41.707  29.574  32.935  1.00  0.00    -0.248 NA
ATOM     55  C   UNL A   1      42.832  27.847  31.834  1.00  0.00     0.031 C 
ATOM     56  C   UNL A   1      43.003  31.327  36.805  1.00  0.00     0.029 A 
ATOM     57  C   UNL A   1      42.615  30.760  35.601  1.00  0.00     0.049 A 
ATOM     58  H   UNL A   1      41.007  31.284  34.342  1.00  0.00     0.167 HD
ATOM     59  C   UNL A   1      42.802  29.180  33.700  1.00  0.00     0.074 A 
ATOM     60  C   UNL A   1      43.444  28.096  32.985  1.00  0.00     0.031 C 
ATOM     61  C   UNL A   1      43.230  29.665  34.892  1.00  0.00     0.031 A 
BRANCH  48  62
ATOM     62  C   UNL A   1      39.873  34.385  37.056  1.00  0.00    -0.014 A 
ATOM     63  C   UNL A   1      40.477  35.651  36.968  1.00  0.00     0.010 A 
ATOM     64  C   UNL A   1      39.038  34.100  38.153  1.00  0.00     0.010 A 
ATOM     65  C   UNL A   1      40.281  36.600  37.976  1.00  0.00     0.020 A 
ATOM     66  C   UNL A   1      38.813  35.056  39.145  1.00  0.00     0.020 A 
ATOM     67  C   UNL A   1      39.449  36.296  39.058  1.00  0.00     0.054 A 
BRANCH  67  68
ATOM     68  S   UNL A   1      39.193  37.555  40.338  1.00  0.00     0.124 S 
ATOM     69  O   UNL A   1      38.827  36.740  41.494  1.00  0.00    -0.237 OA
ATOM     70  O   UNL A   1      40.500  38.201  40.414  1.00  0.00    -0.237 OA
ATOM     71  O   UNL A   1      38.119  38.386  39.798  1.00  0.00    -0.744 OA
ENDBRANCH  67  68
ENDBRANCH  48  62
BRANCH  49  72
ATOM     72  C   UNL A   1      40.909  27.777  29.617  1.00  0.00    -0.014 A 
ATOM     73  C   UNL A   1      40.197  26.565  29.584  1.00  0.00     0.010 A 
ATOM     74  C   UNL A   1      41.812  28.063  28.576  1.00  0.00     0.010 A 
ATOM     75  C   UNL A   1      40.398  25.651  28.545  1.00  0.00     0.020 A 
ATOM     76  C   UNL A   1      41.993  27.166  27.519  1.00  0.00     0.020 A 
ATOM     77  C   UNL A   1      41.292  25.959  27.517  1.00  0.00     0.054 A 
BRANCH  77  78
ATOM     78  S   UNL A   1      41.500  24.776  26.156  1.00  0.00     0.124 S 
ATOM     79  O   UNL A   1      42.581  23.930  26.651  1.00  0.00    -0.237 OA
ATOM     80  O   UNL A   1      40.185  24.146  26.085  1.00  0.00    -0.237 OA
ATOM     81  O   UNL A   1      41.841  25.624  25.015  1.00  0.00    -0.744 OA
ENDBRANCH  77  78
ENDBRANCH  49  72
BRANCH  61  82
ATOM     82  C   UNL A   1      44.401  28.989  35.557  1.00  0.00    -0.014 A 
ATOM     83  C   UNL A   1      45.725  29.397  35.322  1.00  0.00     0.010 A 
ATOM     84  C   UNL A   1      44.152  27.991  36.521  1.00  0.00     0.010 A 
ATOM     85  C   UNL A   1      46.779  28.811  36.032  1.00  0.00     0.020 A 
ATOM     86  C   UNL A   1      45.199  27.427  37.253  1.00  0.00     0.020 A 
ATOM     87  C   UNL A   1      46.509  27.836  36.998  1.00  0.00     0.054 A 
BRANCH  87  88
ATOM     88  S   UNL A   1      47.886  27.155  37.963  1.00  0.00     0.124 S 
ATOM     89  O   UNL A   1      48.876  28.224  37.877  1.00  0.00    -0.237 OA
ATOM     90  O   UNL A   1      47.287  26.958  39.280  1.00  0.00    -0.237 OA
ATOM     91  O   UNL A   1      48.234  25.926  37.253  1.00  0.00    -0.744 OA
ENDBRANCH  87  88
ENDBRANCH  61  82
ENDBRANCH  35  36
ENDBRANCH  28  30
ENDBRANCH  27  28
ENDBRANCH  26  27
ENDBRANCH  25  26
ENDBRANCH  24  25
ENDBRANCH   1  24
TORSDOF 22
ENDMDL
MODEL 3
REMARK VINA RESULT:      -8.8      7.055     11.359
REMARK SMILES Cn1ccnc(N[C@H]2C=C[C@H](C(=O)OCCOCCOCCOC(=O)c3ccc(-c4c5nc(c(-c6ccc(S(=O)(=O)[O-])cc6)c6ccc([nH]6)c(-c6ccc(S(=O)(=O)[O-])cc6)c6nc(c(-c7ccc(S(=O)(=O)[O-])cc7)c7ccc4[nH]7)C=C6)C=C5)cc3)C2)c1=O
REMARK SMILES IDX 19 1 18 2 17 3 16 4 15 5 14 6 12 7 13 8 11 9 8 10 9 11 86 12
REMARK SMILES IDX 10 13 7 14 6 16 1 17 2 18 3 19 87 20 4 21 88 22 5 23 20 24
REMARK SMILES IDX 21 25 22 26 23 27 24 28 25 29 26 30 27 31 85 32 28 33 84 34
REMARK SMILES IDX 29 35 30 36 31 37 78 38 32 39 83 40 77 41 79 42 33 43 82 44
REMARK SMILES IDX 76 45 75 46 34 48 64 49 45 50 63 51 46 52 49 53 62 54 80 55
REMARK SMILES IDX 47 56 48 57 61 59 81 60 50 61 35 62 36 63 44 64 37 65 43 66
REMARK SMILES IDX 38 67 39 68 40 69 41 70 42 71 65 72 66 73 74 74 67 75 73 76
REMARK SMILES IDX 68 77 69 78 70 79 71 80 72 81 51 82 52 83 60 84 53 85 59 86
REMARK SMILES IDX 54 87 55 88 56 89 57 90 58 91
REMARK H PARENT 7 15 79 47 49 58
REMARK Flexibility Score: inf
ROOT
ATOM      1  C   UNL A   1      32.150  30.737  26.234  1.00  0.00     0.188 C 
ENDROOT
BRANCH   1   2
ATOM      2  C   UNL A   1      31.418  29.693  25.367  1.00  0.00     0.188 C 
BRANCH   2   3
ATOM      3  O   UNL A   1      32.199  28.749  24.666  1.00  0.00    -0.376 OA
BRANCH   3   4
ATOM      4  C   UNL A   1      31.804  27.388  24.594  1.00  0.00     0.202 C 
BRANCH   4   5
ATOM      5  C   UNL A   1      32.722  26.212  24.210  1.00  0.00     0.261 C 
BRANCH   5   6
ATOM      6  O   UNL A   1      32.201  25.289  23.255  1.00  0.00    -0.463 OA
BRANCH   6   7
ATOM      7  C   UNL A   1      33.062  24.880  22.277  1.00  0.00     0.312 C 
ATOM      8  O   UNL A   1      33.693  25.623  21.538  1.00  0.00    -0.252 OA
BRANCH   7   9
ATOM      9  C   UNL A   1      33.210  23.366  22.308  1.00  0.00     0.124 C 
ATOM     10  C   UNL A   1      32.492  22.220  24.339  1.00  0.00     0.105 C 
ATOM     11  C   UNL A   1      33.976  22.298  24.254  1.00  0.00    -0.006 C 
ATOM     12  C   UNL A   1      31.984  22.724  22.989  1.00  0.00     0.048 C 
ATOM     13  C   UNL A   1      34.372  22.951  23.156  1.00  0.00    -0.014 C 
BRANCH  10  14
ATOM     14  N   UNL A   1      32.044  20.906  24.695  1.00  0.00    -0.359 N 
ATOM     15  H   UNL A   1      31.359  20.906  25.403  1.00  0.00     0.162 HD
BRANCH  14  16
ATOM     16  C   UNL A   1      32.372  19.645  24.254  1.00  0.00     0.193 A 
ATOM     17  C   UNL A   1      33.532  16.129  25.278  1.00  0.00     0.153 C 
ATOM     18  N   UNL A   1      33.094  17.271  24.504  1.00  0.00    -0.314 N 
ATOM     19  C   UNL A   1      32.984  17.198  23.137  1.00  0.00     0.109 A 
ATOM     20  C   UNL A   1      32.820  18.461  25.176  1.00  0.00     0.293 A 
ATOM     21  C   UNL A   1      32.602  18.264  22.428  1.00  0.00     0.131 A 
ATOM     22  O   UNL A   1      32.939  18.584  26.387  1.00  0.00    -0.265 OA
ATOM     23  N   UNL A   1      32.289  19.487  22.952  1.00  0.00    -0.233 NA
ENDBRANCH  14  16
ENDBRANCH  10  14
ENDBRANCH   7   9
ENDBRANCH   6   7
ENDBRANCH   5   6
ENDBRANCH   4   5
ENDBRANCH   3   4
ENDBRANCH   2   3
ENDBRANCH   1   2
BRANCH   1  24
ATOM     24  O   UNL A   1      33.539  30.613  26.434  1.00  0.00    -0.376 OA
BRANCH  24  25
ATOM     25  C   UNL A   1      34.046  29.575  27.258  1.00  0.00     0.202 C 
BRANCH  25  26
ATOM     26  C   UNL A   1      34.816  29.773  28.582  1.00  0.00     0.261 C 
BRANCH  26  27
ATOM     27  O   UNL A   1      36.065  29.098  28.745  1.00  0.00    -0.460 OA
BRANCH  27  28
ATOM     28  C   UNL A   1      36.791  29.468  29.829  1.00  0.00     0.338 C 
ATOM     29  O   UNL A   1      36.395  29.576  30.981  1.00  0.00    -0.246 OA
BRANCH  28  30
ATOM     30  C   UNL A   1      38.212  29.554  29.448  1.00  0.00     0.060 A 
ATOM     31  C   UNL A   1      38.547  29.783  28.105  1.00  0.00     0.016 A 
ATOM     32  C   UNL A   1      39.205  29.359  30.406  1.00  0.00     0.016 A 
ATOM     33  C   UNL A   1      39.884  29.797  27.709  1.00  0.00     0.010 A 
ATOM     34  C   UNL A   1      40.542  29.344  30.003  1.00  0.00     0.010 A 
ATOM     35  C   UNL A   1      40.886  29.530  28.650  1.00  0.00    -0.014 A 
BRANCH  35  36
ATOM     36  C   UNL A   1      42.269  29.223  28.211  1.00  0.00     0.031 A 
ATOM     37  C   UNL A   1      42.591  27.799  27.846  1.00  0.00     0.074 A 
ATOM     38  C   UNL A   1      43.224  30.169  28.167  1.00  0.00     0.049 A 
ATOM     39  N   UNL A   1      43.748  27.251  27.586  1.00  0.00    -0.248 NA
ATOM     40  C   UNL A   1      41.451  26.867  27.778  1.00  0.00     0.031 C 
ATOM     41  C   UNL A   1      43.024  31.592  28.433  1.00  0.00     0.029 A 
ATOM     42  N   UNL A   1      44.567  30.059  27.901  1.00  0.00    -0.354 N 
ATOM     43  C   UNL A   1      43.481  25.908  27.350  1.00  0.00     0.074 A 
ATOM     44  C   UNL A   1      42.056  25.720  27.516  1.00  0.00     0.031 C 
ATOM     45  C   UNL A   1      44.209  32.221  28.340  1.00  0.00     0.029 A 
ATOM     46  C   UNL A   1      45.255  31.240  28.055  1.00  0.00     0.049 A 
ATOM     47  H   UNL A   1      44.995  29.217  27.625  1.00  0.00     0.167 HD
ATOM     48  C   UNL A   1      44.346  24.918  27.026  1.00  0.00     0.031 A 
ATOM     49  C   UNL A   1      46.580  31.489  28.009  1.00  0.00     0.031 A 
ATOM     50  C   UNL A   1      45.763  25.109  26.878  1.00  0.00     0.049 A 
ATOM     51  C   UNL A   1      47.537  30.356  27.731  1.00  0.00     0.074 A 
ATOM     52  C   UNL A   1      46.725  24.173  26.546  1.00  0.00     0.029 A 
ATOM     53  N   UNL A   1      46.422  26.316  27.060  1.00  0.00    -0.354 N 
ATOM     54  N   UNL A   1      47.274  29.090  27.505  1.00  0.00    -0.248 NA
ATOM     55  C   UNL A   1      48.971  30.684  27.698  1.00  0.00     0.031 C 
ATOM     56  C   UNL A   1      47.974  24.800  26.589  1.00  0.00     0.029 A 
ATOM     57  C   UNL A   1      47.780  26.143  26.867  1.00  0.00     0.049 A 
ATOM     58  H   UNL A   1      45.986  27.168  27.291  1.00  0.00     0.167 HD
ATOM     59  C   UNL A   1      48.502  28.484  27.255  1.00  0.00     0.074 A 
ATOM     60  C   UNL A   1      49.510  29.518  27.363  1.00  0.00     0.031 C 
ATOM     61  C   UNL A   1      48.770  27.189  26.953  1.00  0.00     0.031 A 
BRANCH  48  62
ATOM     62  C   UNL A   1      43.787  23.530  26.856  1.00  0.00    -0.014 A 
ATOM     63  C   UNL A   1      43.368  22.767  27.961  1.00  0.00     0.010 A 
ATOM     64  C   UNL A   1      43.644  22.994  25.562  1.00  0.00     0.010 A 
ATOM     65  C   UNL A   1      42.852  21.481  27.778  1.00  0.00     0.020 A 
ATOM     66  C   UNL A   1      43.099  21.722  25.373  1.00  0.00     0.020 A 
ATOM     67  C   UNL A   1      42.721  20.967  26.485  1.00  0.00     0.054 A 
BRANCH  67  68
ATOM     68  S   UNL A   1      42.024  19.306  26.276  1.00  0.00     0.124 S 
ATOM     69  O   UNL A   1      40.592  19.586  26.204  1.00  0.00    -0.237 OA
ATOM     70  O   UNL A   1      42.639  18.858  25.029  1.00  0.00    -0.237 OA
ATOM     71  O   UNL A   1      42.459  18.593  27.475  1.00  0.00    -0.744 OA
ENDBRANCH  67  68
ENDBRANCH  48  62
BRANCH  49  72
ATOM     72  C   UNL A   1      47.090  32.868  28.254  1.00  0.00    -0.014 A 
ATOM     73  C   UNL A   1      47.414  33.293  29.555  1.00  0.00     0.010 A 
ATOM     74  C   UNL A   1      47.246  33.771  27.185  1.00  0.00     0.010 A 
ATOM     75  C   UNL A   1      47.865  34.597  29.785  1.00  0.00     0.020 A 
ATOM     76  C   UNL A   1      47.727  35.065  27.407  1.00  0.00     0.020 A 
ATOM     77  C   UNL A   1      48.022  35.474  28.709  1.00  0.00     0.054 A 
BRANCH  77  78
ATOM     78  S   UNL A   1      48.654  37.145  29.028  1.00  0.00     0.124 S 
ATOM     79  O   UNL A   1      48.884  37.645  27.676  1.00  0.00    -0.237 OA
ATOM     80  O   UNL A   1      47.547  37.765  29.751  1.00  0.00    -0.237 OA
ATOM     81  O   UNL A   1      49.857  36.910  29.823  1.00  0.00    -0.744 OA
ENDBRANCH  77  78
ENDBRANCH  49  72
BRANCH  61  82
ATOM     82  C   UNL A   1      50.194  26.812  26.634  1.00  0.00    -0.014 A 
ATOM     83  C   UNL A   1      51.127  26.512  27.642  1.00  0.00     0.010 A 
ATOM     84  C   UNL A   1      50.569  26.652  25.284  1.00  0.00     0.010 A 
ATOM     85  C   UNL A   1      52.411  26.071  27.305  1.00  0.00     0.020 A 
ATOM     86  C   UNL A   1      51.840  26.182  24.946  1.00  0.00     0.020 A 
ATOM     87  C   UNL A   1      52.756  25.901  25.960  1.00  0.00     0.054 A 
BRANCH  87  88
ATOM     88  S   UNL A   1      54.399  25.247  25.554  1.00  0.00     0.124 S 
ATOM     89  O   UNL A   1      55.208  25.747  26.662  1.00  0.00    -0.237 OA
ATOM     90  O   UNL A   1      54.175  23.803  25.542  1.00  0.00    -0.237 OA
ATOM     91  O   UNL A   1      54.697  25.837  24.251  1.00  0.00    -0.744 OA
ENDBRANCH  87  88
ENDBRANCH  61  82
ENDBRANCH  35  36
ENDBRANCH  28  30
ENDBRANCH  27  28
ENDBRANCH  26  27
ENDBRANCH  25  26
ENDBRANCH  24  25
ENDBRANCH   1  24
TORSDOF 22
ENDMDL
