MODEL 1
REMARK VINA RESULT:      -9.0      0.000      0.000
REMARK SMILES O=C(Cn1c2ccccc2c(=O)c2cc(F)ccc21)OCCOCCOCCOC(=O)c1ccc(-c2c3nc(c(-c4ccc(S(=O)(=O)[O-])cc4)c4ccc([nH]4)c(-c4ccc(S(=O)(=O)[O-])cc4)c4nc(c(-c5ccc(S(=O)(=O)[O-])cc5)c5ccc2[nH]5)C=C4)C=C3)cc1
REMARK SMILES IDX 25 1 24 2 23 3 22 4 21 5 20 6 2 7 1 8 3 9 4 10 5 11 19 12
REMARK SMILES IDX 6 13 10 14 13 15 18 16 7 17 9 18 11 19 14 20 17 21 8 22
REMARK SMILES IDX 12 23 15 24 16 25 26 26 27 27 28 28 29 29 30 30 31 31 32 32
REMARK SMILES IDX 33 33 91 34 34 35 90 36 35 37 36 38 37 39 84 40 38 41 89 42
REMARK SMILES IDX 83 43 85 44 39 45 88 46 82 47 81 48 40 50 70 51 51 52 69 53
REMARK SMILES IDX 52 54 55 55 68 56 86 57 53 58 54 59 67 61 87 62 56 63 41 64
REMARK SMILES IDX 42 65 50 66 43 67 49 68 44 69 45 70 46 71 47 72 48 73 71 74
REMARK SMILES IDX 72 75 80 76 73 77 79 78 74 79 75 80 76 81 77 82 78 83 57 84
REMARK SMILES IDX 58 85 66 86 59 87 65 88 60 89 61 90 62 91 63 92 64 93
REMARK H PARENT 85 49 55 60
REMARK Flexibility Score: inf
ROOT
ATOM      1  C   UNL A   1      33.697  35.446  31.332  1.00  0.00     0.188 C 
ENDROOT
BRANCH   1   2
ATOM      2  C   UNL A   1      33.606  34.725  32.672  1.00  0.00     0.188 C 
BRANCH   2   3
ATOM      3  O   UNL A   1      33.590  33.295  32.650  1.00  0.00    -0.376 OA
BRANCH   3   4
ATOM      4  C   UNL A   1      34.881  32.686  32.557  1.00  0.00     0.202 C 
BRANCH   4   5
ATOM      5  C   UNL A   1      35.905  32.978  33.666  1.00  0.00     0.261 C 
BRANCH   5   6
ATOM      6  O   UNL A   1      37.278  32.695  33.366  1.00  0.00    -0.462 OA
BRANCH   6   7
ATOM      7  C   UNL A   1      38.195  33.615  32.987  1.00  0.00     0.326 C 
ATOM      8  O   UNL A   1      37.822  34.595  32.336  1.00  0.00    -0.250 OA
BRANCH   7   9
ATOM      9  C   UNL A   1      39.673  33.416  33.322  1.00  0.00     0.245 C 
BRANCH   9  10
ATOM     10  N   UNL A   1      39.903  32.798  34.647  1.00  0.00    -0.329 N 
ATOM     11  C   UNL A   1      40.009  33.628  35.786  1.00  0.00     0.053 A 
ATOM     12  C   UNL A   1      40.267  31.428  34.658  1.00  0.00     0.053 A 
ATOM     13  C   UNL A   1      39.510  34.942  35.846  1.00  0.00     0.027 A 
ATOM     14  C   UNL A   1      40.692  33.154  36.922  1.00  0.00     0.046 A 
ATOM     15  C   UNL A   1      40.977  30.907  35.754  1.00  0.00     0.049 A 
ATOM     16  C   UNL A   1      39.993  30.548  33.594  1.00  0.00     0.030 A 
ATOM     17  C   UNL A   1      39.747  35.766  36.954  1.00  0.00     0.002 A 
ATOM     18  C   UNL A   1      40.921  33.973  38.039  1.00  0.00     0.014 A 
ATOM     19  C   UNL A   1      41.256  31.786  36.911  1.00  0.00     0.197 A 
ATOM     20  C   UNL A   1      41.478  29.600  35.749  1.00  0.00     0.053 A 
ATOM     21  C   UNL A   1      40.507  29.249  33.572  1.00  0.00     0.041 A 
ATOM     22  C   UNL A   1      40.460  35.285  38.047  1.00  0.00     0.001 A 
ATOM     23  O   UNL A   1      41.972  31.397  37.829  1.00  0.00    -0.288 OA
ATOM     24  C   UNL A   1      41.257  28.793  34.645  1.00  0.00     0.124 A 
ATOM     25  F   UNL A   1      41.778  27.560  34.606  1.00  0.00    -0.207 F 
ENDBRANCH   9  10
ENDBRANCH   7   9
ENDBRANCH   6   7
ENDBRANCH   5   6
ENDBRANCH   4   5
ENDBRANCH   3   4
ENDBRANCH   2   3
ENDBRANCH   1   2
BRANCH   1  26
ATOM     26  O   UNL A   1      33.174  34.749  30.212  1.00  0.00    -0.376 OA
BRANCH  26  27
ATOM     27  C   UNL A   1      34.046  34.556  29.100  1.00  0.00     0.202 C 
BRANCH  27  28
ATOM     28  C   UNL A   1      33.922  33.242  28.323  1.00  0.00     0.261 C 
BRANCH  28  29
ATOM     29  O   UNL A   1      34.600  32.138  28.960  1.00  0.00    -0.460 OA
BRANCH  29  30
ATOM     30  C   UNL A   1      34.534  30.956  28.301  1.00  0.00     0.338 C 
ATOM     31  O   UNL A   1      33.612  30.552  27.603  1.00  0.00    -0.246 OA
BRANCH  30  32
ATOM     32  C   UNL A   1      35.800  30.214  28.434  1.00  0.00     0.060 A 
ATOM     33  C   UNL A   1      36.699  30.186  27.368  1.00  0.00     0.016 A 
ATOM     34  C   UNL A   1      36.164  29.694  29.683  1.00  0.00     0.016 A 
ATOM     35  C   UNL A   1      37.984  29.671  27.568  1.00  0.00     0.010 A 
ATOM     36  C   UNL A   1      37.452  29.182  29.879  1.00  0.00     0.010 A 
ATOM     37  C   UNL A   1      38.383  29.193  28.830  1.00  0.00    -0.014 A 
BRANCH  37  38
ATOM     38  C   UNL A   1      39.814  28.866  29.072  1.00  0.00     0.031 A 
ATOM     39  C   UNL A   1      40.742  29.823  29.760  1.00  0.00     0.074 A 
ATOM     40  C   UNL A   1      40.279  27.665  28.672  1.00  0.00     0.049 A 
ATOM     41  N   UNL A   1      41.963  29.615  30.181  1.00  0.00    -0.248 NA
ATOM     42  C   UNL A   1      40.243  31.184  30.005  1.00  0.00     0.031 C 
ATOM     43  C   UNL A   1      39.489  26.660  27.958  1.00  0.00     0.029 A 
ATOM     44  N   UNL A   1      41.511  27.076  28.824  1.00  0.00    -0.354 N 
ATOM     45  C   UNL A   1      42.373  30.804  30.768  1.00  0.00     0.074 A 
ATOM     46  C   UNL A   1      41.287  31.748  30.601  1.00  0.00     0.031 C 
ATOM     47  C   UNL A   1      40.244  25.568  27.766  1.00  0.00     0.029 A 
ATOM     48  C   UNL A   1      41.576  25.797  28.322  1.00  0.00     0.049 A 
ATOM     49  H   UNL A   1      42.275  27.526  29.251  1.00  0.00     0.167 HD
ATOM     50  C   UNL A   1      43.540  31.071  31.403  1.00  0.00     0.031 A 
ATOM     51  C   UNL A   1      42.581  24.896  28.319  1.00  0.00     0.031 A 
ATOM     52  C   UNL A   1      44.627  30.132  31.543  1.00  0.00     0.049 A 
ATOM     53  C   UNL A   1      43.879  25.226  29.002  1.00  0.00     0.074 A 
ATOM     54  C   UNL A   1      45.820  30.304  32.225  1.00  0.00     0.029 A 
ATOM     55  N   UNL A   1      44.672  28.864  30.985  1.00  0.00    -0.354 N 
ATOM     56  N   UNL A   1      44.207  26.317  29.653  1.00  0.00    -0.248 NA
ATOM     57  C   UNL A   1      44.934  24.203  28.972  1.00  0.00     0.031 C 
ATOM     58  C   UNL A   1      46.617  29.177  32.013  1.00  0.00     0.029 A 
ATOM     59  C   UNL A   1      45.889  28.263  31.270  1.00  0.00     0.049 A 
ATOM     60  H   UNL A   1      43.946  28.450  30.463  1.00  0.00     0.167 HD
ATOM     61  C   UNL A   1      45.499  26.103  30.126  1.00  0.00     0.074 A 
ATOM     62  C   UNL A   1      45.885  24.773  29.704  1.00  0.00     0.031 C 
ATOM     63  C   UNL A   1      46.286  26.941  30.845  1.00  0.00     0.031 A 
BRANCH  50  64
ATOM     64  C   UNL A   1      43.720  32.431  32.032  1.00  0.00    -0.014 A 
ATOM     65  C   UNL A   1      43.347  32.640  33.372  1.00  0.00     0.010 A 
ATOM     66  C   UNL A   1      44.109  33.534  31.251  1.00  0.00     0.010 A 
ATOM     67  C   UNL A   1      43.324  33.929  33.911  1.00  0.00     0.020 A 
ATOM     68  C   UNL A   1      44.115  34.822  31.794  1.00  0.00     0.020 A 
ATOM     69  C   UNL A   1      43.697  35.014  33.113  1.00  0.00     0.054 A 
BRANCH  69  70
ATOM     70  S   UNL A   1      43.620  36.685  33.817  1.00  0.00     0.124 S 
ATOM     71  O   UNL A   1      44.851  36.748  34.597  1.00  0.00    -0.237 OA
ATOM     72  O   UNL A   1      43.583  37.528  32.624  1.00  0.00    -0.237 OA
ATOM     73  O   UNL A   1      42.385  36.669  34.597  1.00  0.00    -0.744 OA
ENDBRANCH  69  70
ENDBRANCH  50  64
BRANCH  51  74
ATOM     74  C   UNL A   1      42.353  23.567  27.687  1.00  0.00    -0.014 A 
ATOM     75  C   UNL A   1      41.725  22.534  28.410  1.00  0.00     0.010 A 
ATOM     76  C   UNL A   1      42.842  23.295  26.397  1.00  0.00     0.010 A 
ATOM     77  C   UNL A   1      41.650  21.243  27.884  1.00  0.00     0.020 A 
ATOM     78  C   UNL A   1      42.739  22.011  25.853  1.00  0.00     0.020 A 
ATOM     79  C   UNL A   1      42.173  20.985  26.615  1.00  0.00     0.054 A 
BRANCH  79  80
ATOM     80  S   UNL A   1      42.128  19.285  25.983  1.00  0.00     0.124 S 
ATOM     81  O   UNL A   1      40.699  19.092  25.751  1.00  0.00    -0.237 OA
ATOM     82  O   UNL A   1      42.955  19.371  24.781  1.00  0.00    -0.237 OA
ATOM     83  O   UNL A   1      42.697  18.500  27.073  1.00  0.00    -0.744 OA
ENDBRANCH  79  80
ENDBRANCH  51  74
BRANCH  63  84
ATOM     84  C   UNL A   1      47.669  26.475  31.233  1.00  0.00    -0.014 A 
ATOM     85  C   UNL A   1      47.876  25.863  32.485  1.00  0.00     0.010 A 
ATOM     86  C   UNL A   1      48.784  26.767  30.427  1.00  0.00     0.010 A 
ATOM     87  C   UNL A   1      49.169  25.592  32.940  1.00  0.00     0.020 A 
ATOM     88  C   UNL A   1      50.078  26.468  30.866  1.00  0.00     0.020 A 
ATOM     89  C   UNL A   1      50.264  25.908  32.133  1.00  0.00     0.054 A 
BRANCH  89  90
ATOM     90  S   UNL A   1      51.937  25.594  32.761  1.00  0.00     0.124 S 
ATOM     91  O   UNL A   1      52.702  26.679  32.154  1.00  0.00    -0.237 OA
ATOM     92  O   UNL A   1      51.757  25.685  34.209  1.00  0.00    -0.237 OA
ATOM     93  O   UNL A   1      52.246  24.256  32.262  1.00  0.00    -0.744 OA
ENDBRANCH  89  90
ENDBRANCH  63  84
ENDBRANCH  37  38
ENDBRANCH  30  32
ENDBRANCH  29  30
ENDBRANCH  28  29
ENDBRANCH  27  28
ENDBRANCH  26  27
ENDBRANCH   1  26
TORSDOF 21
ENDMDL
MODEL 2
REMARK VINA RESULT:      -8.2      2.566      8.744
REMARK SMILES O=C(Cn1c2ccccc2c(=O)c2cc(F)ccc21)OCCOCCOCCOC(=O)c1ccc(-c2c3nc(c(-c4ccc(S(=O)(=O)[O-])cc4)c4ccc([nH]4)c(-c4ccc(S(=O)(=O)[O-])cc4)c4nc(c(-c5ccc(S(=O)(=O)[O-])cc5)c5ccc2[nH]5)C=C4)C=C3)cc1
REMARK SMILES IDX 25 1 24 2 23 3 22 4 21 5 20 6 2 7 1 8 3 9 4 10 5 11 19 12
REMARK SMILES IDX 6 13 10 14 13 15 18 16 7 17 9 18 11 19 14 20 17 21 8 22
REMARK SMILES IDX 12 23 15 24 16 25 26 26 27 27 28 28 29 29 30 30 31 31 32 32
REMARK SMILES IDX 33 33 91 34 34 35 90 36 35 37 36 38 37 39 84 40 38 41 89 42
REMARK SMILES IDX 83 43 85 44 39 45 88 46 82 47 81 48 40 50 70 51 51 52 69 53
REMARK SMILES IDX 52 54 55 55 68 56 86 57 53 58 54 59 67 61 87 62 56 63 41 64
REMARK SMILES IDX 42 65 50 66 43 67 49 68 44 69 45 70 46 71 47 72 48 73 71 74
REMARK SMILES IDX 72 75 80 76 73 77 79 78 74 79 75 80 76 81 77 82 78 83 57 84
REMARK SMILES IDX 58 85 66 86 59 87 65 88 60 89 61 90 62 91 63 92 64 93
REMARK H PARENT 85 49 55 60
REMARK Flexibility Score: inf
ROOT
ATOM      1  C   UNL A   1      35.365  33.732  34.001  1.00  0.00     0.188 C 
ENDROOT
BRANCH   1   2
ATOM      2  C   UNL A   1      35.868  33.854  35.435  1.00  0.00     0.188 C 
BRANCH   2   3
ATOM      3  O   UNL A   1      37.031  33.103  35.791  1.00  0.00    -0.376 OA
BRANCH   3   4
ATOM      4  C   UNL A   1      37.754  33.618  36.913  1.00  0.00     0.202 C 
BRANCH   4   5
ATOM      5  C   UNL A   1      39.111  32.983  37.258  1.00  0.00     0.261 C 
BRANCH   5   6
ATOM      6  O   UNL A   1      39.896  32.504  36.158  1.00  0.00    -0.462 OA
BRANCH   6   7
ATOM      7  C   UNL A   1      40.512  33.289  35.243  1.00  0.00     0.326 C 
ATOM      8  O   UNL A   1      40.919  34.401  35.591  1.00  0.00    -0.250 OA
BRANCH   7   9
ATOM      9  C   UNL A   1      40.658  32.820  33.795  1.00  0.00     0.245 C 
BRANCH   9  10
ATOM     10  N   UNL A   1      41.340  31.514  33.661  1.00  0.00    -0.329 N 
ATOM     11  C   UNL A   1      42.750  31.480  33.572  1.00  0.00     0.053 A 
ATOM     12  C   UNL A   1      40.524  30.394  33.363  1.00  0.00     0.053 A 
ATOM     13  C   UNL A   1      43.588  32.522  34.010  1.00  0.00     0.027 A 
ATOM     14  C   UNL A   1      43.376  30.372  32.968  1.00  0.00     0.046 A 
ATOM     15  C   UNL A   1      41.089  29.271  32.732  1.00  0.00     0.049 A 
ATOM     16  C   UNL A   1      39.141  30.355  33.626  1.00  0.00     0.030 A 
ATOM     17  C   UNL A   1      44.972  32.493  33.789  1.00  0.00     0.002 A 
ATOM     18  C   UNL A   1      44.762  30.334  32.756  1.00  0.00     0.014 A 
ATOM     19  C   UNL A   1      42.545  29.253  32.470  1.00  0.00     0.197 A 
ATOM     20  C   UNL A   1      40.300  28.201  32.294  1.00  0.00     0.053 A 
ATOM     21  C   UNL A   1      38.344  29.301  33.173  1.00  0.00     0.041 A 
ATOM     22  C   UNL A   1      45.558  31.403  33.154  1.00  0.00     0.001 A 
ATOM     23  O   UNL A   1      43.048  28.342  31.819  1.00  0.00    -0.288 OA
ATOM     24  C   UNL A   1      38.930  28.241  32.499  1.00  0.00     0.124 A 
ATOM     25  F   UNL A   1      38.159  27.249  32.036  1.00  0.00    -0.207 F 
ENDBRANCH   9  10
ENDBRANCH   7   9
ENDBRANCH   6   7
ENDBRANCH   5   6
ENDBRANCH   4   5
ENDBRANCH   3   4
ENDBRANCH   2   3
ENDBRANCH   1   2
BRANCH   1  26
ATOM     26  O   UNL A   1      35.772  34.757  33.108  1.00  0.00    -0.376 OA
BRANCH  26  27
ATOM     27  C   UNL A   1      34.810  35.758  32.784  1.00  0.00     0.202 C 
BRANCH  27  28
ATOM     28  C   UNL A   1      33.554  35.314  32.027  1.00  0.00     0.261 C 
BRANCH  28  29
ATOM     29  O   UNL A   1      33.649  33.972  31.503  1.00  0.00    -0.460 OA
BRANCH  29  30
ATOM     30  C   UNL A   1      33.901  33.882  30.175  1.00  0.00     0.338 C 
ATOM     31  O   UNL A   1      33.277  34.419  29.269  1.00  0.00    -0.246 OA
BRANCH  30  32
ATOM     32  C   UNL A   1      35.135  33.116  29.930  1.00  0.00     0.060 A 
ATOM     33  C   UNL A   1      35.933  33.426  28.828  1.00  0.00     0.016 A 
ATOM     34  C   UNL A   1      35.585  32.208  30.898  1.00  0.00     0.016 A 
ATOM     35  C   UNL A   1      37.204  32.852  28.718  1.00  0.00     0.010 A 
ATOM     36  C   UNL A   1      36.858  31.637  30.784  1.00  0.00     0.010 A 
ATOM     37  C   UNL A   1      37.690  31.977  29.708  1.00  0.00    -0.014 A 
BRANCH  37  38
ATOM     38  C   UNL A   1      39.119  31.565  29.684  1.00  0.00     0.031 A 
ATOM     39  C   UNL A   1      39.537  30.172  29.314  1.00  0.00     0.074 A 
ATOM     40  C   UNL A   1      40.061  32.480  29.989  1.00  0.00     0.049 A 
ATOM     41  N   UNL A   1      40.744  29.715  29.094  1.00  0.00    -0.248 NA
ATOM     42  C   UNL A   1      38.476  29.165  29.174  1.00  0.00     0.031 C 
ATOM     43  C   UNL A   1      39.784  33.857  30.403  1.00  0.00     0.029 A 
ATOM     44  N   UNL A   1      41.433  32.404  29.980  1.00  0.00    -0.354 N 
ATOM     45  C   UNL A   1      40.590  28.376  28.761  1.00  0.00     0.074 A 
ATOM     46  C   UNL A   1      39.175  28.081  28.860  1.00  0.00     0.031 C 
ATOM     47  C   UNL A   1      40.947  34.504  30.573  1.00  0.00     0.029 A 
ATOM     48  C   UNL A   1      42.053  33.589  30.303  1.00  0.00     0.049 A 
ATOM     49  H   UNL A   1      41.926  31.579  29.764  1.00  0.00     0.167 HD
ATOM     50  C   UNL A   1      41.541  27.486  28.390  1.00  0.00     0.031 A 
ATOM     51  C   UNL A   1      43.361  33.918  30.360  1.00  0.00     0.031 A 
ATOM     52  C   UNL A   1      42.952  27.781  28.318  1.00  0.00     0.049 A 
ATOM     53  C   UNL A   1      44.402  32.903  29.974  1.00  0.00     0.074 A 
ATOM     54  C   UNL A   1      43.976  26.952  27.891  1.00  0.00     0.029 A 
ATOM     55  N   UNL A   1      43.545  28.978  28.693  1.00  0.00    -0.354 N 
ATOM     56  N   UNL A   1      44.229  31.674  29.551  1.00  0.00    -0.248 NA
ATOM     57  C   UNL A   1      45.809  33.321  30.051  1.00  0.00     0.031 C 
ATOM     58  C   UNL A   1      45.190  27.615  28.084  1.00  0.00     0.029 A 
ATOM     59  C   UNL A   1      44.922  28.891  28.549  1.00  0.00     0.049 A 
ATOM     60  H   UNL A   1      43.059  29.772  29.013  1.00  0.00     0.167 HD
ATOM     61  C   UNL A   1      45.503  31.179  29.293  1.00  0.00     0.074 A 
ATOM     62  C   UNL A   1      46.436  32.246  29.588  1.00  0.00     0.031 C 
ATOM     63  C   UNL A   1      45.859  29.948  28.851  1.00  0.00     0.031 A 
BRANCH  50  64
ATOM     64  C   UNL A   1      41.109  26.094  27.999  1.00  0.00    -0.014 A 
ATOM     65  C   UNL A   1      41.552  24.985  28.744  1.00  0.00     0.010 A 
ATOM     66  C   UNL A   1      40.398  25.875  26.806  1.00  0.00     0.010 A 
ATOM     67  C   UNL A   1      41.324  23.684  28.287  1.00  0.00     0.020 A 
ATOM     68  C   UNL A   1      40.143  24.574  26.359  1.00  0.00     0.020 A 
ATOM     69  C   UNL A   1      40.630  23.489  27.090  1.00  0.00     0.054 A 
BRANCH  69  70
ATOM     70  S   UNL A   1      40.381  21.795  26.491  1.00  0.00     0.124 S 
ATOM     71  O   UNL A   1      40.473  21.015  27.721  1.00  0.00    -0.237 OA
ATOM     72  O   UNL A   1      39.054  21.866  25.883  1.00  0.00    -0.237 OA
ATOM     73  O   UNL A   1      41.480  21.603  25.545  1.00  0.00    -0.744 OA
ENDBRANCH  69  70
ENDBRANCH  50  64
BRANCH  51  74
ATOM     74  C   UNL A   1      43.736  35.306  30.750  1.00  0.00    -0.014 A 
ATOM     75  C   UNL A   1      43.932  36.292  29.764  1.00  0.00     0.010 A 
ATOM     76  C   UNL A   1      43.990  35.626  32.096  1.00  0.00     0.010 A 
ATOM     77  C   UNL A   1      44.437  37.548  30.107  1.00  0.00     0.020 A 
ATOM     78  C   UNL A   1      44.465  36.894  32.446  1.00  0.00     0.020 A 
ATOM     79  C   UNL A   1      44.716  37.836  31.445  1.00  0.00     0.054 A 
BRANCH  79  80
ATOM     80  S   UNL A   1      45.438  39.448  31.857  1.00  0.00     0.124 S 
ATOM     81  O   UNL A   1      45.288  40.172  30.597  1.00  0.00    -0.237 OA
ATOM     82  O   UNL A   1      44.586  39.908  32.952  1.00  0.00    -0.237 OA
ATOM     83  O   UNL A   1      46.810  39.123  32.233  1.00  0.00    -0.744 OA
ENDBRANCH  79  80
ENDBRANCH  51  74
BRANCH  63  84
ATOM     84  C   UNL A   1      47.326  29.646  28.656  1.00  0.00    -0.014 A 
ATOM     85  C   UNL A   1      48.050  29.001  29.678  1.00  0.00     0.010 A 
ATOM     86  C   UNL A   1      48.019  30.122  27.529  1.00  0.00     0.010 A 
ATOM     87  C   UNL A   1      49.439  28.877  29.597  1.00  0.00     0.020 A 
ATOM     88  C   UNL A   1      49.406  29.971  27.430  1.00  0.00     0.020 A 
ATOM     89  C   UNL A   1      50.112  29.374  28.479  1.00  0.00     0.054 A 
BRANCH  89  90
ATOM     90  S   UNL A   1      51.920  29.247  28.415  1.00  0.00     0.124 S 
ATOM     91  O   UNL A   1      52.331  30.643  28.539  1.00  0.00    -0.237 OA
ATOM     92  O   UNL A   1      52.223  28.398  29.565  1.00  0.00    -0.237 OA
ATOM     93  O   UNL A   1      52.176  28.634  27.113  1.00  0.00    -0.744 OA
ENDBRANCH  89  90
ENDBRANCH  63  84
ENDBRANCH  37  38
ENDBRANCH  30  32
ENDBRANCH  29  30
ENDBRANCH  28  29
ENDBRANCH  27  28
ENDBRANCH  26  27
ENDBRANCH   1  26
TORSDOF 21
ENDMDL
MODEL 3
REMARK VINA RESULT:      -8.2      1.531      3.020
REMARK SMILES O=C(Cn1c2ccccc2c(=O)c2cc(F)ccc21)OCCOCCOCCOC(=O)c1ccc(-c2c3nc(c(-c4ccc(S(=O)(=O)[O-])cc4)c4ccc([nH]4)c(-c4ccc(S(=O)(=O)[O-])cc4)c4nc(c(-c5ccc(S(=O)(=O)[O-])cc5)c5ccc2[nH]5)C=C4)C=C3)cc1
REMARK SMILES IDX 25 1 24 2 23 3 22 4 21 5 20 6 2 7 1 8 3 9 4 10 5 11 19 12
REMARK SMILES IDX 6 13 10 14 13 15 18 16 7 17 9 18 11 19 14 20 17 21 8 22
REMARK SMILES IDX 12 23 15 24 16 25 26 26 27 27 28 28 29 29 30 30 31 31 32 32
REMARK SMILES IDX 33 33 91 34 34 35 90 36 35 37 36 38 37 39 84 40 38 41 89 42
REMARK SMILES IDX 83 43 85 44 39 45 88 46 82 47 81 48 40 50 70 51 51 52 69 53
REMARK SMILES IDX 52 54 55 55 68 56 86 57 53 58 54 59 67 61 87 62 56 63 41 64
REMARK SMILES IDX 42 65 50 66 43 67 49 68 44 69 45 70 46 71 47 72 48 73 71 74
REMARK SMILES IDX 72 75 80 76 73 77 79 78 74 79 75 80 76 81 77 82 78 83 57 84
REMARK SMILES IDX 58 85 66 86 59 87 65 88 60 89 61 90 62 91 63 92 64 93
REMARK H PARENT 85 49 55 60
REMARK Flexibility Score: inf
ROOT
ATOM      1  C   UNL A   1      37.381  34.597  31.746  1.00  0.00     0.188 C 
ENDROOT
BRANCH   1   2
ATOM      2  C   UNL A   1      38.848  34.269  31.493  1.00  0.00     0.188 C 
BRANCH   2   3
ATOM      3  O   UNL A   1      39.706  34.170  32.633  1.00  0.00    -0.376 OA
BRANCH   3   4
ATOM      4  C   UNL A   1      39.259  34.896  33.781  1.00  0.00     0.202 C 
BRANCH   4   5
ATOM      5  C   UNL A   1      40.225  35.048  34.968  1.00  0.00     0.261 C 
BRANCH   5   6
ATOM      6  O   UNL A   1      40.997  33.892  35.322  1.00  0.00    -0.462 OA
BRANCH   6   7
ATOM      7  C   UNL A   1      41.156  33.420  36.580  1.00  0.00     0.326 C 
ATOM      8  O   UNL A   1      42.154  33.759  37.222  1.00  0.00    -0.250 OA
BRANCH   7   9
ATOM      9  C   UNL A   1      40.136  32.449  37.175  1.00  0.00     0.245 C 
BRANCH   9  10
ATOM     10  N   UNL A   1      39.337  31.731  36.157  1.00  0.00    -0.329 N 
ATOM     11  C   UNL A   1      39.941  30.690  35.416  1.00  0.00     0.053 A 
ATOM     12  C   UNL A   1      38.092  32.307  35.799  1.00  0.00     0.053 A 
ATOM     13  C   UNL A   1      41.092  29.997  35.834  1.00  0.00     0.027 A 
ATOM     14  C   UNL A   1      39.408  30.339  34.160  1.00  0.00     0.046 A 
ATOM     15  C   UNL A   1      37.528  32.016  34.544  1.00  0.00     0.049 A 
ATOM     16  C   UNL A   1      37.393  33.207  36.625  1.00  0.00     0.030 A 
ATOM     17  C   UNL A   1      41.722  29.057  35.007  1.00  0.00     0.002 A 
ATOM     18  C   UNL A   1      40.030  29.389  33.335  1.00  0.00     0.014 A 
ATOM     19  C   UNL A   1      38.209  31.047  33.659  1.00  0.00     0.197 A 
ATOM     20  C   UNL A   1      36.373  32.665  34.091  1.00  0.00     0.053 A 
ATOM     21  C   UNL A   1      36.252  33.875  36.172  1.00  0.00     0.041 A 
ATOM     22  C   UNL A   1      41.196  28.759  33.755  1.00  0.00     0.001 A 
ATOM     23  O   UNL A   1      37.806  30.861  32.514  1.00  0.00    -0.288 OA
ATOM     24  C   UNL A   1      35.762  33.607  34.904  1.00  0.00     0.124 A 
ATOM     25  F   UNL A   1      34.689  34.274  34.459  1.00  0.00    -0.207 F 
ENDBRANCH   9  10
ENDBRANCH   7   9
ENDBRANCH   6   7
ENDBRANCH   5   6
ENDBRANCH   4   5
ENDBRANCH   3   4
ENDBRANCH   2   3
ENDBRANCH   1   2
BRANCH   1  26
ATOM     26  O   UNL A   1      36.436  33.842  31.005  1.00  0.00    -0.376 OA
BRANCH  26  27
ATOM     27  C   UNL A   1      36.771  33.522  29.657  1.00  0.00     0.202 C 
BRANCH  27  28
ATOM     28  C   UNL A   1      35.622  33.178  28.704  1.00  0.00     0.261 C 
BRANCH  28  29
ATOM     29  O   UNL A   1      34.845  32.041  29.136  1.00  0.00    -0.460 OA
BRANCH  29  30
ATOM     30  C   UNL A   1      34.844  30.982  28.292  1.00  0.00     0.338 C 
ATOM     31  O   UNL A   1      33.994  30.708  27.454  1.00  0.00    -0.246 OA
BRANCH  30  32
ATOM     32  C   UNL A   1      36.093  30.211  28.422  1.00  0.00     0.060 A 
ATOM     33  C   UNL A   1      37.013  30.206  27.374  1.00  0.00     0.016 A 
ATOM     34  C   UNL A   1      36.421  29.638  29.658  1.00  0.00     0.016 A 
ATOM     35  C   UNL A   1      38.285  29.659  27.581  1.00  0.00     0.010 A 
ATOM     36  C   UNL A   1      37.694  29.093  29.860  1.00  0.00     0.010 A 
ATOM     37  C   UNL A   1      38.647  29.125  28.832  1.00  0.00    -0.014 A 
BRANCH  37  38
ATOM     38  C   UNL A   1      40.066  28.762  29.090  1.00  0.00     0.031 A 
ATOM     39  C   UNL A   1      41.005  29.688  29.806  1.00  0.00     0.074 A 
ATOM     40  C   UNL A   1      40.510  27.556  28.681  1.00  0.00     0.049 A 
ATOM     41  N   UNL A   1      42.215  29.445  30.242  1.00  0.00    -0.248 NA
ATOM     42  C   UNL A   1      40.535  31.056  30.063  1.00  0.00     0.031 C 
ATOM     43  C   UNL A   1      39.708  26.580  27.940  1.00  0.00     0.029 A 
ATOM     44  N   UNL A   1      41.725  26.936  28.843  1.00  0.00    -0.354 N 
ATOM     45  C   UNL A   1      42.644  30.616  30.852  1.00  0.00     0.074 A 
ATOM     46  C   UNL A   1      41.582  31.587  30.683  1.00  0.00     0.031 C 
ATOM     47  C   UNL A   1      40.440  25.473  27.745  1.00  0.00     0.029 A 
ATOM     48  C   UNL A   1      41.768  25.663  28.323  1.00  0.00     0.049 A 
ATOM     49  H   UNL A   1      42.493  27.363  29.288  1.00  0.00     0.167 HD
ATOM     50  C   UNL A   1      43.806  30.847  31.508  1.00  0.00     0.031 A 
ATOM     51  C   UNL A   1      42.752  24.739  28.323  1.00  0.00     0.031 A 
ATOM     52  C   UNL A   1      44.869  29.881  31.651  1.00  0.00     0.049 A 
ATOM     53  C   UNL A   1      44.047  25.029  29.030  1.00  0.00     0.074 A 
ATOM     54  C   UNL A   1      46.055  30.015  32.354  1.00  0.00     0.029 A 
ATOM     55  N   UNL A   1      44.893  28.619  31.076  1.00  0.00    -0.354 N 
ATOM     56  N   UNL A   1      44.390  26.103  29.701  1.00  0.00    -0.248 NA
ATOM     57  C   UNL A   1      45.078  23.983  29.001  1.00  0.00     0.031 C 
ATOM     58  C   UNL A   1      46.829  28.873  32.137  1.00  0.00     0.029 A 
ATOM     59  C   UNL A   1      46.092  27.986  31.371  1.00  0.00     0.049 A 
ATOM     60  H   UNL A   1      44.166  28.230  30.537  1.00  0.00     0.167 HD
ATOM     61  C   UNL A   1      45.669  25.852  30.190  1.00  0.00     0.074 A 
ATOM     62  C   UNL A   1      46.030  24.520  29.755  1.00  0.00     0.031 C 
ATOM     63  C   UNL A   1      46.464  26.661  30.933  1.00  0.00     0.031 A 
BRANCH  50  64
ATOM     64  C   UNL A   1      44.008  32.193  32.159  1.00  0.00    -0.014 A 
ATOM     65  C   UNL A   1      43.954  32.311  33.561  1.00  0.00     0.010 A 
ATOM     66  C   UNL A   1      44.092  33.360  31.378  1.00  0.00     0.010 A 
ATOM     67  C   UNL A   1      43.945  33.570  34.168  1.00  0.00     0.020 A 
ATOM     68  C   UNL A   1      44.112  34.620  31.983  1.00  0.00     0.020 A 
ATOM     69  C   UNL A   1      44.012  34.717  33.373  1.00  0.00     0.054 A 
BRANCH  69  70
ATOM     70  S   UNL A   1      43.955  36.342  34.177  1.00  0.00     0.124 S 
ATOM     71  O   UNL A   1      43.889  35.986  35.590  1.00  0.00    -0.237 OA
ATOM     72  O   UNL A   1      45.205  36.957  33.736  1.00  0.00    -0.237 OA
ATOM     73  O   UNL A   1      42.745  36.951  33.628  1.00  0.00    -0.744 OA
ENDBRANCH  69  70
ENDBRANCH  50  64
BRANCH  51  74
ATOM     74  C   UNL A   1      42.502  23.424  27.668  1.00  0.00    -0.014 A 
ATOM     75  C   UNL A   1      41.890  22.379  28.385  1.00  0.00     0.010 A 
ATOM     76  C   UNL A   1      42.958  23.179  26.360  1.00  0.00     0.010 A 
ATOM     77  C   UNL A   1      41.796  21.099  27.834  1.00  0.00     0.020 A 
ATOM     78  C   UNL A   1      42.837  21.907  25.793  1.00  0.00     0.020 A 
ATOM     79  C   UNL A   1      42.286  20.867  26.546  1.00  0.00     0.054 A 
BRANCH  79  80
ATOM     80  S   UNL A   1      42.219  19.182  25.879  1.00  0.00     0.124 S 
ATOM     81  O   UNL A   1      40.786  19.008  25.651  1.00  0.00    -0.237 OA
ATOM     82  O   UNL A   1      43.040  19.283  24.675  1.00  0.00    -0.237 OA
ATOM     83  O   UNL A   1      42.785  18.367  26.950  1.00  0.00    -0.744 OA
ENDBRANCH  79  80
ENDBRANCH  51  74
BRANCH  63  84
ATOM     84  C   UNL A   1      47.830  26.158  31.335  1.00  0.00    -0.014 A 
ATOM     85  C   UNL A   1      47.999  25.502  32.570  1.00  0.00     0.010 A 
ATOM     86  C   UNL A   1      48.967  26.456  30.562  1.00  0.00     0.010 A 
ATOM     87  C   UNL A   1      49.276  25.193  33.044  1.00  0.00     0.020 A 
ATOM     88  C   UNL A   1      50.246  26.119  31.019  1.00  0.00     0.020 A 
ATOM     89  C   UNL A   1      50.394  25.515  32.271  1.00  0.00     0.054 A 
BRANCH  89  90
ATOM     90  S   UNL A   1      52.047  25.150  32.925  1.00  0.00     0.124 S 
ATOM     91  O   UNL A   1      52.867  26.168  32.274  1.00  0.00    -0.237 OA
ATOM     92  O   UNL A   1      51.865  25.316  34.365  1.00  0.00    -0.237 OA
ATOM     93  O   UNL A   1      52.293  23.777  32.490  1.00  0.00    -0.744 OA
ENDBRANCH  89  90
ENDBRANCH  63  84
ENDBRANCH  37  38
ENDBRANCH  30  32
ENDBRANCH  29  30
ENDBRANCH  28  29
ENDBRANCH  27  28
ENDBRANCH  26  27
ENDBRANCH   1  26
TORSDOF 21
ENDMDL
