MODEL 1
REMARK VINA RESULT:      -9.4      0.000      0.000
REMARK SMILES O=C(OCCOCCOCCOC(=O)[C@H](Cc1cccc(Br)c1)CC1CCC1)c1ccc(-c2c3nc(c(-c4ccc(S(=O)(=O)[O-])cc4)c4ccc([nH]4)c(-c4ccc(S(=O)(=O)[O-])cc4)c4nc(c(-c5ccc(S(=O)(=O)[O-])cc5)c5ccc2[nH]5)C=C4)C=C3)cc1
REMARK SMILES IDX 7 1 6 2 5 3 4 4 3 5 2 6 1 7 29 8 30 9 88 10 31 11 87 12
REMARK SMILES IDX 32 13 33 14 34 15 81 16 35 17 86 18 80 19 82 20 36 21 85 22
REMARK SMILES IDX 79 23 78 24 37 26 67 27 48 28 66 29 49 30 52 31 65 32 83 33
REMARK SMILES IDX 50 34 51 35 64 37 84 38 53 39 38 40 39 41 47 42 40 43 46 44
REMARK SMILES IDX 41 45 42 46 43 47 44 48 45 49 68 50 69 51 77 52 70 53 76 54
REMARK SMILES IDX 71 55 72 56 73 57 74 58 75 59 54 60 55 61 63 62 56 63 62 64
REMARK SMILES IDX 57 65 58 66 59 67 60 68 61 69 8 70 9 71 10 72 11 73 12 74
REMARK SMILES IDX 13 75 14 76 15 77 24 78 25 79 26 80 28 81 27 82 16 83 17 84
REMARK SMILES IDX 18 85 23 86 19 87 21 88 20 89 22 90
REMARK H PARENT 82 25 52 36
REMARK Flexibility Score: inf
ROOT
ATOM      1  C   UNL A   1      33.450  29.714  27.085  1.00  0.00     0.188 C 
ENDROOT
BRANCH   1   2
ATOM      2  O   UNL A   1      33.655  31.070  27.491  1.00  0.00    -0.376 OA
BRANCH   2   3
ATOM      3  C   UNL A   1      34.953  31.330  28.032  1.00  0.00     0.202 C 
BRANCH   3   4
ATOM      4  C   UNL A   1      34.944  32.071  29.375  1.00  0.00     0.261 C 
BRANCH   4   5
ATOM      5  O   UNL A   1      36.204  31.971  30.050  1.00  0.00    -0.460 OA
BRANCH   5   6
ATOM      6  C   UNL A   1      36.772  30.829  30.511  1.00  0.00     0.338 C 
ATOM      7  O   UNL A   1      36.115  30.093  31.244  1.00  0.00    -0.246 OA
BRANCH   6   8
ATOM      8  C   UNL A   1      38.149  30.397  30.132  1.00  0.00     0.060 A 
ATOM      9  C   UNL A   1      39.140  29.967  31.016  1.00  0.00     0.016 A 
ATOM     10  C   UNL A   1      38.418  30.321  28.765  1.00  0.00     0.016 A 
ATOM     11  C   UNL A   1      40.399  29.574  30.561  1.00  0.00     0.010 A 
ATOM     12  C   UNL A   1      39.625  29.795  28.300  1.00  0.00     0.010 A 
ATOM     13  C   UNL A   1      40.654  29.471  29.197  1.00  0.00    -0.014 A 
BRANCH  13  14
ATOM     14  C   UNL A   1      42.018  29.173  28.691  1.00  0.00     0.031 A 
ATOM     15  C   UNL A   1      42.314  27.765  28.247  1.00  0.00     0.074 A 
ATOM     16  C   UNL A   1      42.969  30.124  28.603  1.00  0.00     0.049 A 
ATOM     17  N   UNL A   1      43.459  27.201  27.973  1.00  0.00    -0.248 NA
ATOM     18  C   UNL A   1      41.154  26.864  28.113  1.00  0.00     0.031 C 
ATOM     19  C   UNL A   1      42.791  31.544  28.909  1.00  0.00     0.029 A 
ATOM     20  N   UNL A   1      44.292  30.032  28.244  1.00  0.00    -0.354 N 
ATOM     21  C   UNL A   1      43.157  25.876  27.673  1.00  0.00     0.074 A 
ATOM     22  C   UNL A   1      41.738  25.702  27.875  1.00  0.00     0.031 C 
ATOM     23  C   UNL A   1      43.960  32.184  28.744  1.00  0.00     0.029 A 
ATOM     24  C   UNL A   1      44.986  31.210  28.404  1.00  0.00     0.049 A 
ATOM     25  H   UNL A   1      44.703  29.204  27.905  1.00  0.00     0.167 HD
ATOM     26  C   UNL A   1      43.979  24.900  27.222  1.00  0.00     0.031 A 
ATOM     27  C   UNL A   1      46.306  31.464  28.342  1.00  0.00     0.031 A 
ATOM     28  C   UNL A   1      45.376  25.103  26.970  1.00  0.00     0.049 A 
ATOM     29  C   UNL A   1      47.230  30.346  27.954  1.00  0.00     0.074 A 
ATOM     30  C   UNL A   1      46.305  24.208  26.475  1.00  0.00     0.029 A 
ATOM     31  N   UNL A   1      46.040  26.304  27.178  1.00  0.00    -0.354 N 
ATOM     32  N   UNL A   1      46.936  29.093  27.695  1.00  0.00    -0.248 NA
ATOM     33  C   UNL A   1      48.653  30.677  27.816  1.00  0.00     0.031 C 
ATOM     34  C   UNL A   1      47.540  24.863  26.408  1.00  0.00     0.029 A 
ATOM     35  C   UNL A   1      47.369  26.176  26.822  1.00  0.00     0.049 A 
ATOM     36  H   UNL A   1      45.625  27.126  27.528  1.00  0.00     0.167 HD
ATOM     37  C   UNL A   1      48.127  28.499  27.303  1.00  0.00     0.074 A 
ATOM     38  C   UNL A   1      49.150  29.526  27.382  1.00  0.00     0.031 C 
ATOM     39  C   UNL A   1      48.352  27.228  26.892  1.00  0.00     0.031 A 
BRANCH  26  40
ATOM     40  C   UNL A   1      43.358  23.551  26.978  1.00  0.00    -0.014 A 
ATOM     41  C   UNL A   1      43.123  22.659  28.041  1.00  0.00     0.010 A 
ATOM     42  C   UNL A   1      43.064  23.142  25.665  1.00  0.00     0.010 A 
ATOM     43  C   UNL A   1      42.682  21.357  27.790  1.00  0.00     0.020 A 
ATOM     44  C   UNL A   1      42.590  21.851  25.413  1.00  0.00     0.020 A 
ATOM     45  C   UNL A   1      42.432  20.957  26.475  1.00  0.00     0.054 A 
BRANCH  45  46
ATOM     46  S   UNL A   1      41.898  19.250  26.171  1.00  0.00     0.124 S 
ATOM     47  O   UNL A   1      42.310  18.583  27.403  1.00  0.00    -0.237 OA
ATOM     48  O   UNL A   1      40.454  19.393  25.989  1.00  0.00    -0.237 OA
ATOM     49  O   UNL A   1      42.639  18.864  24.973  1.00  0.00    -0.744 OA
ENDBRANCH  45  46
ENDBRANCH  26  40
BRANCH  27  50
ATOM     50  C   UNL A   1      46.824  32.817  28.689  1.00  0.00    -0.014 A 
ATOM     51  C   UNL A   1      47.224  33.127  29.999  1.00  0.00     0.010 A 
ATOM     52  C   UNL A   1      46.940  33.803  27.690  1.00  0.00     0.010 A 
ATOM     53  C   UNL A   1      47.713  34.401  30.309  1.00  0.00     0.020 A 
ATOM     54  C   UNL A   1      47.449  35.071  27.990  1.00  0.00     0.020 A 
ATOM     55  C   UNL A   1      47.825  35.365  29.301  1.00  0.00     0.054 A 
BRANCH  55  56
ATOM     56  S   UNL A   1      48.504  36.995  29.722  1.00  0.00     0.124 S 
ATOM     57  O   UNL A   1      47.396  37.884  29.386  1.00  0.00    -0.237 OA
ATOM     58  O   UNL A   1      48.793  36.855  31.147  1.00  0.00    -0.237 OA
ATOM     59  O   UNL A   1      49.681  37.109  28.864  1.00  0.00    -0.744 OA
ENDBRANCH  55  56
ENDBRANCH  27  50
BRANCH  39  60
ATOM     60  C   UNL A   1      49.735  26.901  26.410  1.00  0.00    -0.014 A 
ATOM     61  C   UNL A   1      50.770  26.596  27.308  1.00  0.00     0.010 A 
ATOM     62  C   UNL A   1      49.972  26.830  25.025  1.00  0.00     0.010 A 
ATOM     63  C   UNL A   1      52.031  26.239  26.825  1.00  0.00     0.020 A 
ATOM     64  C   UNL A   1      51.222  26.450  24.540  1.00  0.00     0.020 A 
ATOM     65  C   UNL A   1      52.247  26.166  25.444  1.00  0.00     0.054 A 
BRANCH  65  66
ATOM     66  S   UNL A   1      53.871  25.631  24.840  1.00  0.00     0.124 S 
ATOM     67  O   UNL A   1      53.706  24.182  24.772  1.00  0.00    -0.237 OA
ATOM     68  O   UNL A   1      53.976  26.315  23.553  1.00  0.00    -0.237 OA
ATOM     69  O   UNL A   1      54.794  26.107  25.868  1.00  0.00    -0.744 OA
ENDBRANCH  65  66
ENDBRANCH  39  60
ENDBRANCH  13  14
ENDBRANCH   6   8
ENDBRANCH   5   6
ENDBRANCH   4   5
ENDBRANCH   3   4
ENDBRANCH   2   3
ENDBRANCH   1   2
BRANCH   1  70
ATOM     70  C   UNL A   1      32.283  29.593  26.102  1.00  0.00     0.188 C 
BRANCH  70  71
ATOM     71  O   UNL A   1      31.370  28.524  26.344  1.00  0.00    -0.376 OA
BRANCH  71  72
ATOM     72  C   UNL A   1      31.554  27.328  25.590  1.00  0.00     0.202 C 
BRANCH  72  73
ATOM     73  C   UNL A   1      30.442  26.266  25.627  1.00  0.00     0.261 C 
BRANCH  73  74
ATOM     74  O   UNL A   1      30.800  24.936  25.191  1.00  0.00    -0.463 OA
BRANCH  74  75
ATOM     75  C   UNL A   1      30.985  24.043  26.204  1.00  0.00     0.309 C 
ATOM     76  O   UNL A   1      30.211  23.907  27.147  1.00  0.00    -0.252 OA
BRANCH  75  77
ATOM     77  C   UNL A   1      32.279  23.221  26.073  1.00  0.00     0.104 C 
BRANCH  77  78
ATOM     78  C   UNL A   1      31.741  21.851  25.587  1.00  0.00     0.019 C 
BRANCH  78  79
ATOM     79  C   UNL A   1      32.525  20.984  24.608  1.00  0.00    -0.010 C 
ATOM     80  C   UNL A   1      32.378  19.458  24.772  1.00  0.00     0.003 C 
ATOM     81  C   UNL A   1      32.230  20.812  23.103  1.00  0.00     0.003 C 
ATOM     82  C   UNL A   1      32.534  19.313  23.251  1.00  0.00     0.001 C 
ENDBRANCH  78  79
ENDBRANCH  77  78
BRANCH  77  83
ATOM     83  C   UNL A   1      33.161  24.074  25.125  1.00  0.00     0.050 C 
BRANCH  83  84
ATOM     84  C   UNL A   1      34.610  23.727  24.847  1.00  0.00    -0.046 A 
ATOM     85  C   UNL A   1      34.968  23.294  23.559  1.00  0.00     0.004 A 
ATOM     86  C   UNL A   1      35.642  23.944  25.776  1.00  0.00     0.019 A 
ATOM     87  C   UNL A   1      36.286  22.987  23.225  1.00  0.00     0.001 A 
ATOM     88  C   UNL A   1      36.975  23.692  25.411  1.00  0.00     0.018 A 
ATOM     89  C   UNL A   1      37.293  23.181  24.156  1.00  0.00     0.016 A 
ATOM     90  Br  UNL A   1      38.428  24.111  26.541  1.00  0.00    -0.051 Br
ENDBRANCH  83  84
ENDBRANCH  77  83
ENDBRANCH  75  77
ENDBRANCH  74  75
ENDBRANCH  73  74
ENDBRANCH  72  73
ENDBRANCH  71  72
ENDBRANCH  70  71
ENDBRANCH   1  70
TORSDOF 24
ENDMDL
MODEL 2
REMARK VINA RESULT:      -9.0      4.859      9.135
REMARK SMILES O=C(OCCOCCOCCOC(=O)[C@H](Cc1cccc(Br)c1)CC1CCC1)c1ccc(-c2c3nc(c(-c4ccc(S(=O)(=O)[O-])cc4)c4ccc([nH]4)c(-c4ccc(S(=O)(=O)[O-])cc4)c4nc(c(-c5ccc(S(=O)(=O)[O-])cc5)c5ccc2[nH]5)C=C4)C=C3)cc1
REMARK SMILES IDX 7 1 6 2 5 3 4 4 3 5 2 6 1 7 29 8 30 9 88 10 31 11 87 12
REMARK SMILES IDX 32 13 33 14 34 15 81 16 35 17 86 18 80 19 82 20 36 21 85 22
REMARK SMILES IDX 79 23 78 24 37 26 67 27 48 28 66 29 49 30 52 31 65 32 83 33
REMARK SMILES IDX 50 34 51 35 64 37 84 38 53 39 38 40 39 41 47 42 40 43 46 44
REMARK SMILES IDX 41 45 42 46 43 47 44 48 45 49 68 50 69 51 77 52 70 53 76 54
REMARK SMILES IDX 71 55 72 56 73 57 74 58 75 59 54 60 55 61 63 62 56 63 62 64
REMARK SMILES IDX 57 65 58 66 59 67 60 68 61 69 8 70 9 71 10 72 11 73 12 74
REMARK SMILES IDX 13 75 14 76 15 77 24 78 25 79 26 80 28 81 27 82 16 83 17 84
REMARK SMILES IDX 18 85 23 86 19 87 21 88 20 89 22 90
REMARK H PARENT 82 25 52 36
REMARK Flexibility Score: inf
ROOT
ATOM      1  C   UNL A   1      31.775  28.085  24.760  1.00  0.00     0.188 C 
ENDROOT
BRANCH   1   2
ATOM      2  O   UNL A   1      31.418  29.265  25.484  1.00  0.00    -0.376 OA
BRANCH   2   3
ATOM      3  C   UNL A   1      32.073  29.397  26.749  1.00  0.00     0.202 C 
BRANCH   3   4
ATOM      4  C   UNL A   1      32.665  30.786  27.015  1.00  0.00     0.261 C 
BRANCH   4   5
ATOM      5  O   UNL A   1      34.080  30.734  27.228  1.00  0.00    -0.460 OA
BRANCH   5   6
ATOM      6  C   UNL A   1      34.757  31.342  28.234  1.00  0.00     0.338 C 
ATOM      7  O   UNL A   1      34.320  32.395  28.692  1.00  0.00    -0.246 OA
BRANCH   6   8
ATOM      8  C   UNL A   1      35.990  30.767  28.846  1.00  0.00     0.060 A 
ATOM      9  C   UNL A   1      36.043  29.640  29.668  1.00  0.00     0.016 A 
ATOM     10  C   UNL A   1      37.198  31.354  28.469  1.00  0.00     0.016 A 
ATOM     11  C   UNL A   1      37.251  29.174  30.187  1.00  0.00     0.010 A 
ATOM     12  C   UNL A   1      38.419  30.806  28.872  1.00  0.00     0.010 A 
ATOM     13  C   UNL A   1      38.456  29.743  29.785  1.00  0.00    -0.014 A 
BRANCH  13  14
ATOM     14  C   UNL A   1      39.740  29.345  30.415  1.00  0.00     0.031 A 
ATOM     15  C   UNL A   1      40.182  30.089  31.647  1.00  0.00     0.074 A 
ATOM     16  C   UNL A   1      40.491  28.338  29.927  1.00  0.00     0.049 A 
ATOM     17  N   UNL A   1      41.339  30.084  32.253  1.00  0.00    -0.248 NA
ATOM     18  C   UNL A   1      39.182  30.975  32.270  1.00  0.00     0.031 C 
ATOM     19  C   UNL A   1      40.138  27.474  28.799  1.00  0.00     0.029 A 
ATOM     20  N   UNL A   1      41.728  27.879  30.313  1.00  0.00    -0.354 N 
ATOM     21  C   UNL A   1      41.212  30.993  33.299  1.00  0.00     0.074 A 
ATOM     22  C   UNL A   1      39.898  31.584  33.199  1.00  0.00     0.031 C 
ATOM     23  C   UNL A   1      41.139  26.607  28.573  1.00  0.00     0.029 A 
ATOM     24  C   UNL A   1      42.235  26.907  29.481  1.00  0.00     0.049 A 
ATOM     25  H   UNL A   1      42.205  28.213  31.106  1.00  0.00     0.167 HD
ATOM     26  C   UNL A   1      42.091  31.276  34.288  1.00  0.00     0.031 A 
ATOM     27  C   UNL A   1      43.464  26.361  29.418  1.00  0.00     0.031 A 
ATOM     28  C   UNL A   1      43.370  30.638  34.409  1.00  0.00     0.049 A 
ATOM     29  C   UNL A   1      44.478  26.767  30.448  1.00  0.00     0.074 A 
ATOM     30  C   UNL A   1      44.333  30.808  35.386  1.00  0.00     0.029 A 
ATOM     31  N   UNL A   1      43.853  29.685  33.524  1.00  0.00    -0.354 N 
ATOM     32  N   UNL A   1      44.353  27.642  31.419  1.00  0.00    -0.248 NA
ATOM     33  C   UNL A   1      45.780  26.093  30.402  1.00  0.00     0.031 C 
ATOM     34  C   UNL A   1      45.412  29.972  35.075  1.00  0.00     0.029 A 
ATOM     35  C   UNL A   1      45.102  29.254  33.929  1.00  0.00     0.049 A 
ATOM     36  H   UNL A   1      43.376  29.362  32.725  1.00  0.00     0.167 HD
ATOM     37  C   UNL A   1      45.539  27.581  32.137  1.00  0.00     0.074 A 
ATOM     38  C   UNL A   1      46.376  26.598  31.475  1.00  0.00     0.031 C 
ATOM     39  C   UNL A   1      45.895  28.256  33.257  1.00  0.00     0.031 A 
BRANCH  26  40
ATOM     40  C   UNL A   1      41.669  32.312  35.295  1.00  0.00    -0.014 A 
ATOM     41  C   UNL A   1      41.026  31.940  36.491  1.00  0.00     0.010 A 
ATOM     42  C   UNL A   1      41.856  33.677  35.016  1.00  0.00     0.010 A 
ATOM     43  C   UNL A   1      40.510  32.913  37.350  1.00  0.00     0.020 A 
ATOM     44  C   UNL A   1      41.369  34.654  35.891  1.00  0.00     0.020 A 
ATOM     45  C   UNL A   1      40.672  34.264  37.037  1.00  0.00     0.054 A 
BRANCH  45  46
ATOM     46  S   UNL A   1      39.957  35.507  38.148  1.00  0.00     0.124 S 
ATOM     47  O   UNL A   1      40.980  35.604  39.186  1.00  0.00    -0.237 OA
ATOM     48  O   UNL A   1      39.832  36.679  37.281  1.00  0.00    -0.237 OA
ATOM     49  O   UNL A   1      38.694  34.910  38.569  1.00  0.00    -0.744 OA
ENDBRANCH  45  46
ENDBRANCH  26  40
BRANCH  27  50
ATOM     50  C   UNL A   1      43.805  25.408  28.325  1.00  0.00    -0.014 A 
ATOM     51  C   UNL A   1      44.234  25.868  27.069  1.00  0.00     0.010 A 
ATOM     52  C   UNL A   1      43.719  24.021  28.549  1.00  0.00     0.010 A 
ATOM     53  C   UNL A   1      44.556  24.960  26.053  1.00  0.00     0.020 A 
ATOM     54  C   UNL A   1      44.060  23.109  27.544  1.00  0.00     0.020 A 
ATOM     55  C   UNL A   1      44.468  23.586  26.298  1.00  0.00     0.054 A 
BRANCH  55  56
ATOM     56  S   UNL A   1      44.933  22.432  24.977  1.00  0.00     0.124 S 
ATOM     57  O   UNL A   1      43.682  21.717  24.742  1.00  0.00    -0.237 OA
ATOM     58  O   UNL A   1      45.357  23.333  23.908  1.00  0.00    -0.237 OA
ATOM     59  O   UNL A   1      46.005  21.638  25.575  1.00  0.00    -0.744 OA
ENDBRANCH  55  56
ENDBRANCH  27  50
BRANCH  39  60
ATOM     60  C   UNL A   1      47.207  27.890  33.887  1.00  0.00    -0.014 A 
ATOM     61  C   UNL A   1      47.284  26.931  34.909  1.00  0.00     0.010 A 
ATOM     62  C   UNL A   1      48.386  28.472  33.387  1.00  0.00     0.010 A 
ATOM     63  C   UNL A   1      48.527  26.570  35.435  1.00  0.00     0.020 A 
ATOM     64  C   UNL A   1      49.630  28.095  33.893  1.00  0.00     0.020 A 
ATOM     65  C   UNL A   1      49.691  27.153  34.921  1.00  0.00     0.054 A 
BRANCH  65  66
ATOM     66  S   UNL A   1      51.297  26.617  35.569  1.00  0.00     0.124 S 
ATOM     67  O   UNL A   1      51.764  27.820  36.252  1.00  0.00    -0.237 OA
ATOM     68  O   UNL A   1      50.937  25.499  36.438  1.00  0.00    -0.237 OA
ATOM     69  O   UNL A   1      52.047  26.249  34.370  1.00  0.00    -0.744 OA
ENDBRANCH  65  66
ENDBRANCH  39  60
ENDBRANCH  13  14
ENDBRANCH   6   8
ENDBRANCH   5   6
ENDBRANCH   4   5
ENDBRANCH   3   4
ENDBRANCH   2   3
ENDBRANCH   1   2
BRANCH   1  70
ATOM     70  C   UNL A   1      30.889  27.896  23.525  1.00  0.00     0.188 C 
BRANCH  70  71
ATOM     71  O   UNL A   1      31.365  26.972  22.549  1.00  0.00    -0.376 OA
BRANCH  71  72
ATOM     72  C   UNL A   1      32.776  26.793  22.456  1.00  0.00     0.202 C 
BRANCH  72  73
ATOM     73  C   UNL A   1      33.340  25.367  22.590  1.00  0.00     0.261 C 
BRANCH  73  74
ATOM     74  O   UNL A   1      33.928  25.020  23.863  1.00  0.00    -0.463 OA
BRANCH  74  75
ATOM     75  C   UNL A   1      34.914  24.080  23.789  1.00  0.00     0.309 C 
ATOM     76  O   UNL A   1      35.212  23.482  22.759  1.00  0.00    -0.252 OA
BRANCH  75  77
ATOM     77  C   UNL A   1      35.616  23.815  25.131  1.00  0.00     0.104 C 
BRANCH  77  78
ATOM     78  C   UNL A   1      34.491  23.138  25.954  1.00  0.00     0.019 C 
BRANCH  78  79
ATOM     79  C   UNL A   1      34.343  21.621  26.012  1.00  0.00    -0.010 C 
ATOM     80  C   UNL A   1      32.960  21.081  26.430  1.00  0.00     0.003 C 
ATOM     81  C   UNL A   1      34.309  20.662  24.803  1.00  0.00     0.003 C 
ATOM     82  C   UNL A   1      33.186  19.879  25.501  1.00  0.00     0.001 C 
ENDBRANCH  78  79
ENDBRANCH  77  78
BRANCH  77  83
ATOM     83  C   UNL A   1      36.870  22.994  24.733  1.00  0.00     0.050 C 
BRANCH  83  84
ATOM     84  C   UNL A   1      38.100  22.927  25.616  1.00  0.00    -0.046 A 
ATOM     85  C   UNL A   1      38.398  24.020  26.447  1.00  0.00     0.004 A 
ATOM     86  C   UNL A   1      38.889  21.771  25.746  1.00  0.00     0.019 A 
ATOM     87  C   UNL A   1      39.497  24.015  27.305  1.00  0.00     0.001 A 
ATOM     88  C   UNL A   1      39.956  21.753  26.659  1.00  0.00     0.018 A 
ATOM     89  C   UNL A   1      40.282  22.880  27.408  1.00  0.00     0.016 A 
ATOM     90  Br  UNL A   1      40.957  20.191  27.010  1.00  0.00    -0.051 Br
ENDBRANCH  83  84
ENDBRANCH  77  83
ENDBRANCH  75  77
ENDBRANCH  74  75
ENDBRANCH  73  74
ENDBRANCH  72  73
ENDBRANCH  71  72
ENDBRANCH  70  71
ENDBRANCH   1  70
TORSDOF 24
ENDMDL
MODEL 3
REMARK VINA RESULT:      -8.9      6.207     12.139
REMARK SMILES O=C(OCCOCCOCCOC(=O)[C@H](Cc1cccc(Br)c1)CC1CCC1)c1ccc(-c2c3nc(c(-c4ccc(S(=O)(=O)[O-])cc4)c4ccc([nH]4)c(-c4ccc(S(=O)(=O)[O-])cc4)c4nc(c(-c5ccc(S(=O)(=O)[O-])cc5)c5ccc2[nH]5)C=C4)C=C3)cc1
REMARK SMILES IDX 7 1 6 2 5 3 4 4 3 5 2 6 1 7 29 8 30 9 88 10 31 11 87 12
REMARK SMILES IDX 32 13 33 14 34 15 81 16 35 17 86 18 80 19 82 20 36 21 85 22
REMARK SMILES IDX 79 23 78 24 37 26 67 27 48 28 66 29 49 30 52 31 65 32 83 33
REMARK SMILES IDX 50 34 51 35 64 37 84 38 53 39 38 40 39 41 47 42 40 43 46 44
REMARK SMILES IDX 41 45 42 46 43 47 44 48 45 49 68 50 69 51 77 52 70 53 76 54
REMARK SMILES IDX 71 55 72 56 73 57 74 58 75 59 54 60 55 61 63 62 56 63 62 64
REMARK SMILES IDX 57 65 58 66 59 67 60 68 61 69 8 70 9 71 10 72 11 73 12 74
REMARK SMILES IDX 13 75 14 76 15 77 24 78 25 79 26 80 28 81 27 82 16 83 17 84
REMARK SMILES IDX 18 85 23 86 19 87 21 88 20 89 22 90
REMARK H PARENT 82 25 52 36
REMARK Flexibility Score: inf
ROOT
ATOM      1  C   UNL A   1      42.700  21.923  25.849  1.00  0.00     0.188 C 
ENDROOT
BRANCH   1   2
ATOM      2  O   UNL A   1      43.288  23.083  25.255  1.00  0.00    -0.376 OA
BRANCH   2   3
ATOM      3  C   UNL A   1      43.628  24.111  26.190  1.00  0.00     0.202 C 
BRANCH   3   4
ATOM      4  C   UNL A   1      43.961  25.465  25.551  1.00  0.00     0.261 C 
BRANCH   4   5
ATOM      5  O   UNL A   1      42.788  26.133  25.071  1.00  0.00    -0.460 OA
BRANCH   5   6
ATOM      6  C   UNL A   1      41.602  26.227  25.723  1.00  0.00     0.338 C 
ATOM      7  O   UNL A   1      40.648  25.564  25.322  1.00  0.00    -0.246 OA
BRANCH   6   8
ATOM      8  C   UNL A   1      41.411  27.068  26.941  1.00  0.00     0.060 A 
ATOM      9  C   UNL A   1      41.941  28.343  27.142  1.00  0.00     0.016 A 
ATOM     10  C   UNL A   1      40.538  26.566  27.906  1.00  0.00     0.016 A 
ATOM     11  C   UNL A   1      41.697  29.055  28.317  1.00  0.00     0.010 A 
ATOM     12  C   UNL A   1      40.179  27.334  29.017  1.00  0.00     0.010 A 
ATOM     13  C   UNL A   1      40.802  28.565  29.264  1.00  0.00    -0.014 A 
BRANCH  13  14
ATOM     14  C   UNL A   1      40.621  29.244  30.572  1.00  0.00     0.031 A 
ATOM     15  C   UNL A   1      39.534  30.281  30.683  1.00  0.00     0.074 A 
ATOM     16  C   UNL A   1      41.379  28.941  31.644  1.00  0.00     0.049 A 
ATOM     17  N   UNL A   1      39.310  31.155  31.628  1.00  0.00    -0.248 NA
ATOM     18  C   UNL A   1      38.580  30.351  29.562  1.00  0.00     0.031 C 
ATOM     19  C   UNL A   1      42.401  27.895  31.702  1.00  0.00     0.029 A 
ATOM     20  N   UNL A   1      41.419  29.504  32.897  1.00  0.00    -0.354 N 
ATOM     21  C   UNL A   1      38.217  31.897  31.193  1.00  0.00     0.074 A 
ATOM     22  C   UNL A   1      37.874  31.426  29.872  1.00  0.00     0.031 C 
ATOM     23  C   UNL A   1      42.978  27.904  32.915  1.00  0.00     0.029 A 
ATOM     24  C   UNL A   1      42.428  29.006  33.689  1.00  0.00     0.049 A 
ATOM     25  H   UNL A   1      40.787  30.197  33.198  1.00  0.00     0.167 HD
ATOM     26  C   UNL A   1      37.526  32.855  31.853  1.00  0.00     0.031 A 
ATOM     27  C   UNL A   1      42.897  29.428  34.878  1.00  0.00     0.031 A 
ATOM     28  C   UNL A   1      37.841  33.274  33.188  1.00  0.00     0.049 A 
ATOM     29  C   UNL A   1      42.198  30.571  35.556  1.00  0.00     0.074 A 
ATOM     30  C   UNL A   1      37.194  34.204  33.979  1.00  0.00     0.029 A 
ATOM     31  N   UNL A   1      38.892  32.764  33.937  1.00  0.00    -0.354 N 
ATOM     32  N   UNL A   1      41.180  31.279  35.125  1.00  0.00    -0.248 NA
ATOM     33  C   UNL A   1      42.683  30.951  36.887  1.00  0.00     0.031 C 
ATOM     34  C   UNL A   1      37.872  34.274  35.201  1.00  0.00     0.029 A 
ATOM     35  C   UNL A   1      38.915  33.358  35.184  1.00  0.00     0.049 A 
ATOM     36  H   UNL A   1      39.528  32.079  33.626  1.00  0.00     0.167 HD
ATOM     37  C   UNL A   1      40.862  32.149  36.158  1.00  0.00     0.074 A 
ATOM     38  C   UNL A   1      41.811  31.893  37.226  1.00  0.00     0.031 C 
ATOM     39  C   UNL A   1      39.861  33.060  36.229  1.00  0.00     0.031 A 
BRANCH  26  40
ATOM     40  C   UNL A   1      36.371  33.485  31.120  1.00  0.00    -0.014 A 
ATOM     41  C   UNL A   1      36.496  33.877  29.774  1.00  0.00     0.010 A 
ATOM     42  C   UNL A   1      35.169  33.748  31.800  1.00  0.00     0.010 A 
ATOM     43  C   UNL A   1      35.471  34.589  29.145  1.00  0.00     0.020 A 
ATOM     44  C   UNL A   1      34.128  34.431  31.163  1.00  0.00     0.020 A 
ATOM     45  C   UNL A   1      34.300  34.874  29.849  1.00  0.00     0.054 A 
BRANCH  45  46
ATOM     46  S   UNL A   1      33.000  35.835  29.025  1.00  0.00     0.124 S 
ATOM     47  O   UNL A   1      33.779  36.854  28.325  1.00  0.00    -0.237 OA
ATOM     48  O   UNL A   1      32.359  34.839  28.167  1.00  0.00    -0.237 OA
ATOM     49  O   UNL A   1      32.178  36.323  30.128  1.00  0.00    -0.744 OA
ENDBRANCH  45  46
ENDBRANCH  26  40
BRANCH  27  50
ATOM     50  C   UNL A   1      44.102  28.788  35.476  1.00  0.00    -0.014 A 
ATOM     51  C   UNL A   1      43.990  27.657  36.300  1.00  0.00     0.010 A 
ATOM     52  C   UNL A   1      45.383  29.305  35.199  1.00  0.00     0.010 A 
ATOM     53  C   UNL A   1      45.132  27.064  36.851  1.00  0.00     0.020 A 
ATOM     54  C   UNL A   1      46.529  28.703  35.729  1.00  0.00     0.020 A 
ATOM     55  C   UNL A   1      46.395  27.589  36.560  1.00  0.00     0.054 A 
BRANCH  55  56
ATOM     56  S   UNL A   1      47.862  26.775  37.252  1.00  0.00     0.124 S 
ATOM     57  O   UNL A   1      47.705  25.404  36.773  1.00  0.00    -0.237 OA
ATOM     58  O   UNL A   1      48.955  27.533  36.649  1.00  0.00    -0.237 OA
ATOM     59  O   UNL A   1      47.708  26.957  38.694  1.00  0.00    -0.744 OA
ENDBRANCH  55  56
ENDBRANCH  27  50
BRANCH  39  60
ATOM     60  C   UNL A   1      39.685  33.781  37.534  1.00  0.00    -0.014 A 
ATOM     61  C   UNL A   1      38.865  33.264  38.549  1.00  0.00     0.010 A 
ATOM     62  C   UNL A   1      40.417  34.960  37.763  1.00  0.00     0.010 A 
ATOM     63  C   UNL A   1      38.767  33.928  39.774  1.00  0.00     0.020 A 
ATOM     64  C   UNL A   1      40.341  35.612  38.993  1.00  0.00     0.020 A 
ATOM     65  C   UNL A   1      39.509  35.096  39.987  1.00  0.00     0.054 A 
BRANCH  65  66
ATOM     66  S   UNL A   1      39.422  35.903  41.609  1.00  0.00     0.124 S 
ATOM     67  O   UNL A   1      38.371  35.137  42.272  1.00  0.00    -0.237 OA
ATOM     68  O   UNL A   1      40.770  35.710  42.137  1.00  0.00    -0.237 OA
ATOM     69  O   UNL A   1      39.078  37.286  41.287  1.00  0.00    -0.744 OA
ENDBRANCH  65  66
ENDBRANCH  39  60
ENDBRANCH  13  14
ENDBRANCH   6   8
ENDBRANCH   5   6
ENDBRANCH   4   5
ENDBRANCH   3   4
ENDBRANCH   2   3
ENDBRANCH   1   2
BRANCH   1  70
ATOM     70  C   UNL A   1      41.836  22.289  27.059  1.00  0.00     0.188 C 
BRANCH  70  71
ATOM     71  O   UNL A   1      40.441  22.444  26.807  1.00  0.00    -0.376 OA
BRANCH  71  72
ATOM     72  C   UNL A   1      39.862  21.608  25.808  1.00  0.00     0.202 C 
BRANCH  72  73
ATOM     73  C   UNL A   1      38.332  21.446  25.792  1.00  0.00     0.261 C 
BRANCH  73  74
ATOM     74  O   UNL A   1      37.553  22.655  25.663  1.00  0.00    -0.463 OA
BRANCH  74  75
ATOM     75  C   UNL A   1      36.640  22.631  24.651  1.00  0.00     0.309 C 
ATOM     76  O   UNL A   1      36.885  22.225  23.518  1.00  0.00    -0.252 OA
BRANCH  75  77
ATOM     77  C   UNL A   1      35.261  23.182  25.050  1.00  0.00     0.104 C 
BRANCH  77  78
ATOM     78  C   UNL A   1      34.733  23.734  23.701  1.00  0.00     0.019 C 
BRANCH  78  79
ATOM     79  C   UNL A   1      33.741  24.890  23.642  1.00  0.00    -0.010 C 
ATOM     80  C   UNL A   1      34.025  26.088  24.571  1.00  0.00     0.003 C 
ATOM     81  C   UNL A   1      33.569  25.885  22.475  1.00  0.00     0.003 C 
ATOM     82  C   UNL A   1      33.418  27.015  23.507  1.00  0.00     0.001 C 
ENDBRANCH  78  79
ENDBRANCH  77  78
BRANCH  77  83
ATOM     83  C   UNL A   1      34.555  21.967  25.705  1.00  0.00     0.050 C 
BRANCH  83  84
ATOM     84  C   UNL A   1      33.832  20.918  24.883  1.00  0.00    -0.046 A 
ATOM     85  C   UNL A   1      32.823  21.329  23.997  1.00  0.00     0.004 A 
ATOM     86  C   UNL A   1      34.211  19.564  24.863  1.00  0.00     0.019 A 
ATOM     87  C   UNL A   1      32.137  20.422  23.190  1.00  0.00     0.001 A 
ATOM     88  C   UNL A   1      33.557  18.669  24.000  1.00  0.00     0.018 A 
ATOM     89  C   UNL A   1      32.501  19.087  23.195  1.00  0.00     0.016 A 
ATOM     90  Br  UNL A   1      34.114  16.877  23.795  1.00  0.00    -0.051 Br
ENDBRANCH  83  84
ENDBRANCH  77  83
ENDBRANCH  75  77
ENDBRANCH  74  75
ENDBRANCH  73  74
ENDBRANCH  72  73
ENDBRANCH  71  72
ENDBRANCH  70  71
ENDBRANCH   1  70
TORSDOF 24
ENDMDL
