MODEL 1
REMARK VINA RESULT:     -10.4      0.000      0.000
REMARK SMILES [NH3+][C@H]1CN(C(=O)OCC2c3ccccc3-c3ccccc32)C[C@@H]1C(=O)OCCOCCOCCOC(=O)c1ccc(-c2c3nc(c(-c4ccc(S(=O)(=O)[O-])cc4)c4ccc([nH]4)c(-c4ccc(S(=O)(=O)[O-])cc4)c4nc(c(-c5ccc(S(=O)(=O)[O-])cc5)c5ccc2[nH]5)C=C4)C=C3)cc1
REMARK SMILES IDX 30 1 29 2 28 3 27 4 26 5 24 6 25 7 23 8 2 9 3 10 4 11 22 12
REMARK SMILES IDX 1 13 5 17 6 18 7 19 8 20 9 21 10 22 21 23 11 24 15 25 16 26
REMARK SMILES IDX 20 27 12 28 14 29 17 30 19 31 13 32 18 33 31 34 32 35 33 36
REMARK SMILES IDX 34 37 35 38 36 39 37 40 38 41 39 42 97 43 40 44 96 45 41 46
REMARK SMILES IDX 42 47 43 48 90 49 44 50 95 51 89 52 91 53 45 54 94 55 88 56
REMARK SMILES IDX 87 57 46 59 76 60 57 61 75 62 58 63 61 64 74 65 92 66 59 67
REMARK SMILES IDX 60 68 73 70 93 71 62 72 47 73 48 74 56 75 49 76 55 77 50 78
REMARK SMILES IDX 51 79 52 80 53 81 54 82 77 83 78 84 86 85 79 86 85 87 80 88
REMARK SMILES IDX 81 89 82 90 83 91 84 92 63 93 64 94 72 95 65 96 71 97 66 98
REMARK SMILES IDX 67 99 68 100 69 101 70 102
REMARK H PARENT 1 14 1 15 1 16 91 58 61 69
REMARK Flexibility Score: inf
ROOT
ATOM      1  C   UNL A   1      35.105  31.677  27.672  1.00  0.00     0.188 C 
ENDROOT
BRANCH   1   2
ATOM      2  O   UNL A   1      33.724  31.464  27.857  1.00  0.00    -0.376 OA
BRANCH   2   3
ATOM      3  C   UNL A   1      33.081  30.474  27.078  1.00  0.00     0.202 C 
BRANCH   3   4
ATOM      4  C   UNL A   1      33.635  29.039  27.044  1.00  0.00     0.261 C 
BRANCH   4   5
ATOM      5  O   UNL A   1      33.608  28.335  25.791  1.00  0.00    -0.463 OA
BRANCH   5   6
ATOM      6  C   UNL A   1      32.407  28.256  25.163  1.00  0.00     0.316 C 
ATOM      7  O   UNL A   1      31.402  27.822  25.702  1.00  0.00    -0.252 OA
BRANCH   6   8
ATOM      8  C   UNL A   1      32.511  28.809  23.747  1.00  0.00     0.178 C 
ATOM      9  C   UNL A   1      31.213  28.758  22.904  1.00  0.00     0.216 C 
ATOM     10  C   UNL A   1      31.187  27.320  22.338  1.00  0.00     0.188 C 
ATOM     11  N   UNL A   1      32.532  26.836  22.531  1.00  0.00    -0.301 N 
ATOM     12  C   UNL A   1      33.426  27.883  22.977  1.00  0.00     0.145 C 
BRANCH   9  13
ATOM     13  N   UNL A   1      31.256  29.758  21.820  1.00  0.00    -0.353 N 
ATOM     14  H   UNL A   1      30.434  29.652  21.226  1.00  0.00     0.344 HD
ATOM     15  H   UNL A   1      32.098  29.619  21.263  1.00  0.00     0.344 HD
ATOM     16  H   UNL A   1      31.265  30.695  22.222  1.00  0.00     0.344 HD
ENDBRANCH   9  13
BRANCH  11  17
ATOM     17  C   UNL A   1      32.812  25.508  22.711  1.00  0.00     0.410 C 
ATOM     18  O   UNL A   1      32.069  24.602  22.371  1.00  0.00    -0.224 OA
BRANCH  17  19
ATOM     19  O   UNL A   1      33.938  25.363  23.456  1.00  0.00    -0.448 OA
BRANCH  19  20
ATOM     20  C   UNL A   1      34.521  24.053  23.374  1.00  0.00     0.248 C 
BRANCH  20  21
ATOM     21  C   UNL A   1      34.483  23.333  24.746  1.00  0.00     0.088 C 
ATOM     22  C   UNL A   1      33.953  21.895  24.704  1.00  0.00    -0.029 A 
ATOM     23  C   UNL A   1      35.907  23.096  25.224  1.00  0.00    -0.029 A 
ATOM     24  C   UNL A   1      32.653  21.441  24.557  1.00  0.00     0.005 A 
ATOM     25  C   UNL A   1      35.012  20.981  24.859  1.00  0.00    -0.014 A 
ATOM     26  C   UNL A   1      36.200  21.714  25.232  1.00  0.00    -0.014 A 
ATOM     27  C   UNL A   1      36.851  24.037  25.595  1.00  0.00     0.005 A 
ATOM     28  C   UNL A   1      32.436  20.075  24.374  1.00  0.00     0.000 A 
ATOM     29  C   UNL A   1      34.801  19.621  24.696  1.00  0.00     0.009 A 
ATOM     30  C   UNL A   1      37.446  21.260  25.624  1.00  0.00     0.009 A 
ATOM     31  C   UNL A   1      38.103  23.576  25.992  1.00  0.00     0.000 A 
ATOM     32  C   UNL A   1      33.508  19.173  24.416  1.00  0.00     0.001 A 
ATOM     33  C   UNL A   1      38.401  22.204  26.004  1.00  0.00     0.001 A 
ENDBRANCH  20  21
ENDBRANCH  19  20
ENDBRANCH  17  19
ENDBRANCH  11  17
ENDBRANCH   6   8
ENDBRANCH   5   6
ENDBRANCH   4   5
ENDBRANCH   3   4
ENDBRANCH   2   3
ENDBRANCH   1   2
BRANCH   1  34
ATOM     34  C   UNL A   1      35.575  33.062  28.170  1.00  0.00     0.188 C 
BRANCH  34  35
ATOM     35  O   UNL A   1      34.804  33.760  29.138  1.00  0.00    -0.376 OA
BRANCH  35  36
ATOM     36  C   UNL A   1      35.353  33.969  30.431  1.00  0.00     0.202 C 
BRANCH  36  37
ATOM     37  C   UNL A   1      35.564  32.752  31.343  1.00  0.00     0.261 C 
BRANCH  37  38
ATOM     38  O   UNL A   1      36.869  32.143  31.291  1.00  0.00    -0.460 OA
BRANCH  38  39
ATOM     39  C   UNL A   1      36.902  30.795  31.451  1.00  0.00     0.338 C 
ATOM     40  O   UNL A   1      36.037  30.098  31.956  1.00  0.00    -0.246 OA
BRANCH  39  41
ATOM     41  C   UNL A   1      38.075  30.216  30.755  1.00  0.00     0.060 A 
ATOM     42  C   UNL A   1      39.096  29.643  31.528  1.00  0.00     0.016 A 
ATOM     43  C   UNL A   1      38.215  30.309  29.370  1.00  0.00     0.016 A 
ATOM     44  C   UNL A   1      40.273  29.191  30.923  1.00  0.00     0.010 A 
ATOM     45  C   UNL A   1      39.405  29.875  28.767  1.00  0.00     0.010 A 
ATOM     46  C   UNL A   1      40.453  29.343  29.542  1.00  0.00    -0.014 A 
BRANCH  46  47
ATOM     47  C   UNL A   1      41.791  29.110  28.934  1.00  0.00     0.031 A 
ATOM     48  C   UNL A   1      42.126  27.731  28.425  1.00  0.00     0.074 A 
ATOM     49  C   UNL A   1      42.694  30.104  28.818  1.00  0.00     0.049 A 
ATOM     50  N   UNL A   1      43.249  27.277  27.933  1.00  0.00    -0.248 NA
ATOM     51  C   UNL A   1      41.045  26.731  28.477  1.00  0.00     0.031 C 
ATOM     52  C   UNL A   1      42.481  31.494  29.219  1.00  0.00     0.029 A 
ATOM     53  N   UNL A   1      43.982  30.087  28.340  1.00  0.00    -0.354 N 
ATOM     54  C   UNL A   1      43.016  25.941  27.625  1.00  0.00     0.074 A 
ATOM     55  C   UNL A   1      41.651  25.652  28.007  1.00  0.00     0.031 C 
ATOM     56  C   UNL A   1      43.607  32.192  28.988  1.00  0.00     0.029 A 
ATOM     57  C   UNL A   1      44.634  31.292  28.463  1.00  0.00     0.049 A 
ATOM     58  H   UNL A   1      44.399  29.287  27.944  1.00  0.00     0.167 HD
ATOM     59  C   UNL A   1      43.859  25.036  27.073  1.00  0.00     0.031 A 
ATOM     60  C   UNL A   1      45.920  31.623  28.218  1.00  0.00     0.031 A 
ATOM     61  C   UNL A   1      45.224  25.316  26.711  1.00  0.00     0.049 A 
ATOM     62  C   UNL A   1      46.870  30.567  27.697  1.00  0.00     0.074 A 
ATOM     63  C   UNL A   1      46.157  24.462  26.148  1.00  0.00     0.029 A 
ATOM     64  N   UNL A   1      45.855  26.538  26.884  1.00  0.00    -0.354 N 
ATOM     65  N   UNL A   1      46.629  29.312  27.395  1.00  0.00    -0.248 NA
ATOM     66  C   UNL A   1      48.267  30.975  27.479  1.00  0.00     0.031 C 
ATOM     67  C   UNL A   1      47.368  25.152  26.035  1.00  0.00     0.029 A 
ATOM     68  C   UNL A   1      47.171  26.455  26.461  1.00  0.00     0.049 A 
ATOM     69  H   UNL A   1      45.430  27.346  27.254  1.00  0.00     0.167 HD
ATOM     70  C   UNL A   1      47.833  28.796  26.921  1.00  0.00     0.074 A 
ATOM     71  C   UNL A   1      48.796  29.875  26.961  1.00  0.00     0.031 C 
ATOM     72  C   UNL A   1      48.117  27.541  26.490  1.00  0.00     0.031 A 
BRANCH  59  73
ATOM     73  C   UNL A   1      43.341  23.638  26.853  1.00  0.00    -0.014 A 
ATOM     74  C   UNL A   1      42.861  23.229  25.596  1.00  0.00     0.010 A 
ATOM     75  C   UNL A   1      43.386  22.705  27.906  1.00  0.00     0.010 A 
ATOM     76  C   UNL A   1      42.410  21.920  25.404  1.00  0.00     0.020 A 
ATOM     77  C   UNL A   1      42.963  21.388  27.710  1.00  0.00     0.020 A 
ATOM     78  C   UNL A   1      42.464  21.007  26.462  1.00  0.00     0.054 A 
BRANCH  78  79
ATOM     79  S   UNL A   1      41.905  19.306  26.172  1.00  0.00     0.124 S 
ATOM     80  O   UNL A   1      42.737  18.905  25.041  1.00  0.00    -0.237 OA
ATOM     81  O   UNL A   1      42.210  18.649  27.441  1.00  0.00    -0.237 OA
ATOM     82  O   UNL A   1      40.482  19.453  25.876  1.00  0.00    -0.744 OA
ENDBRANCH  78  79
ENDBRANCH  59  73
BRANCH  60  83
ATOM     83  C   UNL A   1      46.420  32.996  28.526  1.00  0.00    -0.014 A 
ATOM     84  C   UNL A   1      46.170  34.076  27.661  1.00  0.00     0.010 A 
ATOM     85  C   UNL A   1      47.220  33.210  29.664  1.00  0.00     0.010 A 
ATOM     86  C   UNL A   1      46.760  35.325  27.896  1.00  0.00     0.020 A 
ATOM     87  C   UNL A   1      47.776  34.465  29.924  1.00  0.00     0.020 A 
ATOM     88  C   UNL A   1      47.567  35.509  29.023  1.00  0.00     0.054 A 
BRANCH  88  89
ATOM     89  S   UNL A   1      48.386  37.110  29.277  1.00  0.00     0.124 S 
ATOM     90  O   UNL A   1      48.302  37.265  30.726  1.00  0.00    -0.237 OA
ATOM     91  O   UNL A   1      49.725  36.873  28.752  1.00  0.00    -0.237 OA
ATOM     92  O   UNL A   1      47.571  38.040  28.498  1.00  0.00    -0.744 OA
ENDBRANCH  88  89
ENDBRANCH  60  83
BRANCH  72  93
ATOM     93  C   UNL A   1      49.506  27.271  25.967  1.00  0.00    -0.014 A 
ATOM     94  C   UNL A   1      50.548  26.861  26.819  1.00  0.00     0.010 A 
ATOM     95  C   UNL A   1      49.753  27.367  24.585  1.00  0.00     0.010 A 
ATOM     96  C   UNL A   1      51.817  26.583  26.300  1.00  0.00     0.020 A 
ATOM     97  C   UNL A   1      51.012  27.060  24.059  1.00  0.00     0.020 A 
ATOM     98  C   UNL A   1      52.041  26.683  24.924  1.00  0.00     0.054 A 
BRANCH  98  99
ATOM     99  S   UNL A   1      53.683  26.274  24.271  1.00  0.00     0.124 S 
ATOM    100  O   UNL A   1      53.788  24.849  24.580  1.00  0.00    -0.237 OA
ATOM    101  O   UNL A   1      53.556  26.602  22.854  1.00  0.00    -0.237 OA
ATOM    102  O   UNL A   1      54.584  27.141  25.028  1.00  0.00    -0.744 OA
ENDBRANCH  98  99
ENDBRANCH  72  93
ENDBRANCH  46  47
ENDBRANCH  39  41
ENDBRANCH  38  39
ENDBRANCH  37  38
ENDBRANCH  36  37
ENDBRANCH  35  36
ENDBRANCH  34  35
ENDBRANCH   1  34
TORSDOF 25
ENDMDL
MODEL 2
REMARK VINA RESULT:      -9.7      5.246      9.977
REMARK SMILES [NH3+][C@H]1CN(C(=O)OCC2c3ccccc3-c3ccccc32)C[C@@H]1C(=O)OCCOCCOCCOC(=O)c1ccc(-c2c3nc(c(-c4ccc(S(=O)(=O)[O-])cc4)c4ccc([nH]4)c(-c4ccc(S(=O)(=O)[O-])cc4)c4nc(c(-c5ccc(S(=O)(=O)[O-])cc5)c5ccc2[nH]5)C=C4)C=C3)cc1
REMARK SMILES IDX 30 1 29 2 28 3 27 4 26 5 24 6 25 7 23 8 2 9 3 10 4 11 22 12
REMARK SMILES IDX 1 13 5 17 6 18 7 19 8 20 9 21 10 22 21 23 11 24 15 25 16 26
REMARK SMILES IDX 20 27 12 28 14 29 17 30 19 31 13 32 18 33 31 34 32 35 33 36
REMARK SMILES IDX 34 37 35 38 36 39 37 40 38 41 39 42 97 43 40 44 96 45 41 46
REMARK SMILES IDX 42 47 43 48 90 49 44 50 95 51 89 52 91 53 45 54 94 55 88 56
REMARK SMILES IDX 87 57 46 59 76 60 57 61 75 62 58 63 61 64 74 65 92 66 59 67
REMARK SMILES IDX 60 68 73 70 93 71 62 72 47 73 48 74 56 75 49 76 55 77 50 78
REMARK SMILES IDX 51 79 52 80 53 81 54 82 77 83 78 84 86 85 79 86 85 87 80 88
REMARK SMILES IDX 81 89 82 90 83 91 84 92 63 93 64 94 72 95 65 96 71 97 66 98
REMARK SMILES IDX 67 99 68 100 69 101 70 102
REMARK H PARENT 1 14 1 15 1 16 91 58 61 69
REMARK Flexibility Score: inf
ROOT
ATOM      1  C   UNL A   1      31.943  29.629  26.463  1.00  0.00     0.188 C 
ENDROOT
BRANCH   1   2
ATOM      2  O   UNL A   1      31.977  29.817  25.066  1.00  0.00    -0.376 OA
BRANCH   2   3
ATOM      3  C   UNL A   1      30.753  29.923  24.367  1.00  0.00     0.202 C 
BRANCH   3   4
ATOM      4  C   UNL A   1      30.291  28.784  23.442  1.00  0.00     0.261 C 
BRANCH   4   5
ATOM      5  O   UNL A   1      29.696  27.624  24.047  1.00  0.00    -0.463 OA
BRANCH   5   6
ATOM      6  C   UNL A   1      30.205  26.418  23.683  1.00  0.00     0.316 C 
ATOM      7  O   UNL A   1      29.509  25.439  23.473  1.00  0.00    -0.252 OA
BRANCH   6   8
ATOM      8  C   UNL A   1      31.722  26.500  23.553  1.00  0.00     0.178 C 
ATOM      9  C   UNL A   1      32.343  25.705  22.379  1.00  0.00     0.216 C 
ATOM     10  C   UNL A   1      32.470  24.264  22.924  1.00  0.00     0.188 C 
ATOM     11  N   UNL A   1      32.319  24.407  24.351  1.00  0.00    -0.301 N 
ATOM     12  C   UNL A   1      32.306  25.797  24.758  1.00  0.00     0.145 C 
BRANCH   9  13
ATOM     13  N   UNL A   1      33.663  26.257  22.017  1.00  0.00    -0.353 N 
ATOM     14  H   UNL A   1      33.746  27.206  22.380  1.00  0.00     0.344 HD
ATOM     15  H   UNL A   1      33.758  26.272  21.002  1.00  0.00     0.344 HD
ATOM     16  H   UNL A   1      34.397  25.674  22.419  1.00  0.00     0.344 HD
ENDBRANCH   9  13
BRANCH  11  17
ATOM     17  C   UNL A   1      31.808  23.410  25.137  1.00  0.00     0.410 C 
ATOM     18  O   UNL A   1      30.637  23.064  25.123  1.00  0.00    -0.224 OA
BRANCH  17  19
ATOM     19  O   UNL A   1      32.741  22.989  26.027  1.00  0.00    -0.448 OA
BRANCH  19  20
ATOM     20  C   UNL A   1      32.981  21.573  25.987  1.00  0.00     0.248 C 
BRANCH  20  21
ATOM     21  C   UNL A   1      33.712  21.163  24.683  1.00  0.00     0.088 C 
ATOM     22  C   UNL A   1      35.231  21.370  24.703  1.00  0.00    -0.029 A 
ATOM     23  C   UNL A   1      33.636  19.652  24.523  1.00  0.00    -0.029 A 
ATOM     24  C   UNL A   1      35.959  22.545  24.609  1.00  0.00     0.005 A 
ATOM     25  C   UNL A   1      35.890  20.133  24.826  1.00  0.00    -0.014 A 
ATOM     26  C   UNL A   1      34.919  19.076  24.660  1.00  0.00    -0.014 A 
ATOM     27  C   UNL A   1      32.515  18.873  24.296  1.00  0.00     0.005 A 
ATOM     28  C   UNL A   1      37.336  22.500  24.827  1.00  0.00     0.000 A 
ATOM     29  C   UNL A   1      37.261  20.079  25.026  1.00  0.00     0.009 A 
ATOM     30  C   UNL A   1      35.092  17.708  24.561  1.00  0.00     0.009 A 
ATOM     31  C   UNL A   1      32.694  17.496  24.194  1.00  0.00     0.000 A 
ATOM     32  C   UNL A   1      37.980  21.277  25.061  1.00  0.00     0.001 A 
ATOM     33  C   UNL A   1      33.966  16.917  24.328  1.00  0.00     0.001 A 
ENDBRANCH  20  21
ENDBRANCH  19  20
ENDBRANCH  17  19
ENDBRANCH  11  17
ENDBRANCH   6   8
ENDBRANCH   5   6
ENDBRANCH   4   5
ENDBRANCH   3   4
ENDBRANCH   2   3
ENDBRANCH   1   2
BRANCH   1  34
ATOM     34  C   UNL A   1      33.275  29.998  27.154  1.00  0.00     0.188 C 
BRANCH  34  35
ATOM     35  O   UNL A   1      33.421  31.273  27.765  1.00  0.00    -0.376 OA
BRANCH  35  36
ATOM     36  C   UNL A   1      32.585  32.338  27.337  1.00  0.00     0.202 C 
BRANCH  36  37
ATOM     37  C   UNL A   1      33.002  33.777  27.673  1.00  0.00     0.261 C 
BRANCH  37  38
ATOM     38  O   UNL A   1      32.477  34.315  28.903  1.00  0.00    -0.460 OA
BRANCH  38  39
ATOM     39  C   UNL A   1      33.365  34.979  29.687  1.00  0.00     0.338 C 
ATOM     40  O   UNL A   1      33.215  36.079  30.190  1.00  0.00    -0.246 OA
BRANCH  39  41
ATOM     41  C   UNL A   1      34.515  34.106  30.023  1.00  0.00     0.060 A 
ATOM     42  C   UNL A   1      34.307  33.038  30.911  1.00  0.00     0.016 A 
ATOM     43  C   UNL A   1      35.797  34.378  29.546  1.00  0.00     0.016 A 
ATOM     44  C   UNL A   1      35.385  32.262  31.347  1.00  0.00     0.010 A 
ATOM     45  C   UNL A   1      36.879  33.612  30.001  1.00  0.00     0.010 A 
ATOM     46  C   UNL A   1      36.685  32.570  30.928  1.00  0.00    -0.014 A 
BRANCH  46  47
ATOM     47  C   UNL A   1      37.853  31.924  31.585  1.00  0.00     0.031 A 
ATOM     48  C   UNL A   1      38.284  32.418  32.944  1.00  0.00     0.074 A 
ATOM     49  C   UNL A   1      38.518  30.908  31.001  1.00  0.00     0.049 A 
ATOM     50  N   UNL A   1      39.314  32.064  33.668  1.00  0.00    -0.248 NA
ATOM     51  C   UNL A   1      37.435  33.448  33.568  1.00  0.00     0.031 C 
ATOM     52  C   UNL A   1      38.175  30.299  29.716  1.00  0.00     0.029 A 
ATOM     53  N   UNL A   1      39.634  30.219  31.412  1.00  0.00    -0.354 N 
ATOM     54  C   UNL A   1      39.244  32.831  34.827  1.00  0.00     0.074 A 
ATOM     55  C   UNL A   1      38.083  33.685  34.698  1.00  0.00     0.031 C 
ATOM     56  C   UNL A   1      39.075  29.340  29.435  1.00  0.00     0.029 A 
ATOM     57  C   UNL A   1      40.081  29.294  30.496  1.00  0.00     0.049 A 
ATOM     58  H   UNL A   1      40.072  30.372  32.280  1.00  0.00     0.167 HD
ATOM     59  C   UNL A   1      40.069  32.825  35.901  1.00  0.00     0.031 A 
ATOM     60  C   UNL A   1      41.192  28.527  30.496  1.00  0.00     0.031 A 
ATOM     61  C   UNL A   1      41.235  31.990  36.022  1.00  0.00     0.049 A 
ATOM     62  C   UNL A   1      42.152  28.612  31.662  1.00  0.00     0.074 A 
ATOM     63  C   UNL A   1      42.133  31.916  37.073  1.00  0.00     0.029 A 
ATOM     64  N   UNL A   1      41.671  31.093  35.059  1.00  0.00    -0.354 N 
ATOM     65  N   UNL A   1      42.062  29.330  32.758  1.00  0.00    -0.248 NA
ATOM     66  C   UNL A   1      43.363  27.779  31.593  1.00  0.00     0.031 C 
ATOM     67  C   UNL A   1      43.145  31.016  36.720  1.00  0.00     0.029 A 
ATOM     68  C   UNL A   1      42.838  30.479  35.480  1.00  0.00     0.049 A 
ATOM     69  H   UNL A   1      41.218  30.920  34.203  1.00  0.00     0.167 HD
ATOM     70  C   UNL A   1      43.184  29.008  33.519  1.00  0.00     0.074 A 
ATOM     71  C   UNL A   1      43.929  28.020  32.768  1.00  0.00     0.031 C 
ATOM     72  C   UNL A   1      43.563  29.484  34.731  1.00  0.00     0.031 A 
BRANCH  59  73
ATOM     73  C   UNL A   1      39.758  33.776  37.028  1.00  0.00    -0.014 A 
ATOM     74  C   UNL A   1      39.050  33.350  38.166  1.00  0.00     0.010 A 
ATOM     75  C   UNL A   1      40.231  35.100  36.971  1.00  0.00     0.010 A 
ATOM     76  C   UNL A   1      38.795  34.240  39.213  1.00  0.00     0.020 A 
ATOM     77  C   UNL A   1      40.003  35.985  38.029  1.00  0.00     0.020 A 
ATOM     78  C   UNL A   1      39.274  35.552  39.139  1.00  0.00     0.054 A 
BRANCH  78  79
ATOM     79  S   UNL A   1      38.959  36.672  40.530  1.00  0.00     0.124 S 
ATOM     80  O   UNL A   1      40.293  36.823  41.104  1.00  0.00    -0.237 OA
ATOM     81  O   UNL A   1      38.422  37.859  39.868  1.00  0.00    -0.237 OA
ATOM     82  O   UNL A   1      38.005  35.939  41.358  1.00  0.00    -0.744 OA
ENDBRANCH  78  79
ENDBRANCH  59  73
BRANCH  60  83
ATOM     83  C   UNL A   1      41.511  27.657  29.325  1.00  0.00    -0.014 A 
ATOM     84  C   UNL A   1      41.061  26.327  29.258  1.00  0.00     0.010 A 
ATOM     85  C   UNL A   1      42.336  28.146  28.295  1.00  0.00     0.010 A 
ATOM     86  C   UNL A   1      41.481  25.486  28.219  1.00  0.00     0.020 A 
ATOM     87  C   UNL A   1      42.724  27.322  27.235  1.00  0.00     0.020 A 
ATOM     88  C   UNL A   1      42.318  25.987  27.219  1.00  0.00     0.054 A 
BRANCH  88  89
ATOM     89  S   UNL A   1      42.916  24.870  25.918  1.00  0.00     0.124 S 
ATOM     90  O   UNL A   1      42.612  25.625  24.707  1.00  0.00    -0.237 OA
ATOM     91  O   UNL A   1      44.334  24.740  26.233  1.00  0.00    -0.237 OA
ATOM     92  O   UNL A   1      42.125  23.657  26.117  1.00  0.00    -0.744 OA
ENDBRANCH  88  89
ENDBRANCH  60  83
BRANCH  72  93
ATOM     93  C   UNL A   1      44.808  28.907  35.358  1.00  0.00    -0.014 A 
ATOM     94  C   UNL A   1      44.759  27.767  36.181  1.00  0.00     0.010 A 
ATOM     95  C   UNL A   1      46.059  29.480  35.063  1.00  0.00     0.010 A 
ATOM     96  C   UNL A   1      45.934  27.232  36.720  1.00  0.00     0.020 A 
ATOM     97  C   UNL A   1      47.238  28.930  35.574  1.00  0.00     0.020 A 
ATOM     98  C   UNL A   1      47.166  27.817  36.412  1.00  0.00     0.054 A 
BRANCH  98  99
ATOM     99  S   UNL A   1      48.679  27.077  37.088  1.00  0.00     0.124 S 
ATOM    100  O   UNL A   1      48.310  26.848  38.483  1.00  0.00    -0.237 OA
ATOM    101  O   UNL A   1      48.838  25.875  36.274  1.00  0.00    -0.237 OA
ATOM    102  O   UNL A   1      49.694  28.106  36.874  1.00  0.00    -0.744 OA
ENDBRANCH  98  99
ENDBRANCH  72  93
ENDBRANCH  46  47
ENDBRANCH  39  41
ENDBRANCH  38  39
ENDBRANCH  37  38
ENDBRANCH  36  37
ENDBRANCH  35  36
ENDBRANCH  34  35
ENDBRANCH   1  34
TORSDOF 25
ENDMDL
MODEL 3
REMARK VINA RESULT:      -9.3      2.246      4.185
REMARK SMILES [NH3+][C@H]1CN(C(=O)OCC2c3ccccc3-c3ccccc32)C[C@@H]1C(=O)OCCOCCOCCOC(=O)c1ccc(-c2c3nc(c(-c4ccc(S(=O)(=O)[O-])cc4)c4ccc([nH]4)c(-c4ccc(S(=O)(=O)[O-])cc4)c4nc(c(-c5ccc(S(=O)(=O)[O-])cc5)c5ccc2[nH]5)C=C4)C=C3)cc1
REMARK SMILES IDX 30 1 29 2 28 3 27 4 26 5 24 6 25 7 23 8 2 9 3 10 4 11 22 12
REMARK SMILES IDX 1 13 5 17 6 18 7 19 8 20 9 21 10 22 21 23 11 24 15 25 16 26
REMARK SMILES IDX 20 27 12 28 14 29 17 30 19 31 13 32 18 33 31 34 32 35 33 36
REMARK SMILES IDX 34 37 35 38 36 39 37 40 38 41 39 42 97 43 40 44 96 45 41 46
REMARK SMILES IDX 42 47 43 48 90 49 44 50 95 51 89 52 91 53 45 54 94 55 88 56
REMARK SMILES IDX 87 57 46 59 76 60 57 61 75 62 58 63 61 64 74 65 92 66 59 67
REMARK SMILES IDX 60 68 73 70 93 71 62 72 47 73 48 74 56 75 49 76 55 77 50 78
REMARK SMILES IDX 51 79 52 80 53 81 54 82 77 83 78 84 86 85 79 86 85 87 80 88
REMARK SMILES IDX 81 89 82 90 83 91 84 92 63 93 64 94 72 95 65 96 71 97 66 98
REMARK SMILES IDX 67 99 68 100 69 101 70 102
REMARK H PARENT 1 14 1 15 1 16 91 58 61 69
REMARK Flexibility Score: inf
ROOT
ATOM      1  C   UNL A   1      31.931  26.976  26.175  1.00  0.00     0.188 C 
ENDROOT
BRANCH   1   2
ATOM      2  O   UNL A   1      30.530  26.850  26.080  1.00  0.00    -0.376 OA
BRANCH   2   3
ATOM      3  C   UNL A   1      29.972  25.554  25.982  1.00  0.00     0.202 C 
BRANCH   3   4
ATOM      4  C   UNL A   1      30.793  24.406  25.370  1.00  0.00     0.261 C 
BRANCH   4   5
ATOM      5  O   UNL A   1      31.246  23.360  26.247  1.00  0.00    -0.463 OA
BRANCH   5   6
ATOM      6  C   UNL A   1      32.340  22.663  25.848  1.00  0.00     0.316 C 
ATOM      7  O   UNL A   1      33.092  22.102  26.628  1.00  0.00    -0.252 OA
BRANCH   6   8
ATOM      8  C   UNL A   1      32.448  22.667  24.327  1.00  0.00     0.178 C 
ATOM      9  C   UNL A   1      32.058  21.347  23.618  1.00  0.00     0.216 C 
ATOM     10  C   UNL A   1      33.336  20.482  23.703  1.00  0.00     0.188 C 
ATOM     11  N   UNL A   1      34.379  21.417  24.045  1.00  0.00    -0.301 N 
ATOM     12  C   UNL A   1      33.918  22.788  23.989  1.00  0.00     0.145 C 
BRANCH   9  13
ATOM     13  N   UNL A   1      31.679  21.602  22.215  1.00  0.00    -0.353 N 
ATOM     14  H   UNL A   1      31.237  22.517  22.143  1.00  0.00     0.344 HD
ATOM     15  H   UNL A   1      31.025  20.883  21.904  1.00  0.00     0.344 HD
ATOM     16  H   UNL A   1      32.512  21.579  21.628  1.00  0.00     0.344 HD
ENDBRANCH   9  13
BRANCH  11  17
ATOM     17  C   UNL A   1      35.490  21.047  24.754  1.00  0.00     0.410 C 
ATOM     18  O   UNL A   1      35.729  19.900  25.098  1.00  0.00    -0.224 OA
BRANCH  17  19
ATOM     19  O   UNL A   1      36.182  22.146  25.148  1.00  0.00    -0.448 OA
BRANCH  19  20
ATOM     20  C   UNL A   1      37.150  21.882  26.176  1.00  0.00     0.248 C 
BRANCH  20  21
ATOM     21  C   UNL A   1      38.564  22.356  25.755  1.00  0.00     0.088 C 
ATOM     22  C   UNL A   1      39.104  23.553  26.544  1.00  0.00    -0.029 A 
ATOM     23  C   UNL A   1      39.580  21.288  26.131  1.00  0.00    -0.029 A 
ATOM     24  C   UNL A   1      38.754  24.891  26.461  1.00  0.00     0.005 A 
ATOM     25  C   UNL A   1      40.100  23.134  27.445  1.00  0.00    -0.014 A 
ATOM     26  C   UNL A   1      40.432  21.758  27.155  1.00  0.00    -0.014 A 
ATOM     27  C   UNL A   1      39.708  20.012  25.612  1.00  0.00     0.005 A 
ATOM     28  C   UNL A   1      39.264  25.778  27.410  1.00  0.00     0.000 A 
ATOM     29  C   UNL A   1      40.625  24.013  28.379  1.00  0.00     0.009 A 
ATOM     30  C   UNL A   1      41.432  20.951  27.665  1.00  0.00     0.009 A 
ATOM     31  C   UNL A   1      40.719  19.203  26.126  1.00  0.00     0.000 A 
ATOM     32  C   UNL A   1      40.173  25.336  28.381  1.00  0.00     0.001 A 
ATOM     33  C   UNL A   1      41.570  19.664  27.143  1.00  0.00     0.001 A 
ENDBRANCH  20  21
ENDBRANCH  19  20
ENDBRANCH  17  19
ENDBRANCH  11  17
ENDBRANCH   6   8
ENDBRANCH   5   6
ENDBRANCH   4   5
ENDBRANCH   3   4
ENDBRANCH   2   3
ENDBRANCH   1   2
BRANCH   1  34
ATOM     34  C   UNL A   1      32.443  28.369  25.743  1.00  0.00     0.188 C 
BRANCH  34  35
ATOM     35  O   UNL A   1      33.802  28.719  25.965  1.00  0.00    -0.376 OA
BRANCH  35  36
ATOM     36  C   UNL A   1      34.211  29.085  27.275  1.00  0.00     0.202 C 
BRANCH  36  37
ATOM     37  C   UNL A   1      35.537  29.839  27.445  1.00  0.00     0.261 C 
BRANCH  37  38
ATOM     38  O   UNL A   1      36.627  29.080  28.005  1.00  0.00    -0.460 OA
BRANCH  38  39
ATOM     39  C   UNL A   1      37.570  29.797  28.669  1.00  0.00     0.338 C 
ATOM     40  O   UNL A   1      37.381  30.585  29.580  1.00  0.00    -0.246 OA
BRANCH  39  41
ATOM     41  C   UNL A   1      38.930  29.366  28.266  1.00  0.00     0.060 A 
ATOM     42  C   UNL A   1      39.864  29.073  29.272  1.00  0.00     0.016 A 
ATOM     43  C   UNL A   1      39.313  29.332  26.925  1.00  0.00     0.016 A 
ATOM     44  C   UNL A   1      41.190  28.777  28.941  1.00  0.00     0.010 A 
ATOM     45  C   UNL A   1      40.648  29.055  26.597  1.00  0.00     0.010 A 
ATOM     46  C   UNL A   1      41.601  28.807  27.603  1.00  0.00    -0.014 A 
BRANCH  46  47
ATOM     47  C   UNL A   1      43.049  28.754  27.266  1.00  0.00     0.031 A 
ATOM     48  C   UNL A   1      43.626  27.460  26.748  1.00  0.00     0.074 A 
ATOM     49  C   UNL A   1      43.844  29.835  27.400  1.00  0.00     0.049 A 
ATOM     50  N   UNL A   1      44.867  27.158  26.467  1.00  0.00    -0.248 NA
ATOM     51  C   UNL A   1      42.671  26.363  26.515  1.00  0.00     0.031 C 
ATOM     52  C   UNL A   1      43.406  31.159  27.837  1.00  0.00     0.029 A 
ATOM     53  N   UNL A   1      45.195  29.979  27.193  1.00  0.00    -0.354 N 
ATOM     54  C   UNL A   1      44.846  25.836  26.033  1.00  0.00     0.074 A 
ATOM     55  C   UNL A   1      43.472  25.389  26.110  1.00  0.00     0.031 C 
ATOM     56  C   UNL A   1      44.473  31.977  27.886  1.00  0.00     0.029 A 
ATOM     57  C   UNL A   1      45.674  31.226  27.524  1.00  0.00     0.049 A 
ATOM     58  H   UNL A   1      45.766  29.259  26.840  1.00  0.00     0.167 HD
ATOM     59  C   UNL A   1      45.874  25.064  25.607  1.00  0.00     0.031 A 
ATOM     60  C   UNL A   1      46.939  31.695  27.567  1.00  0.00     0.031 A 
ATOM     61  C   UNL A   1      47.244  25.501  25.549  1.00  0.00     0.049 A 
ATOM     62  C   UNL A   1      48.082  30.782  27.183  1.00  0.00     0.074 A 
ATOM     63  C   UNL A   1      48.357  24.790  25.133  1.00  0.00     0.029 A 
ATOM     64  N   UNL A   1      47.692  26.759  25.924  1.00  0.00    -0.354 N 
ATOM     65  N   UNL A   1      48.043  29.540  26.758  1.00  0.00    -0.248 NA
ATOM     66  C   UNL A   1      49.442  31.337  27.280  1.00  0.00     0.031 C 
ATOM     67  C   UNL A   1      49.484  25.597  25.313  1.00  0.00     0.029 A 
ATOM     68  C   UNL A   1      49.066  26.835  25.773  1.00  0.00     0.049 A 
ATOM     69  H   UNL A   1      47.118  27.488  26.251  1.00  0.00     0.167 HD
ATOM     70  C   UNL A   1      49.366  29.181  26.507  1.00  0.00     0.074 A 
ATOM     71  C   UNL A   1      50.179  30.339  26.811  1.00  0.00     0.031 C 
ATOM     72  C   UNL A   1      49.864  28.000  26.064  1.00  0.00     0.031 A 
BRANCH  59  73
ATOM     73  C   UNL A   1      45.564  23.648  25.197  1.00  0.00    -0.014 A 
ATOM     74  C   UNL A   1      45.198  23.336  23.876  1.00  0.00     0.010 A 
ATOM     75  C   UNL A   1      45.696  22.607  26.135  1.00  0.00     0.010 A 
ATOM     76  C   UNL A   1      44.941  22.012  23.508  1.00  0.00     0.020 A 
ATOM     77  C   UNL A   1      45.468  21.279  25.764  1.00  0.00     0.020 A 
ATOM     78  C   UNL A   1      45.079  20.992  24.454  1.00  0.00     0.054 A 
BRANCH  78  79
ATOM     79  S   UNL A   1      44.774  19.280  23.937  1.00  0.00     0.124 S 
ATOM     80  O   UNL A   1      46.026  18.626  24.305  1.00  0.00    -0.237 OA
ATOM     81  O   UNL A   1      43.611  18.906  24.740  1.00  0.00    -0.237 OA
ATOM     82  O   UNL A   1      44.527  19.389  22.501  1.00  0.00    -0.744 OA
ENDBRANCH  78  79
ENDBRANCH  59  73
BRANCH  60  83
ATOM     83  C   UNL A   1      47.217  33.079  28.057  1.00  0.00    -0.014 A 
ATOM     84  C   UNL A   1      47.401  33.347  29.425  1.00  0.00     0.010 A 
ATOM     85  C   UNL A   1      47.227  34.153  27.148  1.00  0.00     0.010 A 
ATOM     86  C   UNL A   1      47.526  34.666  29.879  1.00  0.00     0.020 A 
ATOM     87  C   UNL A   1      47.394  35.468  27.593  1.00  0.00     0.020 A 
ATOM     88  C   UNL A   1      47.513  35.719  28.960  1.00  0.00     0.054 A 
BRANCH  88  89
ATOM     89  S   UNL A   1      47.602  37.429  29.567  1.00  0.00     0.124 S 
ATOM     90  O   UNL A   1      48.016  37.236  30.953  1.00  0.00    -0.237 OA
ATOM     91  O   UNL A   1      48.604  38.028  28.694  1.00  0.00    -0.237 OA
ATOM     92  O   UNL A   1      46.241  37.930  29.382  1.00  0.00    -0.744 OA
ENDBRANCH  88  89
ENDBRANCH  60  83
BRANCH  72  93
ATOM     93  C   UNL A   1      51.350  27.907  25.818  1.00  0.00    -0.014 A 
ATOM     94  C   UNL A   1      51.897  28.079  24.533  1.00  0.00     0.010 A 
ATOM     95  C   UNL A   1      52.218  27.710  26.908  1.00  0.00     0.010 A 
ATOM     96  C   UNL A   1      53.282  28.023  24.342  1.00  0.00     0.020 A 
ATOM     97  C   UNL A   1      53.604  27.685  26.725  1.00  0.00     0.020 A 
ATOM     98  C   UNL A   1      54.126  27.828  25.439  1.00  0.00     0.054 A 
BRANCH  98  99
ATOM     99  S   UNL A   1      55.920  27.806  25.170  1.00  0.00     0.124 S 
ATOM    100  O   UNL A   1      56.010  27.818  23.711  1.00  0.00    -0.237 OA
ATOM    101  O   UNL A   1      56.360  29.028  25.837  1.00  0.00    -0.237 OA
ATOM    102  O   UNL A   1      56.352  26.564  25.808  1.00  0.00    -0.744 OA
ENDBRANCH  98  99
ENDBRANCH  72  93
ENDBRANCH  46  47
ENDBRANCH  39  41
ENDBRANCH  38  39
ENDBRANCH  37  38
ENDBRANCH  36  37
ENDBRANCH  35  36
ENDBRANCH  34  35
ENDBRANCH   1  34
TORSDOF 25
ENDMDL
