MODEL 1
REMARK VINA RESULT:      -9.7      0.000      0.000
REMARK SMILES Cc1cnc(N2CCO[C@H](CC(=O)OCCOCCOCCOC(=O)c3ccc(-c4c5nc(c(-c6ccc(S(=O)(=O)[O-])cc6)c6ccc([nH]6)c(-c6ccc(S(=O)(=O)[O-])cc6)c6nc(c(-c7ccc(S(=O)(=O)[O-])cc7)c7ccc4[nH]7)C=C6)C=C5)cc3)C2)c([N+](=O)[O-])c1
REMARK SMILES IDX 18 1 17 2 16 3 15 4 14 5 12 6 13 7 11 8 10 9 6 10 7 11 86 12
REMARK SMILES IDX 8 13 9 14 5 15 1 16 2 17 3 18 91 19 4 20 87 21 88 22 89 23
REMARK SMILES IDX 90 24 19 25 20 26 21 27 22 28 23 29 24 30 25 31 26 32 27 33
REMARK SMILES IDX 85 34 28 35 84 36 29 37 30 38 31 39 78 40 32 41 83 42 77 43
REMARK SMILES IDX 79 44 33 45 82 46 76 47 75 48 34 50 64 51 45 52 63 53 46 54
REMARK SMILES IDX 49 55 62 56 80 57 47 58 48 59 61 61 81 62 50 63 35 64 36 65
REMARK SMILES IDX 44 66 37 67 43 68 38 69 39 70 40 71 41 72 42 73 65 74 66 75
REMARK SMILES IDX 74 76 67 77 73 78 68 79 69 80 70 81 71 82 72 83 51 84 52 85
REMARK SMILES IDX 60 86 53 87 59 88 54 89 55 90 56 91 57 92 58 93
REMARK H PARENT 79 49 49 60
REMARK Flexibility Score: inf
ROOT
ATOM      1  C   UNL A   1      31.565  29.114  25.005  1.00  0.00     0.188 C 
ENDROOT
BRANCH   1   2
ATOM      2  O   UNL A   1      31.896  29.130  23.619  1.00  0.00    -0.376 OA
BRANCH   2   3
ATOM      3  C   UNL A   1      30.872  28.717  22.707  1.00  0.00     0.202 C 
BRANCH   3   4
ATOM      4  C   UNL A   1      30.701  27.203  22.485  1.00  0.00     0.261 C 
BRANCH   4   5
ATOM      5  O   UNL A   1      31.687  26.642  21.587  1.00  0.00    -0.463 OA
BRANCH   5   6
ATOM      6  C   UNL A   1      32.349  25.563  22.069  1.00  0.00     0.308 C 
ATOM      7  O   UNL A   1      33.350  25.085  21.541  1.00  0.00    -0.252 OA
BRANCH   6   8
ATOM      8  C   UNL A   1      31.913  25.136  23.448  1.00  0.00     0.156 C 
BRANCH   8   9
ATOM      9  C   UNL A   1      32.715  25.528  24.697  1.00  0.00     0.148 C 
ATOM     10  N   UNL A   1      32.763  23.226  25.447  1.00  0.00    -0.346 N 
ATOM     11  C   UNL A   1      31.960  23.497  26.635  1.00  0.00     0.147 C 
ATOM     12  C   UNL A   1      33.645  24.334  25.080  1.00  0.00     0.151 C 
ATOM     13  C   UNL A   1      31.133  24.778  26.392  1.00  0.00     0.182 C 
ATOM     14  O   UNL A   1      31.886  25.877  25.835  1.00  0.00    -0.374 OA
BRANCH  10  15
ATOM     15  C   UNL A   1      32.959  21.962  24.955  1.00  0.00     0.208 A 
ATOM     16  C   UNL A   1      33.247  17.963  23.398  1.00  0.00     0.046 C 
ATOM     17  C   UNL A   1      33.168  19.345  23.964  1.00  0.00    -0.026 A 
ATOM     18  C   UNL A   1      32.200  20.253  23.550  1.00  0.00     0.117 A 
ATOM     19  C   UNL A   1      34.066  19.782  24.929  1.00  0.00     0.094 A 
ATOM     20  N   UNL A   1      32.074  21.521  24.032  1.00  0.00    -0.233 NA
ATOM     21  C   UNL A   1      33.959  21.094  25.406  1.00  0.00     0.311 A 
BRANCH  21  22
ATOM     22  N   UNL A   1      34.853  21.466  26.475  1.00  0.00     0.066 N 
ATOM     23  O   UNL A   1      36.021  21.759  26.181  1.00  0.00    -0.258 OA
ATOM     24  O   UNL A   1      34.405  21.404  27.629  1.00  0.00    -0.258 OA
ENDBRANCH  21  22
ENDBRANCH  10  15
ENDBRANCH   8   9
ENDBRANCH   6   8
ENDBRANCH   5   6
ENDBRANCH   4   5
ENDBRANCH   3   4
ENDBRANCH   2   3
ENDBRANCH   1   2
BRANCH   1  25
ATOM     25  C   UNL A   1      31.415  30.492  25.663  1.00  0.00     0.188 C 
BRANCH  25  26
ATOM     26  O   UNL A   1      32.008  30.578  26.942  1.00  0.00    -0.376 OA
BRANCH  26  27
ATOM     27  C   UNL A   1      33.402  30.816  27.089  1.00  0.00     0.202 C 
BRANCH  27  28
ATOM     28  C   UNL A   1      33.928  32.147  27.674  1.00  0.00     0.261 C 
BRANCH  28  29
ATOM     29  O   UNL A   1      32.972  33.191  27.930  1.00  0.00    -0.460 OA
BRANCH  29  30
ATOM     30  C   UNL A   1      33.425  34.308  28.553  1.00  0.00     0.338 C 
ATOM     31  O   UNL A   1      32.898  35.400  28.540  1.00  0.00    -0.246 OA
BRANCH  30  32
ATOM     32  C   UNL A   1      34.507  33.900  29.498  1.00  0.00     0.060 A 
ATOM     33  C   UNL A   1      35.820  34.279  29.184  1.00  0.00     0.016 A 
ATOM     34  C   UNL A   1      34.244  33.249  30.708  1.00  0.00     0.016 A 
ATOM     35  C   UNL A   1      36.874  33.970  30.050  1.00  0.00     0.010 A 
ATOM     36  C   UNL A   1      35.305  32.923  31.566  1.00  0.00     0.010 A 
ATOM     37  C   UNL A   1      36.632  33.251  31.227  1.00  0.00    -0.014 A 
BRANCH  37  38
ATOM     38  C   UNL A   1      37.773  32.680  31.995  1.00  0.00     0.031 A 
ATOM     39  C   UNL A   1      38.501  31.493  31.416  1.00  0.00     0.074 A 
ATOM     40  C   UNL A   1      38.188  33.208  33.162  1.00  0.00     0.049 A 
ATOM     41  N   UNL A   1      39.509  30.816  31.905  1.00  0.00    -0.248 NA
ATOM     42  C   UNL A   1      38.027  31.006  30.109  1.00  0.00     0.031 C 
ATOM     43  C   UNL A   1      37.607  34.378  33.819  1.00  0.00     0.029 A 
ATOM     44  N   UNL A   1      39.200  32.818  34.008  1.00  0.00    -0.354 N 
ATOM     45  C   UNL A   1      39.779  29.817  30.977  1.00  0.00     0.074 A 
ATOM     46  C   UNL A   1      38.816  29.961  29.907  1.00  0.00     0.031 C 
ATOM     47  C   UNL A   1      38.265  34.603  34.971  1.00  0.00     0.029 A 
ATOM     48  C   UNL A   1      39.290  33.576  35.152  1.00  0.00     0.049 A 
ATOM     49  H   UNL A   1      39.804  32.066  33.811  1.00  0.00     0.167 HD
ATOM     50  C   UNL A   1      40.743  28.865  31.004  1.00  0.00     0.031 A 
ATOM     51  C   UNL A   1      40.090  33.444  36.233  1.00  0.00     0.031 A 
ATOM     52  C   UNL A   1      41.698  28.711  32.069  1.00  0.00     0.049 A 
ATOM     53  C   UNL A   1      41.110  32.331  36.275  1.00  0.00     0.074 A 
ATOM     54  C   UNL A   1      42.731  27.795  32.168  1.00  0.00     0.029 A 
ATOM     55  N   UNL A   1      41.733  29.477  33.224  1.00  0.00    -0.354 N 
ATOM     56  N   UNL A   1      41.384  31.425  35.367  1.00  0.00    -0.248 NA
ATOM     57  C   UNL A   1      41.938  32.233  37.487  1.00  0.00     0.031 C 
ATOM     58  C   UNL A   1      43.344  27.959  33.414  1.00  0.00     0.029 A 
ATOM     59  C   UNL A   1      42.743  29.029  34.059  1.00  0.00     0.049 A 
ATOM     60  H   UNL A   1      41.128  30.228  33.422  1.00  0.00     0.167 HD
ATOM     61  C   UNL A   1      42.429  30.666  35.888  1.00  0.00     0.074 A 
ATOM     62  C   UNL A   1      42.755  31.235  37.177  1.00  0.00     0.031 C 
ATOM     63  C   UNL A   1      43.062  29.596  35.345  1.00  0.00     0.031 A 
BRANCH  50  64
ATOM     64  C   UNL A   1      40.789  27.881  29.864  1.00  0.00    -0.014 A 
ATOM     65  C   UNL A   1      39.776  26.924  29.678  1.00  0.00     0.010 A 
ATOM     66  C   UNL A   1      41.841  27.953  28.933  1.00  0.00     0.010 A 
ATOM     67  C   UNL A   1      39.831  26.038  28.599  1.00  0.00     0.020 A 
ATOM     68  C   UNL A   1      41.884  27.090  27.836  1.00  0.00     0.020 A 
ATOM     69  C   UNL A   1      40.884  26.128  27.683  1.00  0.00     0.054 A 
BRANCH  69  70
ATOM     70  S   UNL A   1      40.909  24.990  26.271  1.00  0.00     0.124 S 
ATOM     71  O   UNL A   1      42.022  24.109  26.615  1.00  0.00    -0.237 OA
ATOM     72  O   UNL A   1      39.583  24.380  26.330  1.00  0.00    -0.237 OA
ATOM     73  O   UNL A   1      41.139  25.864  25.123  1.00  0.00    -0.744 OA
ENDBRANCH  69  70
ENDBRANCH  50  64
BRANCH  51  74
ATOM     74  C   UNL A   1      39.941  34.372  37.392  1.00  0.00    -0.014 A 
ATOM     75  C   UNL A   1      40.653  35.584  37.445  1.00  0.00     0.010 A 
ATOM     76  C   UNL A   1      39.099  34.030  38.465  1.00  0.00     0.010 A 
ATOM     77  C   UNL A   1      40.538  36.426  38.556  1.00  0.00     0.020 A 
ATOM     78  C   UNL A   1      38.956  34.883  39.563  1.00  0.00     0.020 A 
ATOM     79  C   UNL A   1      39.687  36.072  39.607  1.00  0.00     0.054 A 
BRANCH  79  80
ATOM     80  S   UNL A   1      39.516  37.204  41.014  1.00  0.00     0.124 S 
ATOM     81  O   UNL A   1      38.999  36.321  42.054  1.00  0.00    -0.237 OA
ATOM     82  O   UNL A   1      40.886  37.672  41.205  1.00  0.00    -0.237 OA
ATOM     83  O   UNL A   1      38.580  38.216  40.528  1.00  0.00    -0.744 OA
ENDBRANCH  79  80
ENDBRANCH  51  74
BRANCH  63  84
ATOM     84  C   UNL A   1      44.200  28.984  36.124  1.00  0.00    -0.014 A 
ATOM     85  C   UNL A   1      45.498  29.521  36.077  1.00  0.00     0.010 A 
ATOM     86  C   UNL A   1      43.952  27.875  36.958  1.00  0.00     0.010 A 
ATOM     87  C   UNL A   1      46.534  28.939  36.814  1.00  0.00     0.020 A 
ATOM     88  C   UNL A   1      44.977  27.311  37.722  1.00  0.00     0.020 A 
ATOM     89  C   UNL A   1      46.267  27.835  37.630  1.00  0.00     0.054 A 
BRANCH  89  90
ATOM     90  S   UNL A   1      47.624  27.115  38.596  1.00  0.00     0.124 S 
ATOM     91  O   UNL A   1      46.933  26.084  39.367  1.00  0.00    -0.237 OA
ATOM     92  O   UNL A   1      48.530  26.626  37.560  1.00  0.00    -0.237 OA
ATOM     93  O   UNL A   1      48.130  28.242  39.378  1.00  0.00    -0.744 OA
ENDBRANCH  89  90
ENDBRANCH  63  84
ENDBRANCH  37  38
ENDBRANCH  30  32
ENDBRANCH  29  30
ENDBRANCH  28  29
ENDBRANCH  27  28
ENDBRANCH  26  27
ENDBRANCH  25  26
ENDBRANCH   1  25
TORSDOF 23
ENDMDL
MODEL 2
REMARK VINA RESULT:      -9.6      4.194      5.565
REMARK SMILES Cc1cnc(N2CCO[C@H](CC(=O)OCCOCCOCCOC(=O)c3ccc(-c4c5nc(c(-c6ccc(S(=O)(=O)[O-])cc6)c6ccc([nH]6)c(-c6ccc(S(=O)(=O)[O-])cc6)c6nc(c(-c7ccc(S(=O)(=O)[O-])cc7)c7ccc4[nH]7)C=C6)C=C5)cc3)C2)c([N+](=O)[O-])c1
REMARK SMILES IDX 18 1 17 2 16 3 15 4 14 5 12 6 13 7 11 8 10 9 6 10 7 11 86 12
REMARK SMILES IDX 8 13 9 14 5 15 1 16 2 17 3 18 91 19 4 20 87 21 88 22 89 23
REMARK SMILES IDX 90 24 19 25 20 26 21 27 22 28 23 29 24 30 25 31 26 32 27 33
REMARK SMILES IDX 85 34 28 35 84 36 29 37 30 38 31 39 78 40 32 41 83 42 77 43
REMARK SMILES IDX 79 44 33 45 82 46 76 47 75 48 34 50 64 51 45 52 63 53 46 54
REMARK SMILES IDX 49 55 62 56 80 57 47 58 48 59 61 61 81 62 50 63 35 64 36 65
REMARK SMILES IDX 44 66 37 67 43 68 38 69 39 70 40 71 41 72 42 73 65 74 66 75
REMARK SMILES IDX 74 76 67 77 73 78 68 79 69 80 70 81 71 82 72 83 51 84 52 85
REMARK SMILES IDX 60 86 53 87 59 88 54 89 55 90 56 91 57 92 58 93
REMARK H PARENT 79 49 49 60
REMARK Flexibility Score: inf
ROOT
ATOM      1  C   UNL A   1      30.586  28.166  23.774  1.00  0.00     0.188 C 
ENDROOT
BRANCH   1   2
ATOM      2  O   UNL A   1      30.986  28.321  22.416  1.00  0.00    -0.376 OA
BRANCH   2   3
ATOM      3  C   UNL A   1      31.231  27.120  21.674  1.00  0.00     0.202 C 
BRANCH   3   4
ATOM      4  C   UNL A   1      32.526  26.351  21.995  1.00  0.00     0.261 C 
BRANCH   4   5
ATOM      5  O   UNL A   1      32.514  24.986  21.517  1.00  0.00    -0.463 OA
BRANCH   5   6
ATOM      6  C   UNL A   1      32.916  24.061  22.421  1.00  0.00     0.308 C 
ATOM      7  O   UNL A   1      34.087  23.727  22.579  1.00  0.00    -0.252 OA
BRANCH   6   8
ATOM      8  C   UNL A   1      31.846  23.648  23.399  1.00  0.00     0.156 C 
BRANCH   8   9
ATOM      9  C   UNL A   1      31.480  24.527  24.604  1.00  0.00     0.148 C 
ATOM     10  N   UNL A   1      33.103  23.383  25.992  1.00  0.00    -0.346 N 
ATOM     11  C   UNL A   1      32.089  22.822  26.879  1.00  0.00     0.147 C 
ATOM     12  C   UNL A   1      32.757  24.712  25.484  1.00  0.00     0.151 C 
ATOM     13  C   UNL A   1      30.743  22.770  26.124  1.00  0.00     0.182 C 
ATOM     14  O   UNL A   1      30.409  23.985  25.417  1.00  0.00    -0.374 OA
BRANCH  10  15
ATOM     15  C   UNL A   1      34.387  22.908  25.936  1.00  0.00     0.208 A 
ATOM     16  C   UNL A   1      38.507  21.711  25.640  1.00  0.00     0.046 C 
ATOM     17  C   UNL A   1      37.066  22.100  25.727  1.00  0.00    -0.026 A 
ATOM     18  C   UNL A   1      36.672  23.379  26.103  1.00  0.00     0.117 A 
ATOM     19  C   UNL A   1      36.056  21.192  25.438  1.00  0.00     0.094 A 
ATOM     20  N   UNL A   1      35.378  23.794  26.193  1.00  0.00    -0.233 NA
ATOM     21  C   UNL A   1      34.723  21.604  25.559  1.00  0.00     0.311 A 
BRANCH  21  22
ATOM     22  N   UNL A   1      33.715  20.654  25.155  1.00  0.00     0.066 N 
ATOM     23  O   UNL A   1      33.326  19.828  25.993  1.00  0.00    -0.258 OA
ATOM     24  O   UNL A   1      33.353  20.689  23.971  1.00  0.00    -0.258 OA
ENDBRANCH  21  22
ENDBRANCH  10  15
ENDBRANCH   8   9
ENDBRANCH   6   8
ENDBRANCH   5   6
ENDBRANCH   4   5
ENDBRANCH   3   4
ENDBRANCH   2   3
ENDBRANCH   1   2
BRANCH   1  25
ATOM     25  C   UNL A   1      31.010  29.297  24.719  1.00  0.00     0.188 C 
BRANCH  25  26
ATOM     26  O   UNL A   1      31.751  28.856  25.837  1.00  0.00    -0.376 OA
BRANCH  26  27
ATOM     27  C   UNL A   1      33.025  28.245  25.676  1.00  0.00     0.202 C 
BRANCH  27  28
ATOM     28  C   UNL A   1      34.205  28.599  26.612  1.00  0.00     0.261 C 
BRANCH  28  29
ATOM     29  O   UNL A   1      33.913  29.349  27.804  1.00  0.00    -0.460 OA
BRANCH  29  30
ATOM     30  C   UNL A   1      34.652  30.464  28.032  1.00  0.00     0.338 C 
ATOM     31  O   UNL A   1      34.222  31.574  28.264  1.00  0.00    -0.246 OA
BRANCH  30  32
ATOM     32  C   UNL A   1      36.068  30.040  28.247  1.00  0.00     0.060 A 
ATOM     33  C   UNL A   1      36.395  29.479  29.490  1.00  0.00     0.016 A 
ATOM     34  C   UNL A   1      37.033  30.095  27.236  1.00  0.00     0.016 A 
ATOM     35  C   UNL A   1      37.691  29.018  29.742  1.00  0.00     0.010 A 
ATOM     36  C   UNL A   1      38.338  29.649  27.496  1.00  0.00     0.010 A 
ATOM     37  C   UNL A   1      38.685  29.139  28.762  1.00  0.00    -0.014 A 
BRANCH  37  38
ATOM     38  C   UNL A   1      40.112  28.916  29.122  1.00  0.00     0.031 A 
ATOM     39  C   UNL A   1      40.743  27.594  28.760  1.00  0.00     0.074 A 
ATOM     40  C   UNL A   1      40.857  29.863  29.725  1.00  0.00     0.049 A 
ATOM     41  N   UNL A   1      41.958  27.164  28.984  1.00  0.00    -0.248 NA
ATOM     42  C   UNL A   1      39.884  26.630  28.052  1.00  0.00     0.031 C 
ATOM     43  C   UNL A   1      40.394  31.200  30.095  1.00  0.00     0.029 A 
ATOM     44  N   UNL A   1      42.168  29.838  30.139  1.00  0.00    -0.354 N 
ATOM     45  C   UNL A   1      42.006  25.878  28.458  1.00  0.00     0.074 A 
ATOM     46  C   UNL A   1      40.692  25.588  27.927  1.00  0.00     0.031 C 
ATOM     47  C   UNL A   1      41.402  31.861  30.692  1.00  0.00     0.029 A 
ATOM     48  C   UNL A   1      42.571  30.987  30.779  1.00  0.00     0.049 A 
ATOM     49  H   UNL A   1      42.763  29.067  29.991  1.00  0.00     0.167 HD
ATOM     50  C   UNL A   1      43.047  25.012  28.416  1.00  0.00     0.031 A 
ATOM     51  C   UNL A   1      43.738  31.292  31.385  1.00  0.00     0.031 A 
ATOM     52  C   UNL A   1      44.354  25.289  28.952  1.00  0.00     0.049 A 
ATOM     53  C   UNL A   1      44.863  30.284  31.390  1.00  0.00     0.074 A 
ATOM     54  C   UNL A   1      45.479  24.485  28.927  1.00  0.00     0.029 A 
ATOM     55  N   UNL A   1      44.709  26.451  29.621  1.00  0.00    -0.354 N 
ATOM     56  N   UNL A   1      44.906  29.091  30.846  1.00  0.00    -0.248 NA
ATOM     57  C   UNL A   1      46.102  30.671  32.081  1.00  0.00     0.031 C 
ATOM     58  C   UNL A   1      46.493  25.127  29.644  1.00  0.00     0.029 A 
ATOM     59  C   UNL A   1      46.024  26.368  30.047  1.00  0.00     0.049 A 
ATOM     60  H   UNL A   1      44.114  27.221  29.771  1.00  0.00     0.167 HD
ATOM     61  C   UNL A   1      46.182  28.597  31.109  1.00  0.00     0.074 A 
ATOM     62  C   UNL A   1      46.887  29.630  31.837  1.00  0.00     0.031 C 
ATOM     63  C   UNL A   1      46.720  27.397  30.776  1.00  0.00     0.031 A 
BRANCH  50  64
ATOM     64  C   UNL A   1      42.807  23.656  27.805  1.00  0.00    -0.014 A 
ATOM     65  C   UNL A   1      43.192  23.366  26.484  1.00  0.00     0.010 A 
ATOM     66  C   UNL A   1      42.232  22.639  28.588  1.00  0.00     0.010 A 
ATOM     67  C   UNL A   1      42.978  22.093  25.949  1.00  0.00     0.020 A 
ATOM     68  C   UNL A   1      42.045  21.356  28.068  1.00  0.00     0.020 A 
ATOM     69  C   UNL A   1      42.408  21.095  26.745  1.00  0.00     0.054 A 
BRANCH  69  70
ATOM     70  S   UNL A   1      42.178  19.442  26.036  1.00  0.00     0.124 S 
ATOM     71  O   UNL A   1      42.731  18.586  27.083  1.00  0.00    -0.237 OA
ATOM     72  O   UNL A   1      40.729  19.367  25.865  1.00  0.00    -0.237 OA
ATOM     73  O   UNL A   1      42.948  19.484  24.795  1.00  0.00    -0.744 OA
ENDBRANCH  69  70
ENDBRANCH  50  64
BRANCH  51  74
ATOM     74  C   UNL A   1      43.903  32.604  32.076  1.00  0.00    -0.014 A 
ATOM     75  C   UNL A   1      43.568  32.754  33.434  1.00  0.00     0.010 A 
ATOM     76  C   UNL A   1      44.375  33.721  31.364  1.00  0.00     0.010 A 
ATOM     77  C   UNL A   1      43.686  34.000  34.060  1.00  0.00     0.020 A 
ATOM     78  C   UNL A   1      44.526  34.960  31.993  1.00  0.00     0.020 A 
ATOM     79  C   UNL A   1      44.169  35.094  33.336  1.00  0.00     0.054 A 
BRANCH  79  80
ATOM     80  S   UNL A   1      44.361  36.687  34.184  1.00  0.00     0.124 S 
ATOM     81  O   UNL A   1      43.936  37.631  33.155  1.00  0.00    -0.237 OA
ATOM     82  O   UNL A   1      43.459  36.544  35.323  1.00  0.00    -0.237 OA
ATOM     83  O   UNL A   1      45.782  36.726  34.522  1.00  0.00    -0.744 OA
ENDBRANCH  79  80
ENDBRANCH  51  74
BRANCH  63  84
ATOM     84  C   UNL A   1      48.156  27.141  31.163  1.00  0.00    -0.014 A 
ATOM     85  C   UNL A   1      48.490  26.473  32.355  1.00  0.00     0.010 A 
ATOM     86  C   UNL A   1      49.190  27.535  30.291  1.00  0.00     0.010 A 
ATOM     87  C   UNL A   1      49.829  26.241  32.687  1.00  0.00     0.020 A 
ATOM     88  C   UNL A   1      50.528  27.276  30.604  1.00  0.00     0.020 A 
ATOM     89  C   UNL A   1      50.839  26.647  31.810  1.00  0.00     0.054 A 
BRANCH  89  90
ATOM     90  S   UNL A   1      52.567  26.311  32.253  1.00  0.00     0.124 S 
ATOM     91  O   UNL A   1      52.418  25.490  33.452  1.00  0.00    -0.237 OA
ATOM     92  O   UNL A   1      53.071  25.615  31.072  1.00  0.00    -0.237 OA
ATOM     93  O   UNL A   1      53.132  27.641  32.475  1.00  0.00    -0.744 OA
ENDBRANCH  89  90
ENDBRANCH  63  84
ENDBRANCH  37  38
ENDBRANCH  30  32
ENDBRANCH  29  30
ENDBRANCH  28  29
ENDBRANCH  27  28
ENDBRANCH  26  27
ENDBRANCH  25  26
ENDBRANCH   1  25
TORSDOF 23
ENDMDL
MODEL 3
REMARK VINA RESULT:      -8.4      6.903     10.810
REMARK SMILES Cc1cnc(N2CCO[C@H](CC(=O)OCCOCCOCCOC(=O)c3ccc(-c4c5nc(c(-c6ccc(S(=O)(=O)[O-])cc6)c6ccc([nH]6)c(-c6ccc(S(=O)(=O)[O-])cc6)c6nc(c(-c7ccc(S(=O)(=O)[O-])cc7)c7ccc4[nH]7)C=C6)C=C5)cc3)C2)c([N+](=O)[O-])c1
REMARK SMILES IDX 18 1 17 2 16 3 15 4 14 5 12 6 13 7 11 8 10 9 6 10 7 11 86 12
REMARK SMILES IDX 8 13 9 14 5 15 1 16 2 17 3 18 91 19 4 20 87 21 88 22 89 23
REMARK SMILES IDX 90 24 19 25 20 26 21 27 22 28 23 29 24 30 25 31 26 32 27 33
REMARK SMILES IDX 85 34 28 35 84 36 29 37 30 38 31 39 78 40 32 41 83 42 77 43
REMARK SMILES IDX 79 44 33 45 82 46 76 47 75 48 34 50 64 51 45 52 63 53 46 54
REMARK SMILES IDX 49 55 62 56 80 57 47 58 48 59 61 61 81 62 50 63 35 64 36 65
REMARK SMILES IDX 44 66 37 67 43 68 38 69 39 70 40 71 41 72 42 73 65 74 66 75
REMARK SMILES IDX 74 76 67 77 73 78 68 79 69 80 70 81 71 82 72 83 51 84 52 85
REMARK SMILES IDX 60 86 53 87 59 88 54 89 55 90 56 91 57 92 58 93
REMARK H PARENT 79 49 49 60
REMARK Flexibility Score: inf
ROOT
ATOM      1  C   UNL A   1      39.877  24.737  26.485  1.00  0.00     0.188 C 
ENDROOT
BRANCH   1   2
ATOM      2  O   UNL A   1      39.273  23.640  27.166  1.00  0.00    -0.376 OA
BRANCH   2   3
ATOM      3  C   UNL A   1      39.086  22.437  26.412  1.00  0.00     0.202 C 
BRANCH   3   4
ATOM      4  C   UNL A   1      37.888  22.395  25.446  1.00  0.00     0.261 C 
BRANCH   4   5
ATOM      5  O   UNL A   1      36.608  22.386  26.121  1.00  0.00    -0.463 OA
BRANCH   5   6
ATOM      6  C   UNL A   1      35.604  21.792  25.432  1.00  0.00     0.308 C 
ATOM      7  O   UNL A   1      35.445  20.576  25.371  1.00  0.00    -0.252 OA
BRANCH   6   8
ATOM      8  C   UNL A   1      34.541  22.746  24.947  1.00  0.00     0.156 C 
BRANCH   8   9
ATOM      9  C   UNL A   1      34.301  22.979  23.448  1.00  0.00     0.148 C 
ATOM     10  N   UNL A   1      32.779  24.801  23.926  1.00  0.00    -0.346 N 
ATOM     11  C   UNL A   1      31.621  24.105  23.373  1.00  0.00     0.147 C 
ATOM     12  C   UNL A   1      34.026  24.499  23.223  1.00  0.00     0.151 C 
ATOM     13  C   UNL A   1      31.896  22.586  23.403  1.00  0.00     0.182 C 
ATOM     14  O   UNL A   1      33.198  22.206  22.909  1.00  0.00    -0.374 OA
BRANCH  10  15
ATOM     15  C   UNL A   1      32.667  25.891  24.750  1.00  0.00     0.208 A 
ATOM     16  C   UNL A   1      32.626  29.391  27.248  1.00  0.00     0.046 C 
ATOM     17  C   UNL A   1      32.630  28.156  26.405  1.00  0.00    -0.026 A 
ATOM     18  C   UNL A   1      33.246  28.120  25.160  1.00  0.00     0.117 A 
ATOM     19  C   UNL A   1      32.010  26.989  26.832  1.00  0.00     0.094 A 
ATOM     20  N   UNL A   1      33.289  27.025  24.350  1.00  0.00    -0.233 NA
ATOM     21  C   UNL A   1      32.025  25.870  25.992  1.00  0.00     0.311 A 
BRANCH  21  22
ATOM     22  N   UNL A   1      31.453  24.657  26.523  1.00  0.00     0.066 N 
ATOM     23  O   UNL A   1      30.219  24.537  26.500  1.00  0.00    -0.258 OA
ATOM     24  O   UNL A   1      32.236  23.841  27.028  1.00  0.00    -0.258 OA
ENDBRANCH  21  22
ENDBRANCH  10  15
ENDBRANCH   8   9
ENDBRANCH   6   8
ENDBRANCH   5   6
ENDBRANCH   4   5
ENDBRANCH   3   4
ENDBRANCH   2   3
ENDBRANCH   1   2
BRANCH   1  25
ATOM     25  C   UNL A   1      41.340  25.015  26.852  1.00  0.00     0.188 C 
BRANCH  25  26
ATOM     26  O   UNL A   1      42.261  24.171  26.193  1.00  0.00    -0.376 OA
BRANCH  26  27
ATOM     27  C   UNL A   1      42.961  23.156  26.902  1.00  0.00     0.202 C 
BRANCH  27  28
ATOM     28  C   UNL A   1      43.786  23.489  28.167  1.00  0.00     0.261 C 
BRANCH  28  29
ATOM     29  O   UNL A   1      45.194  23.193  28.147  1.00  0.00    -0.460 OA
BRANCH  29  30
ATOM     30  C   UNL A   1      45.931  23.751  27.154  1.00  0.00     0.338 C 
ATOM     31  O   UNL A   1      46.381  23.178  26.186  1.00  0.00    -0.246 OA
BRANCH  30  32
ATOM     32  C   UNL A   1      45.841  25.236  27.296  1.00  0.00     0.060 A 
ATOM     33  C   UNL A   1      46.320  25.804  28.484  1.00  0.00     0.016 A 
ATOM     34  C   UNL A   1      45.393  26.065  26.262  1.00  0.00     0.016 A 
ATOM     35  C   UNL A   1      46.310  27.192  28.663  1.00  0.00     0.010 A 
ATOM     36  C   UNL A   1      45.365  27.455  26.449  1.00  0.00     0.010 A 
ATOM     37  C   UNL A   1      45.791  28.027  27.664  1.00  0.00    -0.014 A 
BRANCH  37  38
ATOM     38  C   UNL A   1      45.518  29.459  27.964  1.00  0.00     0.031 A 
ATOM     39  C   UNL A   1      46.586  30.474  27.640  1.00  0.00     0.074 A 
ATOM     40  C   UNL A   1      44.343  29.873  28.479  1.00  0.00     0.049 A 
ATOM     41  N   UNL A   1      46.585  31.769  27.825  1.00  0.00    -0.248 NA
ATOM     42  C   UNL A   1      47.819  29.954  27.026  1.00  0.00     0.031 C 
ATOM     43  C   UNL A   1      43.207  29.012  28.802  1.00  0.00     0.029 A 
ATOM     44  N   UNL A   1      43.917  31.133  28.828  1.00  0.00    -0.354 N 
ATOM     45  C   UNL A   1      47.818  32.217  27.365  1.00  0.00     0.074 A 
ATOM     46  C   UNL A   1      48.550  31.053  26.915  1.00  0.00     0.031 C 
ATOM     47  C   UNL A   1      42.218  29.768  29.313  1.00  0.00     0.029 A 
ATOM     48  C   UNL A   1      42.660  31.160  29.386  1.00  0.00     0.049 A 
ATOM     49  H   UNL A   1      44.463  31.941  28.691  1.00  0.00     0.167 HD
ATOM     50  C   UNL A   1      48.302  33.481  27.316  1.00  0.00     0.031 A 
ATOM     51  C   UNL A   1      41.956  32.182  29.917  1.00  0.00     0.031 A 
ATOM     52  C   UNL A   1      47.584  34.642  27.771  1.00  0.00     0.049 A 
ATOM     53  C   UNL A   1      42.545  33.573  29.918  1.00  0.00     0.074 A 
ATOM     54  C   UNL A   1      47.982  35.967  27.731  1.00  0.00     0.029 A 
ATOM     55  N   UNL A   1      46.329  34.620  28.360  1.00  0.00    -0.354 N 
ATOM     56  N   UNL A   1      43.693  33.986  29.435  1.00  0.00    -0.248 NA
ATOM     57  C   UNL A   1      41.733  34.640  30.525  1.00  0.00     0.031 C 
ATOM     58  C   UNL A   1      47.001  36.738  28.362  1.00  0.00     0.029 A 
ATOM     59  C   UNL A   1      45.955  35.903  28.724  1.00  0.00     0.049 A 
ATOM     60  H   UNL A   1      45.784  33.812  28.499  1.00  0.00     0.167 HD
ATOM     61  C   UNL A   1      43.730  35.360  29.659  1.00  0.00     0.074 A 
ATOM     62  C   UNL A   1      42.479  35.712  30.297  1.00  0.00     0.031 C 
ATOM     63  C   UNL A   1      44.710  36.249  29.363  1.00  0.00     0.031 A 
BRANCH  50  64
ATOM     64  C   UNL A   1      49.700  33.676  26.788  1.00  0.00    -0.014 A 
ATOM     65  C   UNL A   1      50.830  33.360  27.563  1.00  0.00     0.010 A 
ATOM     66  C   UNL A   1      49.882  34.136  25.471  1.00  0.00     0.010 A 
ATOM     67  C   UNL A   1      52.115  33.529  27.042  1.00  0.00     0.020 A 
ATOM     68  C   UNL A   1      51.164  34.277  24.934  1.00  0.00     0.020 A 
ATOM     69  C   UNL A   1      52.274  33.984  25.729  1.00  0.00     0.054 A 
BRANCH  69  70
ATOM     70  S   UNL A   1      53.952  34.157  25.065  1.00  0.00     0.124 S 
ATOM     71  O   UNL A   1      54.155  32.862  24.419  1.00  0.00    -0.237 OA
ATOM     72  O   UNL A   1      53.822  35.296  24.160  1.00  0.00    -0.237 OA
ATOM     73  O   UNL A   1      54.773  34.396  26.249  1.00  0.00    -0.744 OA
ENDBRANCH  69  70
ENDBRANCH  50  64
BRANCH  51  74
ATOM     74  C   UNL A   1      40.619  31.932  30.530  1.00  0.00    -0.014 A 
ATOM     75  C   UNL A   1      40.501  31.547  31.877  1.00  0.00     0.010 A 
ATOM     76  C   UNL A   1      39.453  32.055  29.753  1.00  0.00     0.010 A 
ATOM     77  C   UNL A   1      39.245  31.274  32.429  1.00  0.00     0.020 A 
ATOM     78  C   UNL A   1      38.193  31.815  30.308  1.00  0.00     0.020 A 
ATOM     79  C   UNL A   1      38.098  31.414  31.642  1.00  0.00     0.054 A 
BRANCH  79  80
ATOM     80  S   UNL A   1      36.477  31.103  32.395  1.00  0.00     0.124 S 
ATOM     81  O   UNL A   1      36.464  29.647  32.499  1.00  0.00    -0.237 OA
ATOM     82  O   UNL A   1      36.577  31.827  33.659  1.00  0.00    -0.237 OA
ATOM     83  O   UNL A   1      35.537  31.671  31.431  1.00  0.00    -0.744 OA
ENDBRANCH  79  80
ENDBRANCH  51  74
BRANCH  63  84
ATOM     84  C   UNL A   1      44.464  37.701  29.690  1.00  0.00    -0.014 A 
ATOM     85  C   UNL A   1      43.722  38.533  28.833  1.00  0.00     0.010 A 
ATOM     86  C   UNL A   1      44.946  38.230  30.903  1.00  0.00     0.010 A 
ATOM     87  C   UNL A   1      43.502  39.875  29.162  1.00  0.00     0.020 A 
ATOM     88  C   UNL A   1      44.700  39.562  31.251  1.00  0.00     0.020 A 
ATOM     89  C   UNL A   1      43.995  40.381  30.368  1.00  0.00     0.054 A 
BRANCH  89  90
ATOM     90  S   UNL A   1      43.673  42.118  30.783  1.00  0.00     0.124 S 
ATOM     91  O   UNL A   1      42.223  42.124  30.958  1.00  0.00    -0.237 OA
ATOM     92  O   UNL A   1      44.455  42.306  32.003  1.00  0.00    -0.237 OA
ATOM     93  O   UNL A   1      44.163  42.849  29.617  1.00  0.00    -0.744 OA
ENDBRANCH  89  90
ENDBRANCH  63  84
ENDBRANCH  37  38
ENDBRANCH  30  32
ENDBRANCH  29  30
ENDBRANCH  28  29
ENDBRANCH  27  28
ENDBRANCH  26  27
ENDBRANCH  25  26
ENDBRANCH   1  25
TORSDOF 23
ENDMDL
