MODEL 1
REMARK VINA RESULT:     -10.6      0.000      0.000
REMARK SMILES CC(=O)NS(=O)(=O)c1cc(-c2ccn(C(F)F)c(=O)c2)ccc1C(=O)OCCOCCOCCOC(=O)c1ccc(-c2c3nc(c(-c4ccc(S(=O)(=O)[O-])cc4)c4ccc([nH]4)c(-c4ccc(S(=O)(=O)[O-])cc4)c4nc(c(-c5ccc(S(=O)(=O)[O-])cc5)c5ccc2[nH]5)C=C4)C=C3)cc1
REMARK SMILES IDX 31 1 30 2 29 3 28 4 27 5 26 6 24 7 25 8 23 9 8 10 9 11 10 12
REMARK SMILES IDX 22 13 21 14 5 15 6 16 7 17 4 18 1 19 2 20 3 21 11 23 12 24
REMARK SMILES IDX 20 25 13 26 18 27 14 28 19 29 15 30 16 31 17 32 32 33 33 34
REMARK SMILES IDX 34 35 35 36 36 37 37 38 38 39 39 40 97 41 40 42 96 43 41 44
REMARK SMILES IDX 42 45 43 46 90 47 44 48 95 49 89 50 91 51 45 52 94 53 88 54
REMARK SMILES IDX 87 55 46 57 76 58 57 59 75 60 58 61 61 62 74 63 92 64 59 65
REMARK SMILES IDX 60 66 73 68 93 69 62 70 47 71 48 72 56 73 49 74 55 75 50 76
REMARK SMILES IDX 51 77 52 78 53 79 54 80 77 81 78 82 86 83 79 84 85 85 80 86
REMARK SMILES IDX 81 87 82 88 83 89 84 90 63 91 64 92 72 93 65 94 71 95 66 96
REMARK SMILES IDX 67 97 68 98 69 99 70 100
REMARK H PARENT 4 22 91 56 61 67
REMARK Flexibility Score: inf
ROOT
ATOM      1  C   UNL A   1      35.776  22.384  25.917  1.00  0.00     0.188 C 
ENDROOT
BRANCH   1   2
ATOM      2  C   UNL A   1      34.794  22.765  24.788  1.00  0.00     0.188 C 
BRANCH   2   3
ATOM      3  O   UNL A   1      33.522  22.138  24.891  1.00  0.00    -0.376 OA
BRANCH   3   4
ATOM      4  C   UNL A   1      32.631  22.724  25.827  1.00  0.00     0.202 C 
BRANCH   4   5
ATOM      5  C   UNL A   1      31.268  23.045  25.222  1.00  0.00     0.261 C 
BRANCH   5   6
ATOM      6  O   UNL A   1      31.023  24.450  25.024  1.00  0.00    -0.460 OA
BRANCH   6   7
ATOM      7  C   UNL A   1      31.788  25.081  24.112  1.00  0.00     0.339 C 
ATOM      8  O   UNL A   1      32.072  24.680  22.997  1.00  0.00    -0.246 OA
BRANCH   7   9
ATOM      9  C   UNL A   1      32.204  26.401  24.627  1.00  0.00     0.080 A 
ATOM     10  C   UNL A   1      31.579  27.612  24.318  1.00  0.00     0.103 A 
ATOM     11  C   UNL A   1      32.037  28.810  24.909  1.00  0.00     0.032 A 
ATOM     12  C   UNL A   1      33.089  28.808  25.832  1.00  0.00    -0.017 A 
ATOM     13  C   UNL A   1      33.275  26.401  25.539  1.00  0.00     0.018 A 
ATOM     14  C   UNL A   1      33.713  27.592  26.131  1.00  0.00     0.010 A 
BRANCH  10  15
ATOM     15  S   UNL A   1      30.121  27.763  23.325  1.00  0.00     0.264 S 
ATOM     16  O   UNL A   1      29.115  26.935  23.939  1.00  0.00    -0.201 OA
ATOM     17  O   UNL A   1      30.532  27.539  21.951  1.00  0.00    -0.201 OA
BRANCH  15  18
ATOM     18  N   UNL A   1      29.573  29.311  23.403  1.00  0.00    -0.249 N 
ATOM     19  C   UNL A   1      27.161  28.963  22.841  1.00  0.00     0.115 C 
ATOM     20  C   UNL A   1      28.289  29.849  23.284  1.00  0.00     0.230 C 
ATOM     21  O   UNL A   1      28.144  31.044  23.493  1.00  0.00    -0.274 OA
ATOM     22  H   UNL A   1      30.278  29.979  23.563  1.00  0.00     0.183 HD
ENDBRANCH  15  18
ENDBRANCH  10  15
BRANCH  12  23
ATOM     23  C   UNL A   1      33.488  30.039  26.551  1.00  0.00    -0.011 A 
ATOM     24  C   UNL A   1      34.743  30.175  27.268  1.00  0.00     0.027 A 
ATOM     25  C   UNL A   1      32.601  31.049  26.609  1.00  0.00     0.080 A 
ATOM     26  C   UNL A   1      34.988  31.258  28.016  1.00  0.00     0.095 A 
ATOM     27  C   UNL A   1      32.873  32.275  27.408  1.00  0.00     0.255 A 
ATOM     28  N   UNL A   1      34.069  32.287  28.107  1.00  0.00    -0.258 N 
ATOM     29  O   UNL A   1      32.033  33.170  27.411  1.00  0.00    -0.269 OA
BRANCH  28  30
ATOM     30  C   UNL A   1      34.317  33.422  28.959  1.00  0.00     0.451 C 
ATOM     31  F   UNL A   1      34.261  33.074  30.268  1.00  0.00    -0.185 F 
ATOM     32  F   UNL A   1      35.544  33.950  28.720  1.00  0.00    -0.185 F 
ENDBRANCH  28  30
ENDBRANCH  12  23
ENDBRANCH   7   9
ENDBRANCH   6   7
ENDBRANCH   5   6
ENDBRANCH   4   5
ENDBRANCH   3   4
ENDBRANCH   2   3
ENDBRANCH   1   2
BRANCH   1  33
ATOM     33  O   UNL A   1      37.009  21.749  25.607  1.00  0.00    -0.376 OA
BRANCH  33  34
ATOM     34  C   UNL A   1      38.221  22.446  25.855  1.00  0.00     0.202 C 
BRANCH  34  35
ATOM     35  C   UNL A   1      38.123  23.919  26.267  1.00  0.00     0.261 C 
BRANCH  35  36
ATOM     36  O   UNL A   1      38.988  24.275  27.360  1.00  0.00    -0.460 OA
BRANCH  36  37
ATOM     37  C   UNL A   1      39.863  25.282  27.111  1.00  0.00     0.338 C 
ATOM     38  O   UNL A   1      40.586  25.407  26.138  1.00  0.00    -0.246 OA
BRANCH  37  39
ATOM     39  C   UNL A   1      39.665  26.365  28.102  1.00  0.00     0.060 A 
ATOM     40  C   UNL A   1      40.208  27.629  27.816  1.00  0.00     0.016 A 
ATOM     41  C   UNL A   1      38.987  26.144  29.300  1.00  0.00     0.016 A 
ATOM     42  C   UNL A   1      40.104  28.667  28.742  1.00  0.00     0.010 A 
ATOM     43  C   UNL A   1      38.916  27.173  30.242  1.00  0.00     0.010 A 
ATOM     44  C   UNL A   1      39.503  28.426  29.983  1.00  0.00    -0.014 A 
BRANCH  44  45
ATOM     45  C   UNL A   1      39.712  29.370  31.107  1.00  0.00     0.031 A 
ATOM     46  C   UNL A   1      40.905  29.141  31.995  1.00  0.00     0.074 A 
ATOM     47  C   UNL A   1      38.861  30.379  31.361  1.00  0.00     0.049 A 
ATOM     48  N   UNL A   1      41.216  29.710  33.129  1.00  0.00    -0.248 NA
ATOM     49  C   UNL A   1      41.873  28.125  31.543  1.00  0.00     0.031 C 
ATOM     50  C   UNL A   1      37.717  30.755  30.535  1.00  0.00     0.029 A 
ATOM     51  N   UNL A   1      38.824  31.262  32.413  1.00  0.00    -0.354 N 
ATOM     52  C   UNL A   1      42.401  29.108  33.537  1.00  0.00     0.074 A 
ATOM     53  C   UNL A   1      42.752  28.129  32.533  1.00  0.00     0.031 C 
ATOM     54  C   UNL A   1      37.070  31.775  31.129  1.00  0.00     0.029 A 
ATOM     55  C   UNL A   1      37.727  32.088  32.398  1.00  0.00     0.049 A 
ATOM     56  H   UNL A   1      39.519  31.298  33.110  1.00  0.00     0.167 HD
ATOM     57  C   UNL A   1      43.124  29.337  34.656  1.00  0.00     0.031 A 
ATOM     58  C   UNL A   1      37.281  32.962  33.325  1.00  0.00     0.031 A 
ATOM     59  C   UNL A   1      42.757  30.286  35.669  1.00  0.00     0.049 A 
ATOM     60  C   UNL A   1      38.047  33.132  34.613  1.00  0.00     0.074 A 
ATOM     61  C   UNL A   1      43.416  30.583  36.848  1.00  0.00     0.029 A 
ATOM     62  N   UNL A   1      41.625  31.084  35.626  1.00  0.00    -0.354 N 
ATOM     63  N   UNL A   1      39.163  32.553  34.991  1.00  0.00    -0.248 NA
ATOM     64  C   UNL A   1      37.493  34.068  35.604  1.00  0.00     0.031 C 
ATOM     65  C   UNL A   1      42.655  31.527  37.543  1.00  0.00     0.029 A 
ATOM     66  C   UNL A   1      41.554  31.860  36.768  1.00  0.00     0.049 A 
ATOM     67  H   UNL A   1      40.969  31.096  34.892  1.00  0.00     0.167 HD
ATOM     68  C   UNL A   1      39.459  33.080  36.245  1.00  0.00     0.074 A 
ATOM     69  C   UNL A   1      38.408  34.022  36.564  1.00  0.00     0.031 C 
ATOM     70  C   UNL A   1      40.511  32.810  37.058  1.00  0.00     0.031 A 
BRANCH  57  71
ATOM     71  C   UNL A   1      44.356  28.501  34.864  1.00  0.00    -0.014 A 
ATOM     72  C   UNL A   1      45.633  28.993  34.538  1.00  0.00     0.010 A 
ATOM     73  C   UNL A   1      44.234  27.210  35.407  1.00  0.00     0.010 A 
ATOM     74  C   UNL A   1      46.762  28.191  34.717  1.00  0.00     0.020 A 
ATOM     75  C   UNL A   1      45.365  26.415  35.612  1.00  0.00     0.020 A 
ATOM     76  C   UNL A   1      46.620  26.905  35.248  1.00  0.00     0.054 A 
BRANCH  76  77
ATOM     77  S   UNL A   1      48.105  25.890  35.480  1.00  0.00     0.124 S 
ATOM     78  O   UNL A   1      48.804  26.619  36.534  1.00  0.00    -0.237 OA
ATOM     79  O   UNL A   1      47.551  24.596  35.871  1.00  0.00    -0.237 OA
ATOM     80  O   UNL A   1      48.751  25.917  34.169  1.00  0.00    -0.744 OA
ENDBRANCH  76  77
ENDBRANCH  57  71
BRANCH  58  81
ATOM     81  C   UNL A   1      36.017  33.717  33.093  1.00  0.00    -0.014 A 
ATOM     82  C   UNL A   1      36.043  34.995  32.511  1.00  0.00     0.010 A 
ATOM     83  C   UNL A   1      34.779  33.161  33.466  1.00  0.00     0.010 A 
ATOM     84  C   UNL A   1      34.856  35.710  32.315  1.00  0.00     0.020 A 
ATOM     85  C   UNL A   1      33.588  33.860  33.248  1.00  0.00     0.020 A 
ATOM     86  C   UNL A   1      33.636  35.135  32.683  1.00  0.00     0.054 A 
BRANCH  86  87
ATOM     87  S   UNL A   1      32.104  36.057  32.370  1.00  0.00     0.124 S 
ATOM     88  O   UNL A   1      32.254  36.428  30.968  1.00  0.00    -0.237 OA
ATOM     89  O   UNL A   1      31.074  35.061  32.656  1.00  0.00    -0.237 OA
ATOM     90  O   UNL A   1      32.171  37.163  33.323  1.00  0.00    -0.744 OA
ENDBRANCH  86  87
ENDBRANCH  58  81
BRANCH  70  91
ATOM     91  C   UNL A   1      40.629  33.578  38.347  1.00  0.00    -0.014 A 
ATOM     92  C   UNL A   1      40.857  34.964  38.353  1.00  0.00     0.010 A 
ATOM     93  C   UNL A   1      40.381  32.916  39.564  1.00  0.00     0.010 A 
ATOM     94  C   UNL A   1      40.838  35.675  39.557  1.00  0.00     0.020 A 
ATOM     95  C   UNL A   1      40.338  33.627  40.766  1.00  0.00     0.020 A 
ATOM     96  C   UNL A   1      40.569  35.004  40.754  1.00  0.00     0.054 A 
BRANCH  96  97
ATOM     97  S   UNL A   1      40.453  35.963  42.290  1.00  0.00     0.124 S 
ATOM     98  O   UNL A   1      39.181  36.659  42.119  1.00  0.00    -0.237 OA
ATOM     99  O   UNL A   1      40.470  34.925  43.318  1.00  0.00    -0.237 OA
ATOM    100  O   UNL A   1      41.640  36.816  42.256  1.00  0.00    -0.744 OA
ENDBRANCH  96  97
ENDBRANCH  70  91
ENDBRANCH  44  45
ENDBRANCH  37  39
ENDBRANCH  36  37
ENDBRANCH  35  36
ENDBRANCH  34  35
ENDBRANCH  33  34
ENDBRANCH   1  33
TORSDOF 24
ENDMDL
MODEL 2
REMARK VINA RESULT:      -9.2      4.508      5.579
REMARK SMILES CC(=O)NS(=O)(=O)c1cc(-c2ccn(C(F)F)c(=O)c2)ccc1C(=O)OCCOCCOCCOC(=O)c1ccc(-c2c3nc(c(-c4ccc(S(=O)(=O)[O-])cc4)c4ccc([nH]4)c(-c4ccc(S(=O)(=O)[O-])cc4)c4nc(c(-c5ccc(S(=O)(=O)[O-])cc5)c5ccc2[nH]5)C=C4)C=C3)cc1
REMARK SMILES IDX 31 1 30 2 29 3 28 4 27 5 26 6 24 7 25 8 23 9 8 10 9 11 10 12
REMARK SMILES IDX 22 13 21 14 5 15 6 16 7 17 4 18 1 19 2 20 3 21 11 23 12 24
REMARK SMILES IDX 20 25 13 26 18 27 14 28 19 29 15 30 16 31 17 32 32 33 33 34
REMARK SMILES IDX 34 35 35 36 36 37 37 38 38 39 39 40 97 41 40 42 96 43 41 44
REMARK SMILES IDX 42 45 43 46 90 47 44 48 95 49 89 50 91 51 45 52 94 53 88 54
REMARK SMILES IDX 87 55 46 57 76 58 57 59 75 60 58 61 61 62 74 63 92 64 59 65
REMARK SMILES IDX 60 66 73 68 93 69 62 70 47 71 48 72 56 73 49 74 55 75 50 76
REMARK SMILES IDX 51 77 52 78 53 79 54 80 77 81 78 82 86 83 79 84 85 85 80 86
REMARK SMILES IDX 81 87 82 88 83 89 84 90 63 91 64 92 72 93 65 94 71 95 66 96
REMARK SMILES IDX 67 97 68 98 69 99 70 100
REMARK H PARENT 4 22 91 56 61 67
REMARK Flexibility Score: inf
ROOT
ATOM      1  C   UNL A   1      35.606  21.845  25.729  1.00  0.00     0.188 C 
ENDROOT
BRANCH   1   2
ATOM      2  C   UNL A   1      34.719  22.785  24.884  1.00  0.00     0.188 C 
BRANCH   2   3
ATOM      3  O   UNL A   1      33.462  22.226  24.525  1.00  0.00    -0.376 OA
BRANCH   3   4
ATOM      4  C   UNL A   1      32.404  22.476  25.437  1.00  0.00     0.202 C 
BRANCH   4   5
ATOM      5  C   UNL A   1      31.138  22.977  24.748  1.00  0.00     0.261 C 
BRANCH   5   6
ATOM      6  O   UNL A   1      30.945  24.402  24.825  1.00  0.00    -0.460 OA
BRANCH   6   7
ATOM      7  C   UNL A   1      31.622  25.158  23.940  1.00  0.00     0.339 C 
ATOM      8  O   UNL A   1      31.804  24.913  22.761  1.00  0.00    -0.246 OA
BRANCH   7   9
ATOM      9  C   UNL A   1      32.080  26.405  24.587  1.00  0.00     0.080 A 
ATOM     10  C   UNL A   1      31.522  27.668  24.371  1.00  0.00     0.103 A 
ATOM     11  C   UNL A   1      32.014  28.784  25.082  1.00  0.00     0.032 A 
ATOM     12  C   UNL A   1      33.032  28.647  26.033  1.00  0.00    -0.017 A 
ATOM     13  C   UNL A   1      33.117  26.271  25.526  1.00  0.00     0.018 A 
ATOM     14  C   UNL A   1      33.589  27.380  26.239  1.00  0.00     0.010 A 
BRANCH  10  15
ATOM     15  S   UNL A   1      30.109  27.978  23.352  1.00  0.00     0.264 S 
ATOM     16  O   UNL A   1      29.042  27.156  23.863  1.00  0.00    -0.201 OA
ATOM     17  O   UNL A   1      30.553  27.849  21.976  1.00  0.00    -0.201 OA
BRANCH  15  18
ATOM     18  N   UNL A   1      29.636  29.541  23.546  1.00  0.00    -0.249 N 
ATOM     19  C   UNL A   1      27.636  29.597  22.047  1.00  0.00     0.115 C 
ATOM     20  C   UNL A   1      28.528  30.244  23.065  1.00  0.00     0.230 C 
ATOM     21  O   UNL A   1      28.359  31.389  23.455  1.00  0.00    -0.274 OA
ATOM     22  H   UNL A   1      30.245  30.079  24.102  1.00  0.00     0.183 HD
ENDBRANCH  15  18
ENDBRANCH  10  15
BRANCH  12  23
ATOM     23  C   UNL A   1      33.462  29.787  26.874  1.00  0.00    -0.011 A 
ATOM     24  C   UNL A   1      32.684  31.002  27.031  1.00  0.00     0.027 A 
ATOM     25  C   UNL A   1      34.675  29.721  27.452  1.00  0.00     0.080 A 
ATOM     26  C   UNL A   1      33.186  32.054  27.690  1.00  0.00     0.095 A 
ATOM     27  C   UNL A   1      35.234  30.869  28.217  1.00  0.00     0.255 A 
ATOM     28  N   UNL A   1      34.445  32.006  28.260  1.00  0.00    -0.258 N 
ATOM     29  O   UNL A   1      36.340  30.745  28.735  1.00  0.00    -0.269 OA
BRANCH  28  30
ATOM     30  C   UNL A   1      34.999  33.162  28.917  1.00  0.00     0.451 C 
ATOM     31  F   UNL A   1      35.855  33.827  28.102  1.00  0.00    -0.185 F 
ATOM     32  F   UNL A   1      34.022  34.027  29.288  1.00  0.00    -0.185 F 
ENDBRANCH  28  30
ENDBRANCH  12  23
ENDBRANCH   7   9
ENDBRANCH   6   7
ENDBRANCH   5   6
ENDBRANCH   4   5
ENDBRANCH   3   4
ENDBRANCH   2   3
ENDBRANCH   1   2
BRANCH   1  33
ATOM     33  O   UNL A   1      36.267  20.747  25.118  1.00  0.00    -0.376 OA
BRANCH  33  34
ATOM     34  C   UNL A   1      37.687  20.720  25.106  1.00  0.00     0.202 C 
BRANCH  34  35
ATOM     35  C   UNL A   1      38.425  21.995  25.528  1.00  0.00     0.261 C 
BRANCH  35  36
ATOM     36  O   UNL A   1      39.390  21.786  26.576  1.00  0.00    -0.460 OA
BRANCH  36  37
ATOM     37  C   UNL A   1      40.637  22.261  26.327  1.00  0.00     0.338 C 
ATOM     38  O   UNL A   1      41.472  21.784  25.578  1.00  0.00    -0.246 OA
BRANCH  37  39
ATOM     39  C   UNL A   1      40.785  23.604  26.934  1.00  0.00     0.060 A 
ATOM     40  C   UNL A   1      40.523  24.725  26.130  1.00  0.00     0.016 A 
ATOM     41  C   UNL A   1      41.200  23.766  28.256  1.00  0.00     0.016 A 
ATOM     42  C   UNL A   1      40.706  26.013  26.634  1.00  0.00     0.010 A 
ATOM     43  C   UNL A   1      41.419  25.055  28.748  1.00  0.00     0.010 A 
ATOM     44  C   UNL A   1      41.208  26.181  27.930  1.00  0.00    -0.014 A 
BRANCH  44  45
ATOM     45  C   UNL A   1      41.763  27.490  28.349  1.00  0.00     0.031 A 
ATOM     46  C   UNL A   1      43.244  27.702  28.185  1.00  0.00     0.074 A 
ATOM     47  C   UNL A   1      40.996  28.452  28.889  1.00  0.00     0.049 A 
ATOM     48  N   UNL A   1      43.995  28.677  28.623  1.00  0.00    -0.248 NA
ATOM     49  C   UNL A   1      43.974  26.669  27.429  1.00  0.00     0.031 C 
ATOM     50  C   UNL A   1      39.543  28.403  29.031  1.00  0.00     0.029 A 
ATOM     51  N   UNL A   1      41.349  29.659  29.443  1.00  0.00    -0.354 N 
ATOM     52  C   UNL A   1      45.288  28.363  28.217  1.00  0.00     0.074 A 
ATOM     53  C   UNL A   1      45.220  27.110  27.500  1.00  0.00     0.031 C 
ATOM     54  C   UNL A   1      39.130  29.518  29.661  1.00  0.00     0.029 A 
ATOM     55  C   UNL A   1      40.294  30.333  30.010  1.00  0.00     0.049 A 
ATOM     56  H   UNL A   1      42.271  30.007  29.434  1.00  0.00     0.167 HD
ATOM     57  C   UNL A   1      46.432  29.049  28.435  1.00  0.00     0.031 A 
ATOM     58  C   UNL A   1      40.279  31.453  30.762  1.00  0.00     0.031 A 
ATOM     59  C   UNL A   1      46.504  30.277  29.175  1.00  0.00     0.049 A 
ATOM     60  C   UNL A   1      41.578  32.151  31.080  1.00  0.00     0.074 A 
ATOM     61  C   UNL A   1      47.618  31.044  29.464  1.00  0.00     0.029 A 
ATOM     62  N   UNL A   1      45.415  30.912  29.753  1.00  0.00    -0.354 N 
ATOM     63  N   UNL A   1      42.795  31.843  30.696  1.00  0.00    -0.248 NA
ATOM     64  C   UNL A   1      41.505  33.345  31.938  1.00  0.00     0.031 C 
ATOM     65  C   UNL A   1      47.210  32.118  30.260  1.00  0.00     0.029 A 
ATOM     66  C   UNL A   1      45.834  32.051  30.415  1.00  0.00     0.049 A 
ATOM     67  H   UNL A   1      44.484  30.598  29.700  1.00  0.00     0.167 HD
ATOM     68  C   UNL A   1      43.624  32.822  31.236  1.00  0.00     0.074 A 
ATOM     69  C   UNL A   1      42.774  33.732  31.975  1.00  0.00     0.031 C 
ATOM     70  C   UNL A   1      44.969  32.958  31.127  1.00  0.00     0.031 A 
BRANCH  57  71
ATOM     71  C   UNL A   1      47.707  28.449  27.910  1.00  0.00    -0.014 A 
ATOM     72  C   UNL A   1      48.438  27.516  28.668  1.00  0.00     0.010 A 
ATOM     73  C   UNL A   1      48.170  28.813  26.634  1.00  0.00     0.010 A 
ATOM     74  C   UNL A   1      49.632  26.988  28.172  1.00  0.00     0.020 A 
ATOM     75  C   UNL A   1      49.351  28.267  26.124  1.00  0.00     0.020 A 
ATOM     76  C   UNL A   1      50.084  27.372  26.905  1.00  0.00     0.054 A 
BRANCH  76  77
ATOM     77  S   UNL A   1      51.631  26.661  26.282  1.00  0.00     0.124 S 
ATOM     78  O   UNL A   1      52.487  27.841  26.191  1.00  0.00    -0.237 OA
ATOM     79  O   UNL A   1      51.988  25.705  27.326  1.00  0.00    -0.237 OA
ATOM     80  O   UNL A   1      51.249  26.068  25.002  1.00  0.00    -0.744 OA
ENDBRANCH  76  77
ENDBRANCH  57  71
BRANCH  58  81
ATOM     81  C   UNL A   1      38.992  31.967  31.311  1.00  0.00    -0.014 A 
ATOM     82  C   UNL A   1      38.384  33.108  30.761  1.00  0.00     0.010 A 
ATOM     83  C   UNL A   1      38.374  31.320  32.397  1.00  0.00     0.010 A 
ATOM     84  C   UNL A   1      37.187  33.600  31.293  1.00  0.00     0.020 A 
ATOM     85  C   UNL A   1      37.165  31.793  32.915  1.00  0.00     0.020 A 
ATOM     86  C   UNL A   1      36.584  32.936  32.365  1.00  0.00     0.054 A 
BRANCH  86  87
ATOM     87  S   UNL A   1      35.005  33.560  33.005  1.00  0.00     0.124 S 
ATOM     88  O   UNL A   1      35.162  33.370  34.442  1.00  0.00    -0.237 OA
ATOM     89  O   UNL A   1      35.005  34.948  32.546  1.00  0.00    -0.237 OA
ATOM     90  O   UNL A   1      34.013  32.701  32.362  1.00  0.00    -0.744 OA
ENDBRANCH  86  87
ENDBRANCH  58  81
BRANCH  70  91
ATOM     91  C   UNL A   1      45.617  34.159  31.761  1.00  0.00    -0.014 A 
ATOM     92  C   UNL A   1      45.764  35.366  31.058  1.00  0.00     0.010 A 
ATOM     93  C   UNL A   1      45.967  34.109  33.124  1.00  0.00     0.010 A 
ATOM     94  C   UNL A   1      46.253  36.504  31.708  1.00  0.00     0.020 A 
ATOM     95  C   UNL A   1      46.434  35.250  33.781  1.00  0.00     0.020 A 
ATOM     96  C   UNL A   1      46.576  36.440  33.067  1.00  0.00     0.054 A 
BRANCH  96  97
ATOM     97  S   UNL A   1      47.117  37.953  33.911  1.00  0.00     0.124 S 
ATOM     98  O   UNL A   1      47.056  38.940  32.836  1.00  0.00    -0.237 OA
ATOM     99  O   UNL A   1      46.116  38.108  34.964  1.00  0.00    -0.237 OA
ATOM    100  O   UNL A   1      48.462  37.625  34.382  1.00  0.00    -0.744 OA
ENDBRANCH  96  97
ENDBRANCH  70  91
ENDBRANCH  44  45
ENDBRANCH  37  39
ENDBRANCH  36  37
ENDBRANCH  35  36
ENDBRANCH  34  35
ENDBRANCH  33  34
ENDBRANCH   1  33
TORSDOF 24
ENDMDL
MODEL 3
REMARK VINA RESULT:      -8.6      3.453      5.864
REMARK SMILES CC(=O)NS(=O)(=O)c1cc(-c2ccn(C(F)F)c(=O)c2)ccc1C(=O)OCCOCCOCCOC(=O)c1ccc(-c2c3nc(c(-c4ccc(S(=O)(=O)[O-])cc4)c4ccc([nH]4)c(-c4ccc(S(=O)(=O)[O-])cc4)c4nc(c(-c5ccc(S(=O)(=O)[O-])cc5)c5ccc2[nH]5)C=C4)C=C3)cc1
REMARK SMILES IDX 31 1 30 2 29 3 28 4 27 5 26 6 24 7 25 8 23 9 8 10 9 11 10 12
REMARK SMILES IDX 22 13 21 14 5 15 6 16 7 17 4 18 1 19 2 20 3 21 11 23 12 24
REMARK SMILES IDX 20 25 13 26 18 27 14 28 19 29 15 30 16 31 17 32 32 33 33 34
REMARK SMILES IDX 34 35 35 36 36 37 37 38 38 39 39 40 97 41 40 42 96 43 41 44
REMARK SMILES IDX 42 45 43 46 90 47 44 48 95 49 89 50 91 51 45 52 94 53 88 54
REMARK SMILES IDX 87 55 46 57 76 58 57 59 75 60 58 61 61 62 74 63 92 64 59 65
REMARK SMILES IDX 60 66 73 68 93 69 62 70 47 71 48 72 56 73 49 74 55 75 50 76
REMARK SMILES IDX 51 77 52 78 53 79 54 80 77 81 78 82 86 83 79 84 85 85 80 86
REMARK SMILES IDX 81 87 82 88 83 89 84 90 63 91 64 92 72 93 65 94 71 95 66 96
REMARK SMILES IDX 67 97 68 98 69 99 70 100
REMARK H PARENT 4 22 91 56 61 67
REMARK Flexibility Score: inf
ROOT
ATOM      1  C   UNL A   1      39.746  21.471  26.342  1.00  0.00     0.188 C 
ENDROOT
BRANCH   1   2
ATOM      2  C   UNL A   1      39.912  23.003  26.442  1.00  0.00     0.188 C 
BRANCH   2   3
ATOM      3  O   UNL A   1      38.876  23.651  27.168  1.00  0.00    -0.376 OA
BRANCH   3   4
ATOM      4  C   UNL A   1      37.843  24.217  26.375  1.00  0.00     0.202 C 
BRANCH   4   5
ATOM      5  C   UNL A   1      36.709  23.234  26.098  1.00  0.00     0.261 C 
BRANCH   5   6
ATOM      6  O   UNL A   1      36.625  22.796  24.728  1.00  0.00    -0.460 OA
BRANCH   6   7
ATOM      7  C   UNL A   1      35.562  22.040  24.393  1.00  0.00     0.339 C 
ATOM      8  O   UNL A   1      35.492  20.824  24.427  1.00  0.00    -0.246 OA
BRANCH   7   9
ATOM      9  C   UNL A   1      34.422  22.905  24.025  1.00  0.00     0.080 A 
ATOM     10  C   UNL A   1      33.079  22.599  24.258  1.00  0.00     0.103 A 
ATOM     11  C   UNL A   1      32.075  23.526  23.904  1.00  0.00     0.032 A 
ATOM     12  C   UNL A   1      32.399  24.771  23.351  1.00  0.00    -0.017 A 
ATOM     13  C   UNL A   1      34.747  24.147  23.450  1.00  0.00     0.018 A 
ATOM     14  C   UNL A   1      33.746  25.067  23.116  1.00  0.00     0.010 A 
BRANCH  10  15
ATOM     15  S   UNL A   1      32.515  21.159  25.119  1.00  0.00     0.264 S 
ATOM     16  O   UNL A   1      31.096  21.321  25.311  1.00  0.00    -0.201 OA
ATOM     17  O   UNL A   1      33.403  20.980  26.254  1.00  0.00    -0.201 OA
BRANCH  15  18
ATOM     18  N   UNL A   1      32.715  19.841  24.156  1.00  0.00    -0.249 N 
ATOM     19  C   UNL A   1      32.522  18.012  25.850  1.00  0.00     0.115 C 
ATOM     20  C   UNL A   1      32.638  18.473  24.426  1.00  0.00     0.230 C 
ATOM     21  O   UNL A   1      32.727  17.695  23.489  1.00  0.00    -0.274 OA
ATOM     22  H   UNL A   1      32.927  20.057  23.220  1.00  0.00     0.183 HD
ENDBRANCH  15  18
ENDBRANCH  10  15
BRANCH  12  23
ATOM     23  C   UNL A   1      31.363  25.797  23.099  1.00  0.00    -0.011 A 
ATOM     24  C   UNL A   1      31.588  26.977  22.284  1.00  0.00     0.027 A 
ATOM     25  C   UNL A   1      30.180  25.665  23.727  1.00  0.00     0.080 A 
ATOM     26  C   UNL A   1      30.660  27.939  22.205  1.00  0.00     0.095 A 
ATOM     27  C   UNL A   1      29.125  26.709  23.622  1.00  0.00     0.255 A 
ATOM     28  N   UNL A   1      29.454  27.827  22.873  1.00  0.00    -0.258 N 
ATOM     29  O   UNL A   1      28.060  26.527  24.205  1.00  0.00    -0.269 OA
BRANCH  28  30
ATOM     30  C   UNL A   1      28.487  28.893  22.828  1.00  0.00     0.451 C 
ATOM     31  F   UNL A   1      27.227  28.407  22.700  1.00  0.00    -0.185 F 
ATOM     32  F   UNL A   1      28.531  29.638  23.960  1.00  0.00    -0.185 F 
ENDBRANCH  28  30
ENDBRANCH  12  23
ENDBRANCH   7   9
ENDBRANCH   6   7
ENDBRANCH   5   6
ENDBRANCH   4   5
ENDBRANCH   3   4
ENDBRANCH   2   3
ENDBRANCH   1   2
BRANCH   1  33
ATOM     33  O   UNL A   1      40.342  20.623  27.313  1.00  0.00    -0.376 OA
BRANCH  33  34
ATOM     34  C   UNL A   1      41.119  19.518  26.876  1.00  0.00     0.202 C 
BRANCH  34  35
ATOM     35  C   UNL A   1      42.186  19.778  25.807  1.00  0.00     0.261 C 
BRANCH  35  36
ATOM     36  O   UNL A   1      43.387  20.382  26.321  1.00  0.00    -0.460 OA
BRANCH  36  37
ATOM     37  C   UNL A   1      43.748  21.554  25.739  1.00  0.00     0.338 C 
ATOM     38  O   UNL A   1      44.166  21.715  24.605  1.00  0.00    -0.246 OA
BRANCH  37  39
ATOM     39  C   UNL A   1      43.352  22.682  26.612  1.00  0.00     0.060 A 
ATOM     40  C   UNL A   1      43.408  23.981  26.079  1.00  0.00     0.016 A 
ATOM     41  C   UNL A   1      42.961  22.480  27.935  1.00  0.00     0.016 A 
ATOM     42  C   UNL A   1      43.104  25.084  26.876  1.00  0.00     0.010 A 
ATOM     43  C   UNL A   1      42.693  23.589  28.743  1.00  0.00     0.010 A 
ATOM     44  C   UNL A   1      42.798  24.894  28.228  1.00  0.00    -0.014 A 
BRANCH  44  45
ATOM     45  C   UNL A   1      42.846  26.039  29.170  1.00  0.00     0.031 A 
ATOM     46  C   UNL A   1      43.974  26.072  30.166  1.00  0.00     0.074 A 
ATOM     47  C   UNL A   1      41.908  27.001  29.173  1.00  0.00     0.049 A 
ATOM     48  N   UNL A   1      44.149  26.860  31.193  1.00  0.00    -0.248 NA
ATOM     49  C   UNL A   1      45.044  25.078  29.977  1.00  0.00     0.031 C 
ATOM     50  C   UNL A   1      40.813  27.126  28.215  1.00  0.00     0.029 A 
ATOM     51  N   UNL A   1      41.722  28.051  30.039  1.00  0.00    -0.354 N 
ATOM     52  C   UNL A   1      45.334  26.442  31.787  1.00  0.00     0.074 A 
ATOM     53  C   UNL A   1      45.836  25.332  31.008  1.00  0.00     0.031 C 
ATOM     54  C   UNL A   1      40.049  28.178  28.565  1.00  0.00     0.029 A 
ATOM     55  C   UNL A   1      40.574  28.767  29.797  1.00  0.00     0.049 A 
ATOM     56  H   UNL A   1      42.351  28.270  30.765  1.00  0.00     0.167 HD
ATOM     57  C   UNL A   1      45.944  26.927  32.891  1.00  0.00     0.031 A 
ATOM     58  C   UNL A   1      39.992  29.751  30.513  1.00  0.00     0.031 A 
ATOM     59  C   UNL A   1      45.429  28.007  33.684  1.00  0.00     0.049 A 
ATOM     60  C   UNL A   1      40.635  30.213  31.798  1.00  0.00     0.074 A 
ATOM     61  C   UNL A   1      45.965  28.565  34.831  1.00  0.00     0.029 A 
ATOM     62  N   UNL A   1      44.251  28.687  33.416  1.00  0.00    -0.354 N 
ATOM     63  N   UNL A   1      41.754  29.806  32.353  1.00  0.00    -0.248 NA
ATOM     64  C   UNL A   1      39.936  31.261  32.558  1.00  0.00     0.031 C 
ATOM     65  C   UNL A   1      45.084  29.550  35.285  1.00  0.00     0.029 A 
ATOM     66  C   UNL A   1      44.031  29.646  34.388  1.00  0.00     0.049 A 
ATOM     67  H   UNL A   1      43.659  28.512  32.649  1.00  0.00     0.167 HD
ATOM     68  C   UNL A   1      41.907  30.572  33.505  1.00  0.00     0.074 A 
ATOM     69  C   UNL A   1      40.769  31.464  33.571  1.00  0.00     0.031 C 
ATOM     70  C   UNL A   1      42.903  30.541  34.424  1.00  0.00     0.031 A 
BRANCH  57  71
ATOM     71  C   UNL A   1      47.210  26.248  33.335  1.00  0.00    -0.014 A 
ATOM     72  C   UNL A   1      47.174  25.058  34.085  1.00  0.00     0.010 A 
ATOM     73  C   UNL A   1      48.454  26.801  32.983  1.00  0.00     0.010 A 
ATOM     74  C   UNL A   1      48.361  24.457  34.507  1.00  0.00     0.020 A 
ATOM     75  C   UNL A   1      49.644  26.188  33.381  1.00  0.00     0.020 A 
ATOM     76  C   UNL A   1      49.589  25.028  34.157  1.00  0.00     0.054 A 
BRANCH  76  77
ATOM     77  S   UNL A   1      51.115  24.219  34.710  1.00  0.00     0.124 S 
ATOM     78  O   UNL A   1      52.115  25.246  34.432  1.00  0.00    -0.237 OA
ATOM     79  O   UNL A   1      50.849  23.967  36.124  1.00  0.00    -0.237 OA
ATOM     80  O   UNL A   1      51.196  23.026  33.871  1.00  0.00    -0.744 OA
ENDBRANCH  76  77
ENDBRANCH  57  71
BRANCH  58  81
ATOM     81  C   UNL A   1      38.703  30.343  30.059  1.00  0.00    -0.014 A 
ATOM     82  C   UNL A   1      38.682  31.555  29.348  1.00  0.00     0.010 A 
ATOM     83  C   UNL A   1      37.485  29.700  30.348  1.00  0.00     0.010 A 
ATOM     84  C   UNL A   1      37.467  32.119  28.943  1.00  0.00     0.020 A 
ATOM     85  C   UNL A   1      36.270  30.246  29.922  1.00  0.00     0.020 A 
ATOM     86  C   UNL A   1      36.269  31.458  29.231  1.00  0.00     0.054 A 
BRANCH  86  87
ATOM     87  S   UNL A   1      34.709  32.180  28.649  1.00  0.00     0.124 S 
ATOM     88  O   UNL A   1      35.170  33.118  27.631  1.00  0.00    -0.237 OA
ATOM     89  O   UNL A   1      33.988  31.010  28.152  1.00  0.00    -0.237 OA
ATOM     90  O   UNL A   1      34.144  32.785  29.852  1.00  0.00    -0.744 OA
ENDBRANCH  86  87
ENDBRANCH  58  81
BRANCH  70  91
ATOM     91  C   UNL A   1      42.859  31.535  35.554  1.00  0.00    -0.014 A 
ATOM     92  C   UNL A   1      43.315  32.852  35.386  1.00  0.00     0.010 A 
ATOM     93  C   UNL A   1      42.235  31.171  36.762  1.00  0.00     0.010 A 
ATOM     94  C   UNL A   1      43.148  33.791  36.410  1.00  0.00     0.020 A 
ATOM     95  C   UNL A   1      42.046  32.111  37.778  1.00  0.00     0.020 A 
ATOM     96  C   UNL A   1      42.507  33.416  37.595  1.00  0.00     0.054 A 
BRANCH  96  97
ATOM     97  S   UNL A   1      42.216  34.675  38.869  1.00  0.00     0.124 S 
ATOM     98  O   UNL A   1      43.560  34.889  39.399  1.00  0.00    -0.237 OA
ATOM     99  O   UNL A   1      41.659  35.785  38.101  1.00  0.00    -0.237 OA
ATOM    100  O   UNL A   1      41.279  34.029  39.787  1.00  0.00    -0.744 OA
ENDBRANCH  96  97
ENDBRANCH  70  91
ENDBRANCH  44  45
ENDBRANCH  37  39
ENDBRANCH  36  37
ENDBRANCH  35  36
ENDBRANCH  34  35
ENDBRANCH  33  34
ENDBRANCH   1  33
TORSDOF 24
ENDMDL
