MODEL 1
REMARK VINA RESULT:     -11.7      0.000      0.000
REMARK SMILES Cc1ccc(C(=O)NC2(CC(=O)OCCOCCOCCOC(=O)c3ccc(-c4c5nc(c(-c6ccc(S(=O)(=O)[O-])cc6)c6ccc([nH]6)c(-c6ccc(S(=O)(=O)[O-])cc6)c6nc(c(-c7ccc(S(=O)(=O)[O-])cc7)c7ccc4[nH]7)C=C6)C=C5)cc3)CCC2)cc1
REMARK SMILES IDX 17 1 16 2 15 3 14 4 13 5 11 6 12 7 10 8 9 9 85 10 87 11
REMARK SMILES IDX 86 12 8 13 6 14 7 15 5 17 1 18 2 19 3 20 89 21 4 22 88 23
REMARK SMILES IDX 18 24 19 25 20 26 21 27 22 28 23 29 24 30 25 31 26 32 84 33
REMARK SMILES IDX 27 34 83 35 28 36 29 37 30 38 77 39 31 40 82 41 76 42 78 43
REMARK SMILES IDX 32 44 81 45 75 46 74 47 33 49 63 50 44 51 62 52 45 53 48 54
REMARK SMILES IDX 61 55 79 56 46 57 47 58 60 60 80 61 49 62 34 63 35 64 43 65
REMARK SMILES IDX 36 66 42 67 37 68 38 69 39 70 40 71 41 72 64 73 65 74 73 75
REMARK SMILES IDX 66 76 72 77 67 78 68 79 69 80 70 81 71 82 50 83 51 84 59 85
REMARK SMILES IDX 52 86 58 87 53 88 54 89 55 90 56 91 57 92
REMARK H PARENT 8 16 78 48 48 59
REMARK Flexibility Score: inf
ROOT
ATOM      1  C   UNL A   1      39.703  22.409  26.537  1.00  0.00     0.188 C 
ENDROOT
BRANCH   1   2
ATOM      2  O   UNL A   1      38.860  21.552  25.804  1.00  0.00    -0.376 OA
BRANCH   2   3
ATOM      3  C   UNL A   1      37.566  22.043  25.452  1.00  0.00     0.202 C 
BRANCH   3   4
ATOM      4  C   UNL A   1      36.958  22.331  23.869  1.00  0.00     0.261 C 
BRANCH   4   5
ATOM      5  O   UNL A   1      35.636  23.229  23.100  1.00  0.00    -0.463 OA
BRANCH   5   6
ATOM      6  C   UNL A   1      34.262  23.617  22.960  1.00  0.00     0.308 C 
ATOM      7  O   UNL A   1      33.722  24.629  22.482  1.00  0.00    -0.252 OA
BRANCH   6   8
ATOM      8  C   UNL A   1      33.329  22.508  22.970  1.00  0.00     0.151 C 
BRANCH   8   9
ATOM      9  C   UNL A   1      32.663  22.924  24.252  1.00  0.00     0.051 C 
ATOM     10  C   UNL A   1      33.694  22.995  25.483  1.00  0.00     0.029 C 
ATOM     11  C   UNL A   1      32.295  21.506  25.092  1.00  0.00     0.029 C 
ATOM     12  C   UNL A   1      33.769  21.425  25.473  1.00  0.00     0.005 C 
BRANCH   9  13
ATOM     13  N   UNL A   1      31.491  24.331  23.821  1.00  0.00    -0.346 N 
ATOM     14  C   UNL A   1      31.073  25.927  24.525  1.00  0.00     0.251 C 
ATOM     15  O   UNL A   1      29.986  26.245  24.107  1.00  0.00    -0.269 OA
ATOM     16  H   UNL A   1      30.978  24.144  23.002  1.00  0.00     0.164 HD
BRANCH  14  17
ATOM     17  C   UNL A   1      31.908  27.307  25.558  1.00  0.00     0.039 A 
ATOM     18  C   UNL A   1      34.689  30.508  27.634  1.00  0.00     0.044 C 
ATOM     19  C   UNL A   1      33.685  29.649  26.908  1.00  0.00    -0.051 A 
ATOM     20  C   UNL A   1      32.325  29.757  26.560  1.00  0.00     0.004 A 
ATOM     21  C   UNL A   1      34.187  28.481  26.472  1.00  0.00     0.004 A 
ATOM     22  C   UNL A   1      31.485  28.641  25.841  1.00  0.00     0.014 A 
ATOM     23  C   UNL A   1      33.306  27.452  25.958  1.00  0.00     0.014 A 
ENDBRANCH  14  17
ENDBRANCH   9  13
ENDBRANCH   8   9
ENDBRANCH   6   8
ENDBRANCH   5   6
ENDBRANCH   4   5
ENDBRANCH   3   4
ENDBRANCH   2   3
ENDBRANCH   1   2
BRANCH   1  24
ATOM     24  C   UNL A   1      40.744  21.638  27.334  1.00  0.00     0.188 C 
BRANCH  24  25
ATOM     25  O   UNL A   1      42.061  21.746  26.796  1.00  0.00    -0.376 OA
BRANCH  25  26
ATOM     26  C   UNL A   1      42.322  22.633  25.727  1.00  0.00     0.202 C 
BRANCH  26  27
ATOM     27  C   UNL A   1      43.679  22.189  25.269  1.00  0.00     0.261 C 
BRANCH  27  28
ATOM     28  O   UNL A   1      44.461  23.442  25.187  1.00  0.00    -0.460 OA
BRANCH  28  29
ATOM     29  C   UNL A   1      45.535  23.554  26.030  1.00  0.00     0.338 C 
ATOM     30  O   UNL A   1      46.531  22.846  25.909  1.00  0.00    -0.246 OA
BRANCH  29  31
ATOM     31  C   UNL A   1      45.351  24.547  27.227  1.00  0.00     0.060 A 
ATOM     32  C   UNL A   1      46.451  24.706  28.021  1.00  0.00     0.016 A 
ATOM     33  C   UNL A   1      44.232  25.167  27.829  1.00  0.00     0.016 A 
ATOM     34  C   UNL A   1      46.338  25.264  29.384  1.00  0.00     0.010 A 
ATOM     35  C   UNL A   1      44.201  25.734  29.286  1.00  0.00     0.010 A 
ATOM     36  C   UNL A   1      45.277  25.669  30.205  1.00  0.00    -0.014 A 
BRANCH  36  37
ATOM     37  C   UNL A   1      45.294  25.691  31.992  1.00  0.00     0.031 A 
ATOM     38  C   UNL A   1      45.171  27.074  32.526  1.00  0.00     0.074 A 
ATOM     39  C   UNL A   1      45.738  25.042  33.253  1.00  0.00     0.049 A 
ATOM     40  N   UNL A   1      45.206  27.388  33.788  1.00  0.00    -0.248 NA
ATOM     41  C   UNL A   1      44.857  28.216  31.676  1.00  0.00     0.031 C 
ATOM     42  C   UNL A   1      44.731  24.449  34.192  1.00  0.00     0.029 A 
ATOM     43  N   UNL A   1      46.803  24.266  33.790  1.00  0.00    -0.354 N 
ATOM     44  C   UNL A   1      44.171  28.271  33.845  1.00  0.00     0.074 A 
ATOM     45  C   UNL A   1      44.312  29.009  32.606  1.00  0.00     0.031 C 
ATOM     46  C   UNL A   1      45.221  23.431  34.968  1.00  0.00     0.029 A 
ATOM     47  C   UNL A   1      46.606  23.144  34.615  1.00  0.00     0.049 A 
ATOM     48  H   UNL A   1      47.727  24.529  33.571  1.00  0.00     0.167 HD
ATOM     49  C   UNL A   1      43.072  27.903  34.577  1.00  0.00     0.031 A 
ATOM     50  C   UNL A   1      47.545  22.363  35.290  1.00  0.00     0.031 A 
ATOM     51  C   UNL A   1      43.293  26.833  35.604  1.00  0.00     0.049 A 
ATOM     52  C   UNL A   1      47.581  23.087  36.601  1.00  0.00     0.074 A 
ATOM     53  C   UNL A   1      42.517  25.782  36.088  1.00  0.00     0.029 A 
ATOM     54  N   UNL A   1      44.557  26.634  36.202  1.00  0.00    -0.354 N 
ATOM     55  N   UNL A   1      47.198  24.337  36.645  1.00  0.00    -0.248 NA
ATOM     56  C   UNL A   1      47.760  22.491  37.921  1.00  0.00     0.031 C 
ATOM     57  C   UNL A   1      43.288  25.017  37.017  1.00  0.00     0.029 A 
ATOM     58  C   UNL A   1      44.555  25.578  37.109  1.00  0.00     0.049 A 
ATOM     59  H   UNL A   1      45.351  27.181  36.000  1.00  0.00     0.167 HD
ATOM     60  C   UNL A   1      46.687  24.556  37.876  1.00  0.00     0.074 A 
ATOM     61  C   UNL A   1      47.191  23.444  38.687  1.00  0.00     0.031 C 
ATOM     62  C   UNL A   1      45.623  25.378  38.097  1.00  0.00     0.031 A 
BRANCH  49  63
ATOM     63  C   UNL A   1      41.685  28.412  34.179  1.00  0.00    -0.014 A 
ATOM     64  C   UNL A   1      41.178  29.586  34.757  1.00  0.00     0.010 A 
ATOM     65  C   UNL A   1      40.826  27.774  33.252  1.00  0.00     0.010 A 
ATOM     66  C   UNL A   1      39.956  30.147  34.353  1.00  0.00     0.020 A 
ATOM     67  C   UNL A   1      39.640  28.351  32.786  1.00  0.00     0.020 A 
ATOM     68  C   UNL A   1      39.223  29.553  33.328  1.00  0.00     0.054 A 
BRANCH  68  69
ATOM     69  S   UNL A   1      37.779  30.407  32.655  1.00  0.00     0.124 S 
ATOM     70  O   UNL A   1      36.867  29.300  32.378  1.00  0.00    -0.237 OA
ATOM     71  O   UNL A   1      37.397  31.286  33.756  1.00  0.00    -0.237 OA
ATOM     72  O   UNL A   1      38.302  31.091  31.473  1.00  0.00    -0.744 OA
ENDBRANCH  68  69
ENDBRANCH  49  63
BRANCH  50  73
ATOM     73  C   UNL A   1      48.746  21.530  34.704  1.00  0.00    -0.014 A 
ATOM     74  C   UNL A   1      49.756  22.141  33.899  1.00  0.00     0.010 A 
ATOM     75  C   UNL A   1      49.080  20.223  35.105  1.00  0.00     0.010 A 
ATOM     76  C   UNL A   1      51.099  21.628  33.772  1.00  0.00     0.020 A 
ATOM     77  C   UNL A   1      50.412  19.692  34.987  1.00  0.00     0.020 A 
ATOM     78  C   UNL A   1      51.440  20.418  34.373  1.00  0.00     0.054 A 
BRANCH  78  79
ATOM     79  S   UNL A   1      53.236  19.954  34.690  1.00  0.00     0.124 S 
ATOM     80  O   UNL A   1      53.106  18.717  35.457  1.00  0.00    -0.237 OA
ATOM     81  O   UNL A   1      53.837  19.756  33.368  1.00  0.00    -0.237 OA
ATOM     82  O   UNL A   1      53.763  21.089  35.459  1.00  0.00    -0.744 OA
ENDBRANCH  78  79
ENDBRANCH  50  73
BRANCH  62  83
ATOM     83  C   UNL A   1      45.619  26.267  39.290  1.00  0.00    -0.014 A 
ATOM     84  C   UNL A   1      44.630  26.278  40.275  1.00  0.00     0.010 A 
ATOM     85  C   UNL A   1      46.783  27.042  39.505  1.00  0.00     0.010 A 
ATOM     86  C   UNL A   1      44.800  27.042  41.424  1.00  0.00     0.020 A 
ATOM     87  C   UNL A   1      46.981  27.769  40.659  1.00  0.00     0.020 A 
ATOM     88  C   UNL A   1      45.977  27.769  41.610  1.00  0.00     0.054 A 
BRANCH  88  89
ATOM     89  S   UNL A   1      46.182  28.714  43.119  1.00  0.00     0.124 S 
ATOM     90  O   UNL A   1      47.479  28.236  43.593  1.00  0.00    -0.237 OA
ATOM     91  O   UNL A   1      46.156  30.088  42.626  1.00  0.00    -0.237 OA
ATOM     92  O   UNL A   1      45.036  28.323  43.936  1.00  0.00    -0.744 OA
ENDBRANCH  88  89
ENDBRANCH  62  83
ENDBRANCH  36  37
ENDBRANCH  29  31
ENDBRANCH  28  29
ENDBRANCH  27  28
ENDBRANCH  26  27
ENDBRANCH  25  26
ENDBRANCH  24  25
ENDBRANCH   1  24
TORSDOF 23
ENDMDL
MODEL 2
REMARK VINA RESULT:     -11.5      7.930     13.786
REMARK SMILES Cc1ccc(C(=O)NC2(CC(=O)OCCOCCOCCOC(=O)c3ccc(-c4c5nc(c(-c6ccc(S(=O)(=O)[O-])cc6)c6ccc([nH]6)c(-c6ccc(S(=O)(=O)[O-])cc6)c6nc(c(-c7ccc(S(=O)(=O)[O-])cc7)c7ccc4[nH]7)C=C6)C=C5)cc3)CCC2)cc1
REMARK SMILES IDX 17 1 16 2 15 3 14 4 13 5 11 6 12 7 10 8 9 9 85 10 87 11
REMARK SMILES IDX 86 12 8 13 6 14 7 15 5 17 1 18 2 19 3 20 89 21 4 22 88 23
REMARK SMILES IDX 18 24 19 25 20 26 21 27 22 28 23 29 24 30 25 31 26 32 84 33
REMARK SMILES IDX 27 34 83 35 28 36 29 37 30 38 77 39 31 40 82 41 76 42 78 43
REMARK SMILES IDX 32 44 81 45 75 46 74 47 33 49 63 50 44 51 62 52 45 53 48 54
REMARK SMILES IDX 61 55 79 56 46 57 47 58 60 60 80 61 49 62 34 63 35 64 43 65
REMARK SMILES IDX 36 66 42 67 37 68 38 69 39 70 40 71 41 72 64 73 65 74 73 75
REMARK SMILES IDX 66 76 72 77 67 78 68 79 69 80 70 81 71 82 50 83 51 84 59 85
REMARK SMILES IDX 52 86 58 87 53 88 54 89 55 90 56 91 57 92
REMARK H PARENT 8 16 78 48 48 59
REMARK Flexibility Score: inf
ROOT
ATOM      1  C   UNL A   1      34.591  31.885  27.978  1.00  0.00     0.188 C 
ENDROOT
BRANCH   1   2
ATOM      2  O   UNL A   1      33.929  30.929  27.184  1.00  0.00    -0.376 OA
BRANCH   2   3
ATOM      3  C   UNL A   1      34.057  29.557  27.559  1.00  0.00     0.202 C 
BRANCH   3   4
ATOM      4  C   UNL A   1      33.966  28.183  26.528  1.00  0.00     0.261 C 
BRANCH   4   5
ATOM      5  O   UNL A   1      33.316  27.765  24.932  1.00  0.00    -0.463 OA
BRANCH   5   6
ATOM      6  C   UNL A   1      32.776  28.089  23.643  1.00  0.00     0.308 C 
ATOM      7  O   UNL A   1      33.200  28.792  22.711  1.00  0.00    -0.252 OA
BRANCH   6   8
ATOM      8  C   UNL A   1      31.805  27.134  23.149  1.00  0.00     0.151 C 
BRANCH   8   9
ATOM      9  C   UNL A   1      30.706  27.595  24.065  1.00  0.00     0.051 C 
ATOM     10  C   UNL A   1      29.312  27.802  23.292  1.00  0.00     0.029 C 
ATOM     11  C   UNL A   1      30.633  29.276  23.929  1.00  0.00     0.029 C 
ATOM     12  C   UNL A   1      29.918  29.074  22.598  1.00  0.00     0.005 C 
BRANCH   9  13
ATOM     13  N   UNL A   1      30.857  26.584  25.644  1.00  0.00    -0.346 N 
ATOM     14  C   UNL A   1      31.760  25.123  26.162  1.00  0.00     0.251 C 
ATOM     15  O   UNL A   1      31.195  24.657  27.122  1.00  0.00    -0.269 OA
ATOM     16  H   UNL A   1      30.299  26.949  26.368  1.00  0.00     0.164 HD
BRANCH  14  17
ATOM     17  C   UNL A   1      33.408  24.234  25.763  1.00  0.00     0.039 A 
ATOM     18  C   UNL A   1      37.011  21.654  24.130  1.00  0.00     0.044 C 
ATOM     19  C   UNL A   1      35.977  22.645  24.603  1.00  0.00    -0.051 A 
ATOM     20  C   UNL A   1      35.992  23.961  25.105  1.00  0.00     0.004 A 
ATOM     21  C   UNL A   1      34.716  22.184  24.540  1.00  0.00     0.004 A 
ATOM     22  C   UNL A   1      34.729  24.752  25.602  1.00  0.00     0.014 A 
ATOM     23  C   UNL A   1      33.635  22.922  25.162  1.00  0.00     0.014 A 
ENDBRANCH  14  17
ENDBRANCH   9  13
ENDBRANCH   8   9
ENDBRANCH   6   8
ENDBRANCH   5   6
ENDBRANCH   4   5
ENDBRANCH   3   4
ENDBRANCH   2   3
ENDBRANCH   1   2
BRANCH   1  24
ATOM     24  C   UNL A   1      33.796  33.175  28.097  1.00  0.00     0.188 C 
BRANCH  24  25
ATOM     25  O   UNL A   1      34.312  34.066  29.086  1.00  0.00    -0.376 OA
BRANCH  25  26
ATOM     26  C   UNL A   1      34.444  33.642  30.427  1.00  0.00     0.202 C 
BRANCH  26  27
ATOM     27  C   UNL A   1      35.843  34.067  30.759  1.00  0.00     0.261 C 
BRANCH  27  28
ATOM     28  O   UNL A   1      35.822  34.262  32.226  1.00  0.00    -0.460 OA
BRANCH  28  29
ATOM     29  C   UNL A   1      36.378  33.269  32.987  1.00  0.00     0.338 C 
ATOM     30  O   UNL A   1      35.817  32.828  33.987  1.00  0.00    -0.246 OA
BRANCH  29  31
ATOM     31  C   UNL A   1      37.823  32.831  32.574  1.00  0.00     0.060 A 
ATOM     32  C   UNL A   1      38.824  33.652  33.010  1.00  0.00     0.016 A 
ATOM     33  C   UNL A   1      38.342  31.891  31.653  1.00  0.00     0.016 A 
ATOM     34  C   UNL A   1      40.164  33.623  32.390  1.00  0.00     0.010 A 
ATOM     35  C   UNL A   1      39.781  31.937  31.044  1.00  0.00     0.010 A 
ATOM     36  C   UNL A   1      40.742  32.944  31.308  1.00  0.00    -0.014 A 
BRANCH  36  37
ATOM     37  C   UNL A   1      42.133  33.518  30.342  1.00  0.00     0.031 A 
ATOM     38  C   UNL A   1      43.271  32.563  30.397  1.00  0.00     0.074 A 
ATOM     39  C   UNL A   1      42.882  34.672  29.782  1.00  0.00     0.049 A 
ATOM     40  N   UNL A   1      44.426  32.751  29.828  1.00  0.00    -0.248 NA
ATOM     41  C   UNL A   1      43.152  31.236  30.988  1.00  0.00     0.031 C 
ATOM     42  C   UNL A   1      42.953  34.877  28.299  1.00  0.00     0.029 A 
ATOM     43  N   UNL A   1      43.204  36.030  30.058  1.00  0.00    -0.354 N 
ATOM     44  C   UNL A   1      44.630  31.520  29.282  1.00  0.00     0.074 A 
ATOM     45  C   UNL A   1      44.132  30.628  30.310  1.00  0.00     0.031 C 
ATOM     46  C   UNL A   1      43.141  36.181  27.922  1.00  0.00     0.029 A 
ATOM     47  C   UNL A   1      43.153  37.051  29.092  1.00  0.00     0.049 A 
ATOM     48  H   UNL A   1      43.477  36.267  30.974  1.00  0.00     0.167 HD
ATOM     49  C   UNL A   1      44.636  31.434  27.914  1.00  0.00     0.031 A 
ATOM     50  C   UNL A   1      43.537  38.389  29.193  1.00  0.00     0.031 A 
ATOM     51  C   UNL A   1      44.903  32.712  27.175  1.00  0.00     0.049 A 
ATOM     52  C   UNL A   1      44.957  38.279  28.729  1.00  0.00     0.074 A 
ATOM     53  C   UNL A   1      44.443  33.248  25.973  1.00  0.00     0.029 A 
ATOM     54  N   UNL A   1      45.654  33.757  27.756  1.00  0.00    -0.354 N 
ATOM     55  N   UNL A   1      45.563  37.123  28.810  1.00  0.00    -0.248 NA
ATOM     56  C   UNL A   1      45.698  39.265  27.948  1.00  0.00     0.031 C 
ATOM     57  C   UNL A   1      44.978  34.563  25.811  1.00  0.00     0.029 A 
ATOM     58  C   UNL A   1      45.765  34.862  26.915  1.00  0.00     0.049 A 
ATOM     59  H   UNL A   1      46.057  33.710  28.654  1.00  0.00     0.167 HD
ATOM     60  C   UNL A   1      46.467  37.073  27.808  1.00  0.00     0.074 A 
ATOM     61  C   UNL A   1      46.634  38.469  27.393  1.00  0.00     0.031 C 
ATOM     62  C   UNL A   1      46.754  35.927  27.130  1.00  0.00     0.031 A 
BRANCH  49  63
ATOM     63  C   UNL A   1      44.171  30.149  27.228  1.00  0.00    -0.014 A 
ATOM     64  C   UNL A   1      45.078  29.099  27.019  1.00  0.00     0.010 A 
ATOM     65  C   UNL A   1      42.856  29.917  26.755  1.00  0.00     0.010 A 
ATOM     66  C   UNL A   1      44.677  27.863  26.485  1.00  0.00     0.020 A 
ATOM     67  C   UNL A   1      42.422  28.672  26.285  1.00  0.00     0.020 A 
ATOM     68  C   UNL A   1      43.337  27.642  26.175  1.00  0.00     0.054 A 
BRANCH  68  69
ATOM     69  S   UNL A   1      42.792  25.981  25.715  1.00  0.00     0.124 S 
ATOM     70  O   UNL A   1      41.565  26.254  24.971  1.00  0.00    -0.237 OA
ATOM     71  O   UNL A   1      43.919  25.492  24.925  1.00  0.00    -0.237 OA
ATOM     72  O   UNL A   1      42.603  25.311  27.000  1.00  0.00    -0.744 OA
ENDBRANCH  68  69
ENDBRANCH  49  63
BRANCH  50  73
ATOM     73  C   UNL A   1      43.009  39.501  30.174  1.00  0.00    -0.014 A 
ATOM     74  C   UNL A   1      43.505  39.616  31.509  1.00  0.00     0.010 A 
ATOM     75  C   UNL A   1      42.227  40.603  29.783  1.00  0.00     0.010 A 
ATOM     76  C   UNL A   1      43.494  40.845  32.265  1.00  0.00     0.020 A 
ATOM     77  C   UNL A   1      42.201  41.838  30.522  1.00  0.00     0.020 A 
ATOM     78  C   UNL A   1      42.885  41.981  31.735  1.00  0.00     0.054 A 
BRANCH  78  79
ATOM     79  S   UNL A   1      43.270  43.699  32.399  1.00  0.00     0.124 S 
ATOM     80  O   UNL A   1      44.661  43.562  32.826  1.00  0.00    -0.237 OA
ATOM     81  O   UNL A   1      43.099  44.614  31.267  1.00  0.00    -0.237 OA
ATOM     82  O   UNL A   1      42.315  43.873  33.501  1.00  0.00    -0.744 OA
ENDBRANCH  78  79
ENDBRANCH  50  73
BRANCH  62  83
ATOM     83  C   UNL A   1      48.162  35.629  26.754  1.00  0.00    -0.014 A 
ATOM     84  C   UNL A   1      49.149  35.191  27.638  1.00  0.00     0.010 A 
ATOM     85  C   UNL A   1      48.466  35.649  25.372  1.00  0.00     0.010 A 
ATOM     86  C   UNL A   1      50.393  34.798  27.155  1.00  0.00     0.020 A 
ATOM     87  C   UNL A   1      49.680  35.221  24.879  1.00  0.00     0.020 A 
ATOM     88  C   UNL A   1      50.641  34.806  25.781  1.00  0.00     0.054 A 
BRANCH  88  89
ATOM     89  S   UNL A   1      52.241  34.258  25.188  1.00  0.00     0.124 S 
ATOM     90  O   UNL A   1      51.909  33.774  23.850  1.00  0.00    -0.237 OA
ATOM     91  O   UNL A   1      53.024  35.490  25.239  1.00  0.00    -0.237 OA
ATOM     92  O   UNL A   1      52.636  33.228  26.145  1.00  0.00    -0.744 OA
ENDBRANCH  88  89
ENDBRANCH  62  83
ENDBRANCH  36  37
ENDBRANCH  29  31
ENDBRANCH  28  29
ENDBRANCH  27  28
ENDBRANCH  26  27
ENDBRANCH  25  26
ENDBRANCH  24  25
ENDBRANCH   1  24
TORSDOF 23
ENDMDL
MODEL 3
REMARK VINA RESULT:     -11.2      6.749     11.861
REMARK SMILES Cc1ccc(C(=O)NC2(CC(=O)OCCOCCOCCOC(=O)c3ccc(-c4c5nc(c(-c6ccc(S(=O)(=O)[O-])cc6)c6ccc([nH]6)c(-c6ccc(S(=O)(=O)[O-])cc6)c6nc(c(-c7ccc(S(=O)(=O)[O-])cc7)c7ccc4[nH]7)C=C6)C=C5)cc3)CCC2)cc1
REMARK SMILES IDX 17 1 16 2 15 3 14 4 13 5 11 6 12 7 10 8 9 9 85 10 87 11
REMARK SMILES IDX 86 12 8 13 6 14 7 15 5 17 1 18 2 19 3 20 89 21 4 22 88 23
REMARK SMILES IDX 18 24 19 25 20 26 21 27 22 28 23 29 24 30 25 31 26 32 84 33
REMARK SMILES IDX 27 34 83 35 28 36 29 37 30 38 77 39 31 40 82 41 76 42 78 43
REMARK SMILES IDX 32 44 81 45 75 46 74 47 33 49 63 50 44 51 62 52 45 53 48 54
REMARK SMILES IDX 61 55 79 56 46 57 47 58 60 60 80 61 49 62 34 63 35 64 43 65
REMARK SMILES IDX 36 66 42 67 37 68 38 69 39 70 40 71 41 72 64 73 65 74 73 75
REMARK SMILES IDX 66 76 72 77 67 78 68 79 69 80 70 81 71 82 50 83 51 84 59 85
REMARK SMILES IDX 52 86 58 87 53 88 54 89 55 90 56 91 57 92
REMARK H PARENT 8 16 78 48 48 59
REMARK Flexibility Score: inf
ROOT
ATOM      1  C   UNL A   1      34.669  29.761  27.619  1.00  0.00     0.188 C 
ENDROOT
BRANCH   1   2
ATOM      2  O   UNL A   1      33.946  28.553  27.615  1.00  0.00    -0.376 OA
BRANCH   2   3
ATOM      3  C   UNL A   1      33.408  28.111  26.367  1.00  0.00     0.202 C 
BRANCH   3   4
ATOM      4  C   UNL A   1      32.222  26.891  26.119  1.00  0.00     0.261 C 
BRANCH   4   5
ATOM      5  O   UNL A   1      32.074  25.338  25.277  1.00  0.00    -0.463 OA
BRANCH   5   6
ATOM      6  C   UNL A   1      31.503  24.036  25.079  1.00  0.00     0.308 C 
ATOM      7  O   UNL A   1      30.918  23.254  25.846  1.00  0.00    -0.252 OA
BRANCH   6   8
ATOM      8  C   UNL A   1      31.155  23.744  23.702  1.00  0.00     0.151 C 
BRANCH   8   9
ATOM      9  C   UNL A   1      32.568  23.452  23.281  1.00  0.00     0.051 C 
ATOM     10  C   UNL A   1      32.668  22.159  22.332  1.00  0.00     0.029 C 
ATOM     11  C   UNL A   1      33.163  22.287  24.347  1.00  0.00     0.029 C 
ATOM     12  C   UNL A   1      32.348  21.256  23.577  1.00  0.00     0.005 C 
BRANCH   9  13
ATOM     13  N   UNL A   1      33.354  25.104  22.840  1.00  0.00    -0.346 N 
ATOM     14  C   UNL A   1      32.765  26.731  22.369  1.00  0.00     0.251 C 
ATOM     15  O   UNL A   1      33.664  27.303  21.803  1.00  0.00    -0.269 OA
ATOM     16  H   UNL A   1      34.336  25.064  22.878  1.00  0.00     0.164 HD
BRANCH  14  17
ATOM     17  C   UNL A   1      31.238  27.850  22.665  1.00  0.00     0.039 A 
ATOM     18  C   UNL A   1      27.646  30.913  22.581  1.00  0.00     0.044 C 
ATOM     19  C   UNL A   1      28.647  29.786  22.628  1.00  0.00    -0.051 A 
ATOM     20  C   UNL A   1      28.689  28.494  23.187  1.00  0.00     0.004 A 
ATOM     21  C   UNL A   1      29.795  30.055  21.983  1.00  0.00     0.004 A 
ATOM     22  C   UNL A   1      29.930  27.531  23.141  1.00  0.00     0.014 A 
ATOM     23  C   UNL A   1      30.936  29.173  22.124  1.00  0.00     0.014 A 
ENDBRANCH  14  17
ENDBRANCH   9  13
ENDBRANCH   8   9
ENDBRANCH   6   8
ENDBRANCH   5   6
ENDBRANCH   4   5
ENDBRANCH   3   4
ENDBRANCH   2   3
ENDBRANCH   1   2
BRANCH   1  24
ATOM     24  C   UNL A   1      33.779  30.958  27.322  1.00  0.00     0.188 C 
BRANCH  24  25
ATOM     25  O   UNL A   1      33.917  32.013  28.274  1.00  0.00    -0.376 OA
BRANCH  25  26
ATOM     26  C   UNL A   1      34.251  33.318  27.847  1.00  0.00     0.202 C 
BRANCH  26  27
ATOM     27  C   UNL A   1      35.587  33.532  28.492  1.00  0.00     0.261 C 
BRANCH  27  28
ATOM     28  O   UNL A   1      35.538  32.693  29.710  1.00  0.00    -0.460 OA
BRANCH  28  29
ATOM     29  C   UNL A   1      36.640  32.722  30.523  1.00  0.00     0.338 C 
ATOM     30  O   UNL A   1      36.817  33.618  31.343  1.00  0.00    -0.246 OA
BRANCH  29  31
ATOM     31  C   UNL A   1      37.712  31.615  30.244  1.00  0.00     0.060 A 
ATOM     32  C   UNL A   1      38.828  31.680  31.029  1.00  0.00     0.016 A 
ATOM     33  C   UNL A   1      37.910  30.675  29.206  1.00  0.00     0.016 A 
ATOM     34  C   UNL A   1      40.078  30.994  30.641  1.00  0.00     0.010 A 
ATOM     35  C   UNL A   1      39.276  29.995  28.865  1.00  0.00     0.010 A 
ATOM     36  C   UNL A   1      40.500  30.257  29.527  1.00  0.00    -0.014 A 
BRANCH  36  37
ATOM     37  C   UNL A   1      42.192  30.085  28.974  1.00  0.00     0.031 A 
ATOM     38  C   UNL A   1      42.859  28.914  29.603  1.00  0.00     0.074 A 
ATOM     39  C   UNL A   1      43.418  30.745  28.458  1.00  0.00     0.049 A 
ATOM     40  N   UNL A   1      44.104  28.582  29.419  1.00  0.00    -0.248 NA
ATOM     41  C   UNL A   1      42.131  27.928  30.392  1.00  0.00     0.031 C 
ATOM     42  C   UNL A   1      43.910  30.448  27.073  1.00  0.00     0.029 A 
ATOM     43  N   UNL A   1      44.134  31.973  28.526  1.00  0.00    -0.354 N 
ATOM     44  C   UNL A   1      43.972  27.237  29.249  1.00  0.00     0.074 A 
ATOM     45  C   UNL A   1      42.957  26.889  30.222  1.00  0.00     0.031 C 
ATOM     46  C   UNL A   1      44.640  31.460  26.508  1.00  0.00     0.029 A 
ATOM     47  C   UNL A   1      44.687  32.612  27.402  1.00  0.00     0.049 A 
ATOM     48  H   UNL A   1      44.247  32.397  29.407  1.00  0.00     0.167 HD
ATOM     49  C   UNL A   1      44.273  26.730  28.011  1.00  0.00     0.031 A 
ATOM     50  C   UNL A   1      45.494  33.749  27.334  1.00  0.00     0.031 A 
ATOM     51  C   UNL A   1      45.151  27.584  27.145  1.00  0.00     0.049 A 
ATOM     52  C   UNL A   1      46.844  33.105  27.398  1.00  0.00     0.074 A 
ATOM     53  C   UNL A   1      45.217  27.824  25.774  1.00  0.00     0.029 A 
ATOM     54  N   UNL A   1      46.069  28.502  27.703  1.00  0.00    -0.354 N 
ATOM     55  N   UNL A   1      46.952  31.910  27.920  1.00  0.00    -0.248 NA
ATOM     56  C   UNL A   1      48.055  33.547  26.713  1.00  0.00     0.031 C 
ATOM     57  C   UNL A   1      46.214  28.816  25.519  1.00  0.00     0.029 A 
ATOM     58  C   UNL A   1      46.768  29.211  26.729  1.00  0.00     0.049 A 
ATOM     59  H   UNL A   1      46.200  28.626  28.671  1.00  0.00     0.167 HD
ATOM     60  C   UNL A   1      47.988  31.297  27.307  1.00  0.00     0.074 A 
ATOM     61  C   UNL A   1      48.742  32.387  26.681  1.00  0.00     0.031 C 
ATOM     62  C   UNL A   1      47.993  29.965  27.023  1.00  0.00     0.031 A 
BRANCH  49  63
ATOM     63  C   UNL A   1      43.551  25.481  27.502  1.00  0.00    -0.014 A 
ATOM     64  C   UNL A   1      44.158  24.222  27.631  1.00  0.00     0.010 A 
ATOM     65  C   UNL A   1      42.280  25.480  26.879  1.00  0.00     0.010 A 
ATOM     66  C   UNL A   1      43.496  23.037  27.270  1.00  0.00     0.020 A 
ATOM     67  C   UNL A   1      41.577  24.308  26.577  1.00  0.00     0.020 A 
ATOM     68  C   UNL A   1      42.186  23.087  26.799  1.00  0.00     0.054 A 
BRANCH  68  69
ATOM     69  S   UNL A   1      41.264  21.551  26.565  1.00  0.00     0.124 S 
ATOM     70  O   UNL A   1      41.131  21.058  27.933  1.00  0.00    -0.237 OA
ATOM     71  O   UNL A   1      40.032  22.021  25.936  1.00  0.00    -0.237 OA
ATOM     72  O   UNL A   1      42.133  20.754  25.700  1.00  0.00    -0.744 OA
ENDBRANCH  68  69
ENDBRANCH  49  63
BRANCH  50  73
ATOM     73  C   UNL A   1      45.186  35.213  27.824  1.00  0.00    -0.014 A 
ATOM     74  C   UNL A   1      45.866  36.344  27.275  1.00  0.00     0.010 A 
ATOM     75  C   UNL A   1      44.085  35.571  28.623  1.00  0.00     0.010 A 
ATOM     76  C   UNL A   1      45.318  37.678  27.257  1.00  0.00     0.020 A 
ATOM     77  C   UNL A   1      43.523  36.896  28.621  1.00  0.00     0.020 A 
ATOM     78  C   UNL A   1      44.104  37.939  27.889  1.00  0.00     0.054 A 
BRANCH  78  79
ATOM     79  S   UNL A   1      43.097  39.475  27.480  1.00  0.00     0.124 S 
ATOM     80  O   UNL A   1      42.980  40.125  28.783  1.00  0.00    -0.237 OA
ATOM     81  O   UNL A   1      43.902  40.237  26.521  1.00  0.00    -0.237 OA
ATOM     82  O   UNL A   1      41.834  38.938  26.957  1.00  0.00    -0.744 OA
ENDBRANCH  78  79
ENDBRANCH  50  73
BRANCH  62  83
ATOM     83  C   UNL A   1      49.245  29.181  27.205  1.00  0.00    -0.014 A 
ATOM     84  C   UNL A   1      49.841  28.903  28.436  1.00  0.00     0.010 A 
ATOM     85  C   UNL A   1      49.769  28.551  26.052  1.00  0.00     0.010 A 
ATOM     86  C   UNL A   1      50.925  28.035  28.504  1.00  0.00     0.020 A 
ATOM     87  C   UNL A   1      50.816  27.656  26.113  1.00  0.00     0.020 A 
ATOM     88  C   UNL A   1      51.394  27.412  27.345  1.00  0.00     0.054 A 
BRANCH  88  89
ATOM     89  S   UNL A   1      52.769  26.270  27.472  1.00  0.00     0.124 S 
ATOM     90  O   UNL A   1      53.003  26.249  28.914  1.00  0.00    -0.237 OA
ATOM     91  O   UNL A   1      52.203  25.048  26.906  1.00  0.00    -0.237 OA
ATOM     92  O   UNL A   1      53.821  26.896  26.677  1.00  0.00    -0.744 OA
ENDBRANCH  88  89
ENDBRANCH  62  83
ENDBRANCH  36  37
ENDBRANCH  29  31
ENDBRANCH  28  29
ENDBRANCH  27  28
ENDBRANCH  26  27
ENDBRANCH  25  26
ENDBRANCH  24  25
ENDBRANCH   1  24
TORSDOF 23
ENDMDL
