MODEL 1
REMARK VINA RESULT:     -10.2      0.000      0.000
REMARK SMILES O=C(OCCOCCOCCOC(=O)[C@H]1[NH2+]CC[C@H]1c1cccc(Oc2ccccc2)c1)c1ccc(-c2c3nc(c(-c4ccc(S(=O)(=O)[O-])cc4)c4ccc([nH]4)c(-c4ccc(S(=O)(=O)[O-])cc4)c4nc(c(-c5ccc(S(=O)(=O)[O-])cc5)c5ccc2[nH]5)C=C4)C=C3)cc1
REMARK SMILES IDX 7 1 6 2 5 3 4 4 3 5 2 6 1 7 33 8 34 9 92 10 35 11 91 12
REMARK SMILES IDX 36 13 37 14 38 15 85 16 39 17 90 18 84 19 86 20 40 21 89 22
REMARK SMILES IDX 83 23 82 24 41 26 71 27 52 28 70 29 53 30 56 31 69 32 87 33
REMARK SMILES IDX 54 34 55 35 68 37 88 38 57 39 42 40 43 41 51 42 44 43 50 44
REMARK SMILES IDX 45 45 46 46 47 47 48 48 49 49 72 50 73 51 81 52 74 53 80 54
REMARK SMILES IDX 75 55 76 56 77 57 78 58 79 59 58 60 59 61 67 62 60 63 66 64
REMARK SMILES IDX 61 65 62 66 63 67 64 68 65 69 8 70 9 71 10 72 11 73 12 74
REMARK SMILES IDX 13 75 14 76 15 77 16 78 19 79 17 80 18 83 20 84 21 85 32 86
REMARK SMILES IDX 22 87 24 88 23 89 25 90 26 91 27 92 31 93 28 94 30 95 29 96
REMARK H PARENT 86 25 56 36 16 81 16 82
REMARK Flexibility Score: inf
ROOT
ATOM      1  C   UNL A   1      36.096  21.540  25.553  1.00  0.00     0.188 C 
ENDROOT
BRANCH   1   2
ATOM      2  O   UNL A   1      37.341  22.207  25.403  1.00  0.00    -0.376 OA
BRANCH   2   3
ATOM      3  C   UNL A   1      37.336  23.509  25.990  1.00  0.00     0.202 C 
BRANCH   3   4
ATOM      4  C   UNL A   1      38.589  23.938  26.799  1.00  0.00     0.261 C 
BRANCH   4   5
ATOM      5  O   UNL A   1      39.275  25.121  26.337  1.00  0.00    -0.460 OA
BRANCH   5   6
ATOM      6  C   UNL A   1      40.309  25.787  26.931  1.00  0.00     0.338 C 
ATOM      7  O   UNL A   1      41.457  25.538  26.564  1.00  0.00    -0.246 OA
BRANCH   6   8
ATOM      8  C   UNL A   1      40.126  26.719  28.092  1.00  0.00     0.060 A 
ATOM      9  C   UNL A   1      40.691  27.989  28.168  1.00  0.00     0.016 A 
ATOM     10  C   UNL A   1      39.276  26.325  29.144  1.00  0.00     0.016 A 
ATOM     11  C   UNL A   1      40.488  28.829  29.244  1.00  0.00     0.010 A 
ATOM     12  C   UNL A   1      39.070  27.160  30.253  1.00  0.00     0.010 A 
ATOM     13  C   UNL A   1      39.708  28.403  30.307  1.00  0.00    -0.014 A 
BRANCH  13  14
ATOM     14  C   UNL A   1      39.812  29.210  31.530  1.00  0.00     0.031 A 
ATOM     15  C   UNL A   1      41.039  29.017  32.370  1.00  0.00     0.074 A 
ATOM     16  C   UNL A   1      38.953  30.224  31.731  1.00  0.00     0.049 A 
ATOM     17  N   UNL A   1      41.391  29.619  33.470  1.00  0.00    -0.248 NA
ATOM     18  C   UNL A   1      42.027  28.034  31.881  1.00  0.00     0.031 C 
ATOM     19  C   UNL A   1      37.852  30.584  30.831  1.00  0.00     0.029 A 
ATOM     20  N   UNL A   1      38.891  31.160  32.724  1.00  0.00    -0.354 N 
ATOM     21  C   UNL A   1      42.613  29.061  33.825  1.00  0.00     0.074 A 
ATOM     22  C   UNL A   1      42.959  28.089  32.818  1.00  0.00     0.031 C 
ATOM     23  C   UNL A   1      37.220  31.664  31.321  1.00  0.00     0.029 A 
ATOM     24  C   UNL A   1      37.830  32.025  32.595  1.00  0.00     0.049 A 
ATOM     25  H   UNL A   1      39.544  31.212  33.460  1.00  0.00     0.167 HD
ATOM     26  C   UNL A   1      43.357  29.329  34.920  1.00  0.00     0.031 A 
ATOM     27  C   UNL A   1      37.383  32.963  33.452  1.00  0.00     0.031 A 
ATOM     28  C   UNL A   1      42.953  30.289  35.907  1.00  0.00     0.049 A 
ATOM     29  C   UNL A   1      38.156  33.146  34.733  1.00  0.00     0.074 A 
ATOM     30  C   UNL A   1      43.566  30.611  37.102  1.00  0.00     0.029 A 
ATOM     31  N   UNL A   1      41.812  31.076  35.808  1.00  0.00    -0.354 N 
ATOM     32  N   UNL A   1      39.279  32.570  35.103  1.00  0.00    -0.248 NA
ATOM     33  C   UNL A   1      37.604  34.082  35.718  1.00  0.00     0.031 C 
ATOM     34  C   UNL A   1      42.754  31.543  37.757  1.00  0.00     0.029 A 
ATOM     35  C   UNL A   1      41.677  31.856  36.937  1.00  0.00     0.049 A 
ATOM     36  H   UNL A   1      41.192  31.077  35.044  1.00  0.00     0.167 HD
ATOM     37  C   UNL A   1      39.574  33.081  36.360  1.00  0.00     0.074 A 
ATOM     38  C   UNL A   1      38.523  34.032  36.674  1.00  0.00     0.031 C 
ATOM     39  C   UNL A   1      40.608  32.793  37.189  1.00  0.00     0.031 A 
BRANCH  26  40
ATOM     40  C   UNL A   1      44.585  28.490  35.146  1.00  0.00    -0.014 A 
ATOM     41  C   UNL A   1      44.536  27.263  35.833  1.00  0.00     0.010 A 
ATOM     42  C   UNL A   1      45.824  28.959  34.674  1.00  0.00     0.010 A 
ATOM     43  C   UNL A   1      45.711  26.540  36.071  1.00  0.00     0.020 A 
ATOM     44  C   UNL A   1      46.996  28.229  34.888  1.00  0.00     0.020 A 
ATOM     45  C   UNL A   1      46.933  27.029  35.598  1.00  0.00     0.054 A 
BRANCH  45  46
ATOM     46  S   UNL A   1      48.438  26.063  35.904  1.00  0.00     0.124 S 
ATOM     47  O   UNL A   1      48.458  25.988  37.363  1.00  0.00    -0.237 OA
ATOM     48  O   UNL A   1      48.154  24.806  35.215  1.00  0.00    -0.237 OA
ATOM     49  O   UNL A   1      49.498  26.871  35.307  1.00  0.00    -0.744 OA
ENDBRANCH  45  46
ENDBRANCH  26  40
BRANCH  27  50
ATOM     50  C   UNL A   1      36.113  33.697  33.181  1.00  0.00    -0.014 A 
ATOM     51  C   UNL A   1      34.857  33.089  33.346  1.00  0.00     0.010 A 
ATOM     52  C   UNL A   1      36.161  35.031  32.727  1.00  0.00     0.010 A 
ATOM     53  C   UNL A   1      33.683  33.788  33.040  1.00  0.00     0.020 A 
ATOM     54  C   UNL A   1      34.991  35.744  32.452  1.00  0.00     0.020 A 
ATOM     55  C   UNL A   1      33.757  35.111  32.593  1.00  0.00     0.054 A 
BRANCH  55  56
ATOM     56  S   UNL A   1      32.224  36.001  32.205  1.00  0.00     0.124 S 
ATOM     57  O   UNL A   1      31.206  35.013  32.546  1.00  0.00    -0.237 OA
ATOM     58  O   UNL A   1      32.298  37.162  33.088  1.00  0.00    -0.237 OA
ATOM     59  O   UNL A   1      32.351  36.300  30.780  1.00  0.00    -0.744 OA
ENDBRANCH  55  56
ENDBRANCH  27  50
BRANCH  39  60
ATOM     60  C   UNL A   1      40.663  33.534  38.493  1.00  0.00    -0.014 A 
ATOM     61  C   UNL A   1      41.235  34.814  38.572  1.00  0.00     0.010 A 
ATOM     62  C   UNL A   1      40.037  32.979  39.624  1.00  0.00     0.010 A 
ATOM     63  C   UNL A   1      41.193  35.524  39.773  1.00  0.00     0.020 A 
ATOM     64  C   UNL A   1      39.965  33.699  40.814  1.00  0.00     0.020 A 
ATOM     65  C   UNL A   1      40.552  34.965  40.883  1.00  0.00     0.054 A 
BRANCH  65  66
ATOM     66  S   UNL A   1      40.438  35.943  42.403  1.00  0.00     0.124 S 
ATOM     67  O   UNL A   1      39.072  36.454  42.333  1.00  0.00    -0.237 OA
ATOM     68  O   UNL A   1      40.686  34.948  43.443  1.00  0.00    -0.237 OA
ATOM     69  O   UNL A   1      41.488  36.949  42.247  1.00  0.00    -0.744 OA
ENDBRANCH  65  66
ENDBRANCH  39  60
ENDBRANCH  13  14
ENDBRANCH   6   8
ENDBRANCH   5   6
ENDBRANCH   4   5
ENDBRANCH   3   4
ENDBRANCH   2   3
ENDBRANCH   1   2
BRANCH   1  70
ATOM     70  C   UNL A   1      35.274  22.128  26.665  1.00  0.00     0.188 C 
BRANCH  70  71
ATOM     71  O   UNL A   1      33.924  21.688  26.728  1.00  0.00    -0.376 OA
BRANCH  71  72
ATOM     72  C   UNL A   1      33.232  21.631  25.492  1.00  0.00     0.202 C 
BRANCH  72  73
ATOM     73  C   UNL A   1      32.445  22.895  25.124  1.00  0.00     0.261 C 
BRANCH  73  74
ATOM     74  O   UNL A   1      33.210  23.856  24.388  1.00  0.00    -0.459 OA
BRANCH  74  75
ATOM     75  C   UNL A   1      33.530  25.017  25.042  1.00  0.00     0.365 C 
ATOM     76  O   UNL A   1      33.632  25.136  26.260  1.00  0.00    -0.245 OA
BRANCH  75  77
ATOM     77  C   UNL A   1      33.720  26.140  24.024  1.00  0.00     0.301 C 
ATOM     78  N   UNL A   1      33.747  25.612  22.640  1.00  0.00    -0.334 N 
ATOM     79  C   UNL A   1      32.764  27.349  24.000  1.00  0.00     0.095 C 
ATOM     80  C   UNL A   1      33.497  26.756  21.757  1.00  0.00     0.262 C 
ATOM     81  H   UNL A   1      33.022  24.907  22.517  1.00  0.00     0.347 HD
ATOM     82  H   UNL A   1      34.643  25.172  22.430  1.00  0.00     0.347 HD
ATOM     83  C   UNL A   1      33.207  27.955  22.653  1.00  0.00     0.076 C 
BRANCH  79  84
ATOM     84  C   UNL A   1      31.246  27.228  24.209  1.00  0.00    -0.034 A 
ATOM     85  C   UNL A   1      30.656  26.209  24.973  1.00  0.00     0.004 A 
ATOM     86  C   UNL A   1      30.363  28.009  23.435  1.00  0.00     0.051 A 
ATOM     87  C   UNL A   1      29.284  25.930  24.887  1.00  0.00     0.004 A 
ATOM     88  C   UNL A   1      29.013  27.677  23.263  1.00  0.00     0.127 A 
ATOM     89  C   UNL A   1      28.470  26.641  24.009  1.00  0.00     0.047 A 
BRANCH  88  90
ATOM     90  O   UNL A   1      28.140  28.380  22.459  1.00  0.00    -0.457 OA
BRANCH  90  91
ATOM     91  C   UNL A   1      28.213  29.757  22.433  1.00  0.00     0.127 A 
ATOM     92  C   UNL A   1      27.656  30.439  23.518  1.00  0.00     0.047 A 
ATOM     93  C   UNL A   1      28.713  30.481  21.344  1.00  0.00     0.047 A 
ATOM     94  C   UNL A   1      27.639  31.836  23.544  1.00  0.00     0.004 A 
ATOM     95  C   UNL A   1      28.691  31.883  21.370  1.00  0.00     0.004 A 
ATOM     96  C   UNL A   1      28.149  32.558  22.466  1.00  0.00     0.000 A 
ENDBRANCH  90  91
ENDBRANCH  88  90
ENDBRANCH  79  84
ENDBRANCH  75  77
ENDBRANCH  74  75
ENDBRANCH  73  74
ENDBRANCH  72  73
ENDBRANCH  71  72
ENDBRANCH  70  71
ENDBRANCH   1  70
TORSDOF 23
ENDMDL
MODEL 2
REMARK VINA RESULT:     -10.1      6.645     12.676
REMARK SMILES O=C(OCCOCCOCCOC(=O)[C@H]1[NH2+]CC[C@H]1c1cccc(Oc2ccccc2)c1)c1ccc(-c2c3nc(c(-c4ccc(S(=O)(=O)[O-])cc4)c4ccc([nH]4)c(-c4ccc(S(=O)(=O)[O-])cc4)c4nc(c(-c5ccc(S(=O)(=O)[O-])cc5)c5ccc2[nH]5)C=C4)C=C3)cc1
REMARK SMILES IDX 7 1 6 2 5 3 4 4 3 5 2 6 1 7 33 8 34 9 92 10 35 11 91 12
REMARK SMILES IDX 36 13 37 14 38 15 85 16 39 17 90 18 84 19 86 20 40 21 89 22
REMARK SMILES IDX 83 23 82 24 41 26 71 27 52 28 70 29 53 30 56 31 69 32 87 33
REMARK SMILES IDX 54 34 55 35 68 37 88 38 57 39 42 40 43 41 51 42 44 43 50 44
REMARK SMILES IDX 45 45 46 46 47 47 48 48 49 49 72 50 73 51 81 52 74 53 80 54
REMARK SMILES IDX 75 55 76 56 77 57 78 58 79 59 58 60 59 61 67 62 60 63 66 64
REMARK SMILES IDX 61 65 62 66 63 67 64 68 65 69 8 70 9 71 10 72 11 73 12 74
REMARK SMILES IDX 13 75 14 76 15 77 16 78 19 79 17 80 18 83 20 84 21 85 32 86
REMARK SMILES IDX 22 87 24 88 23 89 25 90 26 91 27 92 31 93 28 94 30 95 29 96
REMARK H PARENT 86 25 56 36 16 81 16 82
REMARK Flexibility Score: inf
ROOT
ATOM      1  C   UNL A   1      35.158  32.842  29.016  1.00  0.00     0.188 C 
ENDROOT
BRANCH   1   2
ATOM      2  O   UNL A   1      35.032  32.368  30.349  1.00  0.00    -0.376 OA
BRANCH   2   3
ATOM      3  C   UNL A   1      36.295  32.050  30.935  1.00  0.00     0.202 C 
BRANCH   3   4
ATOM      4  C   UNL A   1      36.387  30.754  31.784  1.00  0.00     0.261 C 
BRANCH   4   5
ATOM      5  O   UNL A   1      36.548  29.520  31.053  1.00  0.00    -0.460 OA
BRANCH   5   6
ATOM      6  C   UNL A   1      36.838  29.351  29.729  1.00  0.00     0.338 C 
ATOM      7  O   UNL A   1      35.915  29.383  28.916  1.00  0.00    -0.246 OA
BRANCH   6   8
ATOM      8  C   UNL A   1      38.209  29.007  29.226  1.00  0.00     0.060 A 
ATOM      9  C   UNL A   1      39.179  28.362  29.989  1.00  0.00     0.016 A 
ATOM     10  C   UNL A   1      38.524  29.285  27.882  1.00  0.00     0.016 A 
ATOM     11  C   UNL A   1      40.426  28.043  29.490  1.00  0.00     0.010 A 
ATOM     12  C   UNL A   1      39.791  28.982  27.362  1.00  0.00     0.010 A 
ATOM     13  C   UNL A   1      40.749  28.387  28.188  1.00  0.00    -0.014 A 
BRANCH  13  14
ATOM     14  C   UNL A   1      42.177  28.310  27.850  1.00  0.00     0.031 A 
ATOM     15  C   UNL A   1      43.030  29.482  28.232  1.00  0.00     0.074 A 
ATOM     16  C   UNL A   1      42.700  27.142  27.438  1.00  0.00     0.049 A 
ATOM     17  N   UNL A   1      44.313  29.656  28.080  1.00  0.00    -0.248 NA
ATOM     18  C   UNL A   1      42.349  30.601  28.915  1.00  0.00     0.031 C 
ATOM     19  C   UNL A   1      41.940  25.903  27.241  1.00  0.00     0.029 A 
ATOM     20  N   UNL A   1      43.988  26.791  27.149  1.00  0.00    -0.354 N 
ATOM     21  C   UNL A   1      44.582  30.912  28.608  1.00  0.00     0.074 A 
ATOM     22  C   UNL A   1      43.342  31.454  29.105  1.00  0.00     0.031 C 
ATOM     23  C   UNL A   1      42.780  24.928  26.858  1.00  0.00     0.029 A 
ATOM     24  C   UNL A   1      44.118  25.491  26.719  1.00  0.00     0.049 A 
ATOM     25  H   UNL A   1      44.750  27.408  27.242  1.00  0.00     0.167 HD
ATOM     26  C   UNL A   1      45.768  31.559  28.640  1.00  0.00     0.031 A 
ATOM     27  C   UNL A   1      45.198  24.860  26.220  1.00  0.00     0.031 A 
ATOM     28  C   UNL A   1      46.970  30.984  28.106  1.00  0.00     0.049 A 
ATOM     29  C   UNL A   1      46.478  25.651  26.139  1.00  0.00     0.074 A 
ATOM     30  C   UNL A   1      48.226  31.549  28.001  1.00  0.00     0.029 A 
ATOM     31  N   UNL A   1      47.052  29.704  27.573  1.00  0.00    -0.354 N 
ATOM     32  N   UNL A   1      46.720  26.867  26.577  1.00  0.00    -0.248 NA
ATOM     33  C   UNL A   1      47.622  25.005  25.488  1.00  0.00     0.031 C 
ATOM     34  C   UNL A   1      49.049  30.632  27.340  1.00  0.00     0.029 A 
ATOM     35  C   UNL A   1      48.327  29.469  27.100  1.00  0.00     0.049 A 
ATOM     36  H   UNL A   1      46.311  29.057  27.539  1.00  0.00     0.167 HD
ATOM     37  C   UNL A   1      48.048  27.129  26.264  1.00  0.00     0.074 A 
ATOM     38  C   UNL A   1      48.561  25.933  25.621  1.00  0.00     0.031 C 
ATOM     39  C   UNL A   1      48.780  28.250  26.474  1.00  0.00     0.031 A 
BRANCH  26  40
ATOM     40  C   UNL A   1      45.773  32.974  29.148  1.00  0.00    -0.014 A 
ATOM     41  C   UNL A   1      45.577  34.076  28.296  1.00  0.00     0.010 A 
ATOM     42  C   UNL A   1      46.005  33.203  30.517  1.00  0.00     0.010 A 
ATOM     43  C   UNL A   1      45.644  35.379  28.800  1.00  0.00     0.020 A 
ATOM     44  C   UNL A   1      46.048  34.502  31.029  1.00  0.00     0.020 A 
ATOM     45  C   UNL A   1      45.882  35.584  30.163  1.00  0.00     0.054 A 
BRANCH  45  46
ATOM     46  S   UNL A   1      45.946  37.284  30.794  1.00  0.00     0.124 S 
ATOM     47  O   UNL A   1      44.547  37.695  30.698  1.00  0.00    -0.237 OA
ATOM     48  O   UNL A   1      46.455  37.101  32.151  1.00  0.00    -0.237 OA
ATOM     49  O   UNL A   1      46.858  37.961  29.875  1.00  0.00    -0.744 OA
ENDBRANCH  45  46
ENDBRANCH  26  40
BRANCH  27  50
ATOM     50  C   UNL A   1      45.083  23.478  25.669  1.00  0.00    -0.014 A 
ATOM     51  C   UNL A   1      45.465  22.351  26.416  1.00  0.00     0.010 A 
ATOM     52  C   UNL A   1      44.599  23.287  24.360  1.00  0.00     0.010 A 
ATOM     53  C   UNL A   1      45.389  21.068  25.857  1.00  0.00     0.020 A 
ATOM     54  C   UNL A   1      44.490  22.006  23.809  1.00  0.00     0.020 A 
ATOM     55  C   UNL A   1      44.903  20.905  24.556  1.00  0.00     0.054 A 
BRANCH  55  56
ATOM     56  S   UNL A   1      44.810  19.236  23.850  1.00  0.00     0.124 S 
ATOM     57  O   UNL A   1      46.186  18.771  23.986  1.00  0.00    -0.237 OA
ATOM     58  O   UNL A   1      43.833  18.580  24.716  1.00  0.00    -0.237 OA
ATOM     59  O   UNL A   1      44.361  19.466  22.479  1.00  0.00    -0.744 OA
ENDBRANCH  55  56
ENDBRANCH  27  50
BRANCH  39  60
ATOM     60  C   UNL A   1      50.214  28.220  26.032  1.00  0.00    -0.014 A 
ATOM     61  C   UNL A   1      51.244  27.927  26.940  1.00  0.00     0.010 A 
ATOM     62  C   UNL A   1      50.514  28.386  24.668  1.00  0.00     0.010 A 
ATOM     63  C   UNL A   1      52.560  27.813  26.490  1.00  0.00     0.020 A 
ATOM     64  C   UNL A   1      51.822  28.241  24.211  1.00  0.00     0.020 A 
ATOM     65  C   UNL A   1      52.838  27.963  25.127  1.00  0.00     0.054 A 
BRANCH  65  66
ATOM     66  S   UNL A   1      54.542  27.726  24.559  1.00  0.00     0.124 S 
ATOM     67  O   UNL A   1      55.299  27.882  25.799  1.00  0.00    -0.237 OA
ATOM     68  O   UNL A   1      54.509  26.374  24.007  1.00  0.00    -0.237 OA
ATOM     69  O   UNL A   1      54.730  28.791  23.576  1.00  0.00    -0.744 OA
ENDBRANCH  65  66
ENDBRANCH  39  60
ENDBRANCH  13  14
ENDBRANCH   6   8
ENDBRANCH   5   6
ENDBRANCH   4   5
ENDBRANCH   3   4
ENDBRANCH   2   3
ENDBRANCH   1   2
BRANCH   1  70
ATOM     70  C   UNL A   1      33.911  32.600  28.214  1.00  0.00     0.188 C 
BRANCH  70  71
ATOM     71  O   UNL A   1      33.888  31.391  27.467  1.00  0.00    -0.376 OA
BRANCH  71  72
ATOM     72  C   UNL A   1      32.608  30.938  27.059  1.00  0.00     0.202 C 
BRANCH  72  73
ATOM     73  C   UNL A   1      32.334  29.448  27.297  1.00  0.00     0.261 C 
BRANCH  73  74
ATOM     74  O   UNL A   1      33.135  28.579  26.491  1.00  0.00    -0.459 OA
BRANCH  74  75
ATOM     75  C   UNL A   1      32.603  28.191  25.289  1.00  0.00     0.365 C 
ATOM     76  O   UNL A   1      33.069  28.472  24.188  1.00  0.00    -0.245 OA
BRANCH  75  77
ATOM     77  C   UNL A   1      31.334  27.378  25.531  1.00  0.00     0.301 C 
ATOM     78  N   UNL A   1      30.494  27.314  24.313  1.00  0.00    -0.334 N 
ATOM     79  C   UNL A   1      31.415  25.935  26.068  1.00  0.00     0.095 C 
ATOM     80  C   UNL A   1      29.566  26.196  24.508  1.00  0.00     0.262 C 
ATOM     81  H   UNL A   1      31.076  27.150  23.492  1.00  0.00     0.347 HD
ATOM     82  H   UNL A   1      29.992  28.190  24.164  1.00  0.00     0.347 HD
ATOM     83  C   UNL A   1      29.949  25.524  25.822  1.00  0.00     0.076 C 
BRANCH  79  84
ATOM     84  C   UNL A   1      32.477  24.924  25.608  1.00  0.00    -0.034 A 
ATOM     85  C   UNL A   1      33.856  25.137  25.759  1.00  0.00     0.004 A 
ATOM     86  C   UNL A   1      32.106  23.834  24.792  1.00  0.00     0.051 A 
ATOM     87  C   UNL A   1      34.797  24.369  25.056  1.00  0.00     0.004 A 
ATOM     88  C   UNL A   1      33.029  23.128  24.008  1.00  0.00     0.127 A 
ATOM     89  C   UNL A   1      34.383  23.390  24.158  1.00  0.00     0.047 A 
BRANCH  88  90
ATOM     90  O   UNL A   1      32.689  22.105  23.149  1.00  0.00    -0.457 OA
BRANCH  90  91
ATOM     91  C   UNL A   1      32.680  20.809  23.619  1.00  0.00     0.127 A 
ATOM     92  C   UNL A   1      32.332  19.809  22.707  1.00  0.00     0.047 A 
ATOM     93  C   UNL A   1      32.895  20.475  24.961  1.00  0.00     0.047 A 
ATOM     94  C   UNL A   1      32.246  18.476  23.116  1.00  0.00     0.004 A 
ATOM     95  C   UNL A   1      32.803  19.137  25.371  1.00  0.00     0.004 A 
ATOM     96  C   UNL A   1      32.473  18.141  24.449  1.00  0.00     0.000 A 
ENDBRANCH  90  91
ENDBRANCH  88  90
ENDBRANCH  79  84
ENDBRANCH  75  77
ENDBRANCH  74  75
ENDBRANCH  73  74
ENDBRANCH  72  73
ENDBRANCH  71  72
ENDBRANCH  70  71
ENDBRANCH   1  70
TORSDOF 23
ENDMDL
MODEL 3
REMARK VINA RESULT:     -10.0      2.368      9.338
REMARK SMILES O=C(OCCOCCOCCOC(=O)[C@H]1[NH2+]CC[C@H]1c1cccc(Oc2ccccc2)c1)c1ccc(-c2c3nc(c(-c4ccc(S(=O)(=O)[O-])cc4)c4ccc([nH]4)c(-c4ccc(S(=O)(=O)[O-])cc4)c4nc(c(-c5ccc(S(=O)(=O)[O-])cc5)c5ccc2[nH]5)C=C4)C=C3)cc1
REMARK SMILES IDX 7 1 6 2 5 3 4 4 3 5 2 6 1 7 33 8 34 9 92 10 35 11 91 12
REMARK SMILES IDX 36 13 37 14 38 15 85 16 39 17 90 18 84 19 86 20 40 21 89 22
REMARK SMILES IDX 83 23 82 24 41 26 71 27 52 28 70 29 53 30 56 31 69 32 87 33
REMARK SMILES IDX 54 34 55 35 68 37 88 38 57 39 42 40 43 41 51 42 44 43 50 44
REMARK SMILES IDX 45 45 46 46 47 47 48 48 49 49 72 50 73 51 81 52 74 53 80 54
REMARK SMILES IDX 75 55 76 56 77 57 78 58 79 59 58 60 59 61 67 62 60 63 66 64
REMARK SMILES IDX 61 65 62 66 63 67 64 68 65 69 8 70 9 71 10 72 11 73 12 74
REMARK SMILES IDX 13 75 14 76 15 77 16 78 19 79 17 80 18 83 20 84 21 85 32 86
REMARK SMILES IDX 22 87 24 88 23 89 25 90 26 91 27 92 31 93 28 94 30 95 29 96
REMARK H PARENT 86 25 56 36 16 81 16 82
REMARK Flexibility Score: inf
ROOT
ATOM      1  C   UNL A   1      34.922  32.927  28.326  1.00  0.00     0.188 C 
ENDROOT
BRANCH   1   2
ATOM      2  O   UNL A   1      33.696  33.640  28.251  1.00  0.00    -0.376 OA
BRANCH   2   3
ATOM      3  C   UNL A   1      33.877  35.050  28.387  1.00  0.00     0.202 C 
BRANCH   3   4
ATOM      4  C   UNL A   1      32.897  35.814  29.316  1.00  0.00     0.261 C 
BRANCH   4   5
ATOM      5  O   UNL A   1      32.388  35.083  30.452  1.00  0.00    -0.460 OA
BRANCH   5   6
ATOM      6  C   UNL A   1      32.980  34.886  31.667  1.00  0.00     0.338 C 
ATOM      7  O   UNL A   1      32.426  35.333  32.670  1.00  0.00    -0.246 OA
BRANCH   6   8
ATOM      8  C   UNL A   1      34.332  34.256  31.828  1.00  0.00     0.060 A 
ATOM      9  C   UNL A   1      34.537  32.900  32.063  1.00  0.00     0.016 A 
ATOM     10  C   UNL A   1      35.475  35.064  31.667  1.00  0.00     0.016 A 
ATOM     11  C   UNL A   1      35.796  32.349  32.189  1.00  0.00     0.010 A 
ATOM     12  C   UNL A   1      36.762  34.525  31.807  1.00  0.00     0.010 A 
ATOM     13  C   UNL A   1      36.911  33.166  32.100  1.00  0.00    -0.014 A 
BRANCH  13  14
ATOM     14  C   UNL A   1      38.171  32.569  32.566  1.00  0.00     0.031 A 
ATOM     15  C   UNL A   1      38.535  32.786  34.004  1.00  0.00     0.074 A 
ATOM     16  C   UNL A   1      38.815  31.685  31.783  1.00  0.00     0.049 A 
ATOM     17  N   UNL A   1      39.564  32.346  34.671  1.00  0.00    -0.248 NA
ATOM     18  C   UNL A   1      37.588  33.579  34.813  1.00  0.00     0.031 C 
ATOM     19  C   UNL A   1      38.387  31.283  30.440  1.00  0.00     0.029 A 
ATOM     20  N   UNL A   1      39.936  30.939  32.014  1.00  0.00    -0.354 N 
ATOM     21  C   UNL A   1      39.410  32.841  35.960  1.00  0.00     0.074 A 
ATOM     22  C   UNL A   1      38.182  33.596  35.995  1.00  0.00     0.031 C 
ATOM     23  C   UNL A   1      39.242  30.363  29.963  1.00  0.00     0.029 A 
ATOM     24  C   UNL A   1      40.309  30.166  30.939  1.00  0.00     0.049 A 
ATOM     25  H   UNL A   1      40.428  30.951  32.866  1.00  0.00     0.167 HD
ATOM     26  C   UNL A   1      40.249  32.693  37.008  1.00  0.00     0.031 A 
ATOM     27  C   UNL A   1      41.422  29.429  30.762  1.00  0.00     0.031 A 
ATOM     28  C   UNL A   1      41.475  31.953  36.912  1.00  0.00     0.049 A 
ATOM     29  C   UNL A   1      42.410  29.394  31.899  1.00  0.00     0.074 A 
ATOM     30  C   UNL A   1      42.459  31.781  37.866  1.00  0.00     0.029 A 
ATOM     31  N   UNL A   1      41.885  31.269  35.774  1.00  0.00    -0.354 N 
ATOM     32  N   UNL A   1      42.297  29.918  33.100  1.00  0.00    -0.248 NA
ATOM     33  C   UNL A   1      43.675  28.690  31.663  1.00  0.00     0.031 C 
ATOM     34  C   UNL A   1      43.496  31.051  37.278  1.00  0.00     0.029 A 
ATOM     35  C   UNL A   1      43.126  30.705  35.984  1.00  0.00     0.049 A 
ATOM     36  H   UNL A   1      41.366  31.197  34.941  1.00  0.00     0.167 HD
ATOM     37  C   UNL A   1      43.473  29.599  33.767  1.00  0.00     0.074 A 
ATOM     38  C   UNL A   1      44.270  28.815  32.842  1.00  0.00     0.031 C 
ATOM     39  C   UNL A   1      43.869  29.926  35.022  1.00  0.00     0.031 A 
BRANCH  26  40
ATOM     40  C   UNL A   1      39.921  33.442  38.270  1.00  0.00    -0.014 A 
ATOM     41  C   UNL A   1      40.403  34.741  38.517  1.00  0.00     0.010 A 
ATOM     42  C   UNL A   1      39.124  32.814  39.245  1.00  0.00     0.010 A 
ATOM     43  C   UNL A   1      40.119  35.381  39.729  1.00  0.00     0.020 A 
ATOM     44  C   UNL A   1      38.818  33.459  40.446  1.00  0.00     0.020 A 
ATOM     45  C   UNL A   1      39.330  34.734  40.686  1.00  0.00     0.054 A 
BRANCH  45  46
ATOM     46  S   UNL A   1      38.963  35.594  42.241  1.00  0.00     0.124 S 
ATOM     47  O   UNL A   1      37.542  35.303  42.419  1.00  0.00    -0.237 OA
ATOM     48  O   UNL A   1      39.862  34.937  43.187  1.00  0.00    -0.237 OA
ATOM     49  O   UNL A   1      39.281  36.989  41.950  1.00  0.00    -0.744 OA
ENDBRANCH  45  46
ENDBRANCH  26  40
BRANCH  27  50
ATOM     50  C   UNL A   1      41.702  28.780  29.448  1.00  0.00    -0.014 A 
ATOM     51  C   UNL A   1      41.385  27.432  29.207  1.00  0.00     0.010 A 
ATOM     52  C   UNL A   1      42.318  29.522  28.420  1.00  0.00     0.010 A 
ATOM     53  C   UNL A   1      41.700  26.837  27.978  1.00  0.00     0.020 A 
ATOM     54  C   UNL A   1      42.604  28.941  27.181  1.00  0.00     0.020 A 
ATOM     55  C   UNL A   1      42.310  27.595  26.974  1.00  0.00     0.054 A 
BRANCH  55  56
ATOM     56  S   UNL A   1      42.708  26.806  25.389  1.00  0.00     0.124 S 
ATOM     57  O   UNL A   1      42.731  27.946  24.479  1.00  0.00    -0.237 OA
ATOM     58  O   UNL A   1      44.003  26.187  25.659  1.00  0.00    -0.237 OA
ATOM     59  O   UNL A   1      41.606  25.867  25.186  1.00  0.00    -0.744 OA
ENDBRANCH  55  56
ENDBRANCH  27  50
BRANCH  39  60
ATOM     60  C   UNL A   1      45.206  29.411  35.470  1.00  0.00    -0.014 A 
ATOM     61  C   UNL A   1      45.352  28.099  35.947  1.00  0.00     0.010 A 
ATOM     62  C   UNL A   1      46.343  30.224  35.308  1.00  0.00     0.010 A 
ATOM     63  C   UNL A   1      46.618  27.610  36.271  1.00  0.00     0.020 A 
ATOM     64  C   UNL A   1      47.612  29.728  35.599  1.00  0.00     0.020 A 
ATOM     65  C   UNL A   1      47.740  28.426  36.087  1.00  0.00     0.054 A 
BRANCH  65  66
ATOM     66  S   UNL A   1      49.379  27.737  36.434  1.00  0.00     0.124 S 
ATOM     67  O   UNL A   1      49.434  27.806  37.892  1.00  0.00    -0.237 OA
ATOM     68  O   UNL A   1      49.287  26.393  35.870  1.00  0.00    -0.237 OA
ATOM     69  O   UNL A   1      50.290  28.640  35.732  1.00  0.00    -0.744 OA
ENDBRANCH  65  66
ENDBRANCH  39  60
ENDBRANCH  13  14
ENDBRANCH   6   8
ENDBRANCH   5   6
ENDBRANCH   4   5
ENDBRANCH   3   4
ENDBRANCH   2   3
ENDBRANCH   1   2
BRANCH   1  70
ATOM     70  C   UNL A   1      34.725  31.450  28.135  1.00  0.00     0.188 C 
BRANCH  70  71
ATOM     71  O   UNL A   1      33.982  31.074  26.982  1.00  0.00    -0.376 OA
BRANCH  71  72
ATOM     72  C   UNL A   1      32.821  30.298  27.218  1.00  0.00     0.202 C 
BRANCH  72  73
ATOM     73  C   UNL A   1      33.074  28.815  27.517  1.00  0.00     0.261 C 
BRANCH  73  74
ATOM     74  O   UNL A   1      33.026  27.977  26.358  1.00  0.00    -0.459 OA
BRANCH  74  75
ATOM     75  C   UNL A   1      31.807  27.439  26.038  1.00  0.00     0.365 C 
ATOM     76  O   UNL A   1      31.225  26.573  26.686  1.00  0.00    -0.245 OA
BRANCH  75  77
ATOM     77  C   UNL A   1      31.297  28.068  24.743  1.00  0.00     0.301 C 
ATOM     78  N   UNL A   1      32.371  28.813  24.046  1.00  0.00    -0.334 N 
ATOM     79  C   UNL A   1      30.611  27.203  23.666  1.00  0.00     0.095 C 
ATOM     80  C   UNL A   1      31.918  28.994  22.663  1.00  0.00     0.262 C 
ATOM     81  H   UNL A   1      33.240  28.280  24.066  1.00  0.00     0.347 HD
ATOM     82  H   UNL A   1      32.550  29.710  24.497  1.00  0.00     0.347 HD
ATOM     83  C   UNL A   1      30.601  28.239  22.524  1.00  0.00     0.076 C 
BRANCH  79  84
ATOM     84  C   UNL A   1      31.092  25.795  23.284  1.00  0.00    -0.034 A 
ATOM     85  C   UNL A   1      30.345  24.634  23.538  1.00  0.00     0.004 A 
ATOM     86  C   UNL A   1      32.426  25.594  22.872  1.00  0.00     0.051 A 
ATOM     87  C   UNL A   1      30.930  23.360  23.479  1.00  0.00     0.004 A 
ATOM     88  C   UNL A   1      33.047  24.338  22.908  1.00  0.00     0.127 A 
ATOM     89  C   UNL A   1      32.286  23.214  23.197  1.00  0.00     0.047 A 
BRANCH  88  90
ATOM     90  O   UNL A   1      34.368  24.119  22.578  1.00  0.00    -0.457 OA
BRANCH  90  91
ATOM     91  C   UNL A   1      35.261  23.778  23.572  1.00  0.00     0.127 A 
ATOM     92  C   UNL A   1      36.155  22.743  23.287  1.00  0.00     0.047 A 
ATOM     93  C   UNL A   1      35.237  24.338  24.854  1.00  0.00     0.047 A 
ATOM     94  C   UNL A   1      37.057  22.299  24.258  1.00  0.00     0.004 A 
ATOM     95  C   UNL A   1      36.138  23.887  25.829  1.00  0.00     0.004 A 
ATOM     96  C   UNL A   1      37.043  22.865  25.531  1.00  0.00     0.000 A 
ENDBRANCH  90  91
ENDBRANCH  88  90
ENDBRANCH  79  84
ENDBRANCH  75  77
ENDBRANCH  74  75
ENDBRANCH  73  74
ENDBRANCH  72  73
ENDBRANCH  71  72
ENDBRANCH  70  71
ENDBRANCH   1  70
TORSDOF 23
ENDMDL
