MODEL 1
REMARK VINA RESULT:      -8.0      0.000      0.000
REMARK SMILES CCc1ccc(C(=O)NC[C@@H](CC(C)C)C(=O)OCCOCCOCCOC(=O)c2ccc(-c3c4nc(c(-c5ccc(S(=O)(=O)[O-])cc5)c5ccc([nH]5)c(-c5ccc(S(=O)(=O)[O-])cc5)c5nc(c(-c6ccc(S(=O)(=O)[O-])cc6)c6ccc3[nH]6)C=C5)C=C4)cc2)s1
REMARK SMILES IDX 22 1 21 2 20 3 19 4 18 5 16 6 17 7 11 8 10 9 9 10 7 11 8 12
REMARK SMILES IDX 6 14 3 15 4 16 90 17 5 18 2 19 1 20 12 21 13 22 14 23 15 24
REMARK SMILES IDX 23 25 24 26 25 27 26 28 27 29 28 30 29 31 30 32 31 33 89 34
REMARK SMILES IDX 32 35 88 36 33 37 34 38 35 39 82 40 36 41 87 42 81 43 83 44
REMARK SMILES IDX 37 45 86 46 80 47 79 48 38 50 68 51 49 52 67 53 50 54 53 55
REMARK SMILES IDX 66 56 84 57 51 58 52 59 65 61 85 62 54 63 39 64 40 65 48 66
REMARK SMILES IDX 41 67 47 68 42 69 43 70 44 71 45 72 46 73 69 74 70 75 78 76
REMARK SMILES IDX 71 77 77 78 72 79 73 80 74 81 75 82 76 83 55 84 56 85 64 86
REMARK SMILES IDX 57 87 63 88 58 89 59 90 60 91 61 92 62 93
REMARK H PARENT 9 13 83 49 53 60
REMARK Flexibility Score: inf
ROOT
ATOM      1  C   UNL A   1      42.644  21.108  25.727  1.00  0.00     0.188 C 
ENDROOT
BRANCH   1   2
ATOM      2  O   UNL A   1      43.952  20.630  25.442  1.00  0.00    -0.376 OA
BRANCH   2   3
ATOM      3  C   UNL A   1      45.030  21.556  25.462  1.00  0.00     0.202 C 
BRANCH   3   4
ATOM      4  C   UNL A   1      44.680  23.026  25.223  1.00  0.00     0.261 C 
BRANCH   4   5
ATOM      5  O   UNL A   1      45.327  23.953  26.130  1.00  0.00    -0.463 OA
BRANCH   5   6
ATOM      6  C   UNL A   1      45.316  25.263  25.771  1.00  0.00     0.310 C 
ATOM      7  O   UNL A   1      44.367  25.809  25.221  1.00  0.00    -0.252 OA
BRANCH   6   8
ATOM      8  C   UNL A   1      46.639  25.998  25.988  1.00  0.00     0.118 C 
BRANCH   8   9
ATOM      9  C   UNL A   1      47.353  25.831  27.341  1.00  0.00     0.131 C 
BRANCH   9  10
ATOM     10  N   UNL A   1      47.393  27.083  28.098  1.00  0.00    -0.350 N 
ATOM     11  C   UNL A   1      46.650  27.521  29.177  1.00  0.00     0.261 C 
ATOM     12  O   UNL A   1      46.744  28.725  29.430  1.00  0.00    -0.268 OA
ATOM     13  H   UNL A   1      48.069  27.726  27.783  1.00  0.00     0.163 HD
BRANCH  11  14
ATOM     14  C   UNL A   1      45.850  26.602  29.973  1.00  0.00     0.092 A 
ATOM     15  C   UNL A   1      45.150  25.007  31.770  1.00  0.00     0.005 A 
ATOM     16  C   UNL A   1      44.293  25.004  30.686  1.00  0.00     0.016 A 
ATOM     17  S   UNL A   1      46.449  26.101  31.505  1.00  0.00    -0.135 S 
ATOM     18  C   UNL A   1      44.675  25.940  29.670  1.00  0.00     0.026 A 
BRANCH  15  19
ATOM     19  C   UNL A   1      45.119  24.192  33.041  1.00  0.00     0.043 C 
ATOM     20  C   UNL A   1      43.722  23.843  33.539  1.00  0.00     0.010 C 
ENDBRANCH  15  19
ENDBRANCH  11  14
ENDBRANCH   9  10
ENDBRANCH   8   9
BRANCH   8  21
ATOM     21  C   UNL A   1      47.515  25.854  24.728  1.00  0.00     0.020 C 
BRANCH  21  22
ATOM     22  C   UNL A   1      48.116  27.108  24.055  1.00  0.00    -0.017 C 
ATOM     23  C   UNL A   1      48.947  26.835  22.804  1.00  0.00     0.007 C 
ATOM     24  C   UNL A   1      46.963  28.047  23.675  1.00  0.00     0.007 C 
ENDBRANCH  21  22
ENDBRANCH   8  21
ENDBRANCH   6   8
ENDBRANCH   5   6
ENDBRANCH   4   5
ENDBRANCH   3   4
ENDBRANCH   2   3
ENDBRANCH   1   2
BRANCH   1  25
ATOM     25  C   UNL A   1      41.734  20.227  26.596  1.00  0.00     0.188 C 
BRANCH  25  26
ATOM     26  O   UNL A   1      40.597  20.881  27.132  1.00  0.00    -0.376 OA
BRANCH  26  27
ATOM     27  C   UNL A   1      40.199  22.049  26.431  1.00  0.00     0.202 C 
BRANCH  27  28
ATOM     28  C   UNL A   1      40.268  23.300  27.312  1.00  0.00     0.261 C 
BRANCH  28  29
ATOM     29  O   UNL A   1      39.594  24.447  26.754  1.00  0.00    -0.460 OA
BRANCH  29  30
ATOM     30  C   UNL A   1      40.369  25.505  26.438  1.00  0.00     0.338 C 
ATOM     31  O   UNL A   1      41.004  25.655  25.400  1.00  0.00    -0.246 OA
BRANCH  30  32
ATOM     32  C   UNL A   1      40.189  26.548  27.466  1.00  0.00     0.060 A 
ATOM     33  C   UNL A   1      40.864  27.770  27.338  1.00  0.00     0.016 A 
ATOM     34  C   UNL A   1      39.410  26.299  28.593  1.00  0.00     0.016 A 
ATOM     35  C   UNL A   1      40.814  28.723  28.354  1.00  0.00     0.010 A 
ATOM     36  C   UNL A   1      39.353  27.256  29.611  1.00  0.00     0.010 A 
ATOM     37  C   UNL A   1      40.083  28.458  29.514  1.00  0.00    -0.014 A 
BRANCH  37  38
ATOM     38  C   UNL A   1      40.182  29.362  30.686  1.00  0.00     0.031 A 
ATOM     39  C   UNL A   1      41.255  29.108  31.709  1.00  0.00     0.074 A 
ATOM     40  C   UNL A   1      39.333  30.395  30.844  1.00  0.00     0.049 A 
ATOM     41  N   UNL A   1      41.437  29.666  32.877  1.00  0.00    -0.248 NA
ATOM     42  C   UNL A   1      42.258  28.087  31.365  1.00  0.00     0.031 C 
ATOM     43  C   UNL A   1      38.308  30.806  29.887  1.00  0.00     0.029 A 
ATOM     44  N   UNL A   1      39.194  31.276  31.887  1.00  0.00    -0.354 N 
ATOM     45  C   UNL A   1      42.560  29.050  33.418  1.00  0.00     0.074 A 
ATOM     46  C   UNL A   1      43.012  28.069  32.454  1.00  0.00     0.031 C 
ATOM     47  C   UNL A   1      37.628  31.848  30.398  1.00  0.00     0.029 A 
ATOM     48  C   UNL A   1      38.134  32.139  31.739  1.00  0.00     0.049 A 
ATOM     49  H   UNL A   1      39.796  31.290  32.667  1.00  0.00     0.167 HD
ATOM     50  C   UNL A   1      43.155  29.273  34.613  1.00  0.00     0.031 A 
ATOM     51  C   UNL A   1      37.604  33.029  32.601  1.00  0.00     0.031 A 
ATOM     52  C   UNL A   1      42.691  30.235  35.577  1.00  0.00     0.049 A 
ATOM     53  C   UNL A   1      38.215  33.184  33.971  1.00  0.00     0.074 A 
ATOM     54  C   UNL A   1      43.219  30.527  36.823  1.00  0.00     0.029 A 
ATOM     55  N   UNL A   1      41.589  31.057  35.406  1.00  0.00    -0.354 N 
ATOM     56  N   UNL A   1      39.261  32.580  34.481  1.00  0.00    -0.248 NA
ATOM     57  C   UNL A   1      37.569  34.141  34.881  1.00  0.00     0.031 C 
ATOM     58  C   UNL A   1      42.398  31.485  37.429  1.00  0.00     0.029 A 
ATOM     59  C   UNL A   1      41.399  31.836  36.535  1.00  0.00     0.049 A 
ATOM     60  H   UNL A   1      41.022  31.083  34.600  1.00  0.00     0.167 HD
ATOM     61  C   UNL A   1      39.414  33.104  35.762  1.00  0.00     0.074 A 
ATOM     62  C   UNL A   1      38.361  34.081  35.943  1.00  0.00     0.031 C 
ATOM     63  C   UNL A   1      40.346  32.806  36.701  1.00  0.00     0.031 A 
BRANCH  50  64
ATOM     64  C   UNL A   1      44.340  28.416  34.968  1.00  0.00    -0.014 A 
ATOM     65  C   UNL A   1      45.648  28.788  34.609  1.00  0.00     0.010 A 
ATOM     66  C   UNL A   1      44.140  27.230  35.698  1.00  0.00     0.010 A 
ATOM     67  C   UNL A   1      46.730  27.967  34.940  1.00  0.00     0.020 A 
ATOM     68  C   UNL A   1      45.222  26.420  36.053  1.00  0.00     0.020 A 
ATOM     69  C   UNL A   1      46.510  26.786  35.656  1.00  0.00     0.054 A 
BRANCH  69  70
ATOM     70  S   UNL A   1      47.933  25.747  36.084  1.00  0.00     0.124 S 
ATOM     71  O   UNL A   1      47.727  25.530  37.515  1.00  0.00    -0.237 OA
ATOM     72  O   UNL A   1      47.740  24.574  35.237  1.00  0.00    -0.237 OA
ATOM     73  O   UNL A   1      49.085  26.577  35.741  1.00  0.00    -0.744 OA
ENDBRANCH  69  70
ENDBRANCH  50  64
BRANCH  51  74
ATOM     74  C   UNL A   1      36.395  33.809  32.216  1.00  0.00    -0.014 A 
ATOM     75  C   UNL A   1      36.039  34.974  32.917  1.00  0.00     0.010 A 
ATOM     76  C   UNL A   1      35.588  33.384  31.143  1.00  0.00     0.010 A 
ATOM     77  C   UNL A   1      34.891  35.691  32.563  1.00  0.00     0.020 A 
ATOM     78  C   UNL A   1      34.457  34.113  30.769  1.00  0.00     0.020 A 
ATOM     79  C   UNL A   1      34.109  35.257  31.489  1.00  0.00     0.054 A 
BRANCH  79  80
ATOM     80  S   UNL A   1      32.653  36.230  31.014  1.00  0.00     0.124 S 
ATOM     81  O   UNL A   1      32.249  35.584  29.769  1.00  0.00    -0.237 OA
ATOM     82  O   UNL A   1      31.756  36.030  32.150  1.00  0.00    -0.237 OA
ATOM     83  O   UNL A   1      33.177  37.586  30.876  1.00  0.00    -0.744 OA
ENDBRANCH  79  80
ENDBRANCH  51  74
BRANCH  63  84
ATOM     84  C   UNL A   1      40.301  33.572  37.998  1.00  0.00    -0.014 A 
ATOM     85  C   UNL A   1      39.536  33.122  39.087  1.00  0.00     0.010 A 
ATOM     86  C   UNL A   1      41.087  34.731  38.143  1.00  0.00     0.010 A 
ATOM     87  C   UNL A   1      39.535  33.834  40.291  1.00  0.00     0.020 A 
ATOM     88  C   UNL A   1      41.111  35.428  39.354  1.00  0.00     0.020 A 
ATOM     89  C   UNL A   1      40.323  34.982  40.417  1.00  0.00     0.054 A 
BRANCH  89  90
ATOM     90  S   UNL A   1      40.342  35.862  42.003  1.00  0.00     0.124 S 
ATOM     91  O   UNL A   1      38.941  36.241  42.157  1.00  0.00    -0.237 OA
ATOM     92  O   UNL A   1      40.822  34.841  42.932  1.00  0.00    -0.237 OA
ATOM     93  O   UNL A   1      41.267  36.970  41.774  1.00  0.00    -0.744 OA
ENDBRANCH  89  90
ENDBRANCH  63  84
ENDBRANCH  37  38
ENDBRANCH  30  32
ENDBRANCH  29  30
ENDBRANCH  28  29
ENDBRANCH  27  28
ENDBRANCH  26  27
ENDBRANCH  25  26
ENDBRANCH   1  25
TORSDOF 26
ENDMDL
MODEL 2
REMARK VINA RESULT:      -7.8      4.319      7.375
REMARK SMILES CCc1ccc(C(=O)NC[C@@H](CC(C)C)C(=O)OCCOCCOCCOC(=O)c2ccc(-c3c4nc(c(-c5ccc(S(=O)(=O)[O-])cc5)c5ccc([nH]5)c(-c5ccc(S(=O)(=O)[O-])cc5)c5nc(c(-c6ccc(S(=O)(=O)[O-])cc6)c6ccc3[nH]6)C=C5)C=C4)cc2)s1
REMARK SMILES IDX 22 1 21 2 20 3 19 4 18 5 16 6 17 7 11 8 10 9 9 10 7 11 8 12
REMARK SMILES IDX 6 14 3 15 4 16 90 17 5 18 2 19 1 20 12 21 13 22 14 23 15 24
REMARK SMILES IDX 23 25 24 26 25 27 26 28 27 29 28 30 29 31 30 32 31 33 89 34
REMARK SMILES IDX 32 35 88 36 33 37 34 38 35 39 82 40 36 41 87 42 81 43 83 44
REMARK SMILES IDX 37 45 86 46 80 47 79 48 38 50 68 51 49 52 67 53 50 54 53 55
REMARK SMILES IDX 66 56 84 57 51 58 52 59 65 61 85 62 54 63 39 64 40 65 48 66
REMARK SMILES IDX 41 67 47 68 42 69 43 70 44 71 45 72 46 73 69 74 70 75 78 76
REMARK SMILES IDX 71 77 77 78 72 79 73 80 74 81 75 82 76 83 55 84 56 85 64 86
REMARK SMILES IDX 57 87 63 88 58 89 59 90 60 91 61 92 62 93
REMARK H PARENT 9 13 83 49 53 60
REMARK Flexibility Score: inf
ROOT
ATOM      1  C   UNL A   1      37.937  22.789  25.786  1.00  0.00     0.188 C 
ENDROOT
BRANCH   1   2
ATOM      2  O   UNL A   1      36.899  23.723  26.052  1.00  0.00    -0.376 OA
BRANCH   2   3
ATOM      3  C   UNL A   1      35.566  23.242  26.158  1.00  0.00     0.202 C 
BRANCH   3   4
ATOM      4  C   UNL A   1      35.097  22.268  25.074  1.00  0.00     0.261 C 
BRANCH   4   5
ATOM      5  O   UNL A   1      33.870  21.564  25.389  1.00  0.00    -0.463 OA
BRANCH   5   6
ATOM      6  C   UNL A   1      33.093  21.196  24.338  1.00  0.00     0.310 C 
ATOM      7  O   UNL A   1      32.991  20.041  23.939  1.00  0.00    -0.252 OA
BRANCH   6   8
ATOM      8  C   UNL A   1      32.437  22.356  23.589  1.00  0.00     0.118 C 
BRANCH   8   9
ATOM      9  C   UNL A   1      31.128  22.940  24.150  1.00  0.00     0.131 C 
BRANCH   9  10
ATOM     10  N   UNL A   1      31.070  22.853  25.610  1.00  0.00    -0.350 N 
ATOM     11  C   UNL A   1      31.408  23.763  26.593  1.00  0.00     0.261 C 
ATOM     12  O   UNL A   1      31.488  23.303  27.734  1.00  0.00    -0.268 OA
ATOM     13  H   UNL A   1      30.728  21.995  25.951  1.00  0.00     0.163 HD
BRANCH  11  14
ATOM     14  C   UNL A   1      31.614  25.171  26.287  1.00  0.00     0.092 A 
ATOM     15  C   UNL A   1      31.379  27.432  25.241  1.00  0.00     0.005 A 
ATOM     16  C   UNL A   1      32.540  27.300  25.979  1.00  0.00     0.016 A 
ATOM     17  S   UNL A   1      30.483  25.966  25.264  1.00  0.00    -0.135 S 
ATOM     18  C   UNL A   1      32.660  26.016  26.604  1.00  0.00     0.026 A 
BRANCH  15  19
ATOM     19  C   UNL A   1      30.862  28.601  24.436  1.00  0.00     0.043 C 
ATOM     20  C   UNL A   1      31.326  29.966  24.925  1.00  0.00     0.010 C 
ENDBRANCH  15  19
ENDBRANCH  11  14
ENDBRANCH   9  10
ENDBRANCH   8   9
BRANCH   8  21
ATOM     21  C   UNL A   1      33.520  23.373  23.176  1.00  0.00     0.020 C 
BRANCH  21  22
ATOM     22  C   UNL A   1      33.148  24.858  22.967  1.00  0.00    -0.017 C 
ATOM     23  C   UNL A   1      34.250  25.856  23.314  1.00  0.00     0.007 C 
ATOM     24  C   UNL A   1      32.765  25.053  21.494  1.00  0.00     0.007 C 
ENDBRANCH  21  22
ENDBRANCH   8  21
ENDBRANCH   6   8
ENDBRANCH   5   6
ENDBRANCH   4   5
ENDBRANCH   3   4
ENDBRANCH   2   3
ENDBRANCH   1   2
BRANCH   1  25
ATOM     25  C   UNL A   1      39.233  22.909  26.602  1.00  0.00     0.188 C 
BRANCH  25  26
ATOM     26  O   UNL A   1      40.233  21.957  26.284  1.00  0.00    -0.376 OA
BRANCH  26  27
ATOM     27  C   UNL A   1      41.513  22.509  26.016  1.00  0.00     0.202 C 
BRANCH  27  28
ATOM     28  C   UNL A   1      41.532  24.031  26.187  1.00  0.00     0.261 C 
BRANCH  28  29
ATOM     29  O   UNL A   1      42.827  24.628  25.971  1.00  0.00    -0.460 OA
BRANCH  29  30
ATOM     30  C   UNL A   1      43.610  24.777  27.059  1.00  0.00     0.338 C 
ATOM     31  O   UNL A   1      44.684  24.221  27.261  1.00  0.00    -0.246 OA
BRANCH  30  32
ATOM     32  C   UNL A   1      43.058  25.860  27.896  1.00  0.00     0.060 A 
ATOM     33  C   UNL A   1      43.500  27.176  27.704  1.00  0.00     0.016 A 
ATOM     34  C   UNL A   1      42.156  25.571  28.916  1.00  0.00     0.016 A 
ATOM     35  C   UNL A   1      43.094  28.198  28.560  1.00  0.00     0.010 A 
ATOM     36  C   UNL A   1      41.742  26.597  29.774  1.00  0.00     0.010 A 
ATOM     37  C   UNL A   1      42.235  27.908  29.623  1.00  0.00    -0.014 A 
BRANCH  37  38
ATOM     38  C   UNL A   1      41.955  28.929  30.661  1.00  0.00     0.031 A 
ATOM     39  C   UNL A   1      42.819  28.969  31.892  1.00  0.00     0.074 A 
ATOM     40  C   UNL A   1      40.949  29.812  30.517  1.00  0.00     0.049 A 
ATOM     41  N   UNL A   1      42.671  29.665  32.988  1.00  0.00    -0.248 NA
ATOM     42  C   UNL A   1      44.011  28.105  31.881  1.00  0.00     0.031 C 
ATOM     43  C   UNL A   1      40.095  29.942  29.339  1.00  0.00     0.029 A 
ATOM     44  N   UNL A   1      40.468  30.758  31.389  1.00  0.00    -0.354 N 
ATOM     45  C   UNL A   1      43.736  29.309  33.807  1.00  0.00     0.074 A 
ATOM     46  C   UNL A   1      44.517  28.327  33.086  1.00  0.00     0.031 C 
ATOM     47  C   UNL A   1      39.177  30.898  29.570  1.00  0.00     0.029 A 
ATOM     48  C   UNL A   1      39.346  31.406  30.930  1.00  0.00     0.049 A 
ATOM     49  H   UNL A   1      40.887  30.953  32.259  1.00  0.00     0.167 HD
ATOM     50  C   UNL A   1      44.032  29.751  35.052  1.00  0.00     0.031 A 
ATOM     51  C   UNL A   1      38.524  32.275  31.551  1.00  0.00     0.031 A 
ATOM     52  C   UNL A   1      43.241  30.712  35.775  1.00  0.00     0.049 A 
ATOM     53  C   UNL A   1      38.808  32.671  32.977  1.00  0.00     0.074 A 
ATOM     54  C   UNL A   1      43.450  31.215  37.047  1.00  0.00     0.029 A 
ATOM     55  N   UNL A   1      42.088  31.311  35.292  1.00  0.00    -0.354 N 
ATOM     56  N   UNL A   1      39.803  32.310  33.751  1.00  0.00    -0.248 NA
ATOM     57  C   UNL A   1      37.853  33.590  33.614  1.00  0.00     0.031 C 
ATOM     58  C   UNL A   1      42.390  32.075  37.355  1.00  0.00     0.029 A 
ATOM     59  C   UNL A   1      41.557  32.157  36.250  1.00  0.00     0.049 A 
ATOM     60  H   UNL A   1      41.704  31.158  34.398  1.00  0.00     0.167 HD
ATOM     61  C   UNL A   1      39.609  32.979  34.956  1.00  0.00     0.074 A 
ATOM     62  C   UNL A   1      38.409  33.775  34.804  1.00  0.00     0.031 C 
ATOM     63  C   UNL A   1      40.360  32.943  36.085  1.00  0.00     0.031 A 
BRANCH  50  64
ATOM     64  C   UNL A   1      45.231  29.151  35.735  1.00  0.00    -0.014 A 
ATOM     65  C   UNL A   1      46.525  29.656  35.522  1.00  0.00     0.010 A 
ATOM     66  C   UNL A   1      45.052  28.076  36.626  1.00  0.00     0.010 A 
ATOM     67  C   UNL A   1      47.625  29.072  36.158  1.00  0.00     0.020 A 
ATOM     68  C   UNL A   1      46.145  27.507  37.284  1.00  0.00     0.020 A 
ATOM     69  C   UNL A   1      47.428  27.998  37.032  1.00  0.00     0.054 A 
BRANCH  69  70
ATOM     70  S   UNL A   1      48.869  27.267  37.855  1.00  0.00     0.124 S 
ATOM     71  O   UNL A   1      49.619  28.455  38.259  1.00  0.00    -0.237 OA
ATOM     72  O   UNL A   1      48.265  26.506  38.944  1.00  0.00    -0.237 OA
ATOM     73  O   UNL A   1      49.496  26.464  36.809  1.00  0.00    -0.744 OA
ENDBRANCH  69  70
ENDBRANCH  50  64
BRANCH  51  74
ATOM     74  C   UNL A   1      37.319  32.793  30.845  1.00  0.00    -0.014 A 
ATOM     75  C   UNL A   1      36.052  32.228  31.077  1.00  0.00     0.010 A 
ATOM     76  C   UNL A   1      37.436  33.855  29.928  1.00  0.00     0.010 A 
ATOM     77  C   UNL A   1      34.929  32.707  30.395  1.00  0.00     0.020 A 
ATOM     78  C   UNL A   1      36.310  34.354  29.267  1.00  0.00     0.020 A 
ATOM     79  C   UNL A   1      35.065  33.768  29.496  1.00  0.00     0.054 A 
BRANCH  79  80
ATOM     80  S   UNL A   1      33.585  34.406  28.661  1.00  0.00     0.124 S 
ATOM     81  O   UNL A   1      32.722  34.744  29.789  1.00  0.00    -0.237 OA
ATOM     82  O   UNL A   1      34.112  35.540  27.906  1.00  0.00    -0.237 OA
ATOM     83  O   UNL A   1      33.139  33.278  27.847  1.00  0.00    -0.744 OA
ENDBRANCH  79  80
ENDBRANCH  51  74
BRANCH  63  84
ATOM     84  C   UNL A   1      39.935  33.818  37.236  1.00  0.00    -0.014 A 
ATOM     85  C   UNL A   1      39.202  33.299  38.317  1.00  0.00     0.010 A 
ATOM     86  C   UNL A   1      40.330  35.168  37.260  1.00  0.00     0.010 A 
ATOM     87  C   UNL A   1      38.846  34.124  39.389  1.00  0.00     0.020 A 
ATOM     88  C   UNL A   1      40.001  35.988  38.343  1.00  0.00     0.020 A 
ATOM     89  C   UNL A   1      39.249  35.463  39.395  1.00  0.00     0.054 A 
BRANCH  89  90
ATOM     90  S   UNL A   1      38.815  36.501  40.818  1.00  0.00     0.124 S 
ATOM     91  O   UNL A   1      37.826  35.677  41.506  1.00  0.00    -0.237 OA
ATOM     92  O   UNL A   1      40.095  36.653  41.507  1.00  0.00    -0.237 OA
ATOM     93  O   UNL A   1      38.294  37.724  40.210  1.00  0.00    -0.744 OA
ENDBRANCH  89  90
ENDBRANCH  63  84
ENDBRANCH  37  38
ENDBRANCH  30  32
ENDBRANCH  29  30
ENDBRANCH  28  29
ENDBRANCH  27  28
ENDBRANCH  26  27
ENDBRANCH  25  26
ENDBRANCH   1  25
TORSDOF 26
ENDMDL
MODEL 3
REMARK VINA RESULT:      -7.5      7.786     12.791
REMARK SMILES CCc1ccc(C(=O)NC[C@@H](CC(C)C)C(=O)OCCOCCOCCOC(=O)c2ccc(-c3c4nc(c(-c5ccc(S(=O)(=O)[O-])cc5)c5ccc([nH]5)c(-c5ccc(S(=O)(=O)[O-])cc5)c5nc(c(-c6ccc(S(=O)(=O)[O-])cc6)c6ccc3[nH]6)C=C5)C=C4)cc2)s1
REMARK SMILES IDX 22 1 21 2 20 3 19 4 18 5 16 6 17 7 11 8 10 9 9 10 7 11 8 12
REMARK SMILES IDX 6 14 3 15 4 16 90 17 5 18 2 19 1 20 12 21 13 22 14 23 15 24
REMARK SMILES IDX 23 25 24 26 25 27 26 28 27 29 28 30 29 31 30 32 31 33 89 34
REMARK SMILES IDX 32 35 88 36 33 37 34 38 35 39 82 40 36 41 87 42 81 43 83 44
REMARK SMILES IDX 37 45 86 46 80 47 79 48 38 50 68 51 49 52 67 53 50 54 53 55
REMARK SMILES IDX 66 56 84 57 51 58 52 59 65 61 85 62 54 63 39 64 40 65 48 66
REMARK SMILES IDX 41 67 47 68 42 69 43 70 44 71 45 72 46 73 69 74 70 75 78 76
REMARK SMILES IDX 71 77 77 78 72 79 73 80 74 81 75 82 76 83 55 84 56 85 64 86
REMARK SMILES IDX 57 87 63 88 58 89 59 90 60 91 61 92 62 93
REMARK H PARENT 9 13 83 49 53 60
REMARK Flexibility Score: inf
ROOT
ATOM      1  C   UNL A   1      38.545  22.546  26.189  1.00  0.00     0.188 C 
ENDROOT
BRANCH   1   2
ATOM      2  O   UNL A   1      37.350  22.881  25.496  1.00  0.00    -0.376 OA
BRANCH   2   3
ATOM      3  C   UNL A   1      36.181  22.116  25.753  1.00  0.00     0.202 C 
BRANCH   3   4
ATOM      4  C   UNL A   1      34.842  22.852  25.661  1.00  0.00     0.261 C 
BRANCH   4   5
ATOM      5  O   UNL A   1      34.275  22.906  24.329  1.00  0.00    -0.463 OA
BRANCH   5   6
ATOM      6  C   UNL A   1      33.048  22.350  24.166  1.00  0.00     0.310 C 
ATOM      7  O   UNL A   1      32.679  21.335  24.746  1.00  0.00    -0.252 OA
BRANCH   6   8
ATOM      8  C   UNL A   1      32.181  23.012  23.095  1.00  0.00     0.118 C 
BRANCH   8   9
ATOM      9  C   UNL A   1      30.818  23.592  23.514  1.00  0.00     0.131 C 
BRANCH   9  10
ATOM     10  N   UNL A   1      30.640  23.578  24.966  1.00  0.00    -0.350 N 
ATOM     11  C   UNL A   1      30.968  24.506  25.936  1.00  0.00     0.261 C 
ATOM     12  O   UNL A   1      30.924  24.095  27.098  1.00  0.00    -0.268 OA
ATOM     13  H   UNL A   1      30.209  22.764  25.314  1.00  0.00     0.163 HD
BRANCH  11  14
ATOM     14  C   UNL A   1      31.302  25.880  25.591  1.00  0.00     0.092 A 
ATOM     15  C   UNL A   1      32.428  28.114  25.563  1.00  0.00     0.005 A 
ATOM     16  C   UNL A   1      31.215  28.117  24.902  1.00  0.00     0.016 A 
ATOM     17  S   UNL A   1      32.751  26.559  26.220  1.00  0.00    -0.135 S 
ATOM     18  C   UNL A   1      30.584  26.831  24.891  1.00  0.00     0.026 A 
BRANCH  15  19
ATOM     19  C   UNL A   1      33.410  29.236  25.806  1.00  0.00     0.043 C 
ATOM     20  C   UNL A   1      34.474  28.935  26.854  1.00  0.00     0.010 C 
ENDBRANCH  15  19
ENDBRANCH  11  14
ENDBRANCH   9  10
ENDBRANCH   8   9
BRANCH   8  21
ATOM     21  C   UNL A   1      33.065  23.912  22.208  1.00  0.00     0.020 C 
BRANCH  21  22
ATOM     22  C   UNL A   1      32.630  25.361  21.898  1.00  0.00    -0.017 C 
ATOM     23  C   UNL A   1      33.559  26.445  22.440  1.00  0.00     0.007 C 
ATOM     24  C   UNL A   1      32.540  25.519  20.374  1.00  0.00     0.007 C 
ENDBRANCH  21  22
ENDBRANCH   8  21
ENDBRANCH   6   8
ENDBRANCH   5   6
ENDBRANCH   4   5
ENDBRANCH   3   4
ENDBRANCH   2   3
ENDBRANCH   1   2
BRANCH   1  25
ATOM     25  C   UNL A   1      39.385  23.697  26.763  1.00  0.00     0.188 C 
BRANCH  25  26
ATOM     26  O   UNL A   1      40.393  23.307  27.679  1.00  0.00    -0.376 OA
BRANCH  26  27
ATOM     27  C   UNL A   1      41.605  22.876  27.079  1.00  0.00     0.202 C 
BRANCH  27  28
ATOM     28  C   UNL A   1      42.322  24.015  26.347  1.00  0.00     0.261 C 
BRANCH  28  29
ATOM     29  O   UNL A   1      43.505  23.600  25.634  1.00  0.00    -0.460 OA
BRANCH  29  30
ATOM     30  C   UNL A   1      44.651  23.559  26.344  1.00  0.00     0.338 C 
ATOM     31  O   UNL A   1      45.213  22.551  26.759  1.00  0.00    -0.246 OA
BRANCH  30  32
ATOM     32  C   UNL A   1      45.229  24.917  26.388  1.00  0.00     0.060 A 
ATOM     33  C   UNL A   1      45.450  25.614  25.192  1.00  0.00     0.016 A 
ATOM     34  C   UNL A   1      45.619  25.476  27.601  1.00  0.00     0.016 A 
ATOM     35  C   UNL A   1      46.109  26.842  25.193  1.00  0.00     0.010 A 
ATOM     36  C   UNL A   1      46.276  26.711  27.605  1.00  0.00     0.010 A 
ATOM     37  C   UNL A   1      46.556  27.385  26.400  1.00  0.00    -0.014 A 
BRANCH  37  38
ATOM     38  C   UNL A   1      47.434  28.580  26.405  1.00  0.00     0.031 A 
ATOM     39  C   UNL A   1      48.922  28.387  26.292  1.00  0.00     0.074 A 
ATOM     40  C   UNL A   1      46.923  29.821  26.508  1.00  0.00     0.049 A 
ATOM     41  N   UNL A   1      49.885  29.261  26.425  1.00  0.00    -0.248 NA
ATOM     42  C   UNL A   1      49.383  27.023  25.987  1.00  0.00     0.031 C 
ATOM     43  C   UNL A   1      45.500  30.154  26.534  1.00  0.00     0.029 A 
ATOM     44  N   UNL A   1      47.556  31.033  26.628  1.00  0.00    -0.354 N 
ATOM     45  C   UNL A   1      51.066  28.552  26.243  1.00  0.00     0.074 A 
ATOM     46  C   UNL A   1      50.700  27.173  25.999  1.00  0.00     0.031 C 
ATOM     47  C   UNL A   1      45.368  31.484  26.686  1.00  0.00     0.029 A 
ATOM     48  C   UNL A   1      46.693  32.085  26.822  1.00  0.00     0.049 A 
ATOM     49  H   UNL A   1      48.534  31.139  26.579  1.00  0.00     0.167 HD
ATOM     50  C   UNL A   1      52.341  29.004  26.285  1.00  0.00     0.031 A 
ATOM     51  C   UNL A   1      46.942  33.376  27.120  1.00  0.00     0.031 A 
ATOM     52  C   UNL A   1      52.703  30.372  26.547  1.00  0.00     0.049 A 
ATOM     53  C   UNL A   1      48.369  33.838  27.272  1.00  0.00     0.074 A 
ATOM     54  C   UNL A   1      53.968  30.928  26.623  1.00  0.00     0.029 A 
ATOM     55  N   UNL A   1      51.800  31.397  26.782  1.00  0.00    -0.354 N 
ATOM     56  N   UNL A   1      49.478  33.154  27.122  1.00  0.00    -0.248 NA
ATOM     57  C   UNL A   1      48.575  35.247  27.638  1.00  0.00     0.031 C 
ATOM     58  C   UNL A   1      53.829  32.279  26.962  1.00  0.00     0.029 A 
ATOM     59  C   UNL A   1      52.478  32.578  27.033  1.00  0.00     0.049 A 
ATOM     60  H   UNL A   1      50.819  31.300  26.772  1.00  0.00     0.167 HD
ATOM     61  C   UNL A   1      50.514  34.056  27.347  1.00  0.00     0.074 A 
ATOM     62  C   UNL A   1      49.899  35.336  27.632  1.00  0.00     0.031 C 
ATOM     63  C   UNL A   1      51.853  33.845  27.315  1.00  0.00     0.031 A 
BRANCH  50  64
ATOM     64  C   UNL A   1      53.442  27.995  26.101  1.00  0.00    -0.014 A 
ATOM     65  C   UNL A   1      53.981  27.291  27.192  1.00  0.00     0.010 A 
ATOM     66  C   UNL A   1      53.927  27.730  24.807  1.00  0.00     0.010 A 
ATOM     67  C   UNL A   1      55.013  26.368  26.996  1.00  0.00     0.020 A 
ATOM     68  C   UNL A   1      54.940  26.789  24.604  1.00  0.00     0.020 A 
ATOM     69  C   UNL A   1      55.489  26.126  25.704  1.00  0.00     0.054 A 
BRANCH  69  70
ATOM     70  S   UNL A   1      56.818  24.914  25.476  1.00  0.00     0.124 S 
ATOM     71  O   UNL A   1      57.410  25.352  24.214  1.00  0.00    -0.237 OA
ATOM     72  O   UNL A   1      57.645  25.119  26.662  1.00  0.00    -0.237 OA
ATOM     73  O   UNL A   1      56.117  23.634  25.422  1.00  0.00    -0.744 OA
ENDBRANCH  69  70
ENDBRANCH  50  64
BRANCH  51  74
ATOM     74  C   UNL A   1      45.811  34.318  27.348  1.00  0.00    -0.014 A 
ATOM     75  C   UNL A   1      45.282  35.076  26.288  1.00  0.00     0.010 A 
ATOM     76  C   UNL A   1      45.259  34.466  28.635  1.00  0.00     0.010 A 
ATOM     77  C   UNL A   1      44.234  35.973  26.514  1.00  0.00     0.020 A 
ATOM     78  C   UNL A   1      44.192  35.341  28.858  1.00  0.00     0.020 A 
ATOM     79  C   UNL A   1      43.694  36.098  27.797  1.00  0.00     0.054 A 
BRANCH  79  80
ATOM     80  S   UNL A   1      42.301  37.232  28.056  1.00  0.00     0.124 S 
ATOM     81  O   UNL A   1      41.260  36.328  28.537  1.00  0.00    -0.237 OA
ATOM     82  O   UNL A   1      42.833  38.166  29.044  1.00  0.00    -0.237 OA
ATOM     83  O   UNL A   1      42.072  37.802  26.730  1.00  0.00    -0.744 OA
ENDBRANCH  79  80
ENDBRANCH  51  74
BRANCH  63  84
ATOM     84  C   UNL A   1      52.753  35.030  27.554  1.00  0.00    -0.014 A 
ATOM     85  C   UNL A   1      53.148  35.873  26.502  1.00  0.00     0.010 A 
ATOM     86  C   UNL A   1      53.158  35.336  28.867  1.00  0.00     0.010 A 
ATOM     87  C   UNL A   1      53.957  36.985  26.754  1.00  0.00     0.020 A 
ATOM     88  C   UNL A   1      53.942  36.463  29.127  1.00  0.00     0.020 A 
ATOM     89  C   UNL A   1      54.349  37.273  28.065  1.00  0.00     0.054 A 
BRANCH  89  90
ATOM     90  S   UNL A   1      55.360  38.748  28.373  1.00  0.00     0.124 S 
ATOM     91  O   UNL A   1      55.216  38.919  29.815  1.00  0.00    -0.237 OA
ATOM     92  O   UNL A   1      56.684  38.330  27.917  1.00  0.00    -0.237 OA
ATOM     93  O   UNL A   1      54.724  39.780  27.556  1.00  0.00    -0.744 OA
ENDBRANCH  89  90
ENDBRANCH  63  84
ENDBRANCH  37  38
ENDBRANCH  30  32
ENDBRANCH  29  30
ENDBRANCH  28  29
ENDBRANCH  27  28
ENDBRANCH  26  27
ENDBRANCH  25  26
ENDBRANCH   1  25
TORSDOF 26
ENDMDL
