MODEL 1
REMARK VINA RESULT:      -9.4      0.000      0.000
REMARK SMILES O=C(OCCOCCOCCOC(=O)c1cccnc1C(=O)Nc1ccc([N+](=O)[O-])cc1)c1ccc(-c2c3nc(c(-c4ccc(S(=O)(=O)[O-])cc4)c4ccc([nH]4)c(-c4ccc(S(=O)(=O)[O-])cc4)c4nc(c(-c5ccc(S(=O)(=O)[O-])cc5)c5ccc2[nH]5)C=C4)C=C3)cc1
REMARK SMILES IDX 7 1 6 2 5 3 4 4 3 5 2 6 1 7 33 8 34 9 92 10 35 11 91 12
REMARK SMILES IDX 36 13 37 14 38 15 85 16 39 17 90 18 84 19 86 20 40 21 89 22
REMARK SMILES IDX 83 23 82 24 41 26 71 27 52 28 70 29 53 30 56 31 69 32 87 33
REMARK SMILES IDX 54 34 55 35 68 37 88 38 57 39 42 40 43 41 51 42 44 43 50 44
REMARK SMILES IDX 45 45 46 46 47 47 48 48 49 49 72 50 73 51 81 52 74 53 80 54
REMARK SMILES IDX 75 55 76 56 77 57 78 58 79 59 58 60 59 61 67 62 60 63 66 64
REMARK SMILES IDX 61 65 62 66 63 67 64 68 65 69 8 70 9 71 10 72 11 73 12 74
REMARK SMILES IDX 13 75 14 76 15 77 16 78 20 79 17 80 19 81 18 82 21 83 22 84
REMARK SMILES IDX 23 85 24 87 25 88 32 89 26 90 31 91 27 92 28 93 29 94 30 95
REMARK H PARENT 86 25 56 36 23 86
REMARK Flexibility Score: inf
ROOT
ATOM      1  C   UNL A   1      40.069  20.116  25.987  1.00  0.00     0.188 C 
ENDROOT
BRANCH   1   2
ATOM      2  O   UNL A   1      41.352  20.017  25.377  1.00  0.00    -0.376 OA
BRANCH   2   3
ATOM      3  C   UNL A   1      42.449  20.100  26.294  1.00  0.00     0.202 C 
BRANCH   3   4
ATOM      4  C   UNL A   1      42.940  21.541  26.524  1.00  0.00     0.261 C 
BRANCH   4   5
ATOM      5  O   UNL A   1      43.099  22.193  25.258  1.00  0.00    -0.460 OA
BRANCH   5   6
ATOM      6  C   UNL A   1      42.938  23.543  25.266  1.00  0.00     0.338 C 
ATOM      7  O   UNL A   1      41.884  24.155  25.301  1.00  0.00    -0.246 OA
BRANCH   6   8
ATOM      8  C   UNL A   1      44.281  24.153  25.143  1.00  0.00     0.060 A 
ATOM      9  C   UNL A   1      45.377  23.312  24.906  1.00  0.00     0.016 A 
ATOM     10  C   UNL A   1      44.466  25.533  25.267  1.00  0.00     0.016 A 
ATOM     11  C   UNL A   1      46.657  23.816  24.925  1.00  0.00     0.010 A 
ATOM     12  C   UNL A   1      45.766  26.050  25.292  1.00  0.00     0.010 A 
ATOM     13  C   UNL A   1      46.856  25.173  25.190  1.00  0.00    -0.014 A 
BRANCH  13  14
ATOM     14  C   UNL A   1      48.222  25.511  25.629  1.00  0.00     0.031 A 
ATOM     15  C   UNL A   1      49.123  26.167  24.618  1.00  0.00     0.074 A 
ATOM     16  C   UNL A   1      48.497  25.539  26.944  1.00  0.00     0.049 A 
ATOM     17  N   UNL A   1      50.258  26.784  24.800  1.00  0.00    -0.248 NA
ATOM     18  C   UNL A   1      48.650  26.178  23.220  1.00  0.00     0.031 C 
ATOM     19  C   UNL A   1      47.596  25.070  28.001  1.00  0.00     0.029 A 
ATOM     20  N   UNL A   1      49.568  26.057  27.618  1.00  0.00    -0.354 N 
ATOM     21  C   UNL A   1      50.624  27.270  23.549  1.00  0.00     0.074 A 
ATOM     22  C   UNL A   1      49.604  26.864  22.611  1.00  0.00     0.031 C 
ATOM     23  C   UNL A   1      48.140  25.361  29.194  1.00  0.00     0.029 A 
ATOM     24  C   UNL A   1      49.442  25.985  28.983  1.00  0.00     0.049 A 
ATOM     25  H   UNL A   1      50.354  26.444  27.167  1.00  0.00     0.167 HD
ATOM     26  C   UNL A   1      51.717  27.992  23.215  1.00  0.00     0.031 A 
ATOM     27  C   UNL A   1      50.299  26.365  29.950  1.00  0.00     0.031 A 
ATOM     28  C   UNL A   1      52.744  28.341  24.154  1.00  0.00     0.049 A 
ATOM     29  C   UNL A   1      51.583  27.032  29.536  1.00  0.00     0.074 A 
ATOM     30  C   UNL A   1      53.965  28.941  23.921  1.00  0.00     0.029 A 
ATOM     31  N   UNL A   1      52.660  28.108  25.520  1.00  0.00    -0.354 N 
ATOM     32  N   UNL A   1      51.968  27.397  28.334  1.00  0.00    -0.248 NA
ATOM     33  C   UNL A   1      52.549  27.331  30.598  1.00  0.00     0.031 C 
ATOM     34  C   UNL A   1      54.641  29.031  25.143  1.00  0.00     0.029 A 
ATOM     35  C   UNL A   1      53.815  28.538  26.143  1.00  0.00     0.049 A 
ATOM     36  H   UNL A   1      51.891  27.698  25.977  1.00  0.00     0.167 HD
ATOM     37  C   UNL A   1      53.223  27.970  28.496  1.00  0.00     0.074 A 
ATOM     38  C   UNL A   1      53.513  27.934  29.916  1.00  0.00     0.031 C 
ATOM     39  C   UNL A   1      54.068  28.471  27.561  1.00  0.00     0.031 A 
BRANCH  26  40
ATOM     40  C   UNL A   1      51.877  28.363  21.767  1.00  0.00    -0.014 A 
ATOM     41  C   UNL A   1      52.433  27.463  20.838  1.00  0.00     0.010 A 
ATOM     42  C   UNL A   1      51.488  29.642  21.333  1.00  0.00     0.010 A 
ATOM     43  C   UNL A   1      52.624  27.850  19.508  1.00  0.00     0.020 A 
ATOM     44  C   UNL A   1      51.659  30.025  20.000  1.00  0.00     0.020 A 
ATOM     45  C   UNL A   1      52.241  29.132  19.098  1.00  0.00     0.054 A 
BRANCH  45  46
ATOM     46  S   UNL A   1      52.497  29.610  17.367  1.00  0.00     0.124 S 
ATOM     47  O   UNL A   1      53.913  29.308  17.177  1.00  0.00    -0.237 OA
ATOM     48  O   UNL A   1      51.568  28.738  16.653  1.00  0.00    -0.237 OA
ATOM     49  O   UNL A   1      52.154  31.030  17.345  1.00  0.00    -0.744 OA
ENDBRANCH  45  46
ENDBRANCH  26  40
BRANCH  27  50
ATOM     50  C   UNL A   1      50.011  26.033  31.373  1.00  0.00    -0.014 A 
ATOM     51  C   UNL A   1      50.360  24.794  31.936  1.00  0.00     0.010 A 
ATOM     52  C   UNL A   1      49.349  26.983  32.176  1.00  0.00     0.010 A 
ATOM     53  C   UNL A   1      50.033  24.506  33.267  1.00  0.00     0.020 A 
ATOM     54  C   UNL A   1      49.050  26.711  33.511  1.00  0.00     0.020 A 
ATOM     55  C   UNL A   1      49.378  25.466  34.043  1.00  0.00     0.054 A 
BRANCH  55  56
ATOM     56  S   UNL A   1      48.987  25.096  35.776  1.00  0.00     0.124 S 
ATOM     57  O   UNL A   1      47.535  25.243  35.795  1.00  0.00    -0.237 OA
ATOM     58  O   UNL A   1      49.492  23.735  35.932  1.00  0.00    -0.237 OA
ATOM     59  O   UNL A   1      49.732  26.116  36.511  1.00  0.00    -0.744 OA
ENDBRANCH  55  56
ENDBRANCH  27  50
BRANCH  39  60
ATOM     60  C   UNL A   1      55.375  29.023  28.055  1.00  0.00    -0.014 A 
ATOM     61  C   UNL A   1      55.540  30.402  28.270  1.00  0.00     0.010 A 
ATOM     62  C   UNL A   1      56.431  28.144  28.348  1.00  0.00     0.010 A 
ATOM     63  C   UNL A   1      56.758  30.898  28.733  1.00  0.00     0.020 A 
ATOM     64  C   UNL A   1      57.642  28.634  28.838  1.00  0.00     0.020 A 
ATOM     65  C   UNL A   1      57.803  30.011  29.010  1.00  0.00     0.054 A 
BRANCH  65  66
ATOM     66  S   UNL A   1      59.369  30.675  29.638  1.00  0.00     0.124 S 
ATOM     67  O   UNL A   1      58.992  31.121  30.977  1.00  0.00    -0.237 OA
ATOM     68  O   UNL A   1      60.255  29.515  29.586  1.00  0.00    -0.237 OA
ATOM     69  O   UNL A   1      59.694  31.741  28.693  1.00  0.00    -0.744 OA
ENDBRANCH  65  66
ENDBRANCH  39  60
ENDBRANCH  13  14
ENDBRANCH   6   8
ENDBRANCH   5   6
ENDBRANCH   4   5
ENDBRANCH   3   4
ENDBRANCH   2   3
ENDBRANCH   1   2
BRANCH   1  70
ATOM     70  C   UNL A   1      39.455  21.514  25.917  1.00  0.00     0.188 C 
BRANCH  70  71
ATOM     71  O   UNL A   1      38.219  21.548  25.218  1.00  0.00    -0.376 OA
BRANCH  71  72
ATOM     72  C   UNL A   1      37.199  22.320  25.862  1.00  0.00     0.202 C 
BRANCH  72  73
ATOM     73  C   UNL A   1      37.166  23.804  25.463  1.00  0.00     0.261 C 
BRANCH  73  74
ATOM     74  O   UNL A   1      35.664  24.564  25.161  1.00  0.00    -0.460 OA
BRANCH  74  75
ATOM     75  C   UNL A   1      34.182  25.691  25.233  1.00  0.00     0.340 C 
ATOM     76  O   UNL A   1      34.144  26.792  25.833  1.00  0.00    -0.246 OA
BRANCH  75  77
ATOM     77  C   UNL A   1      32.718  25.406  24.723  1.00  0.00     0.091 A 
ATOM     78  C   UNL A   1      31.719  25.735  25.668  1.00  0.00     0.020 A 
ATOM     79  C   UNL A   1      32.260  24.965  23.466  1.00  0.00     0.142 A 
ATOM     80  C   UNL A   1      30.366  25.582  25.375  1.00  0.00     0.021 A 
ATOM     81  N   UNL A   1      30.929  24.793  23.184  1.00  0.00    -0.250 NA
ATOM     82  C   UNL A   1      30.022  25.099  24.132  1.00  0.00     0.112 A 
BRANCH  79  83
ATOM     83  C   UNL A   1      33.112  24.651  22.254  1.00  0.00     0.275 C 
ATOM     84  O   UNL A   1      33.534  25.534  21.508  1.00  0.00    -0.267 OA
ATOM     85  N   UNL A   1      33.496  23.359  22.006  1.00  0.00    -0.321 N 
ATOM     86  H   UNL A   1      34.059  23.158  21.224  1.00  0.00     0.170 HD
BRANCH  85  87
ATOM     87  C   UNL A   1      33.097  22.341  22.843  1.00  0.00     0.042 A 
ATOM     88  C   UNL A   1      32.002  21.107  22.075  1.00  0.00     0.033 A 
ATOM     89  C   UNL A   1      34.160  21.902  24.270  1.00  0.00     0.033 A 
ATOM     90  C   UNL A   1      31.942  19.416  22.743  1.00  0.00     0.088 A 
ATOM     91  C   UNL A   1      34.168  20.184  24.872  1.00  0.00     0.088 A 
ATOM     92  C   UNL A   1      33.068  18.957  24.105  1.00  0.00     0.269 A 
BRANCH  92  93
ATOM     93  N   UNL A   1      32.966  17.636  24.673  1.00  0.00     0.062 N 
ATOM     94  O   UNL A   1      33.595  16.731  24.110  1.00  0.00    -0.258 OA
ATOM     95  O   UNL A   1      32.197  17.493  25.630  1.00  0.00    -0.258 OA
ENDBRANCH  92  93
ENDBRANCH  85  87
ENDBRANCH  79  83
ENDBRANCH  75  77
ENDBRANCH  74  75
ENDBRANCH  73  74
ENDBRANCH  72  73
ENDBRANCH  71  72
ENDBRANCH  70  71
ENDBRANCH   1  70
TORSDOF 23
ENDMDL
MODEL 2
REMARK VINA RESULT:      -9.3      9.002     12.556
REMARK SMILES O=C(OCCOCCOCCOC(=O)c1cccnc1C(=O)Nc1ccc([N+](=O)[O-])cc1)c1ccc(-c2c3nc(c(-c4ccc(S(=O)(=O)[O-])cc4)c4ccc([nH]4)c(-c4ccc(S(=O)(=O)[O-])cc4)c4nc(c(-c5ccc(S(=O)(=O)[O-])cc5)c5ccc2[nH]5)C=C4)C=C3)cc1
REMARK SMILES IDX 7 1 6 2 5 3 4 4 3 5 2 6 1 7 33 8 34 9 92 10 35 11 91 12
REMARK SMILES IDX 36 13 37 14 38 15 85 16 39 17 90 18 84 19 86 20 40 21 89 22
REMARK SMILES IDX 83 23 82 24 41 26 71 27 52 28 70 29 53 30 56 31 69 32 87 33
REMARK SMILES IDX 54 34 55 35 68 37 88 38 57 39 42 40 43 41 51 42 44 43 50 44
REMARK SMILES IDX 45 45 46 46 47 47 48 48 49 49 72 50 73 51 81 52 74 53 80 54
REMARK SMILES IDX 75 55 76 56 77 57 78 58 79 59 58 60 59 61 67 62 60 63 66 64
REMARK SMILES IDX 61 65 62 66 63 67 64 68 65 69 8 70 9 71 10 72 11 73 12 74
REMARK SMILES IDX 13 75 14 76 15 77 16 78 20 79 17 80 19 81 18 82 21 83 22 84
REMARK SMILES IDX 23 85 24 87 25 88 32 89 26 90 31 91 27 92 28 93 29 94 30 95
REMARK H PARENT 86 25 56 36 23 86
REMARK Flexibility Score: inf
ROOT
ATOM      1  C   UNL A   1      40.601  21.921  27.186  1.00  0.00     0.188 C 
ENDROOT
BRANCH   1   2
ATOM      2  O   UNL A   1      41.230  22.698  28.201  1.00  0.00    -0.376 OA
BRANCH   2   3
ATOM      3  C   UNL A   1      42.083  23.737  27.704  1.00  0.00     0.202 C 
BRANCH   3   4
ATOM      4  C   UNL A   1      43.493  23.708  28.319  1.00  0.00     0.261 C 
BRANCH   4   5
ATOM      5  O   UNL A   1      43.768  24.975  28.929  1.00  0.00    -0.460 OA
BRANCH   5   6
ATOM      6  C   UNL A   1      43.965  26.011  28.071  1.00  0.00     0.338 C 
ATOM      7  O   UNL A   1      44.386  25.945  26.928  1.00  0.00    -0.246 OA
BRANCH   6   8
ATOM      8  C   UNL A   1      43.650  27.260  28.799  1.00  0.00     0.060 A 
ATOM      9  C   UNL A   1      42.753  28.165  28.216  1.00  0.00     0.016 A 
ATOM     10  C   UNL A   1      44.233  27.546  30.037  1.00  0.00     0.016 A 
ATOM     11  C   UNL A   1      42.538  29.398  28.787  1.00  0.00     0.010 A 
ATOM     12  C   UNL A   1      44.023  28.801  30.619  1.00  0.00     0.010 A 
ATOM     13  C   UNL A   1      43.228  29.744  29.950  1.00  0.00    -0.014 A 
BRANCH  13  14
ATOM     14  C   UNL A   1      43.282  31.193  30.216  1.00  0.00     0.031 A 
ATOM     15  C   UNL A   1      42.504  31.701  31.400  1.00  0.00     0.074 A 
ATOM     16  C   UNL A   1      44.244  31.929  29.635  1.00  0.00     0.049 A 
ATOM     17  N   UNL A   1      42.573  32.857  32.000  1.00  0.00    -0.248 NA
ATOM     18  C   UNL A   1      41.563  30.753  32.028  1.00  0.00     0.031 C 
ATOM     19  C   UNL A   1      45.152  31.449  28.588  1.00  0.00     0.029 A 
ATOM     20  N   UNL A   1      44.675  33.199  29.899  1.00  0.00    -0.354 N 
ATOM     21  C   UNL A   1      41.702  32.770  33.080  1.00  0.00     0.074 A 
ATOM     22  C   UNL A   1      41.102  31.458  33.049  1.00  0.00     0.031 C 
ATOM     23  C   UNL A   1      46.060  32.406  28.331  1.00  0.00     0.029 A 
ATOM     24  C   UNL A   1      45.763  33.575  29.152  1.00  0.00     0.049 A 
ATOM     25  H   UNL A   1      44.245  33.788  30.561  1.00  0.00     0.167 HD
ATOM     26  C   UNL A   1      41.429  33.706  34.017  1.00  0.00     0.031 A 
ATOM     27  C   UNL A   1      46.429  34.745  29.125  1.00  0.00     0.031 A 
ATOM     28  C   UNL A   1      41.999  35.023  34.000  1.00  0.00     0.049 A 
ATOM     29  C   UNL A   1      46.000  35.826  30.079  1.00  0.00     0.074 A 
ATOM     30  C   UNL A   1      41.701  36.108  34.800  1.00  0.00     0.029 A 
ATOM     31  N   UNL A   1      42.993  35.428  33.120  1.00  0.00    -0.354 N 
ATOM     32  N   UNL A   1      45.100  35.768  31.035  1.00  0.00    -0.248 NA
ATOM     33  C   UNL A   1      46.664  37.128  29.951  1.00  0.00     0.031 C 
ATOM     34  C   UNL A   1      42.485  37.186  34.373  1.00  0.00     0.029 A 
ATOM     35  C   UNL A   1      43.310  36.754  33.345  1.00  0.00     0.049 A 
ATOM     36  H   UNL A   1      43.411  34.856  32.436  1.00  0.00     0.167 HD
ATOM     37  C   UNL A   1      45.090  37.026  31.623  1.00  0.00     0.074 A 
ATOM     38  C   UNL A   1      46.099  37.811  30.937  1.00  0.00     0.031 C 
ATOM     39  C   UNL A   1      44.314  37.500  32.629  1.00  0.00     0.031 A 
BRANCH  26  40
ATOM     40  C   UNL A   1      40.414  33.350  35.067  1.00  0.00    -0.014 A 
ATOM     41  C   UNL A   1      39.041  33.582  34.866  1.00  0.00     0.010 A 
ATOM     42  C   UNL A   1      40.844  32.796  36.285  1.00  0.00     0.010 A 
ATOM     43  C   UNL A   1      38.120  33.294  35.879  1.00  0.00     0.020 A 
ATOM     44  C   UNL A   1      39.925  32.489  37.293  1.00  0.00     0.020 A 
ATOM     45  C   UNL A   1      38.569  32.755  37.089  1.00  0.00     0.054 A 
BRANCH  45  46
ATOM     46  S   UNL A   1      37.357  32.387  38.387  1.00  0.00     0.124 S 
ATOM     47  O   UNL A   1      36.171  33.088  37.900  1.00  0.00    -0.237 OA
ATOM     48  O   UNL A   1      37.282  30.929  38.353  1.00  0.00    -0.237 OA
ATOM     49  O   UNL A   1      37.959  32.948  39.594  1.00  0.00    -0.744 OA
ENDBRANCH  45  46
ENDBRANCH  26  40
BRANCH  27  50
ATOM     50  C   UNL A   1      47.488  34.976  28.103  1.00  0.00    -0.014 A 
ATOM     51  C   UNL A   1      48.855  34.886  28.411  1.00  0.00     0.010 A 
ATOM     52  C   UNL A   1      47.107  35.318  26.790  1.00  0.00     0.010 A 
ATOM     53  C   UNL A   1      49.820  35.153  27.431  1.00  0.00     0.020 A 
ATOM     54  C   UNL A   1      48.064  35.554  25.803  1.00  0.00     0.020 A 
ATOM     55  C   UNL A   1      49.417  35.488  26.135  1.00  0.00     0.054 A 
BRANCH  55  56
ATOM     56  S   UNL A   1      50.672  35.801  24.863  1.00  0.00     0.124 S 
ATOM     57  O   UNL A   1      49.956  36.678  23.943  1.00  0.00    -0.237 OA
ATOM     58  O   UNL A   1      51.750  36.421  25.627  1.00  0.00    -0.237 OA
ATOM     59  O   UNL A   1      50.971  34.463  24.354  1.00  0.00    -0.744 OA
ENDBRANCH  55  56
ENDBRANCH  27  50
BRANCH  39  60
ATOM     60  C   UNL A   1      44.538  38.927  33.043  1.00  0.00    -0.014 A 
ATOM     61  C   UNL A   1      43.789  39.970  32.471  1.00  0.00     0.010 A 
ATOM     62  C   UNL A   1      45.478  39.217  34.046  1.00  0.00     0.010 A 
ATOM     63  C   UNL A   1      44.006  41.288  32.870  1.00  0.00     0.020 A 
ATOM     64  C   UNL A   1      45.678  40.533  34.466  1.00  0.00     0.020 A 
ATOM     65  C   UNL A   1      44.953  41.562  33.862  1.00  0.00     0.054 A 
BRANCH  65  66
ATOM     66  S   UNL A   1      45.199  43.281  34.384  1.00  0.00     0.124 S 
ATOM     67  O   UNL A   1      43.888  43.620  34.931  1.00  0.00    -0.237 OA
ATOM     68  O   UNL A   1      46.280  43.169  35.360  1.00  0.00    -0.237 OA
ATOM     69  O   UNL A   1      45.557  43.969  33.145  1.00  0.00    -0.744 OA
ENDBRANCH  65  66
ENDBRANCH  39  60
ENDBRANCH  13  14
ENDBRANCH   6   8
ENDBRANCH   5   6
ENDBRANCH   4   5
ENDBRANCH   3   4
ENDBRANCH   2   3
ENDBRANCH   1   2
BRANCH   1  70
ATOM     70  C   UNL A   1      39.466  22.646  26.465  1.00  0.00     0.188 C 
BRANCH  70  71
ATOM     71  O   UNL A   1      38.607  21.770  25.749  1.00  0.00    -0.376 OA
BRANCH  71  72
ATOM     72  C   UNL A   1      37.260  22.238  25.623  1.00  0.00     0.202 C 
BRANCH  72  73
ATOM     73  C   UNL A   1      37.104  23.767  25.651  1.00  0.00     0.261 C 
BRANCH  73  74
ATOM     74  O   UNL A   1      35.550  24.461  25.482  1.00  0.00    -0.460 OA
BRANCH  74  75
ATOM     75  C   UNL A   1      34.124  25.656  25.397  1.00  0.00     0.340 C 
ATOM     76  O   UNL A   1      34.108  26.796  25.920  1.00  0.00    -0.246 OA
BRANCH  75  77
ATOM     77  C   UNL A   1      32.677  25.404  24.824  1.00  0.00     0.091 A 
ATOM     78  C   UNL A   1      31.647  25.708  25.743  1.00  0.00     0.020 A 
ATOM     79  C   UNL A   1      32.261  25.014  23.536  1.00  0.00     0.142 A 
ATOM     80  C   UNL A   1      30.304  25.579  25.397  1.00  0.00     0.021 A 
ATOM     81  N   UNL A   1      30.940  24.865  23.200  1.00  0.00    -0.250 NA
ATOM     82  C   UNL A   1      30.002  25.145  24.126  1.00  0.00     0.112 A 
BRANCH  79  83
ATOM     83  C   UNL A   1      33.154  24.735  22.345  1.00  0.00     0.275 C 
ATOM     84  O   UNL A   1      33.609  25.640  21.646  1.00  0.00    -0.267 OA
ATOM     85  N   UNL A   1      33.537  23.449  22.065  1.00  0.00    -0.321 N 
ATOM     86  H   UNL A   1      34.127  23.271  21.297  1.00  0.00     0.170 HD
BRANCH  85  87
ATOM     87  C   UNL A   1      33.102  22.406  22.850  1.00  0.00     0.042 A 
ATOM     88  C   UNL A   1      32.033  21.204  21.998  1.00  0.00     0.033 A 
ATOM     89  C   UNL A   1      34.105  21.914  24.303  1.00  0.00     0.033 A 
ATOM     90  C   UNL A   1      31.941  19.492  22.606  1.00  0.00     0.088 A 
ATOM     91  C   UNL A   1      34.083  20.176  24.846  1.00  0.00     0.088 A 
ATOM     92  C   UNL A   1      33.010  18.982  23.995  1.00  0.00     0.269 A 
BRANCH  92  93
ATOM     93  N   UNL A   1      32.880  17.643  24.514  1.00  0.00     0.062 N 
ATOM     94  O   UNL A   1      33.654  16.788  24.065  1.00  0.00    -0.258 OA
ATOM     95  O   UNL A   1      31.956  17.435  25.308  1.00  0.00    -0.258 OA
ENDBRANCH  92  93
ENDBRANCH  85  87
ENDBRANCH  79  83
ENDBRANCH  75  77
ENDBRANCH  74  75
ENDBRANCH  73  74
ENDBRANCH  72  73
ENDBRANCH  71  72
ENDBRANCH  70  71
ENDBRANCH   1  70
TORSDOF 23
ENDMDL
MODEL 3
REMARK VINA RESULT:      -8.9      8.155     15.177
REMARK SMILES O=C(OCCOCCOCCOC(=O)c1cccnc1C(=O)Nc1ccc([N+](=O)[O-])cc1)c1ccc(-c2c3nc(c(-c4ccc(S(=O)(=O)[O-])cc4)c4ccc([nH]4)c(-c4ccc(S(=O)(=O)[O-])cc4)c4nc(c(-c5ccc(S(=O)(=O)[O-])cc5)c5ccc2[nH]5)C=C4)C=C3)cc1
REMARK SMILES IDX 7 1 6 2 5 3 4 4 3 5 2 6 1 7 33 8 34 9 92 10 35 11 91 12
REMARK SMILES IDX 36 13 37 14 38 15 85 16 39 17 90 18 84 19 86 20 40 21 89 22
REMARK SMILES IDX 83 23 82 24 41 26 71 27 52 28 70 29 53 30 56 31 69 32 87 33
REMARK SMILES IDX 54 34 55 35 68 37 88 38 57 39 42 40 43 41 51 42 44 43 50 44
REMARK SMILES IDX 45 45 46 46 47 47 48 48 49 49 72 50 73 51 81 52 74 53 80 54
REMARK SMILES IDX 75 55 76 56 77 57 78 58 79 59 58 60 59 61 67 62 60 63 66 64
REMARK SMILES IDX 61 65 62 66 63 67 64 68 65 69 8 70 9 71 10 72 11 73 12 74
REMARK SMILES IDX 13 75 14 76 15 77 16 78 20 79 17 80 19 81 18 82 21 83 22 84
REMARK SMILES IDX 23 85 24 87 25 88 32 89 26 90 31 91 27 92 28 93 29 94 30 95
REMARK H PARENT 86 25 56 36 23 86
REMARK Flexibility Score: inf
ROOT
ATOM      1  C   UNL A   1      44.812  21.580  25.049  1.00  0.00     0.188 C 
ENDROOT
BRANCH   1   2
ATOM      2  O   UNL A   1      43.499  21.030  25.038  1.00  0.00    -0.376 OA
BRANCH   2   3
ATOM      3  C   UNL A   1      42.549  21.757  25.826  1.00  0.00     0.202 C 
BRANCH   3   4
ATOM      4  C   UNL A   1      42.958  23.220  26.072  1.00  0.00     0.261 C 
BRANCH   4   5
ATOM      5  O   UNL A   1      41.801  24.059  25.962  1.00  0.00    -0.460 OA
BRANCH   5   6
ATOM      6  C   UNL A   1      42.041  25.351  25.614  1.00  0.00     0.338 C 
ATOM      7  O   UNL A   1      42.741  25.744  24.696  1.00  0.00    -0.246 OA
BRANCH   6   8
ATOM      8  C   UNL A   1      41.360  26.214  26.605  1.00  0.00     0.060 A 
ATOM      9  C   UNL A   1      41.770  27.548  26.721  1.00  0.00     0.016 A 
ATOM     10  C   UNL A   1      40.335  25.718  27.416  1.00  0.00     0.016 A 
ATOM     11  C   UNL A   1      41.264  28.347  27.721  1.00  0.00     0.010 A 
ATOM     12  C   UNL A   1      39.821  26.525  28.438  1.00  0.00     0.010 A 
ATOM     13  C   UNL A   1      40.343  27.814  28.625  1.00  0.00    -0.014 A 
BRANCH  13  14
ATOM     14  C   UNL A   1      40.216  28.573  29.882  1.00  0.00     0.031 A 
ATOM     15  C   UNL A   1      41.329  28.425  30.884  1.00  0.00     0.074 A 
ATOM     16  C   UNL A   1      39.334  29.584  29.949  1.00  0.00     0.049 A 
ATOM     17  N   UNL A   1      41.595  29.149  31.936  1.00  0.00    -0.248 NA
ATOM     18  C   UNL A   1      42.307  27.349  30.632  1.00  0.00     0.031 C 
ATOM     19  C   UNL A   1      38.327  29.890  28.928  1.00  0.00     0.029 A 
ATOM     20  N   UNL A   1      39.199  30.586  30.869  1.00  0.00    -0.354 N 
ATOM     21  C   UNL A   1      42.775  28.630  32.459  1.00  0.00     0.074 A 
ATOM     22  C   UNL A   1      43.168  27.521  31.623  1.00  0.00     0.031 C 
ATOM     23  C   UNL A   1      37.706  31.033  29.262  1.00  0.00     0.029 A 
ATOM     24  C   UNL A   1      38.232  31.504  30.539  1.00  0.00     0.049 A 
ATOM     25  H   UNL A   1      39.742  30.644  31.688  1.00  0.00     0.167 HD
ATOM     26  C   UNL A   1      43.468  29.046  33.542  1.00  0.00     0.031 A 
ATOM     27  C   UNL A   1      37.810  32.592  31.212  1.00  0.00     0.031 A 
ATOM     28  C   UNL A   1      43.032  30.120  34.388  1.00  0.00     0.049 A 
ATOM     29  C   UNL A   1      38.506  32.942  32.499  1.00  0.00     0.074 A 
ATOM     30  C   UNL A   1      43.560  30.547  35.590  1.00  0.00     0.029 A 
ATOM     31  N   UNL A   1      41.944  30.936  34.110  1.00  0.00    -0.354 N 
ATOM     32  N   UNL A   1      39.563  32.381  33.040  1.00  0.00    -0.248 NA
ATOM     33  C   UNL A   1      37.954  34.062  33.269  1.00  0.00     0.031 C 
ATOM     34  C   UNL A   1      42.763  31.595  36.063  1.00  0.00     0.029 A 
ATOM     35  C   UNL A   1      41.774  31.857  35.126  1.00  0.00     0.049 A 
ATOM     36  H   UNL A   1      41.378  30.870  33.307  1.00  0.00     0.167 HD
ATOM     37  C   UNL A   1      39.803  33.080  34.216  1.00  0.00     0.074 A 
ATOM     38  C   UNL A   1      38.802  34.127  34.286  1.00  0.00     0.031 C 
ATOM     39  C   UNL A   1      40.754  32.874  35.161  1.00  0.00     0.031 A 
BRANCH  26  40
ATOM     40  C   UNL A   1      44.709  28.276  33.899  1.00  0.00    -0.014 A 
ATOM     41  C   UNL A   1      44.659  27.174  34.774  1.00  0.00     0.010 A 
ATOM     42  C   UNL A   1      45.948  28.676  33.371  1.00  0.00     0.010 A 
ATOM     43  C   UNL A   1      45.835  26.507  35.135  1.00  0.00     0.020 A 
ATOM     44  C   UNL A   1      47.122  28.000  33.715  1.00  0.00     0.020 A 
ATOM     45  C   UNL A   1      47.059  26.928  34.609  1.00  0.00     0.054 A 
BRANCH  45  46
ATOM     46  S   UNL A   1      48.570  26.046  35.091  1.00  0.00     0.124 S 
ATOM     47  O   UNL A   1      48.188  25.478  36.382  1.00  0.00    -0.237 OA
ATOM     48  O   UNL A   1      48.738  25.082  34.006  1.00  0.00    -0.237 OA
ATOM     49  O   UNL A   1      49.583  27.097  35.148  1.00  0.00    -0.744 OA
ENDBRANCH  45  46
ENDBRANCH  26  40
BRANCH  27  50
ATOM     50  C   UNL A   1      36.623  33.351  30.730  1.00  0.00    -0.014 A 
ATOM     51  C   UNL A   1      35.381  33.288  31.384  1.00  0.00     0.010 A 
ATOM     52  C   UNL A   1      36.741  34.140  29.569  1.00  0.00     0.010 A 
ATOM     53  C   UNL A   1      34.278  33.984  30.875  1.00  0.00     0.020 A 
ATOM     54  C   UNL A   1      35.652  34.860  29.075  1.00  0.00     0.020 A 
ATOM     55  C   UNL A   1      34.421  34.762  29.722  1.00  0.00     0.054 A 
BRANCH  55  56
ATOM     56  S   UNL A   1      32.995  35.686  29.086  1.00  0.00     0.124 S 
ATOM     57  O   UNL A   1      32.298  36.049  30.315  1.00  0.00    -0.237 OA
ATOM     58  O   UNL A   1      33.627  36.786  28.362  1.00  0.00    -0.237 OA
ATOM     59  O   UNL A   1      32.313  34.707  28.242  1.00  0.00    -0.744 OA
ENDBRANCH  55  56
ENDBRANCH  27  50
BRANCH  39  60
ATOM     60  C   UNL A   1      40.751  33.807  36.339  1.00  0.00    -0.014 A 
ATOM     61  C   UNL A   1      40.072  33.470  37.523  1.00  0.00     0.010 A 
ATOM     62  C   UNL A   1      41.472  35.011  36.271  1.00  0.00     0.010 A 
ATOM     63  C   UNL A   1      40.082  34.345  38.609  1.00  0.00     0.020 A 
ATOM     64  C   UNL A   1      41.507  35.875  37.366  1.00  0.00     0.020 A 
ATOM     65  C   UNL A   1      40.796  35.544  38.522  1.00  0.00     0.054 A 
BRANCH  65  66
ATOM     66  S   UNL A   1      40.819  36.653  39.956  1.00  0.00     0.124 S 
ATOM     67  O   UNL A   1      42.164  36.439  40.482  1.00  0.00    -0.237 OA
ATOM     68  O   UNL A   1      40.577  37.963  39.355  1.00  0.00    -0.237 OA
ATOM     69  O   UNL A   1      39.733  36.152  40.796  1.00  0.00    -0.744 OA
ENDBRANCH  65  66
ENDBRANCH  39  60
ENDBRANCH  13  14
ENDBRANCH   6   8
ENDBRANCH   5   6
ENDBRANCH   4   5
ENDBRANCH   3   4
ENDBRANCH   2   3
ENDBRANCH   1   2
BRANCH   1  70
ATOM     70  C   UNL A   1      45.141  22.424  23.819  1.00  0.00     0.188 C 
BRANCH  70  71
ATOM     71  O   UNL A   1      45.902  23.584  24.122  1.00  0.00    -0.376 OA
BRANCH  71  72
ATOM     72  C   UNL A   1      46.498  23.574  25.424  1.00  0.00     0.202 C 
BRANCH  72  73
ATOM     73  C   UNL A   1      47.257  24.859  25.794  1.00  0.00     0.261 C 
BRANCH  73  74
ATOM     74  O   UNL A   1      46.726  25.800  27.120  1.00  0.00    -0.460 OA
BRANCH  74  75
ATOM     75  C   UNL A   1      46.138  27.201  28.199  1.00  0.00     0.340 C 
ATOM     76  O   UNL A   1      44.983  27.303  28.678  1.00  0.00    -0.246 OA
BRANCH  75  77
ATOM     77  C   UNL A   1      46.893  28.538  28.553  1.00  0.00     0.091 A 
ATOM     78  C   UNL A   1      47.344  28.591  29.892  1.00  0.00     0.020 A 
ATOM     79  C   UNL A   1      47.253  29.627  27.736  1.00  0.00     0.142 A 
ATOM     80  C   UNL A   1      48.062  29.684  30.373  1.00  0.00     0.021 A 
ATOM     81  N   UNL A   1      47.940  30.713  28.213  1.00  0.00    -0.250 NA
ATOM     82  C   UNL A   1      48.323  30.720  29.504  1.00  0.00     0.112 A 
BRANCH  79  83
ATOM     83  C   UNL A   1      46.988  29.768  26.251  1.00  0.00     0.275 C 
ATOM     84  O   UNL A   1      47.585  29.090  25.415  1.00  0.00    -0.267 OA
ATOM     85  N   UNL A   1      46.005  30.616  25.811  1.00  0.00    -0.321 N 
ATOM     86  H   UNL A   1      45.826  30.697  24.847  1.00  0.00     0.170 HD
BRANCH  85  87
ATOM     87  C   UNL A   1      45.269  31.354  26.709  1.00  0.00     0.042 A 
ATOM     88  C   UNL A   1      43.928  30.437  27.531  1.00  0.00     0.033 A 
ATOM     89  C   UNL A   1      46.048  32.807  27.510  1.00  0.00     0.033 A 
ATOM     90  C   UNL A   1      43.335  30.980  29.164  1.00  0.00     0.088 A 
ATOM     91  C   UNL A   1      45.517  33.285  29.185  1.00  0.00     0.088 A 
ATOM     92  C   UNL A   1      44.175  32.370  29.998  1.00  0.00     0.269 A 
BRANCH  92  93
ATOM     93  N   UNL A   1      43.655  32.837  31.259  1.00  0.00     0.062 N 
ATOM     94  O   UNL A   1      44.416  33.508  31.968  1.00  0.00    -0.258 OA
ATOM     95  O   UNL A   1      42.518  32.466  31.571  1.00  0.00    -0.258 OA
ENDBRANCH  92  93
ENDBRANCH  85  87
ENDBRANCH  79  83
ENDBRANCH  75  77
ENDBRANCH  74  75
ENDBRANCH  73  74
ENDBRANCH  72  73
ENDBRANCH  71  72
ENDBRANCH  70  71
ENDBRANCH   1  70
TORSDOF 23
ENDMDL
