MODEL 1
REMARK VINA RESULT:      -7.0      0.000      0.000
REMARK SMILES Nc1c(N2CCCC2)ncnc1N1CCC(C(=O)OCCOCCOCCOC(=O)c2ccc(-c3c4nc(c(-c5ccc(S(=O)(=O)[O-])cc5)c5ccc([nH]5)c(-c5ccc(S(=O)(=O)[O-])cc5)c5nc(c(-c6ccc(S(=O)(=O)[O-])cc6)c6ccc3[nH]6)C=C5)C=C4)cc2)CC1
REMARK SMILES IDX 24 1 23 2 22 3 21 4 20 5 19 6 17 7 18 8 16 9 13 10 14 11
REMARK SMILES IDX 92 12 15 13 91 14 12 15 2 16 3 17 9 18 11 19 10 20 1 21 4 24
REMARK SMILES IDX 5 25 8 26 6 27 7 28 25 29 26 30 27 31 28 32 29 33 30 34
REMARK SMILES IDX 31 35 32 36 90 37 33 38 89 39 34 40 35 41 36 42 83 43 37 44
REMARK SMILES IDX 88 45 82 46 84 47 38 48 87 49 81 50 80 51 39 53 69 54 50 55
REMARK SMILES IDX 68 56 51 57 54 58 67 59 85 60 52 61 53 62 66 64 86 65 55 66
REMARK SMILES IDX 40 67 41 68 49 69 42 70 48 71 43 72 44 73 45 74 46 75 47 76
REMARK SMILES IDX 70 77 71 78 79 79 72 80 78 81 73 82 74 83 75 84 76 85 77 86
REMARK SMILES IDX 56 87 57 88 65 89 58 90 64 91 59 92 60 93 61 94 62 95 63 96
REMARK H PARENT 1 22 1 23 84 52 54 63
REMARK Flexibility Score: inf
ROOT
ATOM      1  C   UNL A   1      49.084  25.061  27.761  1.00  0.00     0.188 C 
ENDROOT
BRANCH   1   2
ATOM      2  C   UNL A   1      47.810  24.829  26.950  1.00  0.00     0.188 C 
BRANCH   2   3
ATOM      3  O   UNL A   1      46.599  25.285  27.538  1.00  0.00    -0.376 OA
BRANCH   3   4
ATOM      4  C   UNL A   1      45.733  24.293  28.086  1.00  0.00     0.202 C 
BRANCH   4   5
ATOM      5  C   UNL A   1      45.244  23.192  27.134  1.00  0.00     0.261 C 
BRANCH   5   6
ATOM      6  O   UNL A   1      43.822  23.192  26.886  1.00  0.00    -0.463 OA
BRANCH   6   7
ATOM      7  C   UNL A   1      43.384  24.168  26.048  1.00  0.00     0.309 C 
ATOM      8  O   UNL A   1      43.937  24.481  24.998  1.00  0.00    -0.252 OA
BRANCH   7   9
ATOM      9  C   UNL A   1      42.095  24.839  26.483  1.00  0.00     0.103 C 
ATOM     10  N   UNL A   1      40.477  26.880  27.696  1.00  0.00    -0.355 N 
ATOM     11  C   UNL A   1      40.426  25.535  28.256  1.00  0.00     0.119 C 
ATOM     12  C   UNL A   1      40.893  27.033  26.307  1.00  0.00     0.119 C 
ATOM     13  C   UNL A   1      41.705  24.741  27.963  1.00  0.00     0.037 C 
ATOM     14  C   UNL A   1      42.201  26.306  26.064  1.00  0.00     0.037 C 
BRANCH  10  15
ATOM     15  C   UNL A   1      40.671  27.964  28.555  1.00  0.00     0.157 A 
ATOM     16  C   UNL A   1      39.574  28.782  28.898  1.00  0.00     0.118 A 
ATOM     17  C   UNL A   1      39.843  29.890  29.718  1.00  0.00     0.157 A 
ATOM     18  N   UNL A   1      41.100  30.192  30.094  1.00  0.00    -0.217 NA
ATOM     19  N   UNL A   1      41.913  28.215  29.000  1.00  0.00    -0.217 NA
ATOM     20  C   UNL A   1      42.057  29.323  29.738  1.00  0.00     0.226 A 
BRANCH  16  21
ATOM     21  N   UNL A   1      38.275  28.455  28.470  1.00  0.00    -0.393 N 
ATOM     22  H   UNL A   1      38.142  27.996  27.609  1.00  0.00     0.156 HD
ATOM     23  H   UNL A   1      37.500  28.684  29.032  1.00  0.00     0.156 HD
ENDBRANCH  16  21
BRANCH  17  24
ATOM     24  N   UNL A   1      38.854  30.743  30.150  1.00  0.00    -0.355 N 
ATOM     25  C   UNL A   1      38.676  32.112  29.708  1.00  0.00     0.118 C 
ATOM     26  C   UNL A   1      38.179  30.464  31.405  1.00  0.00     0.118 C 
ATOM     27  C   UNL A   1      38.368  32.837  31.014  1.00  0.00     0.023 C 
ATOM     28  C   UNL A   1      37.540  31.807  31.778  1.00  0.00     0.023 C 
ENDBRANCH  17  24
ENDBRANCH  10  15
ENDBRANCH   7   9
ENDBRANCH   6   7
ENDBRANCH   5   6
ENDBRANCH   4   5
ENDBRANCH   3   4
ENDBRANCH   2   3
ENDBRANCH   1   2
BRANCH   1  29
ATOM     29  O   UNL A   1      50.294  24.598  27.179  1.00  0.00    -0.376 OA
BRANCH  29  30
ATOM     30  C   UNL A   1      51.026  25.557  26.409  1.00  0.00     0.202 C 
BRANCH  30  31
ATOM     31  C   UNL A   1      51.527  26.817  27.155  1.00  0.00     0.261 C 
BRANCH  31  32
ATOM     32  O   UNL A   1      51.930  27.936  26.333  1.00  0.00    -0.460 OA
BRANCH  32  33
ATOM     33  C   UNL A   1      50.988  28.522  25.554  1.00  0.00     0.338 C 
ATOM     34  O   UNL A   1      50.976  28.537  24.335  1.00  0.00    -0.246 OA
BRANCH  33  35
ATOM     35  C   UNL A   1      49.819  28.892  26.406  1.00  0.00     0.060 A 
ATOM     36  C   UNL A   1      50.045  29.741  27.501  1.00  0.00     0.016 A 
ATOM     37  C   UNL A   1      48.513  28.487  26.109  1.00  0.00     0.016 A 
ATOM     38  C   UNL A   1      48.984  30.151  28.317  1.00  0.00     0.010 A 
ATOM     39  C   UNL A   1      47.454  28.879  26.942  1.00  0.00     0.010 A 
ATOM     40  C   UNL A   1      47.686  29.687  28.071  1.00  0.00    -0.014 A 
BRANCH  40  41
ATOM     41  C   UNL A   1      46.629  29.850  29.108  1.00  0.00     0.031 A 
ATOM     42  C   UNL A   1      45.842  31.137  29.114  1.00  0.00     0.074 A 
ATOM     43  C   UNL A   1      46.331  28.889  30.004  1.00  0.00     0.049 A 
ATOM     44  N   UNL A   1      44.910  31.538  29.939  1.00  0.00    -0.248 NA
ATOM     45  C   UNL A   1      46.147  32.097  28.039  1.00  0.00     0.031 C 
ATOM     46  C   UNL A   1      46.953  27.568  30.076  1.00  0.00     0.029 A 
ATOM     47  N   UNL A   1      45.418  28.885  31.033  1.00  0.00    -0.354 N 
ATOM     48  C   UNL A   1      44.519  32.793  29.486  1.00  0.00     0.074 A 
ATOM     49  C   UNL A   1      45.333  33.100  28.330  1.00  0.00     0.031 C 
ATOM     50  C   UNL A   1      46.406  26.884  31.100  1.00  0.00     0.029 A 
ATOM     51  C   UNL A   1      45.422  27.728  31.779  1.00  0.00     0.049 A 
ATOM     52  H   UNL A   1      44.815  29.641  31.220  1.00  0.00     0.167 HD
ATOM     53  C   UNL A   1      43.566  33.618  29.979  1.00  0.00     0.031 A 
ATOM     54  C   UNL A   1      44.730  27.394  32.891  1.00  0.00     0.031 A 
ATOM     55  C   UNL A   1      42.762  33.333  31.136  1.00  0.00     0.049 A 
ATOM     56  C   UNL A   1      43.751  28.378  33.489  1.00  0.00     0.074 A 
ATOM     57  C   UNL A   1      41.778  34.119  31.710  1.00  0.00     0.029 A 
ATOM     58  N   UNL A   1      42.848  32.179  31.897  1.00  0.00    -0.354 N 
ATOM     59  N   UNL A   1      43.398  29.563  33.049  1.00  0.00    -0.248 NA
ATOM     60  C   UNL A   1      43.076  27.977  34.733  1.00  0.00     0.031 C 
ATOM     61  C   UNL A   1      41.310  33.467  32.854  1.00  0.00     0.029 A 
ATOM     62  C   UNL A   1      41.954  32.244  32.953  1.00  0.00     0.049 A 
ATOM     63  H   UNL A   1      43.455  31.426  31.716  1.00  0.00     0.167 HD
ATOM     64  C   UNL A   1      42.442  30.033  33.948  1.00  0.00     0.074 A 
ATOM     65  C   UNL A   1      42.260  29.001  34.946  1.00  0.00     0.031 C 
ATOM     66  C   UNL A   1      41.774  31.214  33.943  1.00  0.00     0.031 A 
BRANCH  53  67
ATOM     67  C   UNL A   1      43.351  34.932  29.279  1.00  0.00    -0.014 A 
ATOM     68  C   UNL A   1      42.367  35.071  28.284  1.00  0.00     0.010 A 
ATOM     69  C   UNL A   1      44.094  36.060  29.672  1.00  0.00     0.010 A 
ATOM     70  C   UNL A   1      42.143  36.311  27.682  1.00  0.00     0.020 A 
ATOM     71  C   UNL A   1      43.853  37.308  29.092  1.00  0.00     0.020 A 
ATOM     72  C   UNL A   1      42.885  37.424  28.094  1.00  0.00     0.054 A 
BRANCH  72  73
ATOM     73  S   UNL A   1      42.532  39.030  27.330  1.00  0.00     0.124 S 
ATOM     74  O   UNL A   1      43.805  39.344  26.688  1.00  0.00    -0.237 OA
ATOM     75  O   UNL A   1      41.431  38.715  26.423  1.00  0.00    -0.237 OA
ATOM     76  O   UNL A   1      42.179  39.883  28.462  1.00  0.00    -0.744 OA
ENDBRANCH  72  73
ENDBRANCH  53  67
BRANCH  54  77
ATOM     77  C   UNL A   1      44.948  26.070  33.543  1.00  0.00    -0.014 A 
ATOM     78  C   UNL A   1      45.963  25.900  34.503  1.00  0.00     0.010 A 
ATOM     79  C   UNL A   1      44.159  24.960  33.186  1.00  0.00     0.010 A 
ATOM     80  C   UNL A   1      46.191  24.647  35.082  1.00  0.00     0.020 A 
ATOM     81  C   UNL A   1      44.365  23.713  33.784  1.00  0.00     0.020 A 
ATOM     82  C   UNL A   1      45.386  23.562  34.723  1.00  0.00     0.054 A 
BRANCH  82  83
ATOM     83  S   UNL A   1      45.671  21.959  35.526  1.00  0.00     0.124 S 
ATOM     84  O   UNL A   1      45.394  22.266  36.926  1.00  0.00    -0.237 OA
ATOM     85  O   UNL A   1      44.695  21.099  34.861  1.00  0.00    -0.237 OA
ATOM     86  O   UNL A   1      47.067  21.663  35.214  1.00  0.00    -0.744 OA
ENDBRANCH  82  83
ENDBRANCH  54  77
BRANCH  66  87
ATOM     87  C   UNL A   1      40.753  31.457  35.025  1.00  0.00    -0.014 A 
ATOM     88  C   UNL A   1      41.059  32.234  36.157  1.00  0.00     0.010 A 
ATOM     89  C   UNL A   1      39.440  30.974  34.864  1.00  0.00     0.010 A 
ATOM     90  C   UNL A   1      40.078  32.500  37.118  1.00  0.00     0.020 A 
ATOM     91  C   UNL A   1      38.450  31.262  35.808  1.00  0.00     0.020 A 
ATOM     92  C   UNL A   1      38.779  32.016  36.936  1.00  0.00     0.054 A 
BRANCH  92  93
ATOM     93  S   UNL A   1      37.515  32.421  38.174  1.00  0.00     0.124 S 
ATOM     94  O   UNL A   1      37.097  31.096  38.627  1.00  0.00    -0.237 OA
ATOM     95  O   UNL A   1      38.264  33.210  39.148  1.00  0.00    -0.237 OA
ATOM     96  O   UNL A   1      36.512  33.164  37.416  1.00  0.00    -0.744 OA
ENDBRANCH  92  93
ENDBRANCH  66  87
ENDBRANCH  40  41
ENDBRANCH  33  35
ENDBRANCH  32  33
ENDBRANCH  31  32
ENDBRANCH  30  31
ENDBRANCH  29  30
ENDBRANCH   1  29
TORSDOF 23
ENDMDL
MODEL 2
REMARK VINA RESULT:      -6.8      4.325      9.142
REMARK SMILES Nc1c(N2CCCC2)ncnc1N1CCC(C(=O)OCCOCCOCCOC(=O)c2ccc(-c3c4nc(c(-c5ccc(S(=O)(=O)[O-])cc5)c5ccc([nH]5)c(-c5ccc(S(=O)(=O)[O-])cc5)c5nc(c(-c6ccc(S(=O)(=O)[O-])cc6)c6ccc3[nH]6)C=C5)C=C4)cc2)CC1
REMARK SMILES IDX 24 1 23 2 22 3 21 4 20 5 19 6 17 7 18 8 16 9 13 10 14 11
REMARK SMILES IDX 92 12 15 13 91 14 12 15 2 16 3 17 9 18 11 19 10 20 1 21 4 24
REMARK SMILES IDX 5 25 8 26 6 27 7 28 25 29 26 30 27 31 28 32 29 33 30 34
REMARK SMILES IDX 31 35 32 36 90 37 33 38 89 39 34 40 35 41 36 42 83 43 37 44
REMARK SMILES IDX 88 45 82 46 84 47 38 48 87 49 81 50 80 51 39 53 69 54 50 55
REMARK SMILES IDX 68 56 51 57 54 58 67 59 85 60 52 61 53 62 66 64 86 65 55 66
REMARK SMILES IDX 40 67 41 68 49 69 42 70 48 71 43 72 44 73 45 74 46 75 47 76
REMARK SMILES IDX 70 77 71 78 79 79 72 80 78 81 73 82 74 83 75 84 76 85 77 86
REMARK SMILES IDX 56 87 57 88 65 89 58 90 64 91 59 92 60 93 61 94 62 95 63 96
REMARK H PARENT 1 22 1 23 84 52 54 63
REMARK Flexibility Score: inf
ROOT
ATOM      1  C   UNL A   1      45.888  23.291  24.756  1.00  0.00     0.188 C 
ENDROOT
BRANCH   1   2
ATOM      2  C   UNL A   1      46.278  21.870  24.353  1.00  0.00     0.188 C 
BRANCH   2   3
ATOM      3  O   UNL A   1      46.205  20.884  25.373  1.00  0.00    -0.376 OA
BRANCH   3   4
ATOM      4  C   UNL A   1      46.523  19.544  25.002  1.00  0.00     0.202 C 
BRANCH   4   5
ATOM      5  C   UNL A   1      45.561  18.443  25.472  1.00  0.00     0.261 C 
BRANCH   5   6
ATOM      6  O   UNL A   1      44.183  18.638  25.090  1.00  0.00    -0.463 OA
BRANCH   6   7
ATOM      7  C   UNL A   1      43.285  18.549  26.106  1.00  0.00     0.309 C 
ATOM      8  O   UNL A   1      43.273  17.651  26.943  1.00  0.00    -0.252 OA
BRANCH   7   9
ATOM      9  C   UNL A   1      42.295  19.696  26.174  1.00  0.00     0.103 C 
ATOM     10  N   UNL A   1      41.389  22.349  26.803  1.00  0.00    -0.355 N 
ATOM     11  C   UNL A   1      40.726  21.222  27.448  1.00  0.00     0.119 C 
ATOM     12  C   UNL A   1      42.076  22.113  25.538  1.00  0.00     0.119 C 
ATOM     13  C   UNL A   1      41.635  19.989  27.526  1.00  0.00     0.037 C 
ATOM     14  C   UNL A   1      43.027  20.938  25.667  1.00  0.00     0.037 C 
BRANCH  10  15
ATOM     15  C   UNL A   1      41.823  23.419  27.588  1.00  0.00     0.157 A 
ATOM     16  C   UNL A   1      41.268  24.700  27.383  1.00  0.00     0.118 A 
ATOM     17  C   UNL A   1      41.786  25.746  28.163  1.00  0.00     0.157 A 
ATOM     18  N   UNL A   1      42.813  25.545  29.009  1.00  0.00    -0.217 NA
ATOM     19  N   UNL A   1      42.789  23.199  28.495  1.00  0.00    -0.217 NA
ATOM     20  C   UNL A   1      43.236  24.280  29.147  1.00  0.00     0.226 A 
BRANCH  16  21
ATOM     21  N   UNL A   1      40.212  24.885  26.473  1.00  0.00    -0.393 N 
ATOM     22  H   UNL A   1      40.252  25.617  25.815  1.00  0.00     0.156 HD
ATOM     23  H   UNL A   1      39.433  24.283  26.494  1.00  0.00     0.156 HD
ENDBRANCH  16  21
BRANCH  17  24
ATOM     24  N   UNL A   1      41.305  27.032  28.080  1.00  0.00    -0.355 N 
ATOM     25  C   UNL A   1      40.178  27.556  28.827  1.00  0.00     0.118 C 
ATOM     26  C   UNL A   1      41.627  27.833  26.912  1.00  0.00     0.118 C 
ATOM     27  C   UNL A   1      39.436  28.366  27.769  1.00  0.00     0.023 C 
ATOM     28  C   UNL A   1      40.575  28.948  26.938  1.00  0.00     0.023 C 
ENDBRANCH  17  24
ENDBRANCH  10  15
ENDBRANCH   7   9
ENDBRANCH   6   7
ENDBRANCH   5   6
ENDBRANCH   4   5
ENDBRANCH   3   4
ENDBRANCH   2   3
ENDBRANCH   1   2
BRANCH   1  29
ATOM     29  O   UNL A   1      46.715  24.335  24.262  1.00  0.00    -0.376 OA
BRANCH  29  30
ATOM     30  C   UNL A   1      47.350  25.152  25.251  1.00  0.00     0.202 C 
BRANCH  30  31
ATOM     31  C   UNL A   1      47.678  24.482  26.606  1.00  0.00     0.261 C 
BRANCH  31  32
ATOM     32  O   UNL A   1      48.163  25.350  27.655  1.00  0.00    -0.460 OA
BRANCH  32  33
ATOM     33  C   UNL A   1      47.259  25.859  28.526  1.00  0.00     0.338 C 
ATOM     34  O   UNL A   1      46.744  25.261  29.455  1.00  0.00    -0.246 OA
BRANCH  33  35
ATOM     35  C   UNL A   1      47.208  27.342  28.358  1.00  0.00     0.060 A 
ATOM     36  C   UNL A   1      47.740  28.139  29.384  1.00  0.00     0.016 A 
ATOM     37  C   UNL A   1      46.722  27.952  27.196  1.00  0.00     0.016 A 
ATOM     38  C   UNL A   1      47.752  29.534  29.270  1.00  0.00     0.010 A 
ATOM     39  C   UNL A   1      46.713  29.352  27.094  1.00  0.00     0.010 A 
ATOM     40  C   UNL A   1      47.197  30.154  28.144  1.00  0.00    -0.014 A 
BRANCH  40  41
ATOM     41  C   UNL A   1      46.914  31.616  28.164  1.00  0.00     0.031 A 
ATOM     42  C   UNL A   1      47.942  32.541  27.560  1.00  0.00     0.074 A 
ATOM     43  C   UNL A   1      45.773  32.132  28.662  1.00  0.00     0.049 A 
ATOM     44  N   UNL A   1      47.953  33.847  27.498  1.00  0.00    -0.248 NA
ATOM     45  C   UNL A   1      49.113  31.900  26.936  1.00  0.00     0.031 C 
ATOM     46  C   UNL A   1      44.658  31.363  29.211  1.00  0.00     0.029 A 
ATOM     47  N   UNL A   1      45.368  33.442  28.784  1.00  0.00    -0.354 N 
ATOM     48  C   UNL A   1      49.126  34.185  26.834  1.00  0.00     0.074 A 
ATOM     49  C   UNL A   1      49.816  32.949  26.536  1.00  0.00     0.031 C 
ATOM     50  C   UNL A   1      43.698  32.217  29.616  1.00  0.00     0.029 A 
ATOM     51  C   UNL A   1      44.142  33.593  29.390  1.00  0.00     0.049 A 
ATOM     52  H   UNL A   1      45.906  34.203  28.466  1.00  0.00     0.167 HD
ATOM     53  C   UNL A   1      49.591  35.410  26.494  1.00  0.00     0.031 A 
ATOM     54  C   UNL A   1      43.465  34.708  29.742  1.00  0.00     0.031 A 
ATOM     55  C   UNL A   1      48.924  36.646  26.799  1.00  0.00     0.049 A 
ATOM     56  C   UNL A   1      44.057  36.068  29.452  1.00  0.00     0.074 A 
ATOM     57  C   UNL A   1      49.330  37.934  26.500  1.00  0.00     0.029 A 
ATOM     58  N   UNL A   1      47.718  36.752  27.473  1.00  0.00    -0.354 N 
ATOM     59  N   UNL A   1      45.171  36.368  28.827  1.00  0.00    -0.248 NA
ATOM     60  C   UNL A   1      43.296  37.240  29.915  1.00  0.00     0.031 C 
ATOM     61  C   UNL A   1      48.400  38.824  27.045  1.00  0.00     0.029 A 
ATOM     62  C   UNL A   1      47.380  38.086  27.623  1.00  0.00     0.049 A 
ATOM     63  H   UNL A   1      47.184  35.993  27.798  1.00  0.00     0.167 HD
ATOM     64  C   UNL A   1      45.228  37.759  28.799  1.00  0.00     0.074 A 
ATOM     65  C   UNL A   1      44.032  38.243  29.455  1.00  0.00     0.031 C 
ATOM     66  C   UNL A   1      46.187  38.564  28.274  1.00  0.00     0.031 A 
BRANCH  53  67
ATOM     67  C   UNL A   1      50.907  35.480  25.769  1.00  0.00    -0.014 A 
ATOM     68  C   UNL A   1      50.958  35.508  24.363  1.00  0.00     0.010 A 
ATOM     69  C   UNL A   1      52.102  35.591  26.502  1.00  0.00     0.010 A 
ATOM     70  C   UNL A   1      52.184  35.628  23.706  1.00  0.00     0.020 A 
ATOM     71  C   UNL A   1      53.327  35.740  25.847  1.00  0.00     0.020 A 
ATOM     72  C   UNL A   1      53.361  35.749  24.452  1.00  0.00     0.054 A 
BRANCH  72  73
ATOM     73  S   UNL A   1      54.930  35.957  23.568  1.00  0.00     0.124 S 
ATOM     74  O   UNL A   1      55.868  35.271  24.451  1.00  0.00    -0.237 OA
ATOM     75  O   UNL A   1      54.667  35.293  22.294  1.00  0.00    -0.237 OA
ATOM     76  O   UNL A   1      55.096  37.407  23.490  1.00  0.00    -0.744 OA
ENDBRANCH  72  73
ENDBRANCH  53  67
BRANCH  54  77
ATOM     77  C   UNL A   1      42.148  34.600  30.435  1.00  0.00    -0.014 A 
ATOM     78  C   UNL A   1      42.082  34.459  31.834  1.00  0.00     0.010 A 
ATOM     79  C   UNL A   1      40.949  34.610  29.697  1.00  0.00     0.010 A 
ATOM     80  C   UNL A   1      40.848  34.318  32.477  1.00  0.00     0.020 A 
ATOM     81  C   UNL A   1      39.712  34.498  30.340  1.00  0.00     0.020 A 
ATOM     82  C   UNL A   1      39.669  34.343  31.726  1.00  0.00     0.054 A 
BRANCH  82  83
ATOM     83  S   UNL A   1      38.079  34.208  32.590  1.00  0.00     0.124 S 
ATOM     84  O   UNL A   1      38.003  32.777  32.867  1.00  0.00    -0.237 OA
ATOM     85  O   UNL A   1      38.282  35.068  33.753  1.00  0.00    -0.237 OA
ATOM     86  O   UNL A   1      37.114  34.709  31.614  1.00  0.00    -0.744 OA
ENDBRANCH  82  83
ENDBRANCH  54  77
BRANCH  66  87
ATOM     87  C   UNL A   1      45.982  40.056  28.347  1.00  0.00    -0.014 A 
ATOM     88  C   UNL A   1      46.545  40.821  29.384  1.00  0.00     0.010 A 
ATOM     89  C   UNL A   1      45.288  40.714  27.314  1.00  0.00     0.010 A 
ATOM     90  C   UNL A   1      46.396  42.212  29.398  1.00  0.00     0.020 A 
ATOM     91  C   UNL A   1      45.161  42.106  27.310  1.00  0.00     0.020 A 
ATOM     92  C   UNL A   1      45.708  42.846  28.360  1.00  0.00     0.054 A 
BRANCH  92  93
ATOM     93  S   UNL A   1      45.574  44.655  28.378  1.00  0.00     0.124 S 
ATOM     94  O   UNL A   1      46.963  45.061  28.579  1.00  0.00    -0.237 OA
ATOM     95  O   UNL A   1      45.020  44.948  27.058  1.00  0.00    -0.237 OA
ATOM     96  O   UNL A   1      44.678  44.928  29.498  1.00  0.00    -0.744 OA
ENDBRANCH  92  93
ENDBRANCH  66  87
ENDBRANCH  40  41
ENDBRANCH  33  35
ENDBRANCH  32  33
ENDBRANCH  31  32
ENDBRANCH  30  31
ENDBRANCH  29  30
ENDBRANCH   1  29
TORSDOF 23
ENDMDL
MODEL 3
REMARK VINA RESULT:      -6.6      6.685     14.021
REMARK SMILES Nc1c(N2CCCC2)ncnc1N1CCC(C(=O)OCCOCCOCCOC(=O)c2ccc(-c3c4nc(c(-c5ccc(S(=O)(=O)[O-])cc5)c5ccc([nH]5)c(-c5ccc(S(=O)(=O)[O-])cc5)c5nc(c(-c6ccc(S(=O)(=O)[O-])cc6)c6ccc3[nH]6)C=C5)C=C4)cc2)CC1
REMARK SMILES IDX 24 1 23 2 22 3 21 4 20 5 19 6 17 7 18 8 16 9 13 10 14 11
REMARK SMILES IDX 92 12 15 13 91 14 12 15 2 16 3 17 9 18 11 19 10 20 1 21 4 24
REMARK SMILES IDX 5 25 8 26 6 27 7 28 25 29 26 30 27 31 28 32 29 33 30 34
REMARK SMILES IDX 31 35 32 36 90 37 33 38 89 39 34 40 35 41 36 42 83 43 37 44
REMARK SMILES IDX 88 45 82 46 84 47 38 48 87 49 81 50 80 51 39 53 69 54 50 55
REMARK SMILES IDX 68 56 51 57 54 58 67 59 85 60 52 61 53 62 66 64 86 65 55 66
REMARK SMILES IDX 40 67 41 68 49 69 42 70 48 71 43 72 44 73 45 74 46 75 47 76
REMARK SMILES IDX 70 77 71 78 79 79 72 80 78 81 73 82 74 83 75 84 76 85 77 86
REMARK SMILES IDX 56 87 57 88 65 89 58 90 64 91 59 92 60 93 61 94 62 95 63 96
REMARK H PARENT 1 22 1 23 84 52 54 63
REMARK Flexibility Score: inf
ROOT
ATOM      1  C   UNL A   1      36.564  32.966  28.496  1.00  0.00     0.188 C 
ENDROOT
BRANCH   1   2
ATOM      2  C   UNL A   1      35.902  31.854  29.308  1.00  0.00     0.188 C 
BRANCH   2   3
ATOM      3  O   UNL A   1      35.039  30.981  28.592  1.00  0.00    -0.376 OA
BRANCH   3   4
ATOM      4  C   UNL A   1      34.143  31.580  27.658  1.00  0.00     0.202 C 
BRANCH   4   5
ATOM      5  C   UNL A   1      32.909  30.762  27.252  1.00  0.00     0.261 C 
BRANCH   5   6
ATOM      6  O   UNL A   1      33.189  29.610  26.429  1.00  0.00    -0.463 OA
BRANCH   6   7
ATOM      7  C   UNL A   1      32.141  29.164  25.688  1.00  0.00     0.309 C 
ATOM      8  O   UNL A   1      31.579  29.820  24.816  1.00  0.00    -0.252 OA
BRANCH   7   9
ATOM      9  C   UNL A   1      31.726  27.734  25.980  1.00  0.00     0.103 C 
ATOM     10  N   UNL A   1      31.701  24.883  25.626  1.00  0.00    -0.355 N 
ATOM     11  C   UNL A   1      30.458  25.616  25.418  1.00  0.00     0.119 C 
ATOM     12  C   UNL A   1      32.723  25.485  26.474  1.00  0.00     0.119 C 
ATOM     13  C   UNL A   1      30.711  27.080  25.037  1.00  0.00     0.037 C 
ATOM     14  C   UNL A   1      33.011  26.905  26.025  1.00  0.00     0.037 C 
BRANCH  10  15
ATOM     15  C   UNL A   1      32.118  23.969  24.657  1.00  0.00     0.157 A 
ATOM     16  C   UNL A   1      32.085  22.588  24.945  1.00  0.00     0.118 A 
ATOM     17  C   UNL A   1      32.571  21.722  23.952  1.00  0.00     0.157 A 
ATOM     18  N   UNL A   1      33.110  22.197  22.814  1.00  0.00    -0.217 NA
ATOM     19  N   UNL A   1      32.576  24.440  23.485  1.00  0.00    -0.217 NA
ATOM     20  C   UNL A   1      33.055  23.524  22.633  1.00  0.00     0.226 A 
BRANCH  16  21
ATOM     21  N   UNL A   1      31.538  22.122  26.154  1.00  0.00    -0.393 N 
ATOM     22  H   UNL A   1      31.143  21.221  26.200  1.00  0.00     0.156 HD
ATOM     23  H   UNL A   1      31.552  22.696  26.953  1.00  0.00     0.156 HD
ENDBRANCH  16  21
BRANCH  17  24
ATOM     24  N   UNL A   1      32.560  20.355  24.100  1.00  0.00    -0.355 N 
ATOM     25  C   UNL A   1      33.283  19.615  25.116  1.00  0.00     0.118 C 
ATOM     26  C   UNL A   1      32.164  19.526  22.975  1.00  0.00     0.118 C 
ATOM     27  C   UNL A   1      33.843  18.438  24.323  1.00  0.00     0.023 C 
ATOM     28  C   UNL A   1      32.722  18.142  23.332  1.00  0.00     0.023 C 
ENDBRANCH  17  24
ENDBRANCH  10  15
ENDBRANCH   7   9
ENDBRANCH   6   7
ENDBRANCH   5   6
ENDBRANCH   4   5
ENDBRANCH   3   4
ENDBRANCH   2   3
ENDBRANCH   1   2
BRANCH   1  29
ATOM     29  O   UNL A   1      37.274  33.948  29.237  1.00  0.00    -0.376 OA
BRANCH  29  30
ATOM     30  C   UNL A   1      38.685  33.741  29.361  1.00  0.00     0.202 C 
BRANCH  30  31
ATOM     31  C   UNL A   1      39.592  34.981  29.179  1.00  0.00     0.261 C 
BRANCH  31  32
ATOM     32  O   UNL A   1      40.474  34.973  28.034  1.00  0.00    -0.460 OA
BRANCH  32  33
ATOM     33  C   UNL A   1      41.353  35.996  27.903  1.00  0.00     0.338 C 
ATOM     34  O   UNL A   1      41.150  37.159  28.210  1.00  0.00    -0.246 OA
BRANCH  33  35
ATOM     35  C   UNL A   1      42.704  35.437  27.603  1.00  0.00     0.060 A 
ATOM     36  C   UNL A   1      42.989  35.080  26.276  1.00  0.00     0.016 A 
ATOM     37  C   UNL A   1      43.706  35.328  28.574  1.00  0.00     0.016 A 
ATOM     38  C   UNL A   1      44.248  34.582  25.924  1.00  0.00     0.010 A 
ATOM     39  C   UNL A   1      44.962  34.805  28.224  1.00  0.00     0.010 A 
ATOM     40  C   UNL A   1      45.231  34.397  26.904  1.00  0.00    -0.014 A 
BRANCH  40  41
ATOM     41  C   UNL A   1      46.437  33.576  26.604  1.00  0.00     0.031 A 
ATOM     42  C   UNL A   1      46.296  32.075  26.654  1.00  0.00     0.074 A 
ATOM     43  C   UNL A   1      47.622  34.117  26.259  1.00  0.00     0.049 A 
ATOM     44  N   UNL A   1      47.203  31.148  26.483  1.00  0.00    -0.248 NA
ATOM     45  C   UNL A   1      44.947  31.552  26.931  1.00  0.00     0.031 C 
ATOM     46  C   UNL A   1      47.893  35.544  26.098  1.00  0.00     0.029 A 
ATOM     47  N   UNL A   1      48.828  33.515  25.981  1.00  0.00    -0.354 N 
ATOM     48  C   UNL A   1      46.537  29.936  26.631  1.00  0.00     0.074 A 
ATOM     49  C   UNL A   1      45.157  30.244  26.934  1.00  0.00     0.031 C 
ATOM     50  C   UNL A   1      49.185  35.707  25.755  1.00  0.00     0.029 A 
ATOM     51  C   UNL A   1      49.844  34.401  25.707  1.00  0.00     0.049 A 
ATOM     52  H   UNL A   1      48.953  32.538  25.979  1.00  0.00     0.167 HD
ATOM     53  C   UNL A   1      47.023  28.678  26.522  1.00  0.00     0.031 A 
ATOM     54  C   UNL A   1      51.157  34.189  25.466  1.00  0.00     0.031 A 
ATOM     55  C   UNL A   1      48.396  28.358  26.238  1.00  0.00     0.049 A 
ATOM     56  C   UNL A   1      51.699  32.778  25.459  1.00  0.00     0.074 A 
ATOM     57  C   UNL A   1      48.976  27.107  26.118  1.00  0.00     0.029 A 
ATOM     58  N   UNL A   1      49.402  29.288  26.033  1.00  0.00    -0.354 N 
ATOM     59  N   UNL A   1      51.056  31.645  25.607  1.00  0.00    -0.248 NA
ATOM     60  C   UNL A   1      53.148  32.620  25.250  1.00  0.00     0.031 C 
ATOM     61  C   UNL A   1      50.345  27.280  25.900  1.00  0.00     0.029 A 
ATOM     62  C   UNL A   1      50.605  28.638  25.816  1.00  0.00     0.049 A 
ATOM     63  H   UNL A   1      49.279  30.264  26.043  1.00  0.00     0.167 HD
ATOM     64  C   UNL A   1      52.016  30.643  25.481  1.00  0.00     0.074 A 
ATOM     65  C   UNL A   1      53.280  31.300  25.231  1.00  0.00     0.031 C 
ATOM     66  C   UNL A   1      51.861  29.297  25.564  1.00  0.00     0.031 A 
BRANCH  53  67
ATOM     67  C   UNL A   1      46.064  27.538  26.733  1.00  0.00    -0.014 A 
ATOM     68  C   UNL A   1      45.341  26.991  25.659  1.00  0.00     0.010 A 
ATOM     69  C   UNL A   1      45.938  26.963  28.011  1.00  0.00     0.010 A 
ATOM     70  C   UNL A   1      44.496  25.898  25.862  1.00  0.00     0.020 A 
ATOM     71  C   UNL A   1      45.114  25.852  28.212  1.00  0.00     0.020 A 
ATOM     72  C   UNL A   1      44.392  25.332  27.138  1.00  0.00     0.054 A 
BRANCH  72  73
ATOM     73  S   UNL A   1      43.326  23.881  27.356  1.00  0.00     0.124 S 
ATOM     74  O   UNL A   1      42.046  24.495  27.695  1.00  0.00    -0.237 OA
ATOM     75  O   UNL A   1      43.389  23.241  26.045  1.00  0.00    -0.237 OA
ATOM     76  O   UNL A   1      43.966  23.140  28.441  1.00  0.00    -0.744 OA
ENDBRANCH  72  73
ENDBRANCH  53  67
BRANCH  54  77
ATOM     77  C   UNL A   1      52.074  35.341  25.232  1.00  0.00    -0.014 A 
ATOM     78  C   UNL A   1      52.256  35.864  23.938  1.00  0.00     0.010 A 
ATOM     79  C   UNL A   1      52.796  35.908  26.299  1.00  0.00     0.010 A 
ATOM     80  C   UNL A   1      53.148  36.918  23.716  1.00  0.00     0.020 A 
ATOM     81  C   UNL A   1      53.667  36.981  26.086  1.00  0.00     0.020 A 
ATOM     82  C   UNL A   1      53.844  37.474  24.793  1.00  0.00     0.054 A 
BRANCH  82  83
ATOM     83  S   UNL A   1      54.958  38.875  24.485  1.00  0.00     0.124 S 
ATOM     84  O   UNL A   1      55.767  38.382  23.374  1.00  0.00    -0.237 OA
ATOM     85  O   UNL A   1      54.024  39.950  24.159  1.00  0.00    -0.237 OA
ATOM     86  O   UNL A   1      55.666  39.035  25.753  1.00  0.00    -0.744 OA
ENDBRANCH  82  83
ENDBRANCH  54  77
BRANCH  66  87
ATOM     87  C   UNL A   1      53.074  28.427  25.350  1.00  0.00    -0.014 A 
ATOM     88  C   UNL A   1      53.465  28.022  24.062  1.00  0.00     0.010 A 
ATOM     89  C   UNL A   1      53.884  28.083  26.449  1.00  0.00     0.010 A 
ATOM     90  C   UNL A   1      54.629  27.267  23.881  1.00  0.00     0.020 A 
ATOM     91  C   UNL A   1      55.063  27.354  26.269  1.00  0.00     0.020 A 
ATOM     92  C   UNL A   1      55.423  26.942  24.985  1.00  0.00     0.054 A 
BRANCH  92  93
ATOM     93  S   UNL A   1      56.954  26.007  24.713  1.00  0.00     0.124 S 
ATOM     94  O   UNL A   1      56.525  24.635  24.976  1.00  0.00    -0.237 OA
ATOM     95  O   UNL A   1      57.270  26.309  23.319  1.00  0.00    -0.237 OA
ATOM     96  O   UNL A   1      57.883  26.567  25.691  1.00  0.00    -0.744 OA
ENDBRANCH  92  93
ENDBRANCH  66  87
ENDBRANCH  40  41
ENDBRANCH  33  35
ENDBRANCH  32  33
ENDBRANCH  31  32
ENDBRANCH  30  31
ENDBRANCH  29  30
ENDBRANCH   1  29
TORSDOF 23
ENDMDL
