MODEL 1
REMARK VINA RESULT:      -9.5      0.000      0.000
REMARK SMILES CC(C)(C)c1csc(C[C@@]2(C(=O)OCCOCCOCCOC(=O)c3ccc(-c4c5nc(c(-c6ccc(S(=O)(=O)[O-])cc6)c6ccc([nH]6)c(-c6ccc(S(=O)(=O)[O-])cc6)c6nc(c(-c7ccc(S(=O)(=O)[O-])cc7)c7ccc4[nH]7)C=C6)C=C5)cc3)C[C@H]3CC[C@@H]2C3)n1
REMARK SMILES IDX 17 1 16 2 15 3 14 4 13 5 11 6 12 7 10 8 85 9 89 10 86 11
REMARK SMILES IDX 88 12 90 13 87 14 9 15 8 16 5 17 6 18 91 19 7 20 2 21 1 22
REMARK SMILES IDX 3 23 4 24 18 25 19 26 20 27 21 28 22 29 23 30 24 31 25 32
REMARK SMILES IDX 26 33 84 34 27 35 83 36 28 37 29 38 30 39 77 40 31 41 82 42
REMARK SMILES IDX 76 43 78 44 32 45 81 46 75 47 74 48 33 50 63 51 44 52 62 53
REMARK SMILES IDX 45 54 48 55 61 56 79 57 46 58 47 59 60 61 80 62 49 63 34 64
REMARK SMILES IDX 35 65 43 66 36 67 42 68 37 69 38 70 39 71 40 72 41 73 64 74
REMARK SMILES IDX 65 75 73 76 66 77 72 78 67 79 68 80 69 81 70 82 71 83 50 84
REMARK SMILES IDX 51 85 59 86 52 87 58 88 53 89 54 90 55 91 56 92 57 93
REMARK H PARENT 78 49 48 60
REMARK Flexibility Score: inf
ROOT
ATOM      1  C   UNL A   1      39.154  21.483  25.907  1.00  0.00     0.188 C 
ENDROOT
BRANCH   1   2
ATOM      2  O   UNL A   1      37.900  22.112  25.701  1.00  0.00    -0.376 OA
BRANCH   2   3
ATOM      3  C   UNL A   1      37.108  21.729  24.589  1.00  0.00     0.202 C 
BRANCH   3   4
ATOM      4  C   UNL A   1      36.577  22.836  23.674  1.00  0.00     0.261 C 
BRANCH   4   5
ATOM      5  O   UNL A   1      35.572  23.681  24.269  1.00  0.00    -0.463 OA
BRANCH   5   6
ATOM      6  C   UNL A   1      34.526  23.988  23.459  1.00  0.00     0.312 C 
ATOM      7  O   UNL A   1      34.573  23.936  22.234  1.00  0.00    -0.252 OA
BRANCH   6   8
ATOM      8  C   UNL A   1      33.272  24.467  24.202  1.00  0.00     0.077 C 
ATOM      9  C   UNL A   1      32.149  25.184  23.403  1.00  0.00     0.023 C 
ATOM     10  C   UNL A   1      33.730  25.636  25.171  1.00  0.00     0.007 C 
ATOM     11  C   UNL A   1      31.968  26.524  24.149  1.00  0.00    -0.010 C 
ATOM     12  C   UNL A   1      32.744  25.827  26.329  1.00  0.00     0.005 C 
ATOM     13  C   UNL A   1      33.417  26.910  24.377  1.00  0.00     0.008 C 
ATOM     14  C   UNL A   1      31.474  26.283  25.592  1.00  0.00     0.004 C 
BRANCH   8  15
ATOM     15  C   UNL A   1      32.737  23.232  24.959  1.00  0.00     0.086 C 
BRANCH  15  16
ATOM     16  C   UNL A   1      32.735  21.944  24.183  1.00  0.00     0.094 A 
ATOM     17  C   UNL A   1      32.950  19.761  23.820  1.00  0.00     0.057 A 
ATOM     18  C   UNL A   1      32.173  20.097  22.725  1.00  0.00     0.091 A 
ATOM     19  N   UNL A   1      33.322  20.847  24.599  1.00  0.00    -0.246 NA
ATOM     20  S   UNL A   1      31.809  21.767  22.745  1.00  0.00    -0.127 S 
BRANCH  17  21
ATOM     21  C   UNL A   1      33.399  18.384  24.274  1.00  0.00     0.005 C 
ATOM     22  C   UNL A   1      32.720  17.957  25.591  1.00  0.00     0.017 C 
ATOM     23  C   UNL A   1      34.924  18.398  24.514  1.00  0.00     0.017 C 
ATOM     24  C   UNL A   1      33.069  17.345  23.188  1.00  0.00     0.017 C 
ENDBRANCH  17  21
ENDBRANCH  15  16
ENDBRANCH   8  15
ENDBRANCH   6   8
ENDBRANCH   5   6
ENDBRANCH   4   5
ENDBRANCH   3   4
ENDBRANCH   2   3
ENDBRANCH   1   2
BRANCH   1  25
ATOM     25  C   UNL A   1      40.054  21.928  27.078  1.00  0.00     0.188 C 
BRANCH  25  26
ATOM     26  O   UNL A   1      41.273  21.266  27.368  1.00  0.00    -0.376 OA
BRANCH  26  27
ATOM     27  C   UNL A   1      42.235  21.122  26.338  1.00  0.00     0.202 C 
BRANCH  27  28
ATOM     28  C   UNL A   1      43.439  22.068  26.357  1.00  0.00     0.261 C 
BRANCH  28  29
ATOM     29  O   UNL A   1      43.214  23.268  27.116  1.00  0.00    -0.460 OA
BRANCH  29  30
ATOM     30  C   UNL A   1      42.875  24.362  26.401  1.00  0.00     0.338 C 
ATOM     31  O   UNL A   1      42.814  24.459  25.176  1.00  0.00    -0.246 OA
BRANCH  30  32
ATOM     32  C   UNL A   1      42.419  25.431  27.303  1.00  0.00     0.060 A 
ATOM     33  C   UNL A   1      43.065  26.672  27.252  1.00  0.00     0.016 A 
ATOM     34  C   UNL A   1      41.420  25.193  28.248  1.00  0.00     0.016 A 
ATOM     35  C   UNL A   1      42.722  27.682  28.151  1.00  0.00     0.010 A 
ATOM     36  C   UNL A   1      41.095  26.198  29.166  1.00  0.00     0.010 A 
ATOM     37  C   UNL A   1      41.757  27.440  29.137  1.00  0.00    -0.014 A 
BRANCH  37  38
ATOM     38  C   UNL A   1      41.535  28.420  30.228  1.00  0.00     0.031 A 
ATOM     39  C   UNL A   1      42.402  28.351  31.454  1.00  0.00     0.074 A 
ATOM     40  C   UNL A   1      40.574  29.357  30.136  1.00  0.00     0.049 A 
ATOM     41  N   UNL A   1      42.301  29.009  32.580  1.00  0.00    -0.248 NA
ATOM     42  C   UNL A   1      43.537  27.415  31.403  1.00  0.00     0.031 C 
ATOM     43  C   UNL A   1      39.717  29.582  28.972  1.00  0.00     0.029 A 
ATOM     44  N   UNL A   1      40.150  30.290  31.051  1.00  0.00    -0.354 N 
ATOM     45  C   UNL A   1      43.341  28.551  33.380  1.00  0.00     0.074 A 
ATOM     46  C   UNL A   1      44.057  27.555  32.613  1.00  0.00     0.031 C 
ATOM     47  C   UNL A   1      38.859  30.579  29.250  1.00  0.00     0.029 A 
ATOM     48  C   UNL A   1      39.070  31.026  30.626  1.00  0.00     0.049 A 
ATOM     49  H   UNL A   1      40.580  30.419  31.928  1.00  0.00     0.167 HD
ATOM     50  C   UNL A   1      43.667  28.922  34.641  1.00  0.00     0.031 A 
ATOM     51  C   UNL A   1      38.312  31.927  31.285  1.00  0.00     0.031 A 
ATOM     52  C   UNL A   1      42.945  29.903  35.405  1.00  0.00     0.049 A 
ATOM     53  C   UNL A   1      38.630  32.250  32.723  1.00  0.00     0.074 A 
ATOM     54  C   UNL A   1      43.194  30.344  36.695  1.00  0.00     0.029 A 
ATOM     55  N   UNL A   1      41.829  30.592  34.956  1.00  0.00    -0.354 N 
ATOM     56  N   UNL A   1      39.608  31.801  33.474  1.00  0.00    -0.248 NA
ATOM     57  C   UNL A   1      37.737  33.199  33.405  1.00  0.00     0.031 C 
ATOM     58  C   UNL A   1      42.194  31.258  37.043  1.00  0.00     0.029 A 
ATOM     59  C   UNL A   1      41.359  31.433  35.951  1.00  0.00     0.049 A 
ATOM     60  H   UNL A   1      41.428  30.497  34.062  1.00  0.00     0.167 HD
ATOM     61  C   UNL A   1      39.460  32.428  34.707  1.00  0.00     0.074 A 
ATOM     62  C   UNL A   1      38.307  33.298  34.598  1.00  0.00     0.031 C 
ATOM     63  C   UNL A   1      40.211  32.295  35.828  1.00  0.00     0.031 A 
BRANCH  50  64
ATOM     64  C   UNL A   1      44.830  28.221  35.291  1.00  0.00    -0.014 A 
ATOM     65  C   UNL A   1      46.138  28.728  35.197  1.00  0.00     0.010 A 
ATOM     66  C   UNL A   1      44.603  27.045  36.030  1.00  0.00     0.010 A 
ATOM     67  C   UNL A   1      47.204  28.049  35.796  1.00  0.00     0.020 A 
ATOM     68  C   UNL A   1      45.661  26.378  36.651  1.00  0.00     0.020 A 
ATOM     69  C   UNL A   1      46.958  26.875  36.514  1.00  0.00     0.054 A 
BRANCH  69  70
ATOM     70  S   UNL A   1      48.358  26.018  37.289  1.00  0.00     0.124 S 
ATOM     71  O   UNL A   1      49.056  27.119  37.949  1.00  0.00    -0.237 OA
ATOM     72  O   UNL A   1      47.699  25.068  38.181  1.00  0.00    -0.237 OA
ATOM     73  O   UNL A   1      49.066  25.419  36.160  1.00  0.00    -0.744 OA
ENDBRANCH  69  70
ENDBRANCH  50  64
BRANCH  51  74
ATOM     74  C   UNL A   1      37.143  32.555  30.607  1.00  0.00    -0.014 A 
ATOM     75  C   UNL A   1      37.311  33.676  29.778  1.00  0.00     0.010 A 
ATOM     76  C   UNL A   1      35.850  32.034  30.798  1.00  0.00     0.010 A 
ATOM     77  C   UNL A   1      36.206  34.274  29.162  1.00  0.00     0.020 A 
ATOM     78  C   UNL A   1      34.746  32.611  30.162  1.00  0.00     0.020 A 
ATOM     79  C   UNL A   1      34.930  33.735  29.356  1.00  0.00     0.054 A 
BRANCH  79  80
ATOM     80  S   UNL A   1      33.518  34.498  28.509  1.00  0.00     0.124 S 
ATOM     81  O   UNL A   1      34.148  35.614  27.812  1.00  0.00    -0.237 OA
ATOM     82  O   UNL A   1      33.036  33.413  27.659  1.00  0.00    -0.237 OA
ATOM     83  O   UNL A   1      32.622  34.868  29.603  1.00  0.00    -0.744 OA
ENDBRANCH  79  80
ENDBRANCH  51  74
BRANCH  63  84
ATOM     84  C   UNL A   1      39.839  33.133  37.024  1.00  0.00    -0.014 A 
ATOM     85  C   UNL A   1      38.966  32.646  38.012  1.00  0.00     0.010 A 
ATOM     86  C   UNL A   1      40.432  34.398  37.196  1.00  0.00     0.010 A 
ATOM     87  C   UNL A   1      38.676  33.418  39.142  1.00  0.00     0.020 A 
ATOM     88  C   UNL A   1      40.165  35.161  38.336  1.00  0.00     0.020 A 
ATOM     89  C   UNL A   1      39.281  34.670  39.297  1.00  0.00     0.054 A 
BRANCH  89  90
ATOM     90  S   UNL A   1      38.936  35.627  40.800  1.00  0.00     0.124 S 
ATOM     91  O   UNL A   1      37.705  35.006  41.282  1.00  0.00    -0.237 OA
ATOM     92  O   UNL A   1      40.124  35.383  41.616  1.00  0.00    -0.237 OA
ATOM     93  O   UNL A   1      38.794  36.997  40.315  1.00  0.00    -0.744 OA
ENDBRANCH  89  90
ENDBRANCH  63  84
ENDBRANCH  37  38
ENDBRANCH  30  32
ENDBRANCH  29  30
ENDBRANCH  28  29
ENDBRANCH  27  28
ENDBRANCH  26  27
ENDBRANCH  25  26
ENDBRANCH   1  25
TORSDOF 23
ENDMDL
MODEL 2
REMARK VINA RESULT:      -9.3      1.076      8.062
REMARK SMILES CC(C)(C)c1csc(C[C@@]2(C(=O)OCCOCCOCCOC(=O)c3ccc(-c4c5nc(c(-c6ccc(S(=O)(=O)[O-])cc6)c6ccc([nH]6)c(-c6ccc(S(=O)(=O)[O-])cc6)c6nc(c(-c7ccc(S(=O)(=O)[O-])cc7)c7ccc4[nH]7)C=C6)C=C5)cc3)C[C@H]3CC[C@@H]2C3)n1
REMARK SMILES IDX 17 1 16 2 15 3 14 4 13 5 11 6 12 7 10 8 85 9 89 10 86 11
REMARK SMILES IDX 88 12 90 13 87 14 9 15 8 16 5 17 6 18 91 19 7 20 2 21 1 22
REMARK SMILES IDX 3 23 4 24 18 25 19 26 20 27 21 28 22 29 23 30 24 31 25 32
REMARK SMILES IDX 26 33 84 34 27 35 83 36 28 37 29 38 30 39 77 40 31 41 82 42
REMARK SMILES IDX 76 43 78 44 32 45 81 46 75 47 74 48 33 50 63 51 44 52 62 53
REMARK SMILES IDX 45 54 48 55 61 56 79 57 46 58 47 59 60 61 80 62 49 63 34 64
REMARK SMILES IDX 35 65 43 66 36 67 42 68 37 69 38 70 39 71 40 72 41 73 64 74
REMARK SMILES IDX 65 75 73 76 66 77 72 78 67 79 68 80 69 81 70 82 71 83 50 84
REMARK SMILES IDX 51 85 59 86 52 87 58 88 53 89 54 90 55 91 56 92 57 93
REMARK H PARENT 78 49 48 60
REMARK Flexibility Score: inf
ROOT
ATOM      1  C   UNL A   1      41.121  21.151  26.153  1.00  0.00     0.188 C 
ENDROOT
BRANCH   1   2
ATOM      2  O   UNL A   1      40.153  22.070  26.634  1.00  0.00    -0.376 OA
BRANCH   2   3
ATOM      3  C   UNL A   1      38.897  22.155  25.983  1.00  0.00     0.202 C 
BRANCH   3   4
ATOM      4  C   UNL A   1      38.224  23.528  25.902  1.00  0.00     0.261 C 
BRANCH   4   5
ATOM      5  O   UNL A   1      36.784  23.498  25.963  1.00  0.00    -0.463 OA
BRANCH   5   6
ATOM      6  C   UNL A   1      36.158  23.459  24.759  1.00  0.00     0.312 C 
ATOM      7  O   UNL A   1      36.748  23.380  23.685  1.00  0.00    -0.252 OA
BRANCH   6   8
ATOM      8  C   UNL A   1      34.630  23.577  24.837  1.00  0.00     0.077 C 
ATOM      9  C   UNL A   1      33.813  23.684  23.520  1.00  0.00     0.023 C 
ATOM     10  C   UNL A   1      34.311  24.986  25.490  1.00  0.00     0.007 C 
ATOM     11  C   UNL A   1      32.992  24.978  23.703  1.00  0.00    -0.010 C 
ATOM     12  C   UNL A   1      32.913  25.013  26.118  1.00  0.00     0.005 C 
ATOM     13  C   UNL A   1      34.050  25.897  24.284  1.00  0.00     0.008 C 
ATOM     14  C   UNL A   1      32.009  24.838  24.887  1.00  0.00     0.004 C 
BRANCH   8  15
ATOM     15  C   UNL A   1      34.163  22.390  25.707  1.00  0.00     0.086 C 
BRANCH  15  16
ATOM     16  C   UNL A   1      33.688  21.179  24.953  1.00  0.00     0.094 A 
ATOM     17  C   UNL A   1      33.571  19.037  24.365  1.00  0.00     0.057 A 
ATOM     18  C   UNL A   1      32.354  19.474  23.874  1.00  0.00     0.091 A 
ATOM     19  N   UNL A   1      34.351  20.047  24.912  1.00  0.00    -0.246 NA
ATOM     20  S   UNL A   1      32.138  21.136  24.210  1.00  0.00    -0.127 S 
BRANCH  17  21
ATOM     21  C   UNL A   1      34.122  17.623  24.408  1.00  0.00     0.005 C 
ATOM     22  C   UNL A   1      35.584  17.585  24.895  1.00  0.00     0.017 C 
ATOM     23  C   UNL A   1      34.083  17.018  22.988  1.00  0.00     0.017 C 
ATOM     24  C   UNL A   1      33.264  16.759  25.348  1.00  0.00     0.017 C 
ENDBRANCH  17  21
ENDBRANCH  15  16
ENDBRANCH   8  15
ENDBRANCH   6   8
ENDBRANCH   5   6
ENDBRANCH   4   5
ENDBRANCH   3   4
ENDBRANCH   2   3
ENDBRANCH   1   2
BRANCH   1  25
ATOM     25  C   UNL A   1      42.534  21.132  26.768  1.00  0.00     0.188 C 
BRANCH  25  26
ATOM     26  O   UNL A   1      43.648  21.677  26.083  1.00  0.00    -0.376 OA
BRANCH  26  27
ATOM     27  C   UNL A   1      43.420  22.589  25.023  1.00  0.00     0.202 C 
BRANCH  27  28
ATOM     28  C   UNL A   1      42.887  23.977  25.388  1.00  0.00     0.261 C 
BRANCH  28  29
ATOM     29  O   UNL A   1      43.632  24.622  26.435  1.00  0.00    -0.460 OA
BRANCH  29  30
ATOM     30  C   UNL A   1      43.871  25.940  26.262  1.00  0.00     0.338 C 
ATOM     31  O   UNL A   1      44.426  26.474  25.303  1.00  0.00    -0.246 OA
BRANCH  30  32
ATOM     32  C   UNL A   1      43.225  26.713  27.334  1.00  0.00     0.060 A 
ATOM     33  C   UNL A   1      43.612  28.045  27.525  1.00  0.00     0.016 A 
ATOM     34  C   UNL A   1      42.307  26.114  28.196  1.00  0.00     0.016 A 
ATOM     35  C   UNL A   1      43.089  28.785  28.587  1.00  0.00     0.010 A 
ATOM     36  C   UNL A   1      41.802  26.848  29.275  1.00  0.00     0.010 A 
ATOM     37  C   UNL A   1      42.205  28.180  29.489  1.00  0.00    -0.014 A 
BRANCH  37  38
ATOM     38  C   UNL A   1      41.808  28.879  30.735  1.00  0.00     0.031 A 
ATOM     39  C   UNL A   1      40.606  29.782  30.711  1.00  0.00     0.074 A 
ATOM     40  C   UNL A   1      42.507  28.721  31.874  1.00  0.00     0.049 A 
ATOM     41  N   UNL A   1      40.158  30.594  31.634  1.00  0.00    -0.248 NA
ATOM     42  C   UNL A   1      39.799  29.766  29.480  1.00  0.00     0.031 C 
ATOM     43  C   UNL A   1      43.643  27.818  32.053  1.00  0.00     0.029 A 
ATOM     44  N   UNL A   1      42.365  29.331  33.097  1.00  0.00    -0.354 N 
ATOM     45  C   UNL A   1      39.034  31.202  31.088  1.00  0.00     0.074 A 
ATOM     46  C   UNL A   1      38.872  30.671  29.752  1.00  0.00     0.031 C 
ATOM     47  C   UNL A   1      44.106  27.945  33.310  1.00  0.00     0.029 A 
ATOM     48  C   UNL A   1      43.334  28.974  34.005  1.00  0.00     0.049 A 
ATOM     49  H   UNL A   1      41.639  29.964  33.303  1.00  0.00     0.167 HD
ATOM     50  C   UNL A   1      38.214  32.124  31.648  1.00  0.00     0.031 A 
ATOM     51  C   UNL A   1      43.593  29.452  35.240  1.00  0.00     0.031 A 
ATOM     52  C   UNL A   1      38.386  32.659  32.972  1.00  0.00     0.049 A 
ATOM     53  C   UNL A   1      42.729  30.551  35.804  1.00  0.00     0.074 A 
ATOM     54  C   UNL A   1      37.612  33.602  33.626  1.00  0.00     0.029 A 
ATOM     55  N   UNL A   1      39.406  32.305  33.842  1.00  0.00    -0.354 N 
ATOM     56  N   UNL A   1      41.677  31.129  35.274  1.00  0.00    -0.248 NA
ATOM     57  C   UNL A   1      43.093  31.067  37.132  1.00  0.00     0.031 C 
ATOM     58  C   UNL A   1      38.196  33.857  34.871  1.00  0.00     0.029 A 
ATOM     59  C   UNL A   1      39.299  33.031  35.017  1.00  0.00     0.049 A 
ATOM     60  H   UNL A   1      40.104  31.637  33.653  1.00  0.00     0.167 HD
ATOM     61  C   UNL A   1      41.241  32.060  36.212  1.00  0.00     0.074 A 
ATOM     62  C   UNL A   1      42.134  31.959  37.348  1.00  0.00     0.031 C 
ATOM     63  C   UNL A   1      40.195  32.920  36.140  1.00  0.00     0.031 A 
BRANCH  50  64
ATOM     64  C   UNL A   1      37.085  32.650  30.803  1.00  0.00    -0.014 A 
ATOM     65  C   UNL A   1      37.303  33.620  29.809  1.00  0.00     0.010 A 
ATOM     66  C   UNL A   1      35.785  32.144  30.993  1.00  0.00     0.010 A 
ATOM     67  C   UNL A   1      36.235  34.104  29.048  1.00  0.00     0.020 A 
ATOM     68  C   UNL A   1      34.720  32.607  30.217  1.00  0.00     0.020 A 
ATOM     69  C   UNL A   1      34.949  33.598  29.262  1.00  0.00     0.054 A 
BRANCH  69  70
ATOM     70  S   UNL A   1      33.582  34.238  28.255  1.00  0.00     0.124 S 
ATOM     71  O   UNL A   1      32.880  35.093  29.210  1.00  0.00    -0.237 OA
ATOM     72  O   UNL A   1      34.277  34.939  27.179  1.00  0.00    -0.237 OA
ATOM     73  O   UNL A   1      32.859  33.037  27.846  1.00  0.00    -0.744 OA
ENDBRANCH  69  70
ENDBRANCH  50  64
BRANCH  51  74
ATOM     74  C   UNL A   1      44.753  28.927  36.012  1.00  0.00    -0.014 A 
ATOM     75  C   UNL A   1      46.057  29.383  35.751  1.00  0.00     0.010 A 
ATOM     76  C   UNL A   1      44.558  27.958  37.014  1.00  0.00     0.010 A 
ATOM     77  C   UNL A   1      47.144  28.870  36.466  1.00  0.00     0.020 A 
ATOM     78  C   UNL A   1      45.638  27.464  37.751  1.00  0.00     0.020 A 
ATOM     79  C   UNL A   1      46.927  27.915  37.464  1.00  0.00     0.054 A 
BRANCH  79  80
ATOM     80  S   UNL A   1      48.347  27.299  38.412  1.00  0.00     0.124 S 
ATOM     81  O   UNL A   1      48.992  26.411  37.451  1.00  0.00    -0.237 OA
ATOM     82  O   UNL A   1      49.074  28.527  38.724  1.00  0.00    -0.237 OA
ATOM     83  O   UNL A   1      47.731  26.639  39.561  1.00  0.00    -0.744 OA
ENDBRANCH  79  80
ENDBRANCH  51  74
BRANCH  63  84
ATOM     84  C   UNL A   1      39.929  33.802  37.332  1.00  0.00    -0.014 A 
ATOM     85  C   UNL A   1      40.644  34.997  37.529  1.00  0.00     0.010 A 
ATOM     86  C   UNL A   1      38.898  33.465  38.228  1.00  0.00     0.010 A 
ATOM     87  C   UNL A   1      40.344  35.829  38.612  1.00  0.00     0.020 A 
ATOM     88  C   UNL A   1      38.578  34.308  39.297  1.00  0.00     0.020 A 
ATOM     89  C   UNL A   1      39.311  35.480  39.487  1.00  0.00     0.054 A 
BRANCH  89  90
ATOM     90  S   UNL A   1      38.901  36.606  40.850  1.00  0.00     0.124 S 
ATOM     91  O   UNL A   1      40.219  36.906  41.404  1.00  0.00    -0.237 OA
ATOM     92  O   UNL A   1      38.241  37.714  40.164  1.00  0.00    -0.237 OA
ATOM     93  O   UNL A   1      38.031  35.808  41.710  1.00  0.00    -0.744 OA
ENDBRANCH  89  90
ENDBRANCH  63  84
ENDBRANCH  37  38
ENDBRANCH  30  32
ENDBRANCH  29  30
ENDBRANCH  28  29
ENDBRANCH  27  28
ENDBRANCH  26  27
ENDBRANCH  25  26
ENDBRANCH   1  25
TORSDOF 23
ENDMDL
MODEL 3
REMARK VINA RESULT:      -9.2      9.916     16.387
REMARK SMILES CC(C)(C)c1csc(C[C@@]2(C(=O)OCCOCCOCCOC(=O)c3ccc(-c4c5nc(c(-c6ccc(S(=O)(=O)[O-])cc6)c6ccc([nH]6)c(-c6ccc(S(=O)(=O)[O-])cc6)c6nc(c(-c7ccc(S(=O)(=O)[O-])cc7)c7ccc4[nH]7)C=C6)C=C5)cc3)C[C@H]3CC[C@@H]2C3)n1
REMARK SMILES IDX 17 1 16 2 15 3 14 4 13 5 11 6 12 7 10 8 85 9 89 10 86 11
REMARK SMILES IDX 88 12 90 13 87 14 9 15 8 16 5 17 6 18 91 19 7 20 2 21 1 22
REMARK SMILES IDX 3 23 4 24 18 25 19 26 20 27 21 28 22 29 23 30 24 31 25 32
REMARK SMILES IDX 26 33 84 34 27 35 83 36 28 37 29 38 30 39 77 40 31 41 82 42
REMARK SMILES IDX 76 43 78 44 32 45 81 46 75 47 74 48 33 50 63 51 44 52 62 53
REMARK SMILES IDX 45 54 48 55 61 56 79 57 46 58 47 59 60 61 80 62 49 63 34 64
REMARK SMILES IDX 35 65 43 66 36 67 42 68 37 69 38 70 39 71 40 72 41 73 64 74
REMARK SMILES IDX 65 75 73 76 66 77 72 78 67 79 68 80 69 81 70 82 71 83 50 84
REMARK SMILES IDX 51 85 59 86 52 87 58 88 53 89 54 90 55 91 56 92 57 93
REMARK H PARENT 78 49 48 60
REMARK Flexibility Score: inf
ROOT
ATOM      1  C   UNL A   1      44.214  40.851  26.424  1.00  0.00     0.188 C 
ENDROOT
BRANCH   1   2
ATOM      2  O   UNL A   1      43.349  40.608  25.327  1.00  0.00    -0.376 OA
BRANCH   2   3
ATOM      3  C   UNL A   1      42.281  41.505  25.074  1.00  0.00     0.202 C 
BRANCH   3   4
ATOM      4  C   UNL A   1      42.175  42.116  23.674  1.00  0.00     0.261 C 
BRANCH   4   5
ATOM      5  O   UNL A   1      43.306  42.918  23.278  1.00  0.00    -0.463 OA
BRANCH   5   6
ATOM      6  C   UNL A   1      43.862  42.577  22.087  1.00  0.00     0.312 C 
ATOM      7  O   UNL A   1      43.339  41.812  21.283  1.00  0.00    -0.252 OA
BRANCH   6   8
ATOM      8  C   UNL A   1      45.249  43.187  21.841  1.00  0.00     0.077 C 
ATOM      9  C   UNL A   1      46.159  42.573  20.742  1.00  0.00     0.023 C 
ATOM     10  C   UNL A   1      46.118  42.893  23.135  1.00  0.00     0.007 C 
ATOM     11  C   UNL A   1      47.466  42.240  21.494  1.00  0.00    -0.010 C 
ATOM     12  C   UNL A   1      47.287  43.875  23.265  1.00  0.00     0.005 C 
ATOM     13  C   UNL A   1      46.906  41.630  22.765  1.00  0.00     0.008 C 
ATOM     14  C   UNL A   1      48.132  43.528  22.028  1.00  0.00     0.004 C 
BRANCH   8  15
ATOM     15  C   UNL A   1      45.007  44.695  21.609  1.00  0.00     0.086 C 
BRANCH  15  16
ATOM     16  C   UNL A   1      44.900  45.122  20.171  1.00  0.00     0.094 A 
ATOM     17  C   UNL A   1      43.913  45.621  18.242  1.00  0.00     0.057 A 
ATOM     18  C   UNL A   1      45.120  46.269  18.053  1.00  0.00     0.091 A 
ATOM     19  N   UNL A   1      43.838  44.908  19.430  1.00  0.00    -0.246 NA
ATOM     20  S   UNL A   1      46.118  46.081  19.428  1.00  0.00    -0.127 S 
BRANCH  17  21
ATOM     21  C   UNL A   1      42.686  45.627  17.348  1.00  0.00     0.005 C 
ATOM     22  C   UNL A   1      42.537  46.953  16.575  1.00  0.00     0.017 C 
ATOM     23  C   UNL A   1      41.422  45.444  18.215  1.00  0.00     0.017 C 
ATOM     24  C   UNL A   1      42.775  44.472  16.336  1.00  0.00     0.017 C 
ENDBRANCH  17  21
ENDBRANCH  15  16
ENDBRANCH   8  15
ENDBRANCH   6   8
ENDBRANCH   5   6
ENDBRANCH   4   5
ENDBRANCH   3   4
ENDBRANCH   2   3
ENDBRANCH   1   2
BRANCH   1  25
ATOM     25  C   UNL A   1      44.980  39.681  27.073  1.00  0.00     0.188 C 
BRANCH  25  26
ATOM     26  O   UNL A   1      45.814  39.878  28.202  1.00  0.00    -0.376 OA
BRANCH  26  27
ATOM     27  C   UNL A   1      47.110  39.308  28.203  1.00  0.00     0.202 C 
BRANCH  27  28
ATOM     28  C   UNL A   1      47.374  38.154  29.175  1.00  0.00     0.261 C 
BRANCH  28  29
ATOM     29  O   UNL A   1      48.620  37.478  28.939  1.00  0.00    -0.460 OA
BRANCH  29  30
ATOM     30  C   UNL A   1      48.709  36.794  27.778  1.00  0.00     0.338 C 
ATOM     31  O   UNL A   1      49.403  37.075  26.802  1.00  0.00    -0.246 OA
BRANCH  30  32
ATOM     32  C   UNL A   1      47.961  35.531  27.879  1.00  0.00     0.060 A 
ATOM     33  C   UNL A   1      48.127  34.744  29.025  1.00  0.00     0.016 A 
ATOM     34  C   UNL A   1      47.165  35.084  26.824  1.00  0.00     0.016 A 
ATOM     35  C   UNL A   1      47.505  33.499  29.120  1.00  0.00     0.010 A 
ATOM     36  C   UNL A   1      46.562  33.824  26.910  1.00  0.00     0.010 A 
ATOM     37  C   UNL A   1      46.745  33.016  28.048  1.00  0.00    -0.014 A 
BRANCH  37  38
ATOM     38  C   UNL A   1      46.256  31.615  28.043  1.00  0.00     0.031 A 
ATOM     39  C   UNL A   1      47.173  30.528  27.555  1.00  0.00     0.074 A 
ATOM     40  C   UNL A   1      45.015  31.310  28.462  1.00  0.00     0.049 A 
ATOM     41  N   UNL A   1      46.918  29.264  27.335  1.00  0.00    -0.248 NA
ATOM     42  C   UNL A   1      48.566  30.919  27.281  1.00  0.00     0.031 C 
ATOM     43  C   UNL A   1      44.055  32.256  29.030  1.00  0.00     0.029 A 
ATOM     44  N   UNL A   1      44.345  30.111  28.460  1.00  0.00    -0.354 N 
ATOM     45  C   UNL A   1      48.109  28.714  26.873  1.00  0.00     0.074 A 
ATOM     46  C   UNL A   1      49.083  29.782  26.839  1.00  0.00     0.031 C 
ATOM     47  C   UNL A   1      42.913  31.603  29.307  1.00  0.00     0.029 A 
ATOM     48  C   UNL A   1      43.042  30.208  28.889  1.00  0.00     0.049 A 
ATOM     49  H   UNL A   1      44.758  29.262  28.178  1.00  0.00     0.167 HD
ATOM     50  C   UNL A   1      48.364  27.435  26.506  1.00  0.00     0.031 A 
ATOM     51  C   UNL A   1      42.056  29.288  28.903  1.00  0.00     0.031 A 
ATOM     52  C   UNL A   1      47.389  26.379  26.529  1.00  0.00     0.049 A 
ATOM     53  C   UNL A   1      42.334  27.896  28.394  1.00  0.00     0.074 A 
ATOM     54  C   UNL A   1      47.550  25.051  26.169  1.00  0.00     0.029 A 
ATOM     55  N   UNL A   1      46.069  26.528  26.925  1.00  0.00    -0.354 N 
ATOM     56  N   UNL A   1      43.460  27.391  27.946  1.00  0.00    -0.248 NA
ATOM     57  C   UNL A   1      41.207  26.952  28.385  1.00  0.00     0.031 C 
ATOM     58  C   UNL A   1      46.312  24.412  26.298  1.00  0.00     0.029 A 
ATOM     59  C   UNL A   1      45.396  25.325  26.794  1.00  0.00     0.049 A 
ATOM     60  H   UNL A   1      45.669  27.366  27.252  1.00  0.00     0.167 HD
ATOM     61  C   UNL A   1      43.180  26.066  27.624  1.00  0.00     0.074 A 
ATOM     62  C   UNL A   1      41.784  25.844  27.939  1.00  0.00     0.031 C 
ATOM     63  C   UNL A   1      44.006  25.119  27.113  1.00  0.00     0.031 A 
BRANCH  50  64
ATOM     64  C   UNL A   1      49.746  27.125  25.996  1.00  0.00    -0.014 A 
ATOM     65  C   UNL A   1      50.780  26.741  26.869  1.00  0.00     0.010 A 
ATOM     66  C   UNL A   1      50.006  27.195  24.615  1.00  0.00     0.010 A 
ATOM     67  C   UNL A   1      52.060  26.473  26.372  1.00  0.00     0.020 A 
ATOM     68  C   UNL A   1      51.276  26.903  24.113  1.00  0.00     0.020 A 
ATOM     69  C   UNL A   1      52.300  26.562  24.997  1.00  0.00     0.054 A 
BRANCH  69  70
ATOM     70  S   UNL A   1      53.967  26.202  24.379  1.00  0.00     0.124 S 
ATOM     71  O   UNL A   1      53.832  26.505  22.956  1.00  0.00    -0.237 OA
ATOM     72  O   UNL A   1      54.800  27.128  25.141  1.00  0.00    -0.237 OA
ATOM     73  O   UNL A   1      54.159  24.789  24.699  1.00  0.00    -0.744 OA
ENDBRANCH  69  70
ENDBRANCH  50  64
BRANCH  51  74
ATOM     74  C   UNL A   1      40.694  29.664  29.374  1.00  0.00    -0.014 A 
ATOM     75  C   UNL A   1      40.417  29.792  30.745  1.00  0.00     0.010 A 
ATOM     76  C   UNL A   1      39.660  29.887  28.445  1.00  0.00     0.010 A 
ATOM     77  C   UNL A   1      39.129  30.125  31.181  1.00  0.00     0.020 A 
ATOM     78  C   UNL A   1      38.379  30.247  28.874  1.00  0.00     0.020 A 
ATOM     79  C   UNL A   1      38.118  30.353  30.241  1.00  0.00     0.054 A 
BRANCH  79  80
ATOM     80  S   UNL A   1      36.469  30.829  30.827  1.00  0.00     0.124 S 
ATOM     81  O   UNL A   1      36.065  29.653  31.589  1.00  0.00    -0.237 OA
ATOM     82  O   UNL A   1      36.747  32.028  31.615  1.00  0.00    -0.237 OA
ATOM     83  O   UNL A   1      35.722  31.063  29.593  1.00  0.00    -0.744 OA
ENDBRANCH  79  80
ENDBRANCH  51  74
BRANCH  63  84
ATOM     84  C   UNL A   1      43.438  23.740  26.892  1.00  0.00    -0.014 A 
ATOM     85  C   UNL A   1      43.364  23.180  25.605  1.00  0.00     0.010 A 
ATOM     86  C   UNL A   1      43.042  22.968  28.000  1.00  0.00     0.010 A 
ATOM     87  C   UNL A   1      42.885  21.878  25.428  1.00  0.00     0.020 A 
ATOM     88  C   UNL A   1      42.588  21.657  27.829  1.00  0.00     0.020 A 
ATOM     89  C   UNL A   1      42.502  21.124  26.543  1.00  0.00     0.054 A 
BRANCH  89  90
ATOM     90  S   UNL A   1      41.941  19.417  26.293  1.00  0.00     0.124 S 
ATOM     91  O   UNL A   1      40.488  19.569  26.305  1.00  0.00    -0.237 OA
ATOM     92  O   UNL A   1      42.526  19.072  24.999  1.00  0.00    -0.237 OA
ATOM     93  O   UNL A   1      42.501  18.696  27.433  1.00  0.00    -0.744 OA
ENDBRANCH  89  90
ENDBRANCH  63  84
ENDBRANCH  37  38
ENDBRANCH  30  32
ENDBRANCH  29  30
ENDBRANCH  28  29
ENDBRANCH  27  28
ENDBRANCH  26  27
ENDBRANCH  25  26
ENDBRANCH   1  25
TORSDOF 23
ENDMDL
