MODEL 1
REMARK VINA RESULT:      -7.2      0.000      0.000
REMARK SMILES CCc1ccc(C[NH+]2CCC(Oc3ccccc3OC)(C(=O)OCCOCCOCCOC(=O)c3ccc(-c4c5nc(c(-c6ccc(S(=O)(=O)[O-])cc6)c6ccc([nH]6)c(-c6ccc(S(=O)(=O)[O-])cc6)c6nc(c(-c7ccc(S(=O)(=O)[O-])cc7)c7ccc4[nH]7)C=C6)C=C5)cc3)CC2)nc1
REMARK SMILES IDX 27 1 26 2 25 3 24 4 23 5 21 6 22 7 11 8 8 9 9 10 96 11 10 13
REMARK SMILES IDX 95 14 7 15 6 16 3 17 4 18 98 19 5 20 97 21 2 22 1 23 12 24
REMARK SMILES IDX 13 25 14 26 18 27 15 28 17 29 16 30 19 31 20 32 28 33 29 34
REMARK SMILES IDX 30 35 31 36 32 37 33 38 34 39 35 40 36 41 94 42 37 43 93 44
REMARK SMILES IDX 38 45 39 46 40 47 87 48 41 49 92 50 86 51 88 52 42 53 91 54
REMARK SMILES IDX 85 55 84 56 43 58 73 59 54 60 72 61 55 62 58 63 71 64 89 65
REMARK SMILES IDX 56 66 57 67 70 69 90 70 59 71 44 72 45 73 53 74 46 75 52 76
REMARK SMILES IDX 47 77 48 78 49 79 50 80 51 81 74 82 75 83 83 84 76 85 82 86
REMARK SMILES IDX 77 87 78 88 79 89 80 90 81 91 60 92 61 93 69 94 62 95 68 96
REMARK SMILES IDX 63 97 64 98 65 99 66 100 67 101
REMARK H PARENT 8 12 88 57 58 68
REMARK Flexibility Score: inf
ROOT
ATOM      1  C   UNL A   1      39.742  34.522  29.856  1.00  0.00     0.188 C 
ENDROOT
BRANCH   1   2
ATOM      2  O   UNL A   1      40.120  35.340  28.773  1.00  0.00    -0.376 OA
BRANCH   2   3
ATOM      3  C   UNL A   1      41.526  35.535  28.714  1.00  0.00     0.202 C 
BRANCH   3   4
ATOM      4  C   UNL A   1      42.180  35.771  27.310  1.00  0.00     0.261 C 
BRANCH   4   5
ATOM      5  O   UNL A   1      42.565  37.137  26.887  1.00  0.00    -0.460 OA
BRANCH   5   6
ATOM      6  C   UNL A   1      43.880  37.542  27.022  1.00  0.00     0.351 C 
ATOM      7  O   UNL A   1      44.810  36.793  26.714  1.00  0.00    -0.247 OA
BRANCH   6   8
ATOM      8  C   UNL A   1      44.134  38.973  27.650  1.00  0.00     0.216 C 
ATOM      9  N   UNL A   1      44.633  39.567  30.616  1.00  0.00    -0.330 N 
ATOM     10  C   UNL A   1      45.764  39.375  29.738  1.00  0.00     0.267 C 
ATOM     11  C   UNL A   1      43.388  38.962  30.124  1.00  0.00     0.267 C 
ATOM     12  H   UNL A   1      44.338  40.545  30.622  1.00  0.00     0.348 HD
ATOM     13  C   UNL A   1      45.477  39.421  28.245  1.00  0.00     0.122 C 
ATOM     14  C   UNL A   1      43.020  39.344  28.664  1.00  0.00     0.122 C 
BRANCH   9  15
ATOM     15  C   UNL A   1      45.063  39.285  32.028  1.00  0.00     0.319 C 
BRANCH  15  16
ATOM     16  C   UNL A   1      44.739  37.889  32.624  1.00  0.00     0.095 A 
ATOM     17  C   UNL A   1      43.666  34.468  33.257  1.00  0.00    -0.030 A 
ATOM     18  C   UNL A   1      42.849  35.869  34.081  1.00  0.00     0.007 A 
ATOM     19  C   UNL A   1      44.971  34.810  32.087  1.00  0.00     0.115 A 
ATOM     20  C   UNL A   1      43.293  37.587  33.668  1.00  0.00     0.030 A 
ATOM     21  N   UNL A   1      45.579  36.474  31.893  1.00  0.00    -0.255 NA
BRANCH  17  22
ATOM     22  C   UNL A   1      43.500  33.002  33.521  1.00  0.00     0.034 C 
ATOM     23  C   UNL A   1      44.105  32.490  34.800  1.00  0.00     0.009 C 
ENDBRANCH  17  22
ENDBRANCH  15  16
ENDBRANCH   9  15
BRANCH   8  24
ATOM     24  O   UNL A   1      44.038  39.567  26.300  1.00  0.00    -0.471 OA
BRANCH  24  25
ATOM     25  C   UNL A   1      44.869  40.578  25.938  1.00  0.00     0.162 A 
ATOM     26  C   UNL A   1      44.406  41.865  26.246  1.00  0.00     0.050 A 
ATOM     27  C   UNL A   1      46.034  40.414  25.179  1.00  0.00     0.160 A 
ATOM     28  C   UNL A   1      45.146  42.987  25.884  1.00  0.00     0.004 A 
ATOM     29  C   UNL A   1      46.802  41.547  24.888  1.00  0.00     0.050 A 
ATOM     30  C   UNL A   1      46.362  42.826  25.228  1.00  0.00     0.004 A 
BRANCH  27  31
ATOM     31  O   UNL A   1      46.601  39.265  24.701  1.00  0.00    -0.493 OA
ATOM     32  C   UNL A   1      47.646  38.627  25.424  1.00  0.00     0.278 C 
ENDBRANCH  27  31
ENDBRANCH  24  25
ENDBRANCH   8  24
ENDBRANCH   6   8
ENDBRANCH   5   6
ENDBRANCH   4   5
ENDBRANCH   3   4
ENDBRANCH   2   3
ENDBRANCH   1   2
BRANCH   1  33
ATOM     33  C   UNL A   1      38.225  34.336  30.054  1.00  0.00     0.188 C 
BRANCH  33  34
ATOM     34  O   UNL A   1      37.798  33.139  30.674  1.00  0.00    -0.376 OA
BRANCH  34  35
ATOM     35  C   UNL A   1      36.789  33.374  31.650  1.00  0.00     0.202 C 
BRANCH  35  36
ATOM     36  C   UNL A   1      37.238  33.068  33.088  1.00  0.00     0.261 C 
BRANCH  36  37
ATOM     37  O   UNL A   1      37.102  31.695  33.551  1.00  0.00    -0.460 OA
BRANCH  37  38
ATOM     38  C   UNL A   1      38.257  30.738  33.654  1.00  0.00     0.338 C 
ATOM     39  O   UNL A   1      38.077  30.276  34.818  1.00  0.00    -0.246 OA
BRANCH  38  40
ATOM     40  C   UNL A   1      39.725  30.344  32.128  1.00  0.00     0.060 A 
ATOM     41  C   UNL A   1      40.981  29.501  32.288  1.00  0.00     0.016 A 
ATOM     42  C   UNL A   1      39.821  30.720  30.678  1.00  0.00     0.016 A 
ATOM     43  C   UNL A   1      42.086  29.360  31.514  1.00  0.00     0.010 A 
ATOM     44  C   UNL A   1      40.827  30.349  29.758  1.00  0.00     0.010 A 
ATOM     45  C   UNL A   1      41.954  29.691  30.211  1.00  0.00    -0.014 A 
BRANCH  45  46
ATOM     46  C   UNL A   1      43.144  29.429  29.442  1.00  0.00     0.031 A 
ATOM     47  C   UNL A   1      43.130  28.168  28.675  1.00  0.00     0.074 A 
ATOM     48  C   UNL A   1      44.024  30.438  29.301  1.00  0.00     0.049 A 
ATOM     49  N   UNL A   1      44.110  27.601  28.052  1.00  0.00    -0.248 NA
ATOM     50  C   UNL A   1      41.855  27.419  28.627  1.00  0.00     0.031 C 
ATOM     51  C   UNL A   1      43.883  31.792  29.881  1.00  0.00     0.029 A 
ATOM     52  N   UNL A   1      45.168  30.516  28.579  1.00  0.00    -0.354 N 
ATOM     53  C   UNL A   1      43.610  26.378  27.645  1.00  0.00     0.074 A 
ATOM     54  C   UNL A   1      42.232  26.288  28.056  1.00  0.00     0.031 C 
ATOM     55  C   UNL A   1      44.892  32.564  29.458  1.00  0.00     0.029 A 
ATOM     56  C   UNL A   1      45.814  31.719  28.725  1.00  0.00     0.049 A 
ATOM     57  H   UNL A   1      45.501  29.786  28.009  1.00  0.00     0.167 HD
ATOM     58  C   UNL A   1      44.312  25.415  27.021  1.00  0.00     0.031 A 
ATOM     59  C   UNL A   1      47.070  32.037  28.381  1.00  0.00     0.031 A 
ATOM     60  C   UNL A   1      45.681  25.635  26.651  1.00  0.00     0.049 A 
ATOM     61  C   UNL A   1      47.851  30.920  27.753  1.00  0.00     0.074 A 
ATOM     62  C   UNL A   1      46.566  24.773  26.047  1.00  0.00     0.029 A 
ATOM     63  N   UNL A   1      46.354  26.840  26.859  1.00  0.00    -0.354 N 
ATOM     64  N   UNL A   1      47.443  29.703  27.458  1.00  0.00    -0.248 NA
ATOM     65  C   UNL A   1      49.249  31.192  27.431  1.00  0.00     0.031 C 
ATOM     66  C   UNL A   1      47.794  25.435  25.954  1.00  0.00     0.029 A 
ATOM     67  C   UNL A   1      47.654  26.739  26.418  1.00  0.00     0.049 A 
ATOM     68  H   UNL A   1      45.957  27.645  27.262  1.00  0.00     0.167 HD
ATOM     69  C   UNL A   1      48.528  29.063  26.889  1.00  0.00     0.074 A 
ATOM     70  C   UNL A   1      49.602  30.047  26.863  1.00  0.00     0.031 C 
ATOM     71  C   UNL A   1      48.646  27.791  26.432  1.00  0.00     0.031 A 
BRANCH  58  72
ATOM     72  C   UNL A   1      43.654  24.082  26.856  1.00  0.00    -0.014 A 
ATOM     73  C   UNL A   1      43.014  23.700  25.663  1.00  0.00     0.010 A 
ATOM     74  C   UNL A   1      43.638  23.202  27.953  1.00  0.00     0.010 A 
ATOM     75  C   UNL A   1      42.364  22.467  25.575  1.00  0.00     0.020 A 
ATOM     76  C   UNL A   1      43.020  21.955  27.859  1.00  0.00     0.020 A 
ATOM     77  C   UNL A   1      42.385  21.596  26.670  1.00  0.00     0.054 A 
BRANCH  77  78
ATOM     78  S   UNL A   1      41.614  19.966  26.495  1.00  0.00     0.124 S 
ATOM     79  O   UNL A   1      42.249  19.458  25.281  1.00  0.00    -0.237 OA
ATOM     80  O   UNL A   1      42.005  19.299  27.734  1.00  0.00    -0.237 OA
ATOM     81  O   UNL A   1      40.190  20.267  26.373  1.00  0.00    -0.744 OA
ENDBRANCH  77  78
ENDBRANCH  58  72
BRANCH  59  82
ATOM     82  C   UNL A   1      47.649  33.359  28.734  1.00  0.00    -0.014 A 
ATOM     83  C   UNL A   1      48.545  33.490  29.806  1.00  0.00     0.010 A 
ATOM     84  C   UNL A   1      47.321  34.508  27.984  1.00  0.00     0.010 A 
ATOM     85  C   UNL A   1      49.069  34.743  30.145  1.00  0.00     0.020 A 
ATOM     86  C   UNL A   1      47.872  35.754  28.293  1.00  0.00     0.020 A 
ATOM     87  C   UNL A   1      48.726  35.867  29.387  1.00  0.00     0.054 A 
BRANCH  87  88
ATOM     88  S   UNL A   1      49.415  37.478  29.855  1.00  0.00     0.124 S 
ATOM     89  O   UNL A   1      48.607  37.825  31.019  1.00  0.00    -0.237 OA
ATOM     90  O   UNL A   1      50.813  37.154  30.127  1.00  0.00    -0.237 OA
ATOM     91  O   UNL A   1      49.192  38.305  28.671  1.00  0.00    -0.744 OA
ENDBRANCH  87  88
ENDBRANCH  59  82
BRANCH  71  92
ATOM     92  C   UNL A   1      49.963  27.447  25.814  1.00  0.00    -0.014 A 
ATOM     93  C   UNL A   1      51.008  26.909  26.580  1.00  0.00     0.010 A 
ATOM     94  C   UNL A   1      50.114  27.612  24.426  1.00  0.00     0.010 A 
ATOM     95  C   UNL A   1      52.209  26.571  25.965  1.00  0.00     0.020 A 
ATOM     96  C   UNL A   1      51.294  27.230  23.802  1.00  0.00     0.020 A 
ATOM     97  C   UNL A   1      52.340  26.727  24.579  1.00  0.00     0.054 A 
BRANCH  97  98
ATOM     98  S   UNL A   1      53.889  26.223  23.799  1.00  0.00     0.124 S 
ATOM     99  O   UNL A   1      53.507  26.149  22.391  1.00  0.00    -0.237 OA
ATOM    100  O   UNL A   1      54.790  27.318  24.151  1.00  0.00    -0.237 OA
ATOM    101  O   UNL A   1      54.196  24.942  24.430  1.00  0.00    -0.744 OA
ENDBRANCH  97  98
ENDBRANCH  71  92
ENDBRANCH  45  46
ENDBRANCH  38  40
ENDBRANCH  37  38
ENDBRANCH  36  37
ENDBRANCH  35  36
ENDBRANCH  34  35
ENDBRANCH  33  34
ENDBRANCH   1  33
TORSDOF 26
ENDMDL
MODEL 2
REMARK VINA RESULT:      -7.0      4.299      9.623
REMARK SMILES CCc1ccc(C[NH+]2CCC(Oc3ccccc3OC)(C(=O)OCCOCCOCCOC(=O)c3ccc(-c4c5nc(c(-c6ccc(S(=O)(=O)[O-])cc6)c6ccc([nH]6)c(-c6ccc(S(=O)(=O)[O-])cc6)c6nc(c(-c7ccc(S(=O)(=O)[O-])cc7)c7ccc4[nH]7)C=C6)C=C5)cc3)CC2)nc1
REMARK SMILES IDX 27 1 26 2 25 3 24 4 23 5 21 6 22 7 11 8 8 9 9 10 96 11 10 13
REMARK SMILES IDX 95 14 7 15 6 16 3 17 4 18 98 19 5 20 97 21 2 22 1 23 12 24
REMARK SMILES IDX 13 25 14 26 18 27 15 28 17 29 16 30 19 31 20 32 28 33 29 34
REMARK SMILES IDX 30 35 31 36 32 37 33 38 34 39 35 40 36 41 94 42 37 43 93 44
REMARK SMILES IDX 38 45 39 46 40 47 87 48 41 49 92 50 86 51 88 52 42 53 91 54
REMARK SMILES IDX 85 55 84 56 43 58 73 59 54 60 72 61 55 62 58 63 71 64 89 65
REMARK SMILES IDX 56 66 57 67 70 69 90 70 59 71 44 72 45 73 53 74 46 75 52 76
REMARK SMILES IDX 47 77 48 78 49 79 50 80 51 81 74 82 75 83 83 84 76 85 82 86
REMARK SMILES IDX 77 87 78 88 79 89 80 90 81 91 60 92 61 93 69 94 62 95 68 96
REMARK SMILES IDX 63 97 64 98 65 99 66 100 67 101
REMARK H PARENT 8 12 88 57 58 68
REMARK Flexibility Score: inf
ROOT
ATOM      1  C   UNL A   1      35.810  35.034  32.733  1.00  0.00     0.188 C 
ENDROOT
BRANCH   1   2
ATOM      2  O   UNL A   1      37.157  34.952  33.136  1.00  0.00    -0.376 OA
BRANCH   2   3
ATOM      3  C   UNL A   1      37.956  34.248  32.196  1.00  0.00     0.202 C 
BRANCH   3   4
ATOM      4  C   UNL A   1      39.504  34.492  32.212  1.00  0.00     0.261 C 
BRANCH   4   5
ATOM      5  O   UNL A   1      40.324  34.157  31.026  1.00  0.00    -0.460 OA
BRANCH   5   6
ATOM      6  C   UNL A   1      41.691  34.006  31.170  1.00  0.00     0.351 C 
ATOM      7  O   UNL A   1      42.191  33.750  32.267  1.00  0.00    -0.247 OA
BRANCH   6   8
ATOM      8  C   UNL A   1      42.582  34.246  29.883  1.00  0.00     0.216 C 
ATOM      9  N   UNL A   1      43.710  36.943  28.958  1.00  0.00    -0.330 N 
ATOM     10  C   UNL A   1      44.528  36.085  29.784  1.00  0.00     0.267 C 
ATOM     11  C   UNL A   1      42.269  36.679  29.071  1.00  0.00     0.267 C 
ATOM     12  H   UNL A   1      43.832  36.720  27.969  1.00  0.00     0.348 HD
ATOM     13  C   UNL A   1      44.064  34.643  29.929  1.00  0.00     0.122 C 
ATOM     14  C   UNL A   1      41.871  35.190  28.878  1.00  0.00     0.122 C 
BRANCH   9  15
ATOM     15  C   UNL A   1      44.198  38.357  29.099  1.00  0.00     0.319 C 
BRANCH  15  16
ATOM     16  C   UNL A   1      43.650  39.204  30.279  1.00  0.00     0.095 A 
ATOM     17  C   UNL A   1      42.924  41.755  32.772  1.00  0.00    -0.030 A 
ATOM     18  C   UNL A   1      43.709  40.185  33.247  1.00  0.00     0.007 A 
ATOM     19  C   UNL A   1      42.566  42.043  31.047  1.00  0.00     0.115 A 
ATOM     20  C   UNL A   1      44.195  38.962  31.986  1.00  0.00     0.030 A 
ATOM     21  N   UNL A   1      42.798  40.733  29.860  1.00  0.00    -0.255 NA
BRANCH  17  22
ATOM     22  C   UNL A   1      42.382  42.835  33.659  1.00  0.00     0.034 C 
ATOM     23  C   UNL A   1      42.401  44.228  33.091  1.00  0.00     0.009 C 
ENDBRANCH  17  22
ENDBRANCH  15  16
ENDBRANCH   9  15
BRANCH   8  24
ATOM     24  O   UNL A   1      42.530  32.797  29.593  1.00  0.00    -0.471 OA
BRANCH  24  25
ATOM     25  C   UNL A   1      43.665  32.122  29.282  1.00  0.00     0.162 A 
ATOM     26  C   UNL A   1      44.215  31.369  30.329  1.00  0.00     0.050 A 
ATOM     27  C   UNL A   1      44.360  32.252  28.072  1.00  0.00     0.160 A 
ATOM     28  C   UNL A   1      45.404  30.669  30.148  1.00  0.00     0.004 A 
ATOM     29  C   UNL A   1      45.514  31.484  27.883  1.00  0.00     0.050 A 
ATOM     30  C   UNL A   1      46.041  30.704  28.912  1.00  0.00     0.004 A 
BRANCH  27  31
ATOM     31  O   UNL A   1      44.047  33.001  26.971  1.00  0.00    -0.493 OA
ATOM     32  C   UNL A   1      44.998  33.174  25.928  1.00  0.00     0.278 C 
ENDBRANCH  27  31
ENDBRANCH  24  25
ENDBRANCH   8  24
ENDBRANCH   6   8
ENDBRANCH   5   6
ENDBRANCH   4   5
ENDBRANCH   3   4
ENDBRANCH   2   3
ENDBRANCH   1   2
BRANCH   1  33
ATOM     33  C   UNL A   1      35.339  33.945  31.750  1.00  0.00     0.188 C 
BRANCH  33  34
ATOM     34  O   UNL A   1      35.348  34.271  30.374  1.00  0.00    -0.376 OA
BRANCH  34  35
ATOM     35  C   UNL A   1      34.062  34.120  29.782  1.00  0.00     0.202 C 
BRANCH  35  36
ATOM     36  C   UNL A   1      34.086  34.126  28.246  1.00  0.00     0.261 C 
BRANCH  36  37
ATOM     37  O   UNL A   1      34.918  33.130  27.587  1.00  0.00    -0.460 OA
BRANCH  37  38
ATOM     38  C   UNL A   1      35.056  31.714  28.074  1.00  0.00     0.338 C 
ATOM     39  O   UNL A   1      33.981  31.209  27.637  1.00  0.00    -0.246 OA
BRANCH  38  40
ATOM     40  C   UNL A   1      36.715  30.903  29.182  1.00  0.00     0.060 A 
ATOM     41  C   UNL A   1      38.056  31.584  29.415  1.00  0.00     0.016 A 
ATOM     42  C   UNL A   1      36.907  29.631  29.956  1.00  0.00     0.016 A 
ATOM     43  C   UNL A   1      39.244  31.118  29.875  1.00  0.00     0.010 A 
ATOM     44  C   UNL A   1      38.045  29.235  30.692  1.00  0.00     0.010 A 
ATOM     45  C   UNL A   1      39.202  29.987  30.613  1.00  0.00    -0.014 A 
BRANCH  45  46
ATOM     46  C   UNL A   1      40.490  29.609  31.135  1.00  0.00     0.031 A 
ATOM     47  C   UNL A   1      40.824  30.181  32.455  1.00  0.00     0.074 A 
ATOM     48  C   UNL A   1      41.143  28.612  30.512  1.00  0.00     0.049 A 
ATOM     49  N   UNL A   1      41.959  30.159  33.071  1.00  0.00    -0.248 NA
ATOM     50  C   UNL A   1      39.749  30.908  33.169  1.00  0.00     0.031 C 
ATOM     51  C   UNL A   1      40.658  27.875  29.324  1.00  0.00     0.029 A 
ATOM     52  N   UNL A   1      42.309  27.993  30.818  1.00  0.00    -0.354 N 
ATOM     53  C   UNL A   1      41.776  30.966  34.179  1.00  0.00     0.074 A 
ATOM     54  C   UNL A   1      40.416  31.441  34.179  1.00  0.00     0.031 C 
ATOM     55  C   UNL A   1      41.514  26.888  29.032  1.00  0.00     0.029 A 
ATOM     56  C   UNL A   1      42.664  27.032  29.903  1.00  0.00     0.049 A 
ATOM     57  H   UNL A   1      42.846  28.210  31.614  1.00  0.00     0.167 HD
ATOM     58  C   UNL A   1      42.726  31.295  35.072  1.00  0.00     0.031 A 
ATOM     59  C   UNL A   1      43.851  26.428  29.748  1.00  0.00     0.031 A 
ATOM     60  C   UNL A   1      44.046  30.741  34.969  1.00  0.00     0.049 A 
ATOM     61  C   UNL A   1      44.911  26.869  30.713  1.00  0.00     0.074 A 
ATOM     62  C   UNL A   1      45.151  30.979  35.753  1.00  0.00     0.029 A 
ATOM     63  N   UNL A   1      44.421  29.812  33.998  1.00  0.00    -0.354 N 
ATOM     64  N   UNL A   1      44.805  27.726  31.707  1.00  0.00    -0.248 NA
ATOM     65  C   UNL A   1      46.243  26.297  30.537  1.00  0.00     0.031 C 
ATOM     66  C   UNL A   1      46.211  30.246  35.211  1.00  0.00     0.029 A 
ATOM     67  C   UNL A   1      45.749  29.482  34.144  1.00  0.00     0.049 A 
ATOM     68  H   UNL A   1      43.822  29.445  33.308  1.00  0.00     0.167 HD
ATOM     69  C   UNL A   1      46.053  27.782  32.300  1.00  0.00     0.074 A 
ATOM     70  C   UNL A   1      46.888  26.847  31.557  1.00  0.00     0.031 C 
ATOM     71  C   UNL A   1      46.486  28.526  33.349  1.00  0.00     0.031 A 
BRANCH  58  72
ATOM     72  C   UNL A   1      42.389  32.350  36.077  1.00  0.00    -0.014 A 
ATOM     73  C   UNL A   1      42.599  33.719  35.833  1.00  0.00     0.010 A 
ATOM     74  C   UNL A   1      41.889  31.947  37.329  1.00  0.00     0.010 A 
ATOM     75  C   UNL A   1      42.322  34.663  36.825  1.00  0.00     0.020 A 
ATOM     76  C   UNL A   1      41.578  32.888  38.310  1.00  0.00     0.020 A 
ATOM     77  C   UNL A   1      41.799  34.241  38.052  1.00  0.00     0.054 A 
BRANCH  77  78
ATOM     78  S   UNL A   1      41.361  35.495  39.285  1.00  0.00     0.124 S 
ATOM     79  O   UNL A   1      40.301  34.828  40.036  1.00  0.00    -0.237 OA
ATOM     80  O   UNL A   1      42.619  35.681  40.004  1.00  0.00    -0.237 OA
ATOM     81  O   UNL A   1      40.930  36.636  38.481  1.00  0.00    -0.744 OA
ENDBRANCH  77  78
ENDBRANCH  58  72
BRANCH  59  82
ATOM     82  C   UNL A   1      44.095  25.500  28.613  1.00  0.00    -0.014 A 
ATOM     83  C   UNL A   1      43.767  24.139  28.712  1.00  0.00     0.010 A 
ATOM     84  C   UNL A   1      44.647  25.976  27.405  1.00  0.00     0.010 A 
ATOM     85  C   UNL A   1      44.020  23.268  27.646  1.00  0.00     0.020 A 
ATOM     86  C   UNL A   1      44.865  25.119  26.323  1.00  0.00     0.020 A 
ATOM     87  C   UNL A   1      44.570  23.764  26.460  1.00  0.00     0.054 A 
BRANCH  87  88
ATOM     88  S   UNL A   1      44.894  22.610  25.099  1.00  0.00     0.124 S 
ATOM     89  O   UNL A   1      46.010  21.830  25.624  1.00  0.00    -0.237 OA
ATOM     90  O   UNL A   1      43.624  21.899  24.982  1.00  0.00    -0.237 OA
ATOM     91  O   UNL A   1      45.218  23.485  23.974  1.00  0.00    -0.744 OA
ENDBRANCH  87  88
ENDBRANCH  59  82
BRANCH  71  92
ATOM     92  C   UNL A   1      47.901  28.287  33.769  1.00  0.00    -0.014 A 
ATOM     93  C   UNL A   1      48.243  27.201  34.589  1.00  0.00     0.010 A 
ATOM     94  C   UNL A   1      48.899  29.139  33.267  1.00  0.00     0.010 A 
ATOM     95  C   UNL A   1      49.574  26.992  34.933  1.00  0.00     0.020 A 
ATOM     96  C   UNL A   1      50.234  28.903  33.569  1.00  0.00     0.020 A 
ATOM     97  C   UNL A   1      50.560  27.839  34.414  1.00  0.00     0.054 A 
BRANCH  97  98
ATOM     98  S   UNL A   1      52.287  27.507  34.828  1.00  0.00     0.124 S 
ATOM     99  O   UNL A   1      52.984  28.024  33.653  1.00  0.00    -0.237 OA
ATOM    100  O   UNL A   1      52.469  28.274  36.058  1.00  0.00    -0.237 OA
ATOM    101  O   UNL A   1      52.332  26.056  34.991  1.00  0.00    -0.744 OA
ENDBRANCH  97  98
ENDBRANCH  71  92
ENDBRANCH  45  46
ENDBRANCH  38  40
ENDBRANCH  37  38
ENDBRANCH  36  37
ENDBRANCH  35  36
ENDBRANCH  34  35
ENDBRANCH  33  34
ENDBRANCH   1  33
TORSDOF 26
ENDMDL
MODEL 3
REMARK VINA RESULT:      -7.0      4.741      7.816
REMARK SMILES CCc1ccc(C[NH+]2CCC(Oc3ccccc3OC)(C(=O)OCCOCCOCCOC(=O)c3ccc(-c4c5nc(c(-c6ccc(S(=O)(=O)[O-])cc6)c6ccc([nH]6)c(-c6ccc(S(=O)(=O)[O-])cc6)c6nc(c(-c7ccc(S(=O)(=O)[O-])cc7)c7ccc4[nH]7)C=C6)C=C5)cc3)CC2)nc1
REMARK SMILES IDX 27 1 26 2 25 3 24 4 23 5 21 6 22 7 11 8 8 9 9 10 96 11 10 13
REMARK SMILES IDX 95 14 7 15 6 16 3 17 4 18 98 19 5 20 97 21 2 22 1 23 12 24
REMARK SMILES IDX 13 25 14 26 18 27 15 28 17 29 16 30 19 31 20 32 28 33 29 34
REMARK SMILES IDX 30 35 31 36 32 37 33 38 34 39 35 40 36 41 94 42 37 43 93 44
REMARK SMILES IDX 38 45 39 46 40 47 87 48 41 49 92 50 86 51 88 52 42 53 91 54
REMARK SMILES IDX 85 55 84 56 43 58 73 59 54 60 72 61 55 62 58 63 71 64 89 65
REMARK SMILES IDX 56 66 57 67 70 69 90 70 59 71 44 72 45 73 53 74 46 75 52 76
REMARK SMILES IDX 47 77 48 78 49 79 50 80 51 81 74 82 75 83 83 84 76 85 82 86
REMARK SMILES IDX 77 87 78 88 79 89 80 90 81 91 60 92 61 93 69 94 62 95 68 96
REMARK SMILES IDX 63 97 64 98 65 99 66 100 67 101
REMARK H PARENT 8 12 88 57 58 68
REMARK Flexibility Score: inf
ROOT
ATOM      1  C   UNL A   1      35.609  35.032  32.702  1.00  0.00     0.188 C 
ENDROOT
BRANCH   1   2
ATOM      2  O   UNL A   1      36.898  34.885  33.251  1.00  0.00    -0.376 OA
BRANCH   2   3
ATOM      3  C   UNL A   1      37.781  34.203  32.373  1.00  0.00     0.202 C 
BRANCH   3   4
ATOM      4  C   UNL A   1      39.306  34.558  32.436  1.00  0.00     0.261 C 
BRANCH   4   5
ATOM      5  O   UNL A   1      40.162  34.384  31.241  1.00  0.00    -0.460 OA
BRANCH   5   6
ATOM      6  C   UNL A   1      41.537  34.420  31.383  1.00  0.00     0.351 C 
ATOM      7  O   UNL A   1      42.058  34.616  32.483  1.00  0.00    -0.247 OA
BRANCH   6   8
ATOM      8  C   UNL A   1      42.403  34.270  30.065  1.00  0.00     0.216 C 
ATOM      9  N   UNL A   1      43.631  36.570  28.452  1.00  0.00    -0.330 N 
ATOM     10  C   UNL A   1      44.429  35.915  29.461  1.00  0.00     0.267 C 
ATOM     11  C   UNL A   1      42.182  36.421  28.651  1.00  0.00     0.267 C 
ATOM     12  H   UNL A   1      43.714  36.092  27.554  1.00  0.00     0.348 HD
ATOM     13  C   UNL A   1      43.903  34.587  29.984  1.00  0.00     0.122 C 
ATOM     14  C   UNL A   1      41.709  34.956  28.859  1.00  0.00     0.122 C 
BRANCH   9  15
ATOM     15  C   UNL A   1      44.188  37.945  28.212  1.00  0.00     0.319 C 
BRANCH  15  16
ATOM     16  C   UNL A   1      44.058  38.994  29.348  1.00  0.00     0.095 A 
ATOM     17  C   UNL A   1      43.046  41.035  32.188  1.00  0.00    -0.030 A 
ATOM     18  C   UNL A   1      43.043  41.717  30.502  1.00  0.00     0.007 A 
ATOM     19  C   UNL A   1      43.503  39.324  32.415  1.00  0.00     0.115 A 
ATOM     20  C   UNL A   1      43.420  40.663  29.064  1.00  0.00     0.030 A 
ATOM     21  N   UNL A   1      44.129  38.380  31.039  1.00  0.00    -0.255 NA
BRANCH  17  22
ATOM     22  C   UNL A   1      42.848  41.755  33.488  1.00  0.00     0.034 C 
ATOM     23  C   UNL A   1      42.261  43.137  33.393  1.00  0.00     0.009 C 
ENDBRANCH  17  22
ENDBRANCH  15  16
ENDBRANCH   9  15
BRANCH   8  24
ATOM     24  O   UNL A   1      42.274  32.801  30.165  1.00  0.00    -0.471 OA
BRANCH  24  25
ATOM     25  C   UNL A   1      43.332  32.001  29.872  1.00  0.00     0.162 A 
ATOM     26  C   UNL A   1      43.356  31.506  28.560  1.00  0.00     0.050 A 
ATOM     27  C   UNL A   1      44.270  31.550  30.809  1.00  0.00     0.160 A 
ATOM     28  C   UNL A   1      44.364  30.638  28.151  1.00  0.00     0.004 A 
ATOM     29  C   UNL A   1      45.317  30.737  30.362  1.00  0.00     0.050 A 
ATOM     30  C   UNL A   1      45.364  30.275  29.047  1.00  0.00     0.004 A 
BRANCH  27  31
ATOM     31  O   UNL A   1      44.366  31.835  32.143  1.00  0.00    -0.493 OA
ATOM     32  C   UNL A   1      45.638  31.882  32.777  1.00  0.00     0.278 C 
ENDBRANCH  27  31
ENDBRANCH  24  25
ENDBRANCH   8  24
ENDBRANCH   6   8
ENDBRANCH   5   6
ENDBRANCH   4   5
ENDBRANCH   3   4
ENDBRANCH   2   3
ENDBRANCH   1   2
BRANCH   1  33
ATOM     33  C   UNL A   1      35.144  33.891  31.777  1.00  0.00     0.188 C 
BRANCH  33  34
ATOM     34  O   UNL A   1      35.349  34.062  30.388  1.00  0.00    -0.376 OA
BRANCH  34  35
ATOM     35  C   UNL A   1      34.139  33.932  29.650  1.00  0.00     0.202 C 
BRANCH  35  36
ATOM     36  C   UNL A   1      34.327  34.057  28.130  1.00  0.00     0.261 C 
BRANCH  36  37
ATOM     37  O   UNL A   1      35.211  33.096  27.486  1.00  0.00    -0.460 OA
BRANCH  37  38
ATOM     38  C   UNL A   1      35.335  31.663  27.924  1.00  0.00     0.338 C 
ATOM     39  O   UNL A   1      34.320  31.156  27.361  1.00  0.00    -0.246 OA
BRANCH  38  40
ATOM     40  C   UNL A   1      36.896  30.837  29.155  1.00  0.00     0.060 A 
ATOM     41  C   UNL A   1      38.230  31.497  29.474  1.00  0.00     0.016 A 
ATOM     42  C   UNL A   1      37.010  29.572  29.955  1.00  0.00     0.016 A 
ATOM     43  C   UNL A   1      39.374  31.016  30.022  1.00  0.00     0.010 A 
ATOM     44  C   UNL A   1      38.086  29.166  30.774  1.00  0.00     0.010 A 
ATOM     45  C   UNL A   1      39.259  29.896  30.768  1.00  0.00    -0.014 A 
BRANCH  45  46
ATOM     46  C   UNL A   1      40.501  29.503  31.384  1.00  0.00     0.031 A 
ATOM     47  C   UNL A   1      41.309  28.541  30.608  1.00  0.00     0.074 A 
ATOM     48  C   UNL A   1      40.913  30.209  32.452  1.00  0.00     0.049 A 
ATOM     49  N   UNL A   1      42.359  27.892  30.987  1.00  0.00    -0.248 NA
ATOM     50  C   UNL A   1      40.861  28.238  29.230  1.00  0.00     0.031 C 
ATOM     51  C   UNL A   1      40.192  31.349  33.061  1.00  0.00     0.029 A 
ATOM     52  N   UNL A   1      42.057  30.131  33.175  1.00  0.00    -0.354 N 
ATOM     53  C   UNL A   1      42.627  27.016  29.951  1.00  0.00     0.074 A 
ATOM     54  C   UNL A   1      41.657  27.232  28.908  1.00  0.00     0.031 C 
ATOM     55  C   UNL A   1      40.937  31.873  34.043  1.00  0.00     0.029 A 
ATOM     56  C   UNL A   1      42.089  31.012  34.227  1.00  0.00     0.049 A 
ATOM     57  H   UNL A   1      42.789  29.507  32.966  1.00  0.00     0.167 HD
ATOM     58  C   UNL A   1      43.596  26.084  29.946  1.00  0.00     0.031 A 
ATOM     59  C   UNL A   1      42.922  31.025  35.278  1.00  0.00     0.031 A 
ATOM     60  C   UNL A   1      44.512  25.979  31.044  1.00  0.00     0.049 A 
ATOM     61  C   UNL A   1      43.946  29.928  35.281  1.00  0.00     0.074 A 
ATOM     62  C   UNL A   1      45.535  25.080  31.240  1.00  0.00     0.029 A 
ATOM     63  N   UNL A   1      44.502  26.839  32.145  1.00  0.00    -0.354 N 
ATOM     64  N   UNL A   1      44.154  29.003  34.367  1.00  0.00    -0.248 NA
ATOM     65  C   UNL A   1      44.827  29.851  36.442  1.00  0.00     0.031 C 
ATOM     66  C   UNL A   1      46.096  25.354  32.492  1.00  0.00     0.029 A 
ATOM     67  C   UNL A   1      45.484  26.478  33.038  1.00  0.00     0.049 A 
ATOM     68  H   UNL A   1      43.881  27.593  32.264  1.00  0.00     0.167 HD
ATOM     69  C   UNL A   1      45.211  28.240  34.828  1.00  0.00     0.074 A 
ATOM     70  C   UNL A   1      45.610  28.838  36.095  1.00  0.00     0.031 C 
ATOM     71  C   UNL A   1      45.804  27.152  34.276  1.00  0.00     0.031 A 
BRANCH  58  72
ATOM     72  C   UNL A   1      43.590  25.091  28.826  1.00  0.00    -0.014 A 
ATOM     73  C   UNL A   1      42.874  23.883  28.894  1.00  0.00     0.010 A 
ATOM     74  C   UNL A   1      44.369  25.363  27.687  1.00  0.00     0.010 A 
ATOM     75  C   UNL A   1      42.945  22.962  27.846  1.00  0.00     0.020 A 
ATOM     76  C   UNL A   1      44.416  24.462  26.623  1.00  0.00     0.020 A 
ATOM     77  C   UNL A   1      43.704  23.265  26.710  1.00  0.00     0.054 A 
BRANCH  77  78
ATOM     78  S   UNL A   1      43.702  22.093  25.328  1.00  0.00     0.124 S 
ATOM     79  O   UNL A   1      42.512  21.294  25.609  1.00  0.00    -0.237 OA
ATOM     80  O   UNL A   1      43.608  22.975  24.169  1.00  0.00    -0.237 OA
ATOM     81  O   UNL A   1      44.973  21.386  25.471  1.00  0.00    -0.744 OA
ENDBRANCH  77  78
ENDBRANCH  58  72
BRANCH  59  82
ATOM     82  C   UNL A   1      42.727  31.982  36.398  1.00  0.00    -0.014 A 
ATOM     83  C   UNL A   1      41.953  31.635  37.515  1.00  0.00     0.010 A 
ATOM     84  C   UNL A   1      43.334  33.255  36.365  1.00  0.00     0.010 A 
ATOM     85  C   UNL A   1      41.758  32.551  38.555  1.00  0.00     0.020 A 
ATOM     86  C   UNL A   1      43.176  34.159  37.418  1.00  0.00     0.020 A 
ATOM     87  C   UNL A   1      42.368  33.808  38.498  1.00  0.00     0.054 A 
BRANCH  87  88
ATOM     88  S   UNL A   1      42.091  34.976  39.858  1.00  0.00     0.124 S 
ATOM     89  O   UNL A   1      41.705  34.085  40.947  1.00  0.00    -0.237 OA
ATOM     90  O   UNL A   1      43.397  35.614  39.994  1.00  0.00    -0.237 OA
ATOM     91  O   UNL A   1      41.028  35.844  39.355  1.00  0.00    -0.744 OA
ENDBRANCH  87  88
ENDBRANCH  59  82
BRANCH  71  92
ATOM     92  C   UNL A   1      46.978  26.607  35.026  1.00  0.00    -0.014 A 
ATOM     93  C   UNL A   1      46.805  25.819  36.174  1.00  0.00     0.010 A 
ATOM     94  C   UNL A   1      48.265  26.846  34.517  1.00  0.00     0.010 A 
ATOM     95  C   UNL A   1      47.919  25.303  36.827  1.00  0.00     0.020 A 
ATOM     96  C   UNL A   1      49.376  26.292  35.140  1.00  0.00     0.020 A 
ATOM     97  C   UNL A   1      49.195  25.536  36.301  1.00  0.00     0.054 A 
BRANCH  97  98
ATOM     98  S   UNL A   1      50.619  24.802  37.136  1.00  0.00     0.124 S 
ATOM     99  O   UNL A   1      50.945  25.823  38.129  1.00  0.00    -0.237 OA
ATOM    100  O   UNL A   1      50.067  23.559  37.667  1.00  0.00    -0.237 OA
ATOM    101  O   UNL A   1      51.602  24.637  36.067  1.00  0.00    -0.744 OA
ENDBRANCH  97  98
ENDBRANCH  71  92
ENDBRANCH  45  46
ENDBRANCH  38  40
ENDBRANCH  37  38
ENDBRANCH  36  37
ENDBRANCH  35  36
ENDBRANCH  34  35
ENDBRANCH  33  34
ENDBRANCH   1  33
TORSDOF 26
ENDMDL
