MODEL 1
REMARK VINA RESULT:      -6.7      0.000      0.000
REMARK SMILES CN1C(=O)C(=Cc2ccc(OCc3cccc(C(=O)OCCOCCOCCOC(=O)c4ccc(-c5c6nc(c(-c7ccc(S(=O)(=O)[O-])cc7)c7ccc([nH]7)c(-c7ccc(S(=O)(=O)[O-])cc7)c7nc(c(-c8ccc(S(=O)(=O)[O-])cc8)c8ccc5[nH]8)C=C7)C=C6)cc4)c3)c(Cl)c2)C(=O)N(C)C1=S
REMARK SMILES IDX 24 1 23 2 22 3 21 4 20 5 18 6 19 7 17 8 13 9 14 10 92 11
REMARK SMILES IDX 15 12 16 13 12 14 11 15 10 16 7 17 8 18 95 19 9 20 93 21
REMARK SMILES IDX 94 22 6 23 1 24 2 25 3 26 100 27 4 28 5 29 98 30 101 31
REMARK SMILES IDX 96 32 99 33 97 34 25 35 26 36 27 37 28 38 29 39 30 40 31 41
REMARK SMILES IDX 32 42 33 43 91 44 34 45 90 46 35 47 36 48 37 49 84 50 38 51
REMARK SMILES IDX 89 52 83 53 85 54 39 55 88 56 82 57 81 58 40 60 70 61 51 62
REMARK SMILES IDX 69 63 52 64 55 65 68 66 86 67 53 68 54 69 67 71 87 72 56 73
REMARK SMILES IDX 41 74 42 75 50 76 43 77 49 78 44 79 45 80 46 81 47 82 48 83
REMARK SMILES IDX 71 84 72 85 80 86 73 87 79 88 74 89 75 90 76 91 77 92 78 93
REMARK SMILES IDX 57 94 58 95 66 96 59 97 65 98 60 99 61 100 62 101 63 102
REMARK SMILES IDX 64 103
REMARK H PARENT 85 59 55 70
REMARK Flexibility Score: inf
ROOT
ATOM      1  C   UNL A   1      37.922  31.967  40.915  1.00  0.00     0.188 C 
ENDROOT
BRANCH   1   2
ATOM      2  O   UNL A   1      36.616  31.685  40.430  1.00  0.00    -0.376 OA
BRANCH   2   3
ATOM      3  C   UNL A   1      36.169  32.508  39.361  1.00  0.00     0.202 C 
BRANCH   3   4
ATOM      4  C   UNL A   1      37.299  32.962  38.429  1.00  0.00     0.261 C 
BRANCH   4   5
ATOM      5  O   UNL A   1      37.157  32.510  37.073  1.00  0.00    -0.460 OA
BRANCH   5   6
ATOM      6  C   UNL A   1      37.789  31.358  36.757  1.00  0.00     0.338 C 
ATOM      7  O   UNL A   1      37.703  30.301  37.361  1.00  0.00    -0.246 OA
BRANCH   6   8
ATOM      8  C   UNL A   1      38.451  31.522  35.440  1.00  0.00     0.060 A 
ATOM      9  C   UNL A   1      39.825  30.690  33.601  1.00  0.00    -0.010 A 
ATOM     10  C   UNL A   1      39.738  31.961  33.012  1.00  0.00     0.007 A 
ATOM     11  C   UNL A   1      39.187  30.486  34.839  1.00  0.00     0.023 A 
ATOM     12  C   UNL A   1      39.027  32.998  33.622  1.00  0.00     0.001 A 
ATOM     13  C   UNL A   1      38.369  32.775  34.827  1.00  0.00     0.016 A 
BRANCH   9  14
ATOM     14  C   UNL A   1      40.497  29.537  32.875  1.00  0.00     0.265 C 
BRANCH  14  15
ATOM     15  O   UNL A   1      41.688  29.828  32.139  1.00  0.00    -0.487 OA
BRANCH  15  16
ATOM     16  C   UNL A   1      41.964  29.169  30.976  1.00  0.00     0.138 A 
ATOM     17  C   UNL A   1      42.701  27.502  28.827  1.00  0.00    -0.023 A 
ATOM     18  C   UNL A   1      42.577  26.975  30.114  1.00  0.00     0.012 A 
ATOM     19  C   UNL A   1      42.381  28.841  28.603  1.00  0.00     0.032 A 
ATOM     20  C   UNL A   1      42.215  27.804  31.175  1.00  0.00     0.048 A 
ATOM     21  C   UNL A   1      41.967  29.662  29.664  1.00  0.00     0.083 A 
ATOM     22  Cl  UNL A   1      41.399  31.234  29.221  1.00  0.00    -0.080 Cl
BRANCH  17  23
ATOM     23  C   UNL A   1      43.136  26.639  27.727  1.00  0.00     0.027 C 
ATOM     24  C   UNL A   1      38.982  24.304  27.574  1.00  0.00     0.156 C 
ATOM     25  N   UNL A   1      40.349  24.450  27.062  1.00  0.00    -0.288 N 
ATOM     26  C   UNL A   1      40.889  25.721  27.235  1.00  0.00     0.265 C 
ATOM     27  C   UNL A   1      41.011  23.360  26.449  1.00  0.00     0.185 C 
ATOM     28  O   UNL A   1      40.226  26.717  27.510  1.00  0.00    -0.268 OA
ATOM     29  C   UNL A   1      42.340  25.795  27.040  1.00  0.00     0.106 C 
ATOM     30  N   UNL A   1      42.327  23.618  26.006  1.00  0.00    -0.288 N 
ATOM     31  S   UNL A   1      40.249  21.857  26.245  1.00  0.00    -0.040 S 
ATOM     32  C   UNL A   1      42.996  24.835  26.147  1.00  0.00     0.265 C 
ATOM     33  C   UNL A   1      43.153  22.601  25.342  1.00  0.00     0.156 C 
ATOM     34  O   UNL A   1      44.076  25.094  25.620  1.00  0.00    -0.268 OA
ENDBRANCH  17  23
ENDBRANCH  15  16
ENDBRANCH  14  15
ENDBRANCH   9  14
ENDBRANCH   6   8
ENDBRANCH   5   6
ENDBRANCH   4   5
ENDBRANCH   3   4
ENDBRANCH   2   3
ENDBRANCH   1   2
BRANCH   1  35
ATOM     35  C   UNL A   1      38.269  31.297  42.260  1.00  0.00     0.188 C 
BRANCH  35  36
ATOM     36  O   UNL A   1      39.415  31.679  43.009  1.00  0.00    -0.376 OA
BRANCH  36  37
ATOM     37  C   UNL A   1      40.626  30.960  42.854  1.00  0.00     0.202 C 
BRANCH  37  38
ATOM     38  C   UNL A   1      41.798  31.635  42.130  1.00  0.00     0.261 C 
BRANCH  38  39
ATOM     39  O   UNL A   1      41.748  31.582  40.697  1.00  0.00    -0.460 OA
BRANCH  39  40
ATOM     40  C   UNL A   1      41.706  32.786  40.074  1.00  0.00     0.338 C 
ATOM     41  O   UNL A   1      41.431  33.865  40.570  1.00  0.00    -0.246 OA
BRANCH  40  42
ATOM     42  C   UNL A   1      42.204  32.645  38.689  1.00  0.00     0.060 A 
ATOM     43  C   UNL A   1      41.276  32.369  37.676  1.00  0.00     0.016 A 
ATOM     44  C   UNL A   1      43.567  32.723  38.398  1.00  0.00     0.016 A 
ATOM     45  C   UNL A   1      41.711  32.146  36.369  1.00  0.00     0.010 A 
ATOM     46  C   UNL A   1      44.004  32.474  37.091  1.00  0.00     0.010 A 
ATOM     47  C   UNL A   1      43.081  32.158  36.078  1.00  0.00    -0.014 A 
BRANCH  47  48
ATOM     48  C   UNL A   1      43.556  31.668  34.760  1.00  0.00     0.031 A 
ATOM     49  C   UNL A   1      44.100  30.269  34.663  1.00  0.00     0.074 A 
ATOM     50  C   UNL A   1      43.489  32.443  33.663  1.00  0.00     0.049 A 
ATOM     51  N   UNL A   1      44.595  29.642  33.627  1.00  0.00    -0.248 NA
ATOM     52  C   UNL A   1      44.083  29.471  35.900  1.00  0.00     0.031 C 
ATOM     53  C   UNL A   1      42.944  33.799  33.613  1.00  0.00     0.029 A 
ATOM     54  N   UNL A   1      43.895  32.195  32.375  1.00  0.00    -0.354 N 
ATOM     55  C   UNL A   1      44.950  28.380  34.086  1.00  0.00     0.074 A 
ATOM     56  C   UNL A   1      44.640  28.338  35.498  1.00  0.00     0.031 C 
ATOM     57  C   UNL A   1      43.061  34.268  32.358  1.00  0.00     0.029 A 
ATOM     58  C   UNL A   1      43.714  33.259  31.525  1.00  0.00     0.049 A 
ATOM     59  H   UNL A   1      44.279  31.335  32.088  1.00  0.00     0.167 HD
ATOM     60  C   UNL A   1      45.484  27.345  33.395  1.00  0.00     0.031 A 
ATOM     61  C   UNL A   1      44.057  33.411  30.229  1.00  0.00     0.031 A 
ATOM     62  C   UNL A   1      45.818  27.391  31.997  1.00  0.00     0.049 A 
ATOM     63  C   UNL A   1      44.727  32.274  29.500  1.00  0.00     0.074 A 
ATOM     64  C   UNL A   1      46.357  26.390  31.207  1.00  0.00     0.029 A 
ATOM     65  N   UNL A   1      45.654  28.500  31.181  1.00  0.00    -0.354 N 
ATOM     66  N   UNL A   1      45.034  31.077  29.941  1.00  0.00    -0.248 NA
ATOM     67  C   UNL A   1      45.092  32.509  28.095  1.00  0.00     0.031 C 
ATOM     68  C   UNL A   1      46.569  26.912  29.926  1.00  0.00     0.029 A 
ATOM     69  C   UNL A   1      46.108  28.218  29.904  1.00  0.00     0.049 A 
ATOM     70  H   UNL A   1      45.272  29.361  31.468  1.00  0.00     0.167 HD
ATOM     71  C   UNL A   1      45.602  30.408  28.860  1.00  0.00     0.074 A 
ATOM     72  C   UNL A   1      45.587  31.329  27.743  1.00  0.00     0.031 C 
ATOM     73  C   UNL A   1      46.089  29.143  28.799  1.00  0.00     0.031 A 
BRANCH  60  74
ATOM     74  C   UNL A   1      45.775  26.083  34.161  1.00  0.00    -0.014 A 
ATOM     75  C   UNL A   1      44.752  25.170  34.473  1.00  0.00     0.010 A 
ATOM     76  C   UNL A   1      47.094  25.795  34.555  1.00  0.00     0.010 A 
ATOM     77  C   UNL A   1      45.035  24.014  35.204  1.00  0.00     0.020 A 
ATOM     78  C   UNL A   1      47.386  24.628  35.265  1.00  0.00     0.020 A 
ATOM     79  C   UNL A   1      46.351  23.753  35.602  1.00  0.00     0.054 A 
BRANCH  79  80
ATOM     80  S   UNL A   1      46.692  22.243  36.544  1.00  0.00     0.124 S 
ATOM     81  O   UNL A   1      46.389  21.203  35.563  1.00  0.00    -0.237 OA
ATOM     82  O   UNL A   1      48.105  22.389  36.885  1.00  0.00    -0.237 OA
ATOM     83  O   UNL A   1      45.769  22.322  37.674  1.00  0.00    -0.744 OA
ENDBRANCH  79  80
ENDBRANCH  60  74
BRANCH  61  84
ATOM     84  C   UNL A   1      43.790  34.701  29.536  1.00  0.00    -0.014 A 
ATOM     85  C   UNL A   1      44.787  35.687  29.445  1.00  0.00     0.010 A 
ATOM     86  C   UNL A   1      42.527  34.950  28.967  1.00  0.00     0.010 A 
ATOM     87  C   UNL A   1      44.523  36.904  28.810  1.00  0.00     0.020 A 
ATOM     88  C   UNL A   1      42.267  36.155  28.309  1.00  0.00     0.020 A 
ATOM     89  C   UNL A   1      43.265  37.130  28.243  1.00  0.00     0.054 A 
BRANCH  89  90
ATOM     90  S   UNL A   1      42.961  38.695  27.377  1.00  0.00     0.124 S 
ATOM     91  O   UNL A   1      41.797  38.370  26.559  1.00  0.00    -0.237 OA
ATOM     92  O   UNL A   1      42.722  39.625  28.477  1.00  0.00    -0.237 OA
ATOM     93  O   UNL A   1      44.202  38.921  26.638  1.00  0.00    -0.744 OA
ENDBRANCH  89  90
ENDBRANCH  61  84
BRANCH  73  94
ATOM     94  C   UNL A   1      46.617  28.662  27.473  1.00  0.00    -0.014 A 
ATOM     95  C   UNL A   1      45.751  28.204  26.464  1.00  0.00     0.010 A 
ATOM     96  C   UNL A   1      47.998  28.728  27.212  1.00  0.00     0.010 A 
ATOM     97  C   UNL A   1      46.260  27.796  25.228  1.00  0.00     0.020 A 
ATOM     98  C   UNL A   1      48.507  28.345  25.968  1.00  0.00     0.020 A 
ATOM     99  C   UNL A   1      47.635  27.868  24.987  1.00  0.00     0.054 A 
BRANCH  99 100
ATOM    100  S   UNL A   1      48.266  27.378  23.358  1.00  0.00     0.124 S 
ATOM    101  O   UNL A   1      49.674  27.757  23.451  1.00  0.00    -0.237 OA
ATOM    102  O   UNL A   1      48.002  25.941  23.330  1.00  0.00    -0.237 OA
ATOM    103  O   UNL A   1      47.468  28.170  22.425  1.00  0.00    -0.744 OA
ENDBRANCH  99 100
ENDBRANCH  73  94
ENDBRANCH  47  48
ENDBRANCH  40  42
ENDBRANCH  39  40
ENDBRANCH  38  39
ENDBRANCH  37  38
ENDBRANCH  36  37
ENDBRANCH  35  36
ENDBRANCH   1  35
TORSDOF 24
ENDMDL
MODEL 2
REMARK VINA RESULT:      -5.8      5.199     14.108
REMARK SMILES CN1C(=O)C(=Cc2ccc(OCc3cccc(C(=O)OCCOCCOCCOC(=O)c4ccc(-c5c6nc(c(-c7ccc(S(=O)(=O)[O-])cc7)c7ccc([nH]7)c(-c7ccc(S(=O)(=O)[O-])cc7)c7nc(c(-c8ccc(S(=O)(=O)[O-])cc8)c8ccc5[nH]8)C=C7)C=C6)cc4)c3)c(Cl)c2)C(=O)N(C)C1=S
REMARK SMILES IDX 24 1 23 2 22 3 21 4 20 5 18 6 19 7 17 8 13 9 14 10 92 11
REMARK SMILES IDX 15 12 16 13 12 14 11 15 10 16 7 17 8 18 95 19 9 20 93 21
REMARK SMILES IDX 94 22 6 23 1 24 2 25 3 26 100 27 4 28 5 29 98 30 101 31
REMARK SMILES IDX 96 32 99 33 97 34 25 35 26 36 27 37 28 38 29 39 30 40 31 41
REMARK SMILES IDX 32 42 33 43 91 44 34 45 90 46 35 47 36 48 37 49 84 50 38 51
REMARK SMILES IDX 89 52 83 53 85 54 39 55 88 56 82 57 81 58 40 60 70 61 51 62
REMARK SMILES IDX 69 63 52 64 55 65 68 66 86 67 53 68 54 69 67 71 87 72 56 73
REMARK SMILES IDX 41 74 42 75 50 76 43 77 49 78 44 79 45 80 46 81 47 82 48 83
REMARK SMILES IDX 71 84 72 85 80 86 73 87 79 88 74 89 75 90 76 91 77 92 78 93
REMARK SMILES IDX 57 94 58 95 66 96 59 97 65 98 60 99 61 100 62 101 63 102
REMARK SMILES IDX 64 103
REMARK H PARENT 85 59 55 70
REMARK Flexibility Score: inf
ROOT
ATOM      1  C   UNL A   1      51.742  30.813  20.159  1.00  0.00     0.188 C 
ENDROOT
BRANCH   1   2
ATOM      2  O   UNL A   1      52.952  31.513  20.412  1.00  0.00    -0.376 OA
BRANCH   2   3
ATOM      3  C   UNL A   1      52.804  32.885  20.757  1.00  0.00     0.202 C 
BRANCH   3   4
ATOM      4  C   UNL A   1      53.004  33.162  22.251  1.00  0.00     0.261 C 
BRANCH   4   5
ATOM      5  O   UNL A   1      52.025  32.537  23.098  1.00  0.00    -0.460 OA
BRANCH   5   6
ATOM      6  C   UNL A   1      52.494  31.638  23.991  1.00  0.00     0.338 C 
ATOM      7  O   UNL A   1      53.107  30.615  23.730  1.00  0.00    -0.246 OA
BRANCH   6   8
ATOM      8  C   UNL A   1      52.322  32.189  25.358  1.00  0.00     0.060 A 
ATOM      9  C   UNL A   1      52.917  32.307  27.724  1.00  0.00    -0.010 A 
ATOM     10  C   UNL A   1      51.858  33.210  27.904  1.00  0.00     0.007 A 
ATOM     11  C   UNL A   1      53.129  31.782  26.435  1.00  0.00     0.023 A 
ATOM     12  C   UNL A   1      51.041  33.597  26.839  1.00  0.00     0.001 A 
ATOM     13  C   UNL A   1      51.282  33.100  25.562  1.00  0.00     0.016 A 
BRANCH   9  14
ATOM     14  C   UNL A   1      53.873  31.985  28.860  1.00  0.00     0.265 C 
BRANCH  14  15
ATOM     15  O   UNL A   1      53.517  30.911  29.733  1.00  0.00    -0.487 OA
BRANCH  15  16
ATOM     16  C   UNL A   1      52.219  30.730  30.118  1.00  0.00     0.138 A 
ATOM     17  C   UNL A   1      49.514  30.090  30.577  1.00  0.00    -0.023 A 
ATOM     18  C   UNL A   1      50.312  29.249  29.797  1.00  0.00     0.012 A 
ATOM     19  C   UNL A   1      50.088  31.204  31.189  1.00  0.00     0.032 A 
ATOM     20  C   UNL A   1      51.649  29.572  29.571  1.00  0.00     0.048 A 
ATOM     21  C   UNL A   1      51.447  31.499  31.000  1.00  0.00     0.083 A 
ATOM     22  Cl  UNL A   1      52.081  32.777  31.977  1.00  0.00    -0.080 Cl
BRANCH  17  23
ATOM     23  C   UNL A   1      48.096  29.775  30.765  1.00  0.00     0.027 C 
ATOM     24  C   UNL A   1      49.011  26.370  33.973  1.00  0.00     0.156 C 
ATOM     25  N   UNL A   1      48.017  27.095  33.175  1.00  0.00    -0.288 N 
ATOM     26  C   UNL A   1      48.424  28.363  32.772  1.00  0.00     0.265 C 
ATOM     27  C   UNL A   1      46.764  26.509  32.875  1.00  0.00     0.185 C 
ATOM     28  O   UNL A   1      49.379  28.964  33.258  1.00  0.00    -0.268 OA
ATOM     29  C   UNL A   1      47.601  28.958  31.716  1.00  0.00     0.106 C 
ATOM     30  N   UNL A   1      45.895  27.297  32.090  1.00  0.00    -0.288 N 
ATOM     31  S   UNL A   1      46.342  24.968  33.451  1.00  0.00    -0.040 S 
ATOM     32  C   UNL A   1      46.192  28.568  31.595  1.00  0.00     0.265 C 
ATOM     33  C   UNL A   1      44.555  26.844  31.694  1.00  0.00     0.156 C 
ATOM     34  O   UNL A   1      45.375  29.305  31.050  1.00  0.00    -0.268 OA
ENDBRANCH  17  23
ENDBRANCH  15  16
ENDBRANCH  14  15
ENDBRANCH   9  14
ENDBRANCH   6   8
ENDBRANCH   5   6
ENDBRANCH   4   5
ENDBRANCH   3   4
ENDBRANCH   2   3
ENDBRANCH   1   2
BRANCH   1  35
ATOM     35  C   UNL A   1      51.895  29.282  20.047  1.00  0.00     0.188 C 
BRANCH  35  36
ATOM     36  O   UNL A   1      52.363  28.498  21.137  1.00  0.00    -0.376 OA
BRANCH  36  37
ATOM     37  C   UNL A   1      53.607  27.828  21.036  1.00  0.00     0.202 C 
BRANCH  37  38
ATOM     38  C   UNL A   1      54.091  26.985  22.223  1.00  0.00     0.261 C 
BRANCH  38  39
ATOM     39  O   UNL A   1      53.225  25.905  22.603  1.00  0.00    -0.460 OA
BRANCH  39  40
ATOM     40  C   UNL A   1      53.172  25.645  23.933  1.00  0.00     0.338 C 
ATOM     41  O   UNL A   1      54.017  25.086  24.610  1.00  0.00    -0.246 OA
BRANCH  40  42
ATOM     42  C   UNL A   1      51.975  26.288  24.516  1.00  0.00     0.060 A 
ATOM     43  C   UNL A   1      51.721  26.101  25.881  1.00  0.00     0.016 A 
ATOM     44  C   UNL A   1      51.081  27.011  23.723  1.00  0.00     0.016 A 
ATOM     45  C   UNL A   1      50.560  26.619  26.456  1.00  0.00     0.010 A 
ATOM     46  C   UNL A   1      49.905  27.508  24.296  1.00  0.00     0.010 A 
ATOM     47  C   UNL A   1      49.626  27.291  25.658  1.00  0.00    -0.014 A 
BRANCH  47  48
ATOM     48  C   UNL A   1      48.285  27.611  26.207  1.00  0.00     0.031 A 
ATOM     49  C   UNL A   1      48.027  29.003  26.717  1.00  0.00     0.074 A 
ATOM     50  C   UNL A   1      47.306  26.689  26.237  1.00  0.00     0.049 A 
ATOM     51  N   UNL A   1      46.946  29.498  27.263  1.00  0.00    -0.248 NA
ATOM     52  C   UNL A   1      49.136  29.963  26.593  1.00  0.00     0.031 C 
ATOM     53  C   UNL A   1      47.413  25.320  25.735  1.00  0.00     0.029 A 
ATOM     54  N   UNL A   1      46.024  26.772  26.722  1.00  0.00    -0.354 N 
ATOM     55  C   UNL A   1      47.244  30.824  27.550  1.00  0.00     0.074 A 
ATOM     56  C   UNL A   1      48.614  31.050  27.143  1.00  0.00     0.031 C 
ATOM     57  C   UNL A   1      46.247  24.686  25.951  1.00  0.00     0.029 A 
ATOM     58  C   UNL A   1      45.323  25.594  26.630  1.00  0.00     0.049 A 
ATOM     59  H   UNL A   1      45.644  27.597  27.100  1.00  0.00     0.167 HD
ATOM     60  C   UNL A   1      46.450  31.773  28.100  1.00  0.00     0.031 A 
ATOM     61  C   UNL A   1      44.086  25.277  27.064  1.00  0.00     0.031 A 
ATOM     62  C   UNL A   1      45.096  31.546  28.529  1.00  0.00     0.049 A 
ATOM     63  C   UNL A   1      43.248  26.326  27.750  1.00  0.00     0.074 A 
ATOM     64  C   UNL A   1      44.209  32.448  29.091  1.00  0.00     0.029 A 
ATOM     65  N   UNL A   1      44.436  30.329  28.453  1.00  0.00    -0.354 N 
ATOM     66  N   UNL A   1      43.535  27.583  27.992  1.00  0.00    -0.248 NA
ATOM     67  C   UNL A   1      41.916  25.913  28.216  1.00  0.00     0.031 C 
ATOM     68  C   UNL A   1      43.030  31.762  29.406  1.00  0.00     0.029 A 
ATOM     69  C   UNL A   1      43.163  30.448  28.985  1.00  0.00     0.049 A 
ATOM     70  H   UNL A   1      44.816  29.502  28.077  1.00  0.00     0.167 HD
ATOM     71  C   UNL A   1      42.408  28.117  28.613  1.00  0.00     0.074 A 
ATOM     72  C   UNL A   1      41.434  27.050  28.700  1.00  0.00     0.031 C 
ATOM     73  C   UNL A   1      42.200  29.378  29.067  1.00  0.00     0.031 A 
BRANCH  60  74
ATOM     74  C   UNL A   1      47.047  33.139  28.302  1.00  0.00    -0.014 A 
ATOM     75  C   UNL A   1      47.180  34.040  27.230  1.00  0.00     0.010 A 
ATOM     76  C   UNL A   1      47.462  33.535  29.586  1.00  0.00     0.010 A 
ATOM     77  C   UNL A   1      47.757  35.296  27.431  1.00  0.00     0.020 A 
ATOM     78  C   UNL A   1      48.017  34.800  29.796  1.00  0.00     0.020 A 
ATOM     79  C   UNL A   1      48.178  35.666  28.712  1.00  0.00     0.054 A 
BRANCH  79  80
ATOM     80  S   UNL A   1      48.919  37.304  28.946  1.00  0.00     0.124 S 
ATOM     81  O   UNL A   1      50.330  36.972  29.128  1.00  0.00    -0.237 OA
ATOM     82  O   UNL A   1      48.593  37.986  27.695  1.00  0.00    -0.237 OA
ATOM     83  O   UNL A   1      48.243  37.825  30.132  1.00  0.00    -0.744 OA
ENDBRANCH  79  80
ENDBRANCH  60  74
BRANCH  61  84
ATOM     84  C   UNL A   1      43.566  23.894  26.882  1.00  0.00    -0.014 A 
ATOM     85  C   UNL A   1      43.693  22.939  27.904  1.00  0.00     0.010 A 
ATOM     86  C   UNL A   1      42.944  23.526  25.674  1.00  0.00     0.010 A 
ATOM     87  C   UNL A   1      43.220  21.636  27.718  1.00  0.00     0.020 A 
ATOM     88  C   UNL A   1      42.447  22.232  25.495  1.00  0.00     0.020 A 
ATOM     89  C   UNL A   1      42.597  21.292  26.515  1.00  0.00     0.054 A 
BRANCH  89  90
ATOM     90  S   UNL A   1      41.943  19.611  26.317  1.00  0.00     0.124 S 
ATOM     91  O   UNL A   1      41.916  19.130  27.694  1.00  0.00    -0.237 OA
ATOM     92  O   UNL A   1      40.639  19.850  25.704  1.00  0.00    -0.237 OA
ATOM     93  O   UNL A   1      42.923  18.964  25.447  1.00  0.00    -0.744 OA
ENDBRANCH  89  90
ENDBRANCH  61  84
BRANCH  73  94
ATOM     94  C   UNL A   1      40.856  29.691  29.670  1.00  0.00    -0.014 A 
ATOM     95  C   UNL A   1      40.674  29.743  31.063  1.00  0.00     0.010 A 
ATOM     96  C   UNL A   1      39.773  30.001  28.826  1.00  0.00     0.010 A 
ATOM     97  C   UNL A   1      39.427  30.071  31.601  1.00  0.00     0.020 A 
ATOM     98  C   UNL A   1      38.532  30.355  29.360  1.00  0.00     0.020 A 
ATOM     99  C   UNL A   1      38.362  30.374  30.747  1.00  0.00     0.054 A 
BRANCH  99 100
ATOM    100  S   UNL A   1      36.765  30.844  31.469  1.00  0.00     0.124 S 
ATOM    101  O   UNL A   1      36.577  29.813  32.486  1.00  0.00    -0.237 OA
ATOM    102  O   UNL A   1      37.025  32.189  31.976  1.00  0.00    -0.237 OA
ATOM    103  O   UNL A   1      35.842  30.780  30.338  1.00  0.00    -0.744 OA
ENDBRANCH  99 100
ENDBRANCH  73  94
ENDBRANCH  47  48
ENDBRANCH  40  42
ENDBRANCH  39  40
ENDBRANCH  38  39
ENDBRANCH  37  38
ENDBRANCH  36  37
ENDBRANCH  35  36
ENDBRANCH   1  35
TORSDOF 24
ENDMDL
MODEL 3
REMARK VINA RESULT:      -5.8      4.935     14.167
REMARK SMILES CN1C(=O)C(=Cc2ccc(OCc3cccc(C(=O)OCCOCCOCCOC(=O)c4ccc(-c5c6nc(c(-c7ccc(S(=O)(=O)[O-])cc7)c7ccc([nH]7)c(-c7ccc(S(=O)(=O)[O-])cc7)c7nc(c(-c8ccc(S(=O)(=O)[O-])cc8)c8ccc5[nH]8)C=C7)C=C6)cc4)c3)c(Cl)c2)C(=O)N(C)C1=S
REMARK SMILES IDX 24 1 23 2 22 3 21 4 20 5 18 6 19 7 17 8 13 9 14 10 92 11
REMARK SMILES IDX 15 12 16 13 12 14 11 15 10 16 7 17 8 18 95 19 9 20 93 21
REMARK SMILES IDX 94 22 6 23 1 24 2 25 3 26 100 27 4 28 5 29 98 30 101 31
REMARK SMILES IDX 96 32 99 33 97 34 25 35 26 36 27 37 28 38 29 39 30 40 31 41
REMARK SMILES IDX 32 42 33 43 91 44 34 45 90 46 35 47 36 48 37 49 84 50 38 51
REMARK SMILES IDX 89 52 83 53 85 54 39 55 88 56 82 57 81 58 40 60 70 61 51 62
REMARK SMILES IDX 69 63 52 64 55 65 68 66 86 67 53 68 54 69 67 71 87 72 56 73
REMARK SMILES IDX 41 74 42 75 50 76 43 77 49 78 44 79 45 80 46 81 47 82 48 83
REMARK SMILES IDX 71 84 72 85 80 86 73 87 79 88 74 89 75 90 76 91 77 92 78 93
REMARK SMILES IDX 57 94 58 95 66 96 59 97 65 98 60 99 61 100 62 101 63 102
REMARK SMILES IDX 64 103
REMARK H PARENT 85 59 55 70
REMARK Flexibility Score: inf
ROOT
ATOM      1  C   UNL A   1      51.614  30.557  20.036  1.00  0.00     0.188 C 
ENDROOT
BRANCH   1   2
ATOM      2  O   UNL A   1      52.924  31.107  20.059  1.00  0.00    -0.376 OA
BRANCH   2   3
ATOM      3  C   UNL A   1      53.008  32.471  20.452  1.00  0.00     0.202 C 
BRANCH   3   4
ATOM      4  C   UNL A   1      53.346  32.656  21.936  1.00  0.00     0.261 C 
BRANCH   4   5
ATOM      5  O   UNL A   1      52.315  32.210  22.831  1.00  0.00    -0.460 OA
BRANCH   5   6
ATOM      6  C   UNL A   1      52.653  31.218  23.686  1.00  0.00     0.338 C 
ATOM      7  O   UNL A   1      53.193  30.165  23.389  1.00  0.00    -0.246 OA
BRANCH   6   8
ATOM      8  C   UNL A   1      52.448  31.696  25.075  1.00  0.00     0.060 A 
ATOM      9  C   UNL A   1      52.620  31.419  27.495  1.00  0.00    -0.010 A 
ATOM     10  C   UNL A   1      51.931  32.632  27.644  1.00  0.00     0.007 A 
ATOM     11  C   UNL A   1      52.858  30.945  26.192  1.00  0.00     0.023 A 
ATOM     12  C   UNL A   1      51.502  33.366  26.535  1.00  0.00     0.001 A 
ATOM     13  C   UNL A   1      51.775  32.908  25.250  1.00  0.00     0.016 A 
BRANCH   9  14
ATOM     14  C   UNL A   1      53.186  30.689  28.702  1.00  0.00     0.265 C 
BRANCH  14  15
ATOM     15  O   UNL A   1      53.554  29.318  28.527  1.00  0.00    -0.487 OA
BRANCH  15  16
ATOM     16  C   UNL A   1      52.981  28.343  29.292  1.00  0.00     0.138 A 
ATOM     17  C   UNL A   1      51.640  26.654  31.105  1.00  0.00    -0.023 A 
ATOM     18  C   UNL A   1      51.268  27.996  30.989  1.00  0.00     0.012 A 
ATOM     19  C   UNL A   1      52.625  26.142  30.261  1.00  0.00     0.032 A 
ATOM     20  C   UNL A   1      51.937  28.828  30.092  1.00  0.00     0.048 A 
ATOM     21  C   UNL A   1      53.261  26.970  29.324  1.00  0.00     0.083 A 
ATOM     22  Cl  UNL A   1      54.305  26.171  28.200  1.00  0.00    -0.080 Cl
BRANCH  17  23
ATOM     23  C   UNL A   1      50.972  25.799  32.088  1.00  0.00     0.027 C 
ATOM     24  C   UNL A   1      46.632  26.773  30.372  1.00  0.00     0.156 C 
ATOM     25  N   UNL A   1      47.449  26.091  31.382  1.00  0.00    -0.288 N 
ATOM     26  C   UNL A   1      48.757  25.839  30.982  1.00  0.00     0.265 C 
ATOM     27  C   UNL A   1      46.899  25.737  32.637  1.00  0.00     0.185 C 
ATOM     28  O   UNL A   1      49.141  25.897  29.816  1.00  0.00    -0.268 OA
ATOM     29  C   UNL A   1      49.665  25.470  32.071  1.00  0.00     0.106 C 
ATOM     30  N   UNL A   1      47.783  25.094  33.530  1.00  0.00    -0.288 N 
ATOM     31  S   UNL A   1      45.273  26.049  33.016  1.00  0.00    -0.040 S 
ATOM     32  C   UNL A   1      49.125  24.813  33.267  1.00  0.00     0.265 C 
ATOM     33  C   UNL A   1      47.375  24.654  34.870  1.00  0.00     0.156 C 
ATOM     34  O   UNL A   1      49.838  24.118  33.985  1.00  0.00    -0.268 OA
ENDBRANCH  17  23
ENDBRANCH  15  16
ENDBRANCH  14  15
ENDBRANCH   9  14
ENDBRANCH   6   8
ENDBRANCH   5   6
ENDBRANCH   4   5
ENDBRANCH   3   4
ENDBRANCH   2   3
ENDBRANCH   1   2
BRANCH   1  35
ATOM     35  C   UNL A   1      51.562  29.023  19.887  1.00  0.00     0.188 C 
BRANCH  35  36
ATOM     36  O   UNL A   1      52.052  28.158  20.904  1.00  0.00    -0.376 OA
BRANCH  36  37
ATOM     37  C   UNL A   1      53.323  27.550  20.755  1.00  0.00     0.202 C 
BRANCH  37  38
ATOM     38  C   UNL A   1      53.933  26.811  21.953  1.00  0.00     0.261 C 
BRANCH  38  39
ATOM     39  O   UNL A   1      53.069  25.860  22.592  1.00  0.00    -0.460 OA
BRANCH  39  40
ATOM     40  C   UNL A   1      53.209  25.763  23.938  1.00  0.00     0.338 C 
ATOM     41  O   UNL A   1      54.178  25.350  24.552  1.00  0.00    -0.246 OA
BRANCH  40  42
ATOM     42  C   UNL A   1      52.047  26.388  24.604  1.00  0.00     0.060 A 
ATOM     43  C   UNL A   1      51.772  26.030  25.930  1.00  0.00     0.016 A 
ATOM     44  C   UNL A   1      51.205  27.266  23.919  1.00  0.00     0.016 A 
ATOM     45  C   UNL A   1      50.638  26.532  26.571  1.00  0.00     0.010 A 
ATOM     46  C   UNL A   1      50.055  27.748  24.555  1.00  0.00     0.010 A 
ATOM     47  C   UNL A   1      49.752  27.363  25.873  1.00  0.00    -0.014 A 
BRANCH  47  48
ATOM     48  C   UNL A   1      48.428  27.682  26.461  1.00  0.00     0.031 A 
ATOM     49  C   UNL A   1      48.210  29.051  27.047  1.00  0.00     0.074 A 
ATOM     50  C   UNL A   1      47.428  26.782  26.459  1.00  0.00     0.049 A 
ATOM     51  N   UNL A   1      47.149  29.540  27.636  1.00  0.00    -0.248 NA
ATOM     52  C   UNL A   1      49.338  29.991  26.954  1.00  0.00     0.031 C 
ATOM     53  C   UNL A   1      47.496  25.439  25.885  1.00  0.00     0.029 A 
ATOM     54  N   UNL A   1      46.157  26.868  26.969  1.00  0.00    -0.354 N 
ATOM     55  C   UNL A   1      47.482  30.843  27.987  1.00  0.00     0.074 A 
ATOM     56  C   UNL A   1      48.850  31.059  27.570  1.00  0.00     0.031 C 
ATOM     57  C   UNL A   1      46.319  24.821  26.086  1.00  0.00     0.029 A 
ATOM     58  C   UNL A   1      45.427  25.712  26.828  1.00  0.00     0.049 A 
ATOM     59  H   UNL A   1      45.801  27.680  27.397  1.00  0.00     0.167 HD
ATOM     60  C   UNL A   1      46.718  31.779  28.599  1.00  0.00     0.031 A 
ATOM     61  C   UNL A   1      44.190  25.400  27.265  1.00  0.00     0.031 A 
ATOM     62  C   UNL A   1      45.366  31.559  29.039  1.00  0.00     0.049 A 
ATOM     63  C   UNL A   1      43.387  26.430  28.019  1.00  0.00     0.074 A 
ATOM     64  C   UNL A   1      44.510  32.450  29.662  1.00  0.00     0.029 A 
ATOM     65  N   UNL A   1      44.677  30.363  28.910  1.00  0.00    -0.354 N 
ATOM     66  N   UNL A   1      43.706  27.666  28.322  1.00  0.00    -0.248 NA
ATOM     67  C   UNL A   1      42.053  26.023  28.486  1.00  0.00     0.031 C 
ATOM     68  C   UNL A   1      43.321  31.774  29.960  1.00  0.00     0.029 A 
ATOM     69  C   UNL A   1      43.416  30.483  29.469  1.00  0.00     0.049 A 
ATOM     70  H   UNL A   1      45.033  29.549  28.485  1.00  0.00     0.167 HD
ATOM     71  C   UNL A   1      42.603  28.191  28.989  1.00  0.00     0.074 A 
ATOM     72  C   UNL A   1      41.605  27.143  29.036  1.00  0.00     0.031 C 
ATOM     73  C   UNL A   1      42.431  29.431  29.511  1.00  0.00     0.031 A 
BRANCH  60  74
ATOM     74  C   UNL A   1      47.350  33.119  28.862  1.00  0.00    -0.014 A 
ATOM     75  C   UNL A   1      47.146  34.202  27.990  1.00  0.00     0.010 A 
ATOM     76  C   UNL A   1      48.142  33.302  30.010  1.00  0.00     0.010 A 
ATOM     77  C   UNL A   1      47.758  35.433  28.237  1.00  0.00     0.020 A 
ATOM     78  C   UNL A   1      48.735  34.539  30.275  1.00  0.00     0.020 A 
ATOM     79  C   UNL A   1      48.555  35.592  29.375  1.00  0.00     0.054 A 
BRANCH  79  80
ATOM     80  S   UNL A   1      49.332  37.202  29.675  1.00  0.00     0.124 S 
ATOM     81  O   UNL A   1      48.312  37.884  30.469  1.00  0.00    -0.237 OA
ATOM     82  O   UNL A   1      50.550  36.841  30.398  1.00  0.00    -0.237 OA
ATOM     83  O   UNL A   1      49.543  37.743  28.334  1.00  0.00    -0.744 OA
ENDBRANCH  79  80
ENDBRANCH  60  74
BRANCH  61  84
ATOM     84  C   UNL A   1      43.635  24.041  27.020  1.00  0.00    -0.014 A 
ATOM     85  C   UNL A   1      43.622  23.076  28.041  1.00  0.00     0.010 A 
ATOM     86  C   UNL A   1      43.122  23.704  25.753  1.00  0.00     0.010 A 
ATOM     87  C   UNL A   1      43.118  21.794  27.797  1.00  0.00     0.020 A 
ATOM     88  C   UNL A   1      42.594  22.433  25.513  1.00  0.00     0.020 A 
ATOM     89  C   UNL A   1      42.604  21.482  26.535  1.00  0.00     0.054 A 
BRANCH  89  90
ATOM     90  S   UNL A   1      41.905  19.831  26.257  1.00  0.00     0.124 S 
ATOM     91  O   UNL A   1      42.153  19.176  27.538  1.00  0.00    -0.237 OA
ATOM     92  O   UNL A   1      40.507  20.125  25.957  1.00  0.00    -0.237 OA
ATOM     93  O   UNL A   1      42.682  19.317  25.131  1.00  0.00    -0.744 OA
ENDBRANCH  89  90
ENDBRANCH  61  84
BRANCH  73  94
ATOM     94  C   UNL A   1      41.104  29.742  30.152  1.00  0.00    -0.014 A 
ATOM     95  C   UNL A   1      40.925  29.648  31.544  1.00  0.00     0.010 A 
ATOM     96  C   UNL A   1      40.037  30.195  29.354  1.00  0.00     0.010 A 
ATOM     97  C   UNL A   1      39.695  29.976  32.121  1.00  0.00     0.020 A 
ATOM     98  C   UNL A   1      38.815  30.549  29.930  1.00  0.00     0.020 A 
ATOM     99  C   UNL A   1      38.647  30.424  31.311  1.00  0.00     0.054 A 
BRANCH  99 100
ATOM    100  S   UNL A   1      37.075  30.889  32.089  1.00  0.00     0.124 S 
ATOM    101  O   UNL A   1      36.877  32.246  31.587  1.00  0.00    -0.237 OA
ATOM    102  O   UNL A   1      36.150  29.885  31.571  1.00  0.00    -0.237 OA
ATOM    103  O   UNL A   1      37.355  30.790  33.520  1.00  0.00    -0.744 OA
ENDBRANCH  99 100
ENDBRANCH  73  94
ENDBRANCH  47  48
ENDBRANCH  40  42
ENDBRANCH  39  40
ENDBRANCH  38  39
ENDBRANCH  37  38
ENDBRANCH  36  37
ENDBRANCH  35  36
ENDBRANCH   1  35
TORSDOF 24
ENDMDL
