MODEL 1
REMARK VINA RESULT:      -9.9      0.000      0.000
REMARK SMILES Cc1ccc(C#N)cc1S(=O)(=O)Nc1cccc(C(=O)OCCOCCOCCOC(=O)c2ccc(-c3c4nc(c(-c5ccc(S(=O)(=O)[O-])cc5)c5ccc([nH]5)c(-c5ccc(S(=O)(=O)[O-])cc5)c5nc(c(-c6ccc(S(=O)(=O)[O-])cc6)c6ccc3[nH]6)C=C5)C=C4)cc2)c1
REMARK SMILES IDX 25 1 24 2 23 3 22 4 21 5 19 6 20 7 18 8 14 9 15 10 93 11
REMARK SMILES IDX 16 12 17 13 13 14 10 16 11 17 12 18 9 19 1 20 2 21 3 22 4 23
REMARK SMILES IDX 8 24 5 25 6 26 7 27 26 28 27 29 28 30 29 31 30 32 31 33
REMARK SMILES IDX 32 34 33 35 34 36 92 37 35 38 91 39 36 40 37 41 38 42 85 43
REMARK SMILES IDX 39 44 90 45 84 46 86 47 40 48 89 49 83 50 82 51 41 53 71 54
REMARK SMILES IDX 52 55 70 56 53 57 56 58 69 59 87 60 54 61 55 62 68 64 88 65
REMARK SMILES IDX 57 66 42 67 43 68 51 69 44 70 50 71 45 72 46 73 47 74 48 75
REMARK SMILES IDX 49 76 72 77 73 78 81 79 74 80 80 81 75 82 76 83 77 84 78 85
REMARK SMILES IDX 79 86 58 87 59 88 67 89 60 90 66 91 61 92 62 93 63 94 64 95
REMARK SMILES IDX 65 96
REMARK H PARENT 13 15 86 52 56 63
REMARK Flexibility Score: inf
ROOT
ATOM      1  C   UNL A   1      42.395  21.024  27.292  1.00  0.00     0.188 C 
ENDROOT
BRANCH   1   2
ATOM      2  O   UNL A   1      41.047  20.652  27.117  1.00  0.00    -0.376 OA
BRANCH   2   3
ATOM      3  C   UNL A   1      40.284  21.266  26.093  1.00  0.00     0.202 C 
BRANCH   3   4
ATOM      4  C   UNL A   1      39.177  22.314  26.359  1.00  0.00     0.261 C 
BRANCH   4   5
ATOM      5  O   UNL A   1      37.914  22.166  25.673  1.00  0.00    -0.460 OA
BRANCH   5   6
ATOM      6  C   UNL A   1      37.035  23.190  25.844  1.00  0.00     0.338 C 
ATOM      7  O   UNL A   1      37.338  24.357  26.032  1.00  0.00    -0.246 OA
BRANCH   6   8
ATOM      8  C   UNL A   1      35.617  22.782  25.610  1.00  0.00     0.062 A 
ATOM      9  C   UNL A   1      33.196  22.986  25.845  1.00  0.00     0.050 A 
ATOM     10  C   UNL A   1      33.008  21.854  25.058  1.00  0.00     0.027 A 
ATOM     11  C   UNL A   1      34.500  23.491  26.074  1.00  0.00     0.042 A 
ATOM     12  C   UNL A   1      34.121  21.143  24.608  1.00  0.00     0.003 A 
ATOM     13  C   UNL A   1      35.413  21.592  24.899  1.00  0.00     0.016 A 
BRANCH   9  14
ATOM     14  N   UNL A   1      32.093  23.665  26.433  1.00  0.00    -0.280 N 
ATOM     15  H   UNL A   1      31.916  23.465  27.381  1.00  0.00     0.180 HD
BRANCH  14  16
ATOM     16  S   UNL A   1      31.049  24.776  25.699  1.00  0.00     0.262 S 
ATOM     17  O   UNL A   1      30.020  25.014  26.695  1.00  0.00    -0.201 OA
ATOM     18  O   UNL A   1      30.688  24.135  24.450  1.00  0.00    -0.201 OA
BRANCH  16  19
ATOM     19  C   UNL A   1      31.639  26.404  25.233  1.00  0.00     0.092 A 
ATOM     20  C   UNL A   1      29.703  27.200  23.774  1.00  0.00     0.046 C 
ATOM     21  C   UNL A   1      31.085  27.292  24.307  1.00  0.00    -0.030 A 
ATOM     22  C   UNL A   1      31.745  28.512  24.026  1.00  0.00     0.006 A 
ATOM     23  C   UNL A   1      32.834  28.936  24.778  1.00  0.00     0.020 A 
ATOM     24  C   UNL A   1      32.725  26.871  26.016  1.00  0.00     0.042 A 
ATOM     25  C   UNL A   1      33.287  28.142  25.823  1.00  0.00     0.053 A 
BRANCH  25  26
ATOM     26  C   UNL A   1      34.274  28.657  26.724  1.00  0.00     0.099 C 
ATOM     27  N   UNL A   1      35.051  29.092  27.474  1.00  0.00    -0.192 NA
ENDBRANCH  25  26
ENDBRANCH  16  19
ENDBRANCH  14  16
ENDBRANCH   9  14
ENDBRANCH   6   8
ENDBRANCH   5   6
ENDBRANCH   4   5
ENDBRANCH   3   4
ENDBRANCH   2   3
ENDBRANCH   1   2
BRANCH   1  28
ATOM     28  C   UNL A   1      43.302  21.122  26.055  1.00  0.00     0.188 C 
BRANCH  28  29
ATOM     29  O   UNL A   1      44.452  21.925  26.149  1.00  0.00    -0.376 OA
BRANCH  29  30
ATOM     30  C   UNL A   1      44.626  23.038  25.291  1.00  0.00     0.202 C 
BRANCH  30  31
ATOM     31  C   UNL A   1      43.641  24.210  25.094  1.00  0.00     0.261 C 
BRANCH  31  32
ATOM     32  O   UNL A   1      42.981  24.767  26.232  1.00  0.00    -0.460 OA
BRANCH  32  33
ATOM     33  C   UNL A   1      42.057  25.729  25.975  1.00  0.00     0.338 C 
ATOM     34  O   UNL A   1      41.376  25.844  24.973  1.00  0.00    -0.246 OA
BRANCH  33  35
ATOM     35  C   UNL A   1      41.848  26.499  27.217  1.00  0.00     0.060 A 
ATOM     36  C   UNL A   1      42.629  27.616  27.501  1.00  0.00     0.016 A 
ATOM     37  C   UNL A   1      40.863  26.080  28.118  1.00  0.00     0.016 A 
ATOM     38  C   UNL A   1      42.421  28.305  28.700  1.00  0.00     0.010 A 
ATOM     39  C   UNL A   1      40.668  26.755  29.323  1.00  0.00     0.010 A 
ATOM     40  C   UNL A   1      41.438  27.885  29.618  1.00  0.00    -0.014 A 
BRANCH  40  41
ATOM     41  C   UNL A   1      41.125  28.718  30.806  1.00  0.00     0.031 A 
ATOM     42  C   UNL A   1      41.929  28.638  32.070  1.00  0.00     0.074 A 
ATOM     43  C   UNL A   1      40.082  29.568  30.722  1.00  0.00     0.049 A 
ATOM     44  N   UNL A   1      41.836  29.380  33.143  1.00  0.00    -0.248 NA
ATOM     45  C   UNL A   1      42.963  27.595  32.149  1.00  0.00     0.031 C 
ATOM     46  C   UNL A   1      39.212  29.701  29.552  1.00  0.00     0.029 A 
ATOM     47  N   UNL A   1      39.590  30.489  31.612  1.00  0.00    -0.354 N 
ATOM     48  C   UNL A   1      42.811  28.918  34.017  1.00  0.00     0.074 A 
ATOM     49  C   UNL A   1      43.448  27.789  33.372  1.00  0.00     0.031 C 
ATOM     50  C   UNL A   1      38.332  30.687  29.774  1.00  0.00     0.029 A 
ATOM     51  C   UNL A   1      38.538  31.225  31.116  1.00  0.00     0.049 A 
ATOM     52  H   UNL A   1      39.955  30.612  32.518  1.00  0.00     0.167 HD
ATOM     53  C   UNL A   1      43.156  29.412  35.231  1.00  0.00     0.031 A 
ATOM     54  C   UNL A   1      37.824  32.229  31.666  1.00  0.00     0.031 A 
ATOM     55  C   UNL A   1      42.503  30.538  35.859  1.00  0.00     0.049 A 
ATOM     56  C   UNL A   1      38.202  32.730  33.033  1.00  0.00     0.074 A 
ATOM     57  C   UNL A   1      42.817  31.139  37.068  1.00  0.00     0.029 A 
ATOM     58  N   UNL A   1      41.413  31.228  35.347  1.00  0.00    -0.354 N 
ATOM     59  N   UNL A   1      39.190  32.345  33.804  1.00  0.00    -0.248 NA
ATOM     60  C   UNL A   1      37.384  33.812  33.598  1.00  0.00     0.031 C 
ATOM     61  C   UNL A   1      41.862  32.121  37.330  1.00  0.00     0.029 A 
ATOM     62  C   UNL A   1      41.014  32.214  36.238  1.00  0.00     0.049 A 
ATOM     63  H   UNL A   1      40.986  31.044  34.479  1.00  0.00     0.167 HD
ATOM     64  C   UNL A   1      39.128  33.153  34.935  1.00  0.00     0.074 A 
ATOM     65  C   UNL A   1      38.022  34.066  34.734  1.00  0.00     0.031 C 
ATOM     66  C   UNL A   1      39.915  33.130  36.038  1.00  0.00     0.031 A 
BRANCH  53  67
ATOM     67  C   UNL A   1      44.307  28.778  35.977  1.00  0.00    -0.014 A 
ATOM     68  C   UNL A   1      44.056  27.781  36.942  1.00  0.00     0.010 A 
ATOM     69  C   UNL A   1      45.612  29.287  35.854  1.00  0.00     0.010 A 
ATOM     70  C   UNL A   1      45.070  27.347  37.801  1.00  0.00     0.020 A 
ATOM     71  C   UNL A   1      46.639  28.829  36.686  1.00  0.00     0.020 A 
ATOM     72  C   UNL A   1      46.353  27.884  37.675  1.00  0.00     0.054 A 
BRANCH  72  73
ATOM     73  S   UNL A   1      47.639  27.358  38.845  1.00  0.00     0.124 S 
ATOM     74  O   UNL A   1      47.479  25.907  38.847  1.00  0.00    -0.237 OA
ATOM     75  O   UNL A   1      48.859  27.861  38.218  1.00  0.00    -0.237 OA
ATOM     76  O   UNL A   1      47.266  28.029  40.089  1.00  0.00    -0.744 OA
ENDBRANCH  72  73
ENDBRANCH  53  67
BRANCH  54  77
ATOM     77  C   UNL A   1      36.720  32.851  30.879  1.00  0.00    -0.014 A 
ATOM     78  C   UNL A   1      36.995  33.881  29.958  1.00  0.00     0.010 A 
ATOM     79  C   UNL A   1      35.382  32.487  31.111  1.00  0.00     0.010 A 
ATOM     80  C   UNL A   1      35.956  34.581  29.343  1.00  0.00     0.020 A 
ATOM     81  C   UNL A   1      34.340  33.157  30.463  1.00  0.00     0.020 A 
ATOM     82  C   UNL A   1      34.632  34.223  29.611  1.00  0.00     0.054 A 
BRANCH  82  83
ATOM     83  S   UNL A   1      33.302  35.200  28.859  1.00  0.00     0.124 S 
ATOM     84  O   UNL A   1      34.056  36.232  28.149  1.00  0.00    -0.237 OA
ATOM     85  O   UNL A   1      32.629  34.218  28.013  1.00  0.00    -0.237 OA
ATOM     86  O   UNL A   1      32.529  35.669  30.005  1.00  0.00    -0.744 OA
ENDBRANCH  82  83
ENDBRANCH  54  77
BRANCH  66  87
ATOM     87  C   UNL A   1      39.631  34.116  37.148  1.00  0.00    -0.014 A 
ATOM     88  C   UNL A   1      40.305  35.354  37.176  1.00  0.00     0.010 A 
ATOM     89  C   UNL A   1      38.819  33.763  38.241  1.00  0.00     0.010 A 
ATOM     90  C   UNL A   1      40.222  36.187  38.295  1.00  0.00     0.020 A 
ATOM     91  C   UNL A   1      38.699  34.614  39.346  1.00  0.00     0.020 A 
ATOM     92  C   UNL A   1      39.428  35.804  39.379  1.00  0.00     0.054 A 
BRANCH  92  93
ATOM     93  S   UNL A   1      39.393  36.865  40.851  1.00  0.00     0.124 S 
ATOM     94  O   UNL A   1      38.615  38.010  40.386  1.00  0.00    -0.237 OA
ATOM     95  O   UNL A   1      38.734  36.016  41.839  1.00  0.00    -0.237 OA
ATOM     96  O   UNL A   1      40.805  37.136  41.113  1.00  0.00    -0.744 OA
ENDBRANCH  92  93
ENDBRANCH  66  87
ENDBRANCH  40  41
ENDBRANCH  33  35
ENDBRANCH  32  33
ENDBRANCH  31  32
ENDBRANCH  30  31
ENDBRANCH  29  30
ENDBRANCH  28  29
ENDBRANCH   1  28
TORSDOF 24
ENDMDL
MODEL 2
REMARK VINA RESULT:      -9.1      2.658      3.792
REMARK SMILES Cc1ccc(C#N)cc1S(=O)(=O)Nc1cccc(C(=O)OCCOCCOCCOC(=O)c2ccc(-c3c4nc(c(-c5ccc(S(=O)(=O)[O-])cc5)c5ccc([nH]5)c(-c5ccc(S(=O)(=O)[O-])cc5)c5nc(c(-c6ccc(S(=O)(=O)[O-])cc6)c6ccc3[nH]6)C=C5)C=C4)cc2)c1
REMARK SMILES IDX 25 1 24 2 23 3 22 4 21 5 19 6 20 7 18 8 14 9 15 10 93 11
REMARK SMILES IDX 16 12 17 13 13 14 10 16 11 17 12 18 9 19 1 20 2 21 3 22 4 23
REMARK SMILES IDX 8 24 5 25 6 26 7 27 26 28 27 29 28 30 29 31 30 32 31 33
REMARK SMILES IDX 32 34 33 35 34 36 92 37 35 38 91 39 36 40 37 41 38 42 85 43
REMARK SMILES IDX 39 44 90 45 84 46 86 47 40 48 89 49 83 50 82 51 41 53 71 54
REMARK SMILES IDX 52 55 70 56 53 57 56 58 69 59 87 60 54 61 55 62 68 64 88 65
REMARK SMILES IDX 57 66 42 67 43 68 51 69 44 70 50 71 45 72 46 73 47 74 48 75
REMARK SMILES IDX 49 76 72 77 73 78 81 79 74 80 80 81 75 82 76 83 77 84 78 85
REMARK SMILES IDX 79 86 58 87 59 88 67 89 60 90 66 91 61 92 62 93 63 94 64 95
REMARK SMILES IDX 65 96
REMARK H PARENT 13 15 86 52 56 63
REMARK Flexibility Score: inf
ROOT
ATOM      1  C   UNL A   1      42.622  18.830  27.536  1.00  0.00     0.188 C 
ENDROOT
BRANCH   1   2
ATOM      2  O   UNL A   1      41.379  19.468  27.722  1.00  0.00    -0.376 OA
BRANCH   2   3
ATOM      3  C   UNL A   1      40.911  20.378  26.743  1.00  0.00     0.202 C 
BRANCH   3   4
ATOM      4  C   UNL A   1      39.804  20.042  25.717  1.00  0.00     0.261 C 
BRANCH   4   5
ATOM      5  O   UNL A   1      38.665  20.927  25.622  1.00  0.00    -0.460 OA
BRANCH   5   6
ATOM      6  C   UNL A   1      37.561  20.395  25.033  1.00  0.00     0.338 C 
ATOM      7  O   UNL A   1      37.290  19.205  24.982  1.00  0.00    -0.246 OA
BRANCH   6   8
ATOM      8  C   UNL A   1      36.588  21.433  24.578  1.00  0.00     0.062 A 
ATOM      9  C   UNL A   1      34.406  22.525  24.491  1.00  0.00     0.050 A 
ATOM     10  C   UNL A   1      34.901  23.476  23.604  1.00  0.00     0.027 A 
ATOM     11  C   UNL A   1      35.266  21.535  25.029  1.00  0.00     0.042 A 
ATOM     12  C   UNL A   1      36.214  23.367  23.146  1.00  0.00     0.003 A 
ATOM     13  C   UNL A   1      37.044  22.342  23.613  1.00  0.00     0.016 A 
BRANCH   9  14
ATOM     14  N   UNL A   1      33.040  22.523  24.881  1.00  0.00    -0.280 N 
ATOM     15  H   UNL A   1      32.794  21.893  25.597  1.00  0.00     0.180 HD
BRANCH  14  16
ATOM     16  S   UNL A   1      31.784  23.474  24.265  1.00  0.00     0.262 S 
ATOM     17  O   UNL A   1      30.644  23.155  25.106  1.00  0.00    -0.201 OA
ATOM     18  O   UNL A   1      31.744  23.121  22.859  1.00  0.00    -0.201 OA
BRANCH  16  19
ATOM     19  C   UNL A   1      31.903  25.263  24.292  1.00  0.00     0.092 A 
ATOM     20  C   UNL A   1      31.659  25.783  21.805  1.00  0.00     0.046 C 
ATOM     21  C   UNL A   1      31.991  26.140  23.208  1.00  0.00    -0.030 A 
ATOM     22  C   UNL A   1      32.149  27.527  23.441  1.00  0.00     0.006 A 
ATOM     23  C   UNL A   1      32.038  28.064  24.717  1.00  0.00     0.020 A 
ATOM     24  C   UNL A   1      31.751  25.832  25.581  1.00  0.00     0.042 A 
ATOM     25  C   UNL A   1      31.772  27.220  25.787  1.00  0.00     0.053 A 
BRANCH  25  26
ATOM     26  C   UNL A   1      31.460  27.781  27.068  1.00  0.00     0.099 C 
ATOM     27  N   UNL A   1      31.241  28.244  28.113  1.00  0.00    -0.192 NA
ENDBRANCH  25  26
ENDBRANCH  16  19
ENDBRANCH  14  16
ENDBRANCH   9  14
ENDBRANCH   6   8
ENDBRANCH   5   6
ENDBRANCH   4   5
ENDBRANCH   3   4
ENDBRANCH   2   3
ENDBRANCH   1   2
BRANCH   1  28
ATOM     28  C   UNL A   1      42.889  18.100  26.211  1.00  0.00     0.188 C 
BRANCH  28  29
ATOM     29  O   UNL A   1      44.207  18.092  25.721  1.00  0.00    -0.376 OA
BRANCH  29  30
ATOM     30  C   UNL A   1      44.568  18.892  24.610  1.00  0.00     0.202 C 
BRANCH  30  31
ATOM     31  C   UNL A   1      44.850  20.409  24.621  1.00  0.00     0.261 C 
BRANCH  31  32
ATOM     32  O   UNL A   1      43.907  21.291  25.234  1.00  0.00    -0.460 OA
BRANCH  32  33
ATOM     33  C   UNL A   1      43.874  22.560  24.752  1.00  0.00     0.338 C 
ATOM     34  O   UNL A   1      43.866  22.901  23.583  1.00  0.00    -0.246 OA
BRANCH  33  35
ATOM     35  C   UNL A   1      43.624  23.470  25.886  1.00  0.00     0.060 A 
ATOM     36  C   UNL A   1      42.809  23.079  26.945  1.00  0.00     0.016 A 
ATOM     37  C   UNL A   1      44.201  24.745  25.874  1.00  0.00     0.016 A 
ATOM     38  C   UNL A   1      42.572  23.978  27.989  1.00  0.00     0.010 A 
ATOM     39  C   UNL A   1      43.949  25.649  26.906  1.00  0.00     0.010 A 
ATOM     40  C   UNL A   1      43.141  25.267  27.982  1.00  0.00    -0.014 A 
BRANCH  40  41
ATOM     41  C   UNL A   1      43.008  26.146  29.170  1.00  0.00     0.031 A 
ATOM     42  C   UNL A   1      44.026  26.155  30.272  1.00  0.00     0.074 A 
ATOM     43  C   UNL A   1      41.932  26.956  29.238  1.00  0.00     0.049 A 
ATOM     44  N   UNL A   1      44.092  26.945  31.313  1.00  0.00    -0.248 NA
ATOM     45  C   UNL A   1      45.100  25.153  30.210  1.00  0.00     0.031 C 
ATOM     46  C   UNL A   1      40.864  27.003  28.238  1.00  0.00     0.029 A 
ATOM     47  N   UNL A   1      41.567  27.902  30.162  1.00  0.00    -0.354 N 
ATOM     48  C   UNL A   1      45.225  26.559  32.018  1.00  0.00     0.074 A 
ATOM     49  C   UNL A   1      45.785  25.421  31.317  1.00  0.00     0.031 C 
ATOM     50  C   UNL A   1      39.997  27.968  28.571  1.00  0.00     0.029 A 
ATOM     51  C   UNL A   1      40.415  28.577  29.832  1.00  0.00     0.049 A 
ATOM     52  H   UNL A   1      42.081  28.081  30.982  1.00  0.00     0.167 HD
ATOM     53  C   UNL A   1      45.758  27.123  33.129  1.00  0.00     0.031 A 
ATOM     54  C   UNL A   1      39.768  29.582  30.457  1.00  0.00     0.031 A 
ATOM     55  C   UNL A   1      45.180  28.255  33.816  1.00  0.00     0.049 A 
ATOM     56  C   UNL A   1      40.359  30.161  31.713  1.00  0.00     0.074 A 
ATOM     57  C   UNL A   1      45.677  28.924  34.923  1.00  0.00     0.029 A 
ATOM     58  N   UNL A   1      43.989  28.882  33.478  1.00  0.00    -0.354 N 
ATOM     59  N   UNL A   1      41.484  29.848  32.310  1.00  0.00    -0.248 NA
ATOM     60  C   UNL A   1      39.610  31.242  32.369  1.00  0.00     0.031 C 
ATOM     61  C   UNL A   1      44.744  29.886  35.309  1.00  0.00     0.029 A 
ATOM     62  C   UNL A   1      43.713  29.896  34.383  1.00  0.00     0.049 A 
ATOM     63  H   UNL A   1      43.423  28.643  32.709  1.00  0.00     0.167 HD
ATOM     64  C   UNL A   1      41.589  30.707  33.399  1.00  0.00     0.074 A 
ATOM     65  C   UNL A   1      40.427  31.572  33.361  1.00  0.00     0.031 C 
ATOM     66  C   UNL A   1      42.559  30.764  34.345  1.00  0.00     0.031 A 
BRANCH  53  67
ATOM     67  C   UNL A   1      47.048  26.564  33.684  1.00  0.00    -0.014 A 
ATOM     68  C   UNL A   1      48.280  26.934  33.109  1.00  0.00     0.010 A 
ATOM     69  C   UNL A   1      47.032  25.544  34.652  1.00  0.00     0.010 A 
ATOM     70  C   UNL A   1      49.458  26.261  33.449  1.00  0.00     0.020 A 
ATOM     71  C   UNL A   1      48.214  24.893  35.024  1.00  0.00     0.020 A 
ATOM     72  C   UNL A   1      49.414  25.235  34.396  1.00  0.00     0.054 A 
BRANCH  72  73
ATOM     73  S   UNL A   1      50.941  24.329  34.773  1.00  0.00     0.124 S 
ATOM     74  O   UNL A   1      51.953  25.131  34.092  1.00  0.00    -0.237 OA
ATOM     75  O   UNL A   1      50.978  24.368  36.232  1.00  0.00    -0.237 OA
ATOM     76  O   UNL A   1      50.704  23.005  34.200  1.00  0.00    -0.744 OA
ENDBRANCH  72  73
ENDBRANCH  53  67
BRANCH  54  77
ATOM     77  C   UNL A   1      38.517  30.128  29.854  1.00  0.00    -0.014 A 
ATOM     78  C   UNL A   1      38.502  31.420  29.295  1.00  0.00     0.010 A 
ATOM     79  C   UNL A   1      37.315  29.402  29.918  1.00  0.00     0.010 A 
ATOM     80  C   UNL A   1      37.302  32.003  28.882  1.00  0.00     0.020 A 
ATOM     81  C   UNL A   1      36.118  29.964  29.464  1.00  0.00     0.020 A 
ATOM     82  C   UNL A   1      36.114  31.274  28.983  1.00  0.00     0.054 A 
BRANCH  82  83
ATOM     83  S   UNL A   1      34.560  32.083  28.512  1.00  0.00     0.124 S 
ATOM     84  O   UNL A   1      34.082  32.582  29.799  1.00  0.00    -0.237 OA
ATOM     85  O   UNL A   1      35.010  33.104  27.569  1.00  0.00    -0.237 OA
ATOM     86  O   UNL A   1      33.773  31.002  27.929  1.00  0.00    -0.744 OA
ENDBRANCH  82  83
ENDBRANCH  54  77
BRANCH  66  87
ATOM     87  C   UNL A   1      42.434  31.793  35.446  1.00  0.00    -0.014 A 
ATOM     88  C   UNL A   1      41.684  31.495  36.601  1.00  0.00     0.010 A 
ATOM     89  C   UNL A   1      42.922  33.101  35.274  1.00  0.00     0.010 A 
ATOM     90  C   UNL A   1      41.375  32.494  37.529  1.00  0.00     0.020 A 
ATOM     91  C   UNL A   1      42.652  34.094  36.222  1.00  0.00     0.020 A 
ATOM     92  C   UNL A   1      41.851  33.792  37.326  1.00  0.00     0.054 A 
BRANCH  92  93
ATOM     93  S   UNL A   1      41.378  35.088  38.503  1.00  0.00     0.124 S 
ATOM     94  O   UNL A   1      41.973  36.280  37.904  1.00  0.00    -0.237 OA
ATOM     95  O   UNL A   1      39.919  35.029  38.473  1.00  0.00    -0.237 OA
ATOM     96  O   UNL A   1      41.987  34.653  39.758  1.00  0.00    -0.744 OA
ENDBRANCH  92  93
ENDBRANCH  66  87
ENDBRANCH  40  41
ENDBRANCH  33  35
ENDBRANCH  32  33
ENDBRANCH  31  32
ENDBRANCH  30  31
ENDBRANCH  29  30
ENDBRANCH  28  29
ENDBRANCH   1  28
TORSDOF 24
ENDMDL
MODEL 3
REMARK VINA RESULT:      -8.9      2.619      8.574
REMARK SMILES Cc1ccc(C#N)cc1S(=O)(=O)Nc1cccc(C(=O)OCCOCCOCCOC(=O)c2ccc(-c3c4nc(c(-c5ccc(S(=O)(=O)[O-])cc5)c5ccc([nH]5)c(-c5ccc(S(=O)(=O)[O-])cc5)c5nc(c(-c6ccc(S(=O)(=O)[O-])cc6)c6ccc3[nH]6)C=C5)C=C4)cc2)c1
REMARK SMILES IDX 25 1 24 2 23 3 22 4 21 5 19 6 20 7 18 8 14 9 15 10 93 11
REMARK SMILES IDX 16 12 17 13 13 14 10 16 11 17 12 18 9 19 1 20 2 21 3 22 4 23
REMARK SMILES IDX 8 24 5 25 6 26 7 27 26 28 27 29 28 30 29 31 30 32 31 33
REMARK SMILES IDX 32 34 33 35 34 36 92 37 35 38 91 39 36 40 37 41 38 42 85 43
REMARK SMILES IDX 39 44 90 45 84 46 86 47 40 48 89 49 83 50 82 51 41 53 71 54
REMARK SMILES IDX 52 55 70 56 53 57 56 58 69 59 87 60 54 61 55 62 68 64 88 65
REMARK SMILES IDX 57 66 42 67 43 68 51 69 44 70 50 71 45 72 46 73 47 74 48 75
REMARK SMILES IDX 49 76 72 77 73 78 81 79 74 80 80 81 75 82 76 83 77 84 78 85
REMARK SMILES IDX 79 86 58 87 59 88 67 89 60 90 66 91 61 92 62 93 63 94 64 95
REMARK SMILES IDX 65 96
REMARK H PARENT 13 15 86 52 56 63
REMARK Flexibility Score: inf
ROOT
ATOM      1  C   UNL A   1      42.066  19.215  27.536  1.00  0.00     0.188 C 
ENDROOT
BRANCH   1   2
ATOM      2  O   UNL A   1      40.884  19.982  27.576  1.00  0.00    -0.376 OA
BRANCH   2   3
ATOM      3  C   UNL A   1      40.438  20.634  26.401  1.00  0.00     0.202 C 
BRANCH   3   4
ATOM      4  C   UNL A   1      39.123  20.278  25.668  1.00  0.00     0.261 C 
BRANCH   4   5
ATOM      5  O   UNL A   1      38.014  21.199  25.763  1.00  0.00    -0.460 OA
BRANCH   5   6
ATOM      6  C   UNL A   1      36.885  20.822  25.103  1.00  0.00     0.338 C 
ATOM      7  O   UNL A   1      36.561  19.671  24.858  1.00  0.00    -0.246 OA
BRANCH   6   8
ATOM      8  C   UNL A   1      35.960  21.964  24.837  1.00  0.00     0.062 A 
ATOM      9  C   UNL A   1      34.079  23.441  25.330  1.00  0.00     0.050 A 
ATOM     10  C   UNL A   1      34.316  24.157  24.161  1.00  0.00     0.027 A 
ATOM     11  C   UNL A   1      34.939  22.378  25.704  1.00  0.00     0.042 A 
ATOM     12  C   UNL A   1      35.324  23.737  23.294  1.00  0.00     0.003 A 
ATOM     13  C   UNL A   1      36.125  22.638  23.619  1.00  0.00     0.016 A 
BRANCH   9  14
ATOM     14  N   UNL A   1      32.981  23.755  26.176  1.00  0.00    -0.280 N 
ATOM     15  H   UNL A   1      33.076  23.498  27.123  1.00  0.00     0.180 HD
BRANCH  14  16
ATOM     16  S   UNL A   1      31.532  24.518  25.754  1.00  0.00     0.262 S 
ATOM     17  O   UNL A   1      30.706  24.407  26.944  1.00  0.00    -0.201 OA
ATOM     18  O   UNL A   1      31.122  23.832  24.544  1.00  0.00    -0.201 OA
BRANCH  16  19
ATOM     19  C   UNL A   1      31.513  26.260  25.330  1.00  0.00     0.092 A 
ATOM     20  C   UNL A   1      29.208  26.452  24.251  1.00  0.00     0.046 C 
ATOM     21  C   UNL A   1      30.568  26.955  24.571  1.00  0.00    -0.030 A 
ATOM     22  C   UNL A   1      30.770  28.326  24.286  1.00  0.00     0.006 A 
ATOM     23  C   UNL A   1      31.791  29.049  24.892  1.00  0.00     0.020 A 
ATOM     24  C   UNL A   1      32.523  27.021  25.970  1.00  0.00     0.042 A 
ATOM     25  C   UNL A   1      32.634  28.408  25.791  1.00  0.00     0.053 A 
BRANCH  25  26
ATOM     26  C   UNL A   1      33.557  29.181  26.566  1.00  0.00     0.099 C 
ATOM     27  N   UNL A   1      34.334  29.795  27.178  1.00  0.00    -0.192 NA
ENDBRANCH  25  26
ENDBRANCH  16  19
ENDBRANCH  14  16
ENDBRANCH   9  14
ENDBRANCH   6   8
ENDBRANCH   5   6
ENDBRANCH   4   5
ENDBRANCH   3   4
ENDBRANCH   2   3
ENDBRANCH   1   2
BRANCH   1  28
ATOM     28  C   UNL A   1      42.332  18.328  26.310  1.00  0.00     0.188 C 
BRANCH  28  29
ATOM     29  O   UNL A   1      43.669  18.121  25.930  1.00  0.00    -0.376 OA
BRANCH  29  30
ATOM     30  C   UNL A   1      44.298  18.989  25.005  1.00  0.00     0.202 C 
BRANCH  30  31
ATOM     31  C   UNL A   1      44.605  20.487  25.211  1.00  0.00     0.261 C 
BRANCH  31  32
ATOM     32  O   UNL A   1      43.530  21.391  25.474  1.00  0.00    -0.460 OA
BRANCH  32  33
ATOM     33  C   UNL A   1      43.626  22.617  24.898  1.00  0.00     0.338 C 
ATOM     34  O   UNL A   1      43.619  22.871  23.707  1.00  0.00    -0.246 OA
BRANCH  33  35
ATOM     35  C   UNL A   1      43.516  23.630  25.966  1.00  0.00     0.060 A 
ATOM     36  C   UNL A   1      42.846  23.343  27.152  1.00  0.00     0.016 A 
ATOM     37  C   UNL A   1      44.077  24.896  25.762  1.00  0.00     0.016 A 
ATOM     38  C   UNL A   1      42.738  24.336  28.130  1.00  0.00     0.010 A 
ATOM     39  C   UNL A   1      43.952  25.893  26.728  1.00  0.00     0.010 A 
ATOM     40  C   UNL A   1      43.291  25.616  27.930  1.00  0.00    -0.014 A 
BRANCH  40  41
ATOM     41  C   UNL A   1      43.305  26.603  29.039  1.00  0.00     0.031 A 
ATOM     42  C   UNL A   1      42.241  27.651  29.185  1.00  0.00     0.074 A 
ATOM     43  C   UNL A   1      44.312  26.534  29.932  1.00  0.00     0.049 A 
ATOM     44  N   UNL A   1      42.068  28.505  30.160  1.00  0.00    -0.248 NA
ATOM     45  C   UNL A   1      41.250  27.765  28.104  1.00  0.00     0.031 C 
ATOM     46  C   UNL A   1      45.416  25.575  29.865  1.00  0.00     0.029 A 
ATOM     47  N   UNL A   1      44.562  27.254  31.073  1.00  0.00    -0.354 N 
ATOM     48  C   UNL A   1      40.938  29.242  29.832  1.00  0.00     0.074 A 
ATOM     49  C   UNL A   1      40.498  28.774  28.533  1.00  0.00     0.031 C 
ATOM     50  C   UNL A   1      46.192  25.728  30.946  1.00  0.00     0.029 A 
ATOM     51  C   UNL A   1      45.674  26.825  31.761  1.00  0.00     0.049 A 
ATOM     52  H   UNL A   1      44.001  28.006  31.370  1.00  0.00     0.167 HD
ATOM     53  C   UNL A   1      40.315  30.199  30.562  1.00  0.00     0.031 A 
ATOM     54  C   UNL A   1      46.214  27.249  32.922  1.00  0.00     0.031 A 
ATOM     55  C   UNL A   1      40.774  30.655  31.853  1.00  0.00     0.049 A 
ATOM     56  C   UNL A   1      45.525  28.343  33.691  1.00  0.00     0.074 A 
ATOM     57  C   UNL A   1      40.179  31.588  32.688  1.00  0.00     0.029 A 
ATOM     58  N   UNL A   1      41.928  30.230  32.496  1.00  0.00    -0.354 N 
ATOM     59  N   UNL A   1      44.402  28.960  33.412  1.00  0.00    -0.248 NA
ATOM     60  C   UNL A   1      46.160  28.785  34.941  1.00  0.00     0.031 C 
ATOM     61  C   UNL A   1      41.019  31.795  33.782  1.00  0.00     0.029 A 
ATOM     62  C   UNL A   1      42.086  30.916  33.692  1.00  0.00     0.049 A 
ATOM     63  H   UNL A   1      42.544  29.542  32.155  1.00  0.00     0.167 HD
ATOM     64  C   UNL A   1      44.183  29.847  34.461  1.00  0.00     0.074 A 
ATOM     65  C   UNL A   1      45.277  29.665  35.394  1.00  0.00     0.031 C 
ATOM     66  C   UNL A   1      43.171  30.733  34.627  1.00  0.00     0.031 A 
BRANCH  53  67
ATOM     67  C   UNL A   1      39.048  30.821  30.021  1.00  0.00    -0.014 A 
ATOM     68  C   UNL A   1      39.087  32.100  29.431  1.00  0.00     0.010 A 
ATOM     69  C   UNL A   1      37.797  30.220  30.253  1.00  0.00     0.010 A 
ATOM     70  C   UNL A   1      37.906  32.787  29.136  1.00  0.00     0.020 A 
ATOM     71  C   UNL A   1      36.612  30.888  29.924  1.00  0.00     0.020 A 
ATOM     72  C   UNL A   1      36.675  32.180  29.396  1.00  0.00     0.054 A 
BRANCH  72  73
ATOM     73  S   UNL A   1      35.154  33.116  29.069  1.00  0.00     0.124 S 
ATOM     74  O   UNL A   1      35.487  34.439  29.588  1.00  0.00    -0.237 OA
ATOM     75  O   UNL A   1      35.030  33.017  27.617  1.00  0.00    -0.237 OA
ATOM     76  O   UNL A   1      34.134  32.388  29.823  1.00  0.00    -0.744 OA
ENDBRANCH  72  73
ENDBRANCH  53  67
BRANCH  54  77
ATOM     77  C   UNL A   1      47.445  26.583  33.437  1.00  0.00    -0.014 A 
ATOM     78  C   UNL A   1      48.718  27.052  33.061  1.00  0.00     0.010 A 
ATOM     79  C   UNL A   1      47.355  25.424  34.227  1.00  0.00     0.010 A 
ATOM     80  C   UNL A   1      49.869  26.338  33.401  1.00  0.00     0.020 A 
ATOM     81  C   UNL A   1      48.507  24.729  34.607  1.00  0.00     0.020 A 
ATOM     82  C   UNL A   1      49.754  25.171  34.161  1.00  0.00     0.054 A 
BRANCH  82  83
ATOM     83  S   UNL A   1      51.257  24.221  34.521  1.00  0.00     0.124 S 
ATOM     84  O   UNL A   1      52.149  24.658  33.449  1.00  0.00    -0.237 OA
ATOM     85  O   UNL A   1      51.608  24.684  35.861  1.00  0.00    -0.237 OA
ATOM     86  O   UNL A   1      50.814  22.833  34.437  1.00  0.00    -0.744 OA
ENDBRANCH  82  83
ENDBRANCH  54  77
BRANCH  66  87
ATOM     87  C   UNL A   1      43.169  31.603  35.864  1.00  0.00    -0.014 A 
ATOM     88  C   UNL A   1      42.399  31.227  36.983  1.00  0.00     0.010 A 
ATOM     89  C   UNL A   1      43.798  32.860  35.867  1.00  0.00     0.010 A 
ATOM     90  C   UNL A   1      42.210  32.111  38.049  1.00  0.00     0.020 A 
ATOM     91  C   UNL A   1      43.647  33.732  36.951  1.00  0.00     0.020 A 
ATOM     92  C   UNL A   1      42.826  33.365  38.020  1.00  0.00     0.054 A 
BRANCH  92  93
ATOM     93  S   UNL A   1      42.508  34.524  39.378  1.00  0.00     0.124 S 
ATOM     94  O   UNL A   1      43.813  35.154  39.557  1.00  0.00    -0.237 OA
ATOM     95  O   UNL A   1      41.465  35.383  38.825  1.00  0.00    -0.237 OA
ATOM     96  O   UNL A   1      42.079  33.660  40.475  1.00  0.00    -0.744 OA
ENDBRANCH  92  93
ENDBRANCH  66  87
ENDBRANCH  40  41
ENDBRANCH  33  35
ENDBRANCH  32  33
ENDBRANCH  31  32
ENDBRANCH  30  31
ENDBRANCH  29  30
ENDBRANCH  28  29
ENDBRANCH   1  28
TORSDOF 24
ENDMDL
