MODEL 1
REMARK VINA RESULT:      -9.8      0.000      0.000
REMARK SMILES O=C(Cc1ccccc1Cl)Nc1ccc(C(=O)OCCOCCOCCOC(=O)c2ccc(-c3c4nc(c(-c5ccc(S(=O)(=O)[O-])cc5)c5ccc([nH]5)c(-c5ccc(S(=O)(=O)[O-])cc5)c5nc(c(-c6ccc(S(=O)(=O)[O-])cc6)c6ccc3[nH]6)C=C5)C=C4)cc2)cc1
REMARK SMILES IDX 22 1 21 2 20 3 19 4 18 5 16 6 17 7 15 8 12 9 13 10 91 11
REMARK SMILES IDX 14 12 90 13 11 14 1 15 2 16 3 18 4 19 5 20 9 21 6 22 8 23
REMARK SMILES IDX 10 24 7 25 23 26 24 27 25 28 26 29 27 30 28 31 29 32 30 33
REMARK SMILES IDX 31 34 89 35 32 36 88 37 33 38 34 39 35 40 82 41 36 42 87 43
REMARK SMILES IDX 81 44 83 45 37 46 86 47 80 48 79 49 38 51 68 52 49 53 67 54
REMARK SMILES IDX 50 55 53 56 66 57 84 58 51 59 52 60 65 62 85 63 54 64 39 65
REMARK SMILES IDX 40 66 48 67 41 68 47 69 42 70 43 71 44 72 45 73 46 74 69 75
REMARK SMILES IDX 70 76 78 77 71 78 77 79 72 80 73 81 74 82 75 83 76 84 55 85
REMARK SMILES IDX 56 86 64 87 57 88 63 89 58 90 59 91 60 92 61 93 62 94
REMARK H PARENT 11 17 83 50 53 61
REMARK Flexibility Score: inf
ROOT
ATOM      1  C   UNL A   1      38.527  22.075  26.049  1.00  0.00     0.188 C 
ENDROOT
BRANCH   1   2
ATOM      2  O   UNL A   1      38.599  20.848  25.361  1.00  0.00    -0.376 OA
BRANCH   2   3
ATOM      3  C   UNL A   1      37.448  20.248  24.795  1.00  0.00     0.202 C 
BRANCH   3   4
ATOM      4  C   UNL A   1      35.999  20.746  24.937  1.00  0.00     0.261 C 
BRANCH   4   5
ATOM      5  O   UNL A   1      35.027  19.826  25.430  1.00  0.00    -0.460 OA
BRANCH   5   6
ATOM      6  C   UNL A   1      33.975  19.622  24.593  1.00  0.00     0.338 C 
ATOM      7  O   UNL A   1      33.738  18.624  23.949  1.00  0.00    -0.246 OA
BRANCH   6   8
ATOM      8  C   UNL A   1      33.032  20.756  24.689  1.00  0.00     0.060 A 
ATOM      9  C   UNL A   1      31.511  23.089  24.798  1.00  0.00     0.041 A 
ATOM     10  C   UNL A   1      31.879  22.557  23.559  1.00  0.00     0.027 A 
ATOM     11  C   UNL A   1      31.794  22.379  25.969  1.00  0.00     0.027 A 
ATOM     12  C   UNL A   1      32.673  21.411  23.506  1.00  0.00     0.018 A 
ATOM     13  C   UNL A   1      32.543  21.199  25.918  1.00  0.00     0.018 A 
BRANCH   9  14
ATOM     14  N   UNL A   1      30.930  24.371  24.797  1.00  0.00    -0.326 N 
ATOM     15  O   UNL A   1      32.675  25.593  23.864  1.00  0.00    -0.274 OA
ATOM     16  C   UNL A   1      31.525  25.517  24.299  1.00  0.00     0.228 C 
ATOM     17  H   UNL A   1      30.028  24.459  25.182  1.00  0.00     0.169 HD
BRANCH  16  18
ATOM     18  C   UNL A   1      30.643  26.755  24.329  1.00  0.00     0.137 C 
BRANCH  18  19
ATOM     19  C   UNL A   1      31.133  27.878  25.221  1.00  0.00    -0.020 A 
ATOM     20  C   UNL A   1      31.538  27.582  26.535  1.00  0.00     0.006 A 
ATOM     21  C   UNL A   1      31.203  29.216  24.792  1.00  0.00     0.044 A 
ATOM     22  C   UNL A   1      31.976  28.592  27.396  1.00  0.00     0.000 A 
ATOM     23  C   UNL A   1      31.649  30.222  25.652  1.00  0.00     0.021 A 
ATOM     24  Cl  UNL A   1      30.771  29.676  23.183  1.00  0.00    -0.084 Cl
ATOM     25  C   UNL A   1      32.029  29.911  26.955  1.00  0.00     0.002 A 
ENDBRANCH  18  19
ENDBRANCH  16  18
ENDBRANCH   9  14
ENDBRANCH   6   8
ENDBRANCH   5   6
ENDBRANCH   4   5
ENDBRANCH   3   4
ENDBRANCH   2   3
ENDBRANCH   1   2
BRANCH   1  26
ATOM     26  C   UNL A   1      39.820  22.641  26.670  1.00  0.00     0.188 C 
BRANCH  26  27
ATOM     27  O   UNL A   1      40.529  21.906  27.648  1.00  0.00    -0.376 OA
BRANCH  27  28
ATOM     28  C   UNL A   1      41.940  22.003  27.726  1.00  0.00     0.202 C 
BRANCH  28  29
ATOM     29  C   UNL A   1      42.809  22.750  26.698  1.00  0.00     0.261 C 
BRANCH  29  30
ATOM     30  O   UNL A   1      43.360  24.007  27.101  1.00  0.00    -0.460 OA
BRANCH  30  31
ATOM     31  C   UNL A   1      42.799  25.098  26.522  1.00  0.00     0.338 C 
ATOM     32  O   UNL A   1      42.556  25.266  25.340  1.00  0.00    -0.246 OA
BRANCH  31  33
ATOM     33  C   UNL A   1      42.353  26.024  27.578  1.00  0.00     0.060 A 
ATOM     34  C   UNL A   1      43.121  27.166  27.840  1.00  0.00     0.016 A 
ATOM     35  C   UNL A   1      41.210  25.748  28.330  1.00  0.00     0.016 A 
ATOM     36  C   UNL A   1      42.750  28.037  28.864  1.00  0.00     0.010 A 
ATOM     37  C   UNL A   1      40.855  26.609  29.372  1.00  0.00     0.010 A 
ATOM     38  C   UNL A   1      41.633  27.746  29.657  1.00  0.00    -0.014 A 
BRANCH  38  39
ATOM     39  C   UNL A   1      41.355  28.550  30.871  1.00  0.00     0.031 A 
ATOM     40  C   UNL A   1      40.216  29.532  30.846  1.00  0.00     0.074 A 
ATOM     41  C   UNL A   1      42.102  28.408  31.980  1.00  0.00     0.049 A 
ATOM     42  N   UNL A   1      39.833  30.377  31.766  1.00  0.00    -0.248 NA
ATOM     43  C   UNL A   1      39.405  29.565  29.618  1.00  0.00     0.031 C 
ATOM     44  C   UNL A   1      43.205  27.461  32.144  1.00  0.00     0.029 A 
ATOM     45  N   UNL A   1      42.052  29.077  33.178  1.00  0.00    -0.354 N 
ATOM     46  C   UNL A   1      38.745  31.053  31.227  1.00  0.00     0.074 A 
ATOM     47  C   UNL A   1      38.544  30.534  29.890  1.00  0.00     0.031 C 
ATOM     48  C   UNL A   1      43.738  27.622  33.369  1.00  0.00     0.029 A 
ATOM     49  C   UNL A   1      43.041  28.706  34.059  1.00  0.00     0.049 A 
ATOM     50  H   UNL A   1      41.372  29.758  33.387  1.00  0.00     0.167 HD
ATOM     51  C   UNL A   1      37.983  32.020  31.792  1.00  0.00     0.031 A 
ATOM     52  C   UNL A   1      43.365  29.205  35.268  1.00  0.00     0.031 A 
ATOM     53  C   UNL A   1      38.198  32.548  33.113  1.00  0.00     0.049 A 
ATOM     54  C   UNL A   1      42.554  30.338  35.844  1.00  0.00     0.074 A 
ATOM     55  C   UNL A   1      37.465  33.512  33.783  1.00  0.00     0.029 A 
ATOM     56  N   UNL A   1      39.230  32.171  33.959  1.00  0.00    -0.354 N 
ATOM     57  N   UNL A   1      41.504  30.942  35.338  1.00  0.00    -0.248 NA
ATOM     58  C   UNL A   1      42.969  30.854  37.157  1.00  0.00     0.031 C 
ATOM     59  C   UNL A   1      38.093  33.766  35.007  1.00  0.00     0.029 A 
ATOM     60  C   UNL A   1      39.176  32.909  35.130  1.00  0.00     0.049 A 
ATOM     61  H   UNL A   1      39.903  31.480  33.757  1.00  0.00     0.167 HD
ATOM     62  C   UNL A   1      41.120  31.891  36.282  1.00  0.00     0.074 A 
ATOM     63  C   UNL A   1      42.038  31.768  37.395  1.00  0.00     0.031 C 
ATOM     64  C   UNL A   1      40.099  32.781  36.231  1.00  0.00     0.031 A 
BRANCH  51  65
ATOM     65  C   UNL A   1      36.867  32.601  30.963  1.00  0.00    -0.014 A 
ATOM     66  C   UNL A   1      35.555  32.102  31.048  1.00  0.00     0.010 A 
ATOM     67  C   UNL A   1      37.132  33.690  30.112  1.00  0.00     0.010 A 
ATOM     68  C   UNL A   1      34.536  32.656  30.268  1.00  0.00     0.020 A 
ATOM     69  C   UNL A   1      36.109  34.267  29.354  1.00  0.00     0.020 A 
ATOM     70  C   UNL A   1      34.820  33.735  29.425  1.00  0.00     0.054 A 
BRANCH  70  71
ATOM     71  S   UNL A   1      33.473  34.449  28.443  1.00  0.00     0.124 S 
ATOM     72  O   UNL A   1      33.004  33.290  27.688  1.00  0.00    -0.237 OA
ATOM     73  O   UNL A   1      32.559  34.944  29.468  1.00  0.00    -0.237 OA
ATOM     74  O   UNL A   1      34.133  35.482  27.647  1.00  0.00    -0.744 OA
ENDBRANCH  70  71
ENDBRANCH  51  65
BRANCH  52  75
ATOM     75  C   UNL A   1      44.535  28.656  36.010  1.00  0.00    -0.014 A 
ATOM     76  C   UNL A   1      45.816  29.214  35.847  1.00  0.00     0.010 A 
ATOM     77  C   UNL A   1      44.373  27.564  36.883  1.00  0.00     0.010 A 
ATOM     78  C   UNL A   1      46.912  28.683  36.533  1.00  0.00     0.020 A 
ATOM     79  C   UNL A   1      45.459  27.049  37.593  1.00  0.00     0.020 A 
ATOM     80  C   UNL A   1      46.726  27.606  37.405  1.00  0.00     0.054 A 
BRANCH  80  81
ATOM     81  S   UNL A   1      48.155  26.970  38.325  1.00  0.00     0.124 S 
ATOM     82  O   UNL A   1      49.181  27.961  38.015  1.00  0.00    -0.237 OA
ATOM     83  O   UNL A   1      47.668  26.973  39.703  1.00  0.00    -0.237 OA
ATOM     84  O   UNL A   1      48.370  25.644  37.751  1.00  0.00    -0.744 OA
ENDBRANCH  80  81
ENDBRANCH  52  75
BRANCH  64  85
ATOM     85  C   UNL A   1      39.894  33.680  37.424  1.00  0.00    -0.014 A 
ATOM     86  C   UNL A   1      40.143  35.062  37.351  1.00  0.00     0.010 A 
ATOM     87  C   UNL A   1      39.382  33.141  38.620  1.00  0.00     0.010 A 
ATOM     88  C   UNL A   1      39.914  35.882  38.461  1.00  0.00     0.020 A 
ATOM     89  C   UNL A   1      39.122  33.962  39.720  1.00  0.00     0.020 A 
ATOM     90  C   UNL A   1      39.403  35.327  39.638  1.00  0.00     0.054 A 
BRANCH  90  91
ATOM     91  S   UNL A   1      39.070  36.419  41.047  1.00  0.00     0.124 S 
ATOM     92  O   UNL A   1      38.764  37.684  40.385  1.00  0.00    -0.237 OA
ATOM     93  O   UNL A   1      37.940  35.762  41.701  1.00  0.00    -0.237 OA
ATOM     94  O   UNL A   1      40.319  36.398  41.805  1.00  0.00    -0.744 OA
ENDBRANCH  90  91
ENDBRANCH  64  85
ENDBRANCH  38  39
ENDBRANCH  31  33
ENDBRANCH  30  31
ENDBRANCH  29  30
ENDBRANCH  28  29
ENDBRANCH  27  28
ENDBRANCH  26  27
ENDBRANCH   1  26
TORSDOF 23
ENDMDL
MODEL 2
REMARK VINA RESULT:      -9.7      6.044      8.044
REMARK SMILES O=C(Cc1ccccc1Cl)Nc1ccc(C(=O)OCCOCCOCCOC(=O)c2ccc(-c3c4nc(c(-c5ccc(S(=O)(=O)[O-])cc5)c5ccc([nH]5)c(-c5ccc(S(=O)(=O)[O-])cc5)c5nc(c(-c6ccc(S(=O)(=O)[O-])cc6)c6ccc3[nH]6)C=C5)C=C4)cc2)cc1
REMARK SMILES IDX 22 1 21 2 20 3 19 4 18 5 16 6 17 7 15 8 12 9 13 10 91 11
REMARK SMILES IDX 14 12 90 13 11 14 1 15 2 16 3 18 4 19 5 20 9 21 6 22 8 23
REMARK SMILES IDX 10 24 7 25 23 26 24 27 25 28 26 29 27 30 28 31 29 32 30 33
REMARK SMILES IDX 31 34 89 35 32 36 88 37 33 38 34 39 35 40 82 41 36 42 87 43
REMARK SMILES IDX 81 44 83 45 37 46 86 47 80 48 79 49 38 51 68 52 49 53 67 54
REMARK SMILES IDX 50 55 53 56 66 57 84 58 51 59 52 60 65 62 85 63 54 64 39 65
REMARK SMILES IDX 40 66 48 67 41 68 47 69 42 70 43 71 44 72 45 73 46 74 69 75
REMARK SMILES IDX 70 76 78 77 71 78 77 79 72 80 73 81 74 82 75 83 76 84 55 85
REMARK SMILES IDX 56 86 64 87 57 88 63 89 58 90 59 91 60 92 61 93 62 94
REMARK H PARENT 11 17 83 50 53 61
REMARK Flexibility Score: inf
ROOT
ATOM      1  C   UNL A   1      46.181  22.586  24.304  1.00  0.00     0.188 C 
ENDROOT
BRANCH   1   2
ATOM      2  O   UNL A   1      45.791  23.902  24.618  1.00  0.00    -0.376 OA
BRANCH   2   3
ATOM      3  C   UNL A   1      44.432  24.299  24.588  1.00  0.00     0.202 C 
BRANCH   3   4
ATOM      4  C   UNL A   1      43.839  25.560  25.241  1.00  0.00     0.261 C 
BRANCH   4   5
ATOM      5  O   UNL A   1      42.472  25.867  24.970  1.00  0.00    -0.460 OA
BRANCH   5   6
ATOM      6  C   UNL A   1      42.129  27.158  25.219  1.00  0.00     0.338 C 
ATOM      7  O   UNL A   1      42.473  28.138  24.594  1.00  0.00    -0.246 OA
BRANCH   6   8
ATOM      8  C   UNL A   1      41.116  27.209  26.294  1.00  0.00     0.060 A 
ATOM      9  C   UNL A   1      39.457  27.375  28.527  1.00  0.00     0.041 A 
ATOM     10  C   UNL A   1      39.943  28.544  27.935  1.00  0.00     0.027 A 
ATOM     11  C   UNL A   1      39.697  26.138  27.920  1.00  0.00     0.027 A 
ATOM     12  C   UNL A   1      40.804  28.459  26.842  1.00  0.00     0.018 A 
ATOM     13  C   UNL A   1      40.516  26.052  26.789  1.00  0.00     0.018 A 
BRANCH   9  14
ATOM     14  N   UNL A   1      38.803  27.509  29.766  1.00  0.00    -0.326 N 
ATOM     15  O   UNL A   1      40.603  28.148  31.094  1.00  0.00    -0.274 OA
ATOM     16  C   UNL A   1      39.401  27.922  30.945  1.00  0.00     0.228 C 
ATOM     17  H   UNL A   1      37.843  27.292  29.798  1.00  0.00     0.169 HD
BRANCH  16  18
ATOM     18  C   UNL A   1      38.449  28.077  32.120  1.00  0.00     0.137 C 
BRANCH  18  19
ATOM     19  C   UNL A   1      37.807  29.442  32.257  1.00  0.00    -0.020 A 
ATOM     20  C   UNL A   1      36.732  29.781  31.414  1.00  0.00     0.006 A 
ATOM     21  C   UNL A   1      38.237  30.396  33.196  1.00  0.00     0.044 A 
ATOM     22  C   UNL A   1      36.125  31.037  31.494  1.00  0.00     0.000 A 
ATOM     23  C   UNL A   1      37.623  31.648  33.279  1.00  0.00     0.021 A 
ATOM     24  Cl  UNL A   1      39.519  30.061  34.306  1.00  0.00    -0.084 Cl
ATOM     25  C   UNL A   1      36.572  31.971  32.425  1.00  0.00     0.002 A 
ENDBRANCH  18  19
ENDBRANCH  16  18
ENDBRANCH   9  14
ENDBRANCH   6   8
ENDBRANCH   5   6
ENDBRANCH   4   5
ENDBRANCH   3   4
ENDBRANCH   2   3
ENDBRANCH   1   2
BRANCH   1  26
ATOM     26  C   UNL A   1      45.077  21.536  24.064  1.00  0.00     0.188 C 
BRANCH  26  27
ATOM     27  O   UNL A   1      45.334  20.162  24.278  1.00  0.00    -0.376 OA
BRANCH  27  28
ATOM     28  C   UNL A   1      44.645  19.460  25.298  1.00  0.00     0.202 C 
BRANCH  28  29
ATOM     29  C   UNL A   1      43.130  19.573  25.546  1.00  0.00     0.261 C 
BRANCH  29  30
ATOM     30  O   UNL A   1      42.707  20.375  26.653  1.00  0.00    -0.460 OA
BRANCH  30  31
ATOM     31  C   UNL A   1      42.487  21.683  26.369  1.00  0.00     0.338 C 
ATOM     32  O   UNL A   1      41.881  22.142  25.417  1.00  0.00    -0.246 OA
BRANCH  31  33
ATOM     33  C   UNL A   1      42.956  22.503  27.500  1.00  0.00     0.060 A 
ATOM     34  C   UNL A   1      42.006  23.120  28.325  1.00  0.00     0.016 A 
ATOM     35  C   UNL A   1      44.320  22.694  27.722  1.00  0.00     0.016 A 
ATOM     36  C   UNL A   1      42.420  23.939  29.375  1.00  0.00     0.010 A 
ATOM     37  C   UNL A   1      44.732  23.534  28.760  1.00  0.00     0.010 A 
ATOM     38  C   UNL A   1      43.784  24.177  29.578  1.00  0.00    -0.014 A 
BRANCH  38  39
ATOM     39  C   UNL A   1      44.222  25.204  30.553  1.00  0.00     0.031 A 
ATOM     40  C   UNL A   1      44.380  26.626  30.088  1.00  0.00     0.074 A 
ATOM     41  C   UNL A   1      44.475  24.879  31.833  1.00  0.00     0.049 A 
ATOM     42  N   UNL A   1      44.808  27.669  30.750  1.00  0.00    -0.248 NA
ATOM     43  C   UNL A   1      44.009  26.905  28.692  1.00  0.00     0.031 C 
ATOM     44  C   UNL A   1      44.318  23.545  32.415  1.00  0.00     0.029 A 
ATOM     45  N   UNL A   1      44.933  25.649  32.873  1.00  0.00    -0.354 N 
ATOM     46  C   UNL A   1      44.770  28.727  29.849  1.00  0.00     0.074 A 
ATOM     47  C   UNL A   1      44.299  28.193  28.589  1.00  0.00     0.031 C 
ATOM     48  C   UNL A   1      44.691  23.589  33.708  1.00  0.00     0.029 A 
ATOM     49  C   UNL A   1      45.148  24.939  34.032  1.00  0.00     0.049 A 
ATOM     50  H   UNL A   1      45.093  26.617  32.797  1.00  0.00     0.167 HD
ATOM     51  C   UNL A   1      45.099  30.025  30.052  1.00  0.00     0.031 A 
ATOM     52  C   UNL A   1      45.679  25.328  35.208  1.00  0.00     0.031 A 
ATOM     53  C   UNL A   1      45.587  30.548  31.301  1.00  0.00     0.049 A 
ATOM     54  C   UNL A   1      46.117  26.760  35.386  1.00  0.00     0.074 A 
ATOM     55  C   UNL A   1      45.925  31.853  31.612  1.00  0.00     0.029 A 
ATOM     56  N   UNL A   1      45.823  29.792  32.440  1.00  0.00    -0.354 N 
ATOM     57  N   UNL A   1      46.039  27.758  34.538  1.00  0.00    -0.248 NA
ATOM     58  C   UNL A   1      46.708  27.119  36.683  1.00  0.00     0.031 C 
ATOM     59  C   UNL A   1      46.428  31.875  32.917  1.00  0.00     0.029 A 
ATOM     60  C   UNL A   1      46.336  30.595  33.443  1.00  0.00     0.049 A 
ATOM     61  H   UNL A   1      45.649  28.826  32.522  1.00  0.00     0.167 HD
ATOM     62  C   UNL A   1      46.550  28.867  35.207  1.00  0.00     0.074 A 
ATOM     63  C   UNL A   1      46.916  28.421  36.535  1.00  0.00     0.031 C 
ATOM     64  C   UNL A   1      46.701  30.139  34.762  1.00  0.00     0.031 A 
BRANCH  51  65
ATOM     65  C   UNL A   1      44.982  30.964  28.880  1.00  0.00    -0.014 A 
ATOM     66  C   UNL A   1      43.812  31.710  28.653  1.00  0.00     0.010 A 
ATOM     67  C   UNL A   1      46.079  31.130  28.015  1.00  0.00     0.010 A 
ATOM     68  C   UNL A   1      43.726  32.575  27.558  1.00  0.00     0.020 A 
ATOM     69  C   UNL A   1      46.008  32.017  26.936  1.00  0.00     0.020 A 
ATOM     70  C   UNL A   1      44.825  32.722  26.706  1.00  0.00     0.054 A 
BRANCH  70  71
ATOM     71  S   UNL A   1      44.693  33.869  25.308  1.00  0.00     0.124 S 
ATOM     72  O   UNL A   1      44.160  33.005  24.258  1.00  0.00    -0.237 OA
ATOM     73  O   UNL A   1      43.773  34.884  25.814  1.00  0.00    -0.237 OA
ATOM     74  O   UNL A   1      46.067  34.324  25.101  1.00  0.00    -0.744 OA
ENDBRANCH  70  71
ENDBRANCH  51  65
BRANCH  52  75
ATOM     75  C   UNL A   1      45.857  24.338  36.307  1.00  0.00    -0.014 A 
ATOM     76  C   UNL A   1      45.043  24.381  37.453  1.00  0.00     0.010 A 
ATOM     77  C   UNL A   1      46.849  23.344  36.212  1.00  0.00     0.010 A 
ATOM     78  C   UNL A   1      45.227  23.459  38.487  1.00  0.00     0.020 A 
ATOM     79  C   UNL A   1      47.017  22.402  37.230  1.00  0.00     0.020 A 
ATOM     80  C   UNL A   1      46.211  22.473  38.368  1.00  0.00     0.054 A 
BRANCH  80  81
ATOM     81  S   UNL A   1      46.393  21.255  39.700  1.00  0.00     0.124 S 
ATOM     82  O   UNL A   1      47.763  21.495  40.145  1.00  0.00    -0.237 OA
ATOM     83  O   UNL A   1      45.345  21.655  40.637  1.00  0.00    -0.237 OA
ATOM     84  O   UNL A   1      46.166  19.977  39.030  1.00  0.00    -0.744 OA
ENDBRANCH  80  81
ENDBRANCH  52  75
BRANCH  64  85
ATOM     85  C   UNL A   1      47.259  31.156  35.725  1.00  0.00    -0.014 A 
ATOM     86  C   UNL A   1      48.640  31.244  35.977  1.00  0.00     0.010 A 
ATOM     87  C   UNL A   1      46.393  32.080  36.339  1.00  0.00     0.010 A 
ATOM     88  C   UNL A   1      49.139  32.216  36.850  1.00  0.00     0.020 A 
ATOM     89  C   UNL A   1      46.891  33.073  37.187  1.00  0.00     0.020 A 
ATOM     90  C   UNL A   1      48.262  33.126  37.447  1.00  0.00     0.054 A 
BRANCH  90  91
ATOM     91  S   UNL A   1      48.940  34.408  38.537  1.00  0.00     0.124 S 
ATOM     92  O   UNL A   1      50.190  34.749  37.864  1.00  0.00    -0.237 OA
ATOM     93  O   UNL A   1      47.904  35.439  38.502  1.00  0.00    -0.237 OA
ATOM     94  O   UNL A   1      49.090  33.727  39.822  1.00  0.00    -0.744 OA
ENDBRANCH  90  91
ENDBRANCH  64  85
ENDBRANCH  38  39
ENDBRANCH  31  33
ENDBRANCH  30  31
ENDBRANCH  29  30
ENDBRANCH  28  29
ENDBRANCH  27  28
ENDBRANCH  26  27
ENDBRANCH   1  26
TORSDOF 23
ENDMDL
MODEL 3
REMARK VINA RESULT:      -9.6      1.913      8.586
REMARK SMILES O=C(Cc1ccccc1Cl)Nc1ccc(C(=O)OCCOCCOCCOC(=O)c2ccc(-c3c4nc(c(-c5ccc(S(=O)(=O)[O-])cc5)c5ccc([nH]5)c(-c5ccc(S(=O)(=O)[O-])cc5)c5nc(c(-c6ccc(S(=O)(=O)[O-])cc6)c6ccc3[nH]6)C=C5)C=C4)cc2)cc1
REMARK SMILES IDX 22 1 21 2 20 3 19 4 18 5 16 6 17 7 15 8 12 9 13 10 91 11
REMARK SMILES IDX 14 12 90 13 11 14 1 15 2 16 3 18 4 19 5 20 9 21 6 22 8 23
REMARK SMILES IDX 10 24 7 25 23 26 24 27 25 28 26 29 27 30 28 31 29 32 30 33
REMARK SMILES IDX 31 34 89 35 32 36 88 37 33 38 34 39 35 40 82 41 36 42 87 43
REMARK SMILES IDX 81 44 83 45 37 46 86 47 80 48 79 49 38 51 68 52 49 53 67 54
REMARK SMILES IDX 50 55 53 56 66 57 84 58 51 59 52 60 65 62 85 63 54 64 39 65
REMARK SMILES IDX 40 66 48 67 41 68 47 69 42 70 43 71 44 72 45 73 46 74 69 75
REMARK SMILES IDX 70 76 78 77 71 78 77 79 72 80 73 81 74 82 75 83 76 84 55 85
REMARK SMILES IDX 56 86 64 87 57 88 63 89 58 90 59 91 60 92 61 93 62 94
REMARK H PARENT 11 17 83 50 53 61
REMARK Flexibility Score: inf
ROOT
ATOM      1  C   UNL A   1      44.290  21.554  24.743  1.00  0.00     0.188 C 
ENDROOT
BRANCH   1   2
ATOM      2  O   UNL A   1      43.735  20.260  24.779  1.00  0.00    -0.376 OA
BRANCH   2   3
ATOM      3  C   UNL A   1      43.093  19.761  25.938  1.00  0.00     0.202 C 
BRANCH   3   4
ATOM      4  C   UNL A   1      41.575  19.618  26.146  1.00  0.00     0.261 C 
BRANCH   4   5
ATOM      5  O   UNL A   1      41.011  20.185  27.327  1.00  0.00    -0.460 OA
BRANCH   5   6
ATOM      6  C   UNL A   1      40.889  21.539  27.294  1.00  0.00     0.338 C 
ATOM      7  O   UNL A   1      41.680  22.354  27.716  1.00  0.00    -0.246 OA
BRANCH   6   8
ATOM      8  C   UNL A   1      39.695  21.915  26.507  1.00  0.00     0.060 A 
ATOM      9  C   UNL A   1      37.283  22.634  25.311  1.00  0.00     0.041 A 
ATOM     10  C   UNL A   1      38.039  23.598  25.985  1.00  0.00     0.027 A 
ATOM     11  C   UNL A   1      37.803  21.349  25.128  1.00  0.00     0.027 A 
ATOM     12  C   UNL A   1      39.226  23.228  26.616  1.00  0.00     0.018 A 
ATOM     13  C   UNL A   1      39.022  20.988  25.712  1.00  0.00     0.018 A 
BRANCH   9  14
ATOM     14  N   UNL A   1      35.984  23.002  24.913  1.00  0.00    -0.326 N 
ATOM     15  O   UNL A   1      36.309  23.164  22.615  1.00  0.00    -0.274 OA
ATOM     16  C   UNL A   1      35.576  23.200  23.605  1.00  0.00     0.228 C 
ATOM     17  H   UNL A   1      35.313  23.129  25.621  1.00  0.00     0.169 HD
BRANCH  16  18
ATOM     18  C   UNL A   1      34.094  23.496  23.440  1.00  0.00     0.137 C 
BRANCH  18  19
ATOM     19  C   UNL A   1      33.514  24.476  24.439  1.00  0.00    -0.020 A 
ATOM     20  C   UNL A   1      33.953  25.813  24.421  1.00  0.00     0.006 A 
ATOM     21  C   UNL A   1      32.547  24.110  25.391  1.00  0.00     0.044 A 
ATOM     22  C   UNL A   1      33.458  26.743  25.339  1.00  0.00     0.000 A 
ATOM     23  C   UNL A   1      32.048  25.044  26.303  1.00  0.00     0.021 A 
ATOM     24  Cl  UNL A   1      31.910  22.505  25.466  1.00  0.00    -0.084 Cl
ATOM     25  C   UNL A   1      32.508  26.358  26.280  1.00  0.00     0.002 A 
ENDBRANCH  18  19
ENDBRANCH  16  18
ENDBRANCH   9  14
ENDBRANCH   6   8
ENDBRANCH   5   6
ENDBRANCH   4   5
ENDBRANCH   3   4
ENDBRANCH   2   3
ENDBRANCH   1   2
BRANCH   1  26
ATOM     26  C   UNL A   1      45.224  21.979  25.894  1.00  0.00     0.188 C 
BRANCH  26  27
ATOM     27  O   UNL A   1      44.809  22.948  26.836  1.00  0.00    -0.376 OA
BRANCH  27  28
ATOM     28  C   UNL A   1      45.014  24.326  26.578  1.00  0.00     0.202 C 
BRANCH  28  29
ATOM     29  C   UNL A   1      44.754  24.993  25.215  1.00  0.00     0.261 C 
BRANCH  29  30
ATOM     30  O   UNL A   1      43.857  26.107  25.194  1.00  0.00    -0.460 OA
BRANCH  30  31
ATOM     31  C   UNL A   1      42.632  25.873  25.728  1.00  0.00     0.338 C 
ATOM     32  O   UNL A   1      41.796  25.076  25.342  1.00  0.00    -0.246 OA
BRANCH  31  33
ATOM     33  C   UNL A   1      42.507  26.629  26.987  1.00  0.00     0.060 A 
ATOM     34  C   UNL A   1      41.613  26.170  27.963  1.00  0.00     0.016 A 
ATOM     35  C   UNL A   1      43.238  27.801  27.188  1.00  0.00     0.016 A 
ATOM     36  C   UNL A   1      41.439  26.889  29.145  1.00  0.00     0.010 A 
ATOM     37  C   UNL A   1      43.044  28.533  28.363  1.00  0.00     0.010 A 
ATOM     38  C   UNL A   1      42.130  28.092  29.337  1.00  0.00    -0.014 A 
BRANCH  38  39
ATOM     39  C   UNL A   1      41.797  28.963  30.490  1.00  0.00     0.031 A 
ATOM     40  C   UNL A   1      42.620  28.851  31.744  1.00  0.00     0.074 A 
ATOM     41  C   UNL A   1      40.781  29.841  30.423  1.00  0.00     0.049 A 
ATOM     42  N   UNL A   1      42.470  29.466  32.888  1.00  0.00    -0.248 NA
ATOM     43  C   UNL A   1      43.758  27.920  31.702  1.00  0.00     0.031 C 
ATOM     44  C   UNL A   1      39.938  30.073  29.250  1.00  0.00     0.029 A 
ATOM     45  N   UNL A   1      40.277  30.692  31.374  1.00  0.00    -0.354 N 
ATOM     46  C   UNL A   1      43.486  28.989  33.708  1.00  0.00     0.074 A 
ATOM     47  C   UNL A   1      44.231  28.017  32.936  1.00  0.00     0.031 C 
ATOM     48  C   UNL A   1      39.009  30.996  29.558  1.00  0.00     0.029 A 
ATOM     49  C   UNL A   1      39.167  31.390  30.958  1.00  0.00     0.049 A 
ATOM     50  H   UNL A   1      40.672  30.793  32.270  1.00  0.00     0.167 HD
ATOM     51  C   UNL A   1      43.773  29.328  34.988  1.00  0.00     0.031 A 
ATOM     52  C   UNL A   1      38.356  32.226  31.635  1.00  0.00     0.031 A 
ATOM     53  C   UNL A   1      43.017  30.280  35.758  1.00  0.00     0.049 A 
ATOM     54  C   UNL A   1      38.644  32.526  33.085  1.00  0.00     0.074 A 
ATOM     55  C   UNL A   1      43.243  30.707  37.055  1.00  0.00     0.029 A 
ATOM     56  N   UNL A   1      41.881  30.938  35.313  1.00  0.00    -0.354 N 
ATOM     57  N   UNL A   1      39.632  32.097  33.835  1.00  0.00    -0.248 NA
ATOM     58  C   UNL A   1      37.713  33.428  33.777  1.00  0.00     0.031 C 
ATOM     59  C   UNL A   1      42.206  31.573  37.416  1.00  0.00     0.029 A 
ATOM     60  C   UNL A   1      41.374  31.741  36.320  1.00  0.00     0.049 A 
ATOM     61  H   UNL A   1      41.494  30.849  34.411  1.00  0.00     0.167 HD
ATOM     62  C   UNL A   1      39.452  32.695  35.080  1.00  0.00     0.074 A 
ATOM     63  C   UNL A   1      38.273  33.530  34.974  1.00  0.00     0.031 C 
ATOM     64  C   UNL A   1      40.196  32.566  36.205  1.00  0.00     0.031 A 
BRANCH  51  65
ATOM     65  C   UNL A   1      44.932  28.630  35.650  1.00  0.00    -0.014 A 
ATOM     66  C   UNL A   1      44.758  27.419  36.344  1.00  0.00     0.010 A 
ATOM     67  C   UNL A   1      46.223  29.177  35.541  1.00  0.00     0.010 A 
ATOM     68  C   UNL A   1      45.848  26.789  36.951  1.00  0.00     0.020 A 
ATOM     69  C   UNL A   1      47.321  28.535  36.121  1.00  0.00     0.020 A 
ATOM     70  C   UNL A   1      47.123  27.352  36.836  1.00  0.00     0.054 A 
BRANCH  70  71
ATOM     71  S   UNL A   1      48.522  26.501  37.614  1.00  0.00     0.124 S 
ATOM     72  O   UNL A   1      49.314  26.099  36.454  1.00  0.00    -0.237 OA
ATOM     73  O   UNL A   1      49.111  27.547  38.445  1.00  0.00    -0.237 OA
ATOM     74  O   UNL A   1      47.896  25.403  38.349  1.00  0.00    -0.744 OA
ENDBRANCH  70  71
ENDBRANCH  51  65
BRANCH  52  75
ATOM     75  C   UNL A   1      37.168  32.821  30.959  1.00  0.00    -0.014 A 
ATOM     76  C   UNL A   1      37.326  33.774  29.938  1.00  0.00     0.010 A 
ATOM     77  C   UNL A   1      35.869  32.435  31.339  1.00  0.00     0.010 A 
ATOM     78  C   UNL A   1      36.207  34.340  29.320  1.00  0.00     0.020 A 
ATOM     79  C   UNL A   1      34.749  32.976  30.704  1.00  0.00     0.020 A 
ATOM     80  C   UNL A   1      34.925  33.935  29.704  1.00  0.00     0.054 A 
BRANCH  80  81
ATOM     81  S   UNL A   1      33.491  34.644  28.849  1.00  0.00     0.124 S 
ATOM     82  O   UNL A   1      32.545  34.828  29.945  1.00  0.00    -0.237 OA
ATOM     83  O   UNL A   1      34.042  35.871  28.276  1.00  0.00    -0.237 OA
ATOM     84  O   UNL A   1      33.130  33.617  27.875  1.00  0.00    -0.744 OA
ENDBRANCH  80  81
ENDBRANCH  52  75
BRANCH  64  85
ATOM     85  C   UNL A   1      39.781  33.366  37.414  1.00  0.00    -0.014 A 
ATOM     86  C   UNL A   1      38.916  32.831  38.385  1.00  0.00     0.010 A 
ATOM     87  C   UNL A   1      40.319  34.652  37.613  1.00  0.00     0.010 A 
ATOM     88  C   UNL A   1      38.570  33.580  39.515  1.00  0.00     0.020 A 
ATOM     89  C   UNL A   1      40.001  35.390  38.756  1.00  0.00     0.020 A 
ATOM     90  C   UNL A   1      39.118  34.854  39.694  1.00  0.00     0.054 A 
BRANCH  90  91
ATOM     91  S   UNL A   1      38.691  35.785  41.192  1.00  0.00     0.124 S 
ATOM     92  O   UNL A   1      38.557  37.145  40.676  1.00  0.00    -0.237 OA
ATOM     93  O   UNL A   1      37.447  35.149  41.620  1.00  0.00    -0.237 OA
ATOM     94  O   UNL A   1      39.834  35.563  42.076  1.00  0.00    -0.744 OA
ENDBRANCH  90  91
ENDBRANCH  64  85
ENDBRANCH  38  39
ENDBRANCH  31  33
ENDBRANCH  30  31
ENDBRANCH  29  30
ENDBRANCH  28  29
ENDBRANCH  27  28
ENDBRANCH  26  27
ENDBRANCH   1  26
TORSDOF 23
ENDMDL
