MODEL 1
REMARK VINA RESULT:     -10.0      0.000      0.000
REMARK SMILES CCOc1ccc(-n2ncc(C(=O)OCCOCCOCCOC(=O)c3ccc(-c4c5nc(c(-c6ccc(S(=O)(=O)[O-])cc6)c6ccc([nH]6)c(-c6ccc(S(=O)(=O)[O-])cc6)c6nc(c(-c7ccc(S(=O)(=O)[O-])cc7)c7ccc4[nH]7)C=C6)C=C5)cc3)c2C)nn1
REMARK SMILES IDX 18 1 17 2 16 3 15 4 14 5 12 6 13 7 11 8 8 9 9 10 86 11 10 12
REMARK SMILES IDX 87 13 7 14 4 15 5 16 89 17 6 18 88 19 3 20 2 21 1 22 19 23
REMARK SMILES IDX 20 24 21 25 22 26 23 27 24 28 25 29 26 30 27 31 85 32 28 33
REMARK SMILES IDX 84 34 29 35 30 36 31 37 78 38 32 39 83 40 77 41 79 42 33 43
REMARK SMILES IDX 82 44 76 45 75 46 34 48 64 49 45 50 63 51 46 52 49 53 62 54
REMARK SMILES IDX 80 55 47 56 48 57 61 59 81 60 50 61 35 62 36 63 44 64 37 65
REMARK SMILES IDX 43 66 38 67 39 68 40 69 41 70 42 71 65 72 66 73 74 74 67 75
REMARK SMILES IDX 73 76 68 77 69 78 70 79 71 80 72 81 51 82 52 83 60 84 53 85
REMARK SMILES IDX 59 86 54 87 55 88 56 89 57 90 58 91
REMARK H PARENT 79 47 49 58
REMARK Flexibility Score: inf
ROOT
ATOM      1  C   UNL A   1      39.690  22.581  26.814  1.00  0.00     0.188 C 
ENDROOT
BRANCH   1   2
ATOM      2  O   UNL A   1      38.724  21.705  26.257  1.00  0.00    -0.376 OA
BRANCH   2   3
ATOM      3  C   UNL A   1      37.693  22.187  25.410  1.00  0.00     0.202 C 
BRANCH   3   4
ATOM      4  C   UNL A   1      36.297  21.533  25.309  1.00  0.00     0.261 C 
BRANCH   4   5
ATOM      5  O   UNL A   1      35.324  21.914  26.288  1.00  0.00    -0.460 OA
BRANCH   5   6
ATOM      6  C   UNL A   1      34.044  21.511  26.031  1.00  0.00     0.341 C 
ATOM      7  O   UNL A   1      33.711  20.377  25.780  1.00  0.00    -0.246 OA
BRANCH   6   8
ATOM      8  C   UNL A   1      33.091  22.597  26.205  1.00  0.00     0.101 A 
ATOM      9  N   UNL A   1      31.964  24.490  25.926  1.00  0.00    -0.217 N 
ATOM     10  N   UNL A   1      31.576  24.008  27.143  1.00  0.00    -0.174 NA
ATOM     11  C   UNL A   1      32.842  23.620  25.294  1.00  0.00     0.058 A 
ATOM     12  C   UNL A   1      32.195  22.834  27.257  1.00  0.00     0.151 A 
ATOM     13  C   UNL A   1      33.399  23.833  23.929  1.00  0.00     0.068 C 
BRANCH   9  14
ATOM     14  C   UNL A   1      31.559  25.786  25.500  1.00  0.00     0.176 A 
ATOM     15  C   UNL A   1      30.967  28.235  24.525  1.00  0.00     0.233 A 
ATOM     16  C   UNL A   1      31.968  28.137  25.470  1.00  0.00     0.074 A 
ATOM     17  N   UNL A   1      30.268  27.168  24.089  1.00  0.00    -0.110 NA
ATOM     18  C   UNL A   1      32.264  26.882  25.982  1.00  0.00     0.057 A 
ATOM     19  N   UNL A   1      30.587  25.922  24.566  1.00  0.00    -0.127 NA
BRANCH  15  20
ATOM     20  O   UNL A   1      30.611  29.478  24.068  1.00  0.00    -0.477 OA
BRANCH  20  21
ATOM     21  C   UNL A   1      29.424  29.410  23.273  1.00  0.00     0.228 C 
ATOM     22  C   UNL A   1      29.529  30.354  22.083  1.00  0.00     0.049 C 
ENDBRANCH  20  21
ENDBRANCH  15  20
ENDBRANCH   9  14
ENDBRANCH   6   8
ENDBRANCH   5   6
ENDBRANCH   4   5
ENDBRANCH   3   4
ENDBRANCH   2   3
ENDBRANCH   1   2
BRANCH   1  23
ATOM     23  C   UNL A   1      40.893  22.025  27.606  1.00  0.00     0.188 C 
BRANCH  23  24
ATOM     24  O   UNL A   1      40.841  20.634  27.841  1.00  0.00    -0.376 OA
BRANCH  24  25
ATOM     25  C   UNL A   1      41.876  19.782  27.380  1.00  0.00     0.202 C 
BRANCH  25  26
ATOM     26  C   UNL A   1      42.383  19.782  25.939  1.00  0.00     0.261 C 
BRANCH  26  27
ATOM     27  O   UNL A   1      42.761  21.033  25.407  1.00  0.00    -0.460 OA
BRANCH  27  28
ATOM     28  C   UNL A   1      44.092  21.235  25.339  1.00  0.00     0.338 C 
ATOM     29  O   UNL A   1      44.962  20.386  25.256  1.00  0.00    -0.246 OA
BRANCH  28  30
ATOM     30  C   UNL A   1      44.334  22.670  25.488  1.00  0.00     0.060 A 
ATOM     31  C   UNL A   1      45.348  23.058  26.365  1.00  0.00     0.016 A 
ATOM     32  C   UNL A   1      43.328  23.546  25.055  1.00  0.00     0.016 A 
ATOM     33  C   UNL A   1      45.209  24.264  27.009  1.00  0.00     0.010 A 
ATOM     34  C   UNL A   1      43.168  24.725  25.730  1.00  0.00     0.010 A 
ATOM     35  C   UNL A   1      44.060  25.019  26.757  1.00  0.00    -0.014 A 
BRANCH  35  36
ATOM     36  C   UNL A   1      43.817  26.191  27.564  1.00  0.00     0.031 A 
ATOM     37  C   UNL A   1      44.874  27.208  27.402  1.00  0.00     0.074 A 
ATOM     38  C   UNL A   1      42.667  26.349  28.243  1.00  0.00     0.049 A 
ATOM     39  N   UNL A   1      45.767  27.564  28.262  1.00  0.00    -0.248 NA
ATOM     40  C   UNL A   1      45.097  27.733  26.042  1.00  0.00     0.031 C 
ATOM     41  C   UNL A   1      41.470  25.502  28.180  1.00  0.00     0.029 A 
ATOM     42  N   UNL A   1      42.269  27.382  29.029  1.00  0.00    -0.354 N 
ATOM     43  C   UNL A   1      46.498  28.556  27.619  1.00  0.00     0.074 A 
ATOM     44  C   UNL A   1      46.229  28.414  26.213  1.00  0.00     0.031 C 
ATOM     45  C   UNL A   1      40.420  26.183  28.691  1.00  0.00     0.029 A 
ATOM     46  C   UNL A   1      40.893  27.453  29.217  1.00  0.00     0.049 A 
ATOM     47  H   UNL A   1      42.898  28.024  29.431  1.00  0.00     0.167 HD
ATOM     48  C   UNL A   1      46.960  29.638  28.301  1.00  0.00     0.031 A 
ATOM     49  C   UNL A   1      40.197  28.524  29.679  1.00  0.00     0.031 A 
ATOM     50  C   UNL A   1      46.969  29.407  29.723  1.00  0.00     0.049 A 
ATOM     51  C   UNL A   1      41.170  29.424  30.348  1.00  0.00     0.074 A 
ATOM     52  C   UNL A   1      47.560  28.477  30.556  1.00  0.00     0.029 A 
ATOM     53  N   UNL A   1      45.954  29.987  30.446  1.00  0.00    -0.354 N 
ATOM     54  N   UNL A   1      41.800  29.119  31.448  1.00  0.00    -0.248 NA
ATOM     55  C   UNL A   1      41.779  30.485  29.560  1.00  0.00     0.031 C 
ATOM     56  C   UNL A   1      46.612  28.248  31.593  1.00  0.00     0.029 A 
ATOM     57  C   UNL A   1      45.516  29.088  31.381  1.00  0.00     0.049 A 
ATOM     58  H   UNL A   1      45.601  30.896  30.313  1.00  0.00     0.167 HD
ATOM     59  C   UNL A   1      43.082  29.624  31.278  1.00  0.00     0.074 A 
ATOM     60  C   UNL A   1      42.975  30.549  30.152  1.00  0.00     0.031 C 
ATOM     61  C   UNL A   1      44.156  29.031  31.879  1.00  0.00     0.031 A 
BRANCH  48  62
ATOM     62  C   UNL A   1      46.920  31.032  27.715  1.00  0.00    -0.014 A 
ATOM     63  C   UNL A   1      47.569  32.072  28.407  1.00  0.00     0.010 A 
ATOM     64  C   UNL A   1      46.039  31.410  26.679  1.00  0.00     0.010 A 
ATOM     65  C   UNL A   1      47.290  33.414  28.123  1.00  0.00     0.020 A 
ATOM     66  C   UNL A   1      45.790  32.741  26.354  1.00  0.00     0.020 A 
ATOM     67  C   UNL A   1      46.391  33.737  27.105  1.00  0.00     0.054 A 
BRANCH  67  68
ATOM     68  S   UNL A   1      45.958  35.466  26.810  1.00  0.00     0.124 S 
ATOM     69  O   UNL A   1      45.703  35.944  28.164  1.00  0.00    -0.237 OA
ATOM     70  O   UNL A   1      47.165  35.979  26.168  1.00  0.00    -0.237 OA
ATOM     71  O   UNL A   1      44.786  35.381  25.942  1.00  0.00    -0.744 OA
ENDBRANCH  67  68
ENDBRANCH  48  62
BRANCH  49  72
ATOM     72  C   UNL A   1      38.836  28.973  29.285  1.00  0.00    -0.014 A 
ATOM     73  C   UNL A   1      37.859  29.263  30.259  1.00  0.00     0.010 A 
ATOM     74  C   UNL A   1      38.575  29.384  27.961  1.00  0.00     0.010 A 
ATOM     75  C   UNL A   1      36.701  29.991  29.931  1.00  0.00     0.020 A 
ATOM     76  C   UNL A   1      37.419  30.098  27.624  1.00  0.00     0.020 A 
ATOM     77  C   UNL A   1      36.499  30.422  28.618  1.00  0.00     0.054 A 
BRANCH  77  78
ATOM     78  S   UNL A   1      35.092  31.509  28.235  1.00  0.00     0.124 S 
ATOM     79  O   UNL A   1      35.736  32.619  27.542  1.00  0.00    -0.237 OA
ATOM     80  O   UNL A   1      34.244  30.654  27.411  1.00  0.00    -0.237 OA
ATOM     81  O   UNL A   1      34.543  31.835  29.551  1.00  0.00    -0.744 OA
ENDBRANCH  77  78
ENDBRANCH  49  72
BRANCH  61  82
ATOM     82  C   UNL A   1      43.903  28.073  33.018  1.00  0.00    -0.014 A 
ATOM     83  C   UNL A   1      43.654  28.467  34.347  1.00  0.00     0.010 A 
ATOM     84  C   UNL A   1      43.775  26.712  32.687  1.00  0.00     0.010 A 
ATOM     85  C   UNL A   1      43.311  27.517  35.321  1.00  0.00     0.020 A 
ATOM     86  C   UNL A   1      43.416  25.765  33.646  1.00  0.00     0.020 A 
ATOM     87  C   UNL A   1      43.195  26.169  34.962  1.00  0.00     0.054 A 
BRANCH  87  88
ATOM     88  S   UNL A   1      42.710  24.945  36.212  1.00  0.00     0.124 S 
ATOM     89  O   UNL A   1      42.466  23.751  35.408  1.00  0.00    -0.237 OA
ATOM     90  O   UNL A   1      43.881  24.890  37.084  1.00  0.00    -0.237 OA
ATOM     91  O   UNL A   1      41.518  25.529  36.827  1.00  0.00    -0.744 OA
ENDBRANCH  87  88
ENDBRANCH  61  82
ENDBRANCH  35  36
ENDBRANCH  28  30
ENDBRANCH  27  28
ENDBRANCH  26  27
ENDBRANCH  25  26
ENDBRANCH  24  25
ENDBRANCH  23  24
ENDBRANCH   1  23
TORSDOF 23
ENDMDL
MODEL 2
REMARK VINA RESULT:      -9.8      2.470      9.544
REMARK SMILES CCOc1ccc(-n2ncc(C(=O)OCCOCCOCCOC(=O)c3ccc(-c4c5nc(c(-c6ccc(S(=O)(=O)[O-])cc6)c6ccc([nH]6)c(-c6ccc(S(=O)(=O)[O-])cc6)c6nc(c(-c7ccc(S(=O)(=O)[O-])cc7)c7ccc4[nH]7)C=C6)C=C5)cc3)c2C)nn1
REMARK SMILES IDX 18 1 17 2 16 3 15 4 14 5 12 6 13 7 11 8 8 9 9 10 86 11 10 12
REMARK SMILES IDX 87 13 7 14 4 15 5 16 89 17 6 18 88 19 3 20 2 21 1 22 19 23
REMARK SMILES IDX 20 24 21 25 22 26 23 27 24 28 25 29 26 30 27 31 85 32 28 33
REMARK SMILES IDX 84 34 29 35 30 36 31 37 78 38 32 39 83 40 77 41 79 42 33 43
REMARK SMILES IDX 82 44 76 45 75 46 34 48 64 49 45 50 63 51 46 52 49 53 62 54
REMARK SMILES IDX 80 55 47 56 48 57 61 59 81 60 50 61 35 62 36 63 44 64 37 65
REMARK SMILES IDX 43 66 38 67 39 68 40 69 41 70 42 71 65 72 66 73 74 74 67 75
REMARK SMILES IDX 73 76 68 77 69 78 70 79 71 80 72 81 51 82 52 83 60 84 53 85
REMARK SMILES IDX 59 86 54 87 55 88 56 89 57 90 58 91
REMARK H PARENT 79 47 49 58
REMARK Flexibility Score: inf
ROOT
ATOM      1  C   UNL A   1      32.899  30.256  26.613  1.00  0.00     0.188 C 
ENDROOT
BRANCH   1   2
ATOM      2  O   UNL A   1      32.539  29.741  25.342  1.00  0.00    -0.376 OA
BRANCH   2   3
ATOM      3  C   UNL A   1      31.179  29.588  24.966  1.00  0.00     0.202 C 
BRANCH   3   4
ATOM      4  C   UNL A   1      30.698  28.587  23.893  1.00  0.00     0.261 C 
BRANCH   4   5
ATOM      5  O   UNL A   1      31.254  27.268  23.932  1.00  0.00    -0.460 OA
BRANCH   5   6
ATOM      6  C   UNL A   1      30.473  26.320  24.530  1.00  0.00     0.341 C 
ATOM      7  O   UNL A   1      29.266  26.328  24.549  1.00  0.00    -0.246 OA
BRANCH   6   8
ATOM      8  C   UNL A   1      31.268  25.219  25.055  1.00  0.00     0.101 A 
ATOM      9  N   UNL A   1      32.298  23.264  25.266  1.00  0.00    -0.217 N 
ATOM     10  N   UNL A   1      32.373  23.852  26.496  1.00  0.00    -0.174 NA
ATOM     11  C   UNL A   1      31.685  24.099  24.343  1.00  0.00     0.058 A 
ATOM     12  C   UNL A   1      31.827  25.056  26.330  1.00  0.00     0.151 A 
ATOM     13  C   UNL A   1      31.506  23.769  22.901  1.00  0.00     0.068 C 
BRANCH   9  14
ATOM     14  C   UNL A   1      32.714  21.916  25.084  1.00  0.00     0.176 A 
ATOM     15  C   UNL A   1      33.561  19.352  24.975  1.00  0.00     0.233 A 
ATOM     16  C   UNL A   1      34.503  20.353  24.853  1.00  0.00     0.074 A 
ATOM     17  N   UNL A   1      32.245  19.603  25.125  1.00  0.00    -0.110 NA
ATOM     18  C   UNL A   1      34.069  21.670  24.895  1.00  0.00     0.057 A 
ATOM     19  N   UNL A   1      31.820  20.904  25.205  1.00  0.00    -0.127 NA
BRANCH  15  20
ATOM     20  O   UNL A   1      33.966  18.047  24.858  1.00  0.00    -0.477 OA
BRANCH  20  21
ATOM     21  C   UNL A   1      32.890  17.214  24.421  1.00  0.00     0.228 C 
ATOM     22  C   UNL A   1      32.707  16.040  25.373  1.00  0.00     0.049 C 
ENDBRANCH  20  21
ENDBRANCH  15  20
ENDBRANCH   9  14
ENDBRANCH   6   8
ENDBRANCH   5   6
ENDBRANCH   4   5
ENDBRANCH   3   4
ENDBRANCH   2   3
ENDBRANCH   1   2
BRANCH   1  23
ATOM     23  C   UNL A   1      34.185  29.778  27.321  1.00  0.00     0.188 C 
BRANCH  23  24
ATOM     24  O   UNL A   1      35.148  30.791  27.523  1.00  0.00    -0.376 OA
BRANCH  24  25
ATOM     25  C   UNL A   1      34.877  31.886  28.382  1.00  0.00     0.202 C 
BRANCH  25  26
ATOM     26  C   UNL A   1      35.853  32.374  29.452  1.00  0.00     0.261 C 
BRANCH  26  27
ATOM     27  O   UNL A   1      35.321  33.225  30.443  1.00  0.00    -0.460 OA
BRANCH  27  28
ATOM     28  C   UNL A   1      35.035  32.618  31.611  1.00  0.00     0.338 C 
ATOM     29  O   UNL A   1      33.972  32.631  32.207  1.00  0.00    -0.246 OA
BRANCH  28  30
ATOM     30  C   UNL A   1      36.268  32.012  32.113  1.00  0.00     0.060 A 
ATOM     31  C   UNL A   1      37.409  32.816  32.140  1.00  0.00     0.016 A 
ATOM     32  C   UNL A   1      36.325  30.613  32.178  1.00  0.00     0.016 A 
ATOM     33  C   UNL A   1      38.628  32.202  31.977  1.00  0.00     0.010 A 
ATOM     34  C   UNL A   1      37.533  30.007  31.971  1.00  0.00     0.010 A 
ATOM     35  C   UNL A   1      38.650  30.818  31.784  1.00  0.00    -0.014 A 
BRANCH  35  36
ATOM     36  C   UNL A   1      39.901  30.194  31.428  1.00  0.00     0.031 A 
ATOM     37  C   UNL A   1      40.803  30.055  32.587  1.00  0.00     0.074 A 
ATOM     38  C   UNL A   1      40.104  29.678  30.203  1.00  0.00     0.049 A 
ATOM     39  N   UNL A   1      41.901  30.692  32.816  1.00  0.00    -0.248 NA
ATOM     40  C   UNL A   1      40.308  29.267  33.733  1.00  0.00     0.031 C 
ATOM     41  C   UNL A   1      39.120  29.525  29.125  1.00  0.00     0.029 A 
ATOM     42  N   UNL A   1      41.201  29.048  29.707  1.00  0.00    -0.354 N 
ATOM     43  C   UNL A   1      42.360  30.179  34.023  1.00  0.00     0.074 A 
ATOM     44  C   UNL A   1      41.233  29.541  34.650  1.00  0.00     0.031 C 
ATOM     45  C   UNL A   1      39.591  28.637  28.220  1.00  0.00     0.029 A 
ATOM     46  C   UNL A   1      40.943  28.257  28.593  1.00  0.00     0.049 A 
ATOM     47  H   UNL A   1      42.098  29.144  30.100  1.00  0.00     0.167 HD
ATOM     48  C   UNL A   1      43.689  29.985  34.241  1.00  0.00     0.031 A 
ATOM     49  C   UNL A   1      41.753  27.291  28.087  1.00  0.00     0.031 A 
ATOM     50  C   UNL A   1      44.495  30.732  33.310  1.00  0.00     0.049 A 
ATOM     51  C   UNL A   1      43.111  27.522  28.640  1.00  0.00     0.074 A 
ATOM     52  C   UNL A   1      44.620  32.067  32.981  1.00  0.00     0.029 A 
ATOM     53  N   UNL A   1      45.053  30.022  32.273  1.00  0.00    -0.354 N 
ATOM     54  N   UNL A   1      43.846  28.559  28.347  1.00  0.00    -0.248 NA
ATOM     55  C   UNL A   1      43.481  26.829  29.865  1.00  0.00     0.031 C 
ATOM     56  C   UNL A   1      44.869  32.086  31.579  1.00  0.00     0.029 A 
ATOM     57  C   UNL A   1      44.944  30.765  31.129  1.00  0.00     0.049 A 
ATOM     58  H   UNL A   1      45.461  29.129  32.341  1.00  0.00     0.167 HD
ATOM     59  C   UNL A   1      44.471  28.903  29.537  1.00  0.00     0.074 A 
ATOM     60  C   UNL A   1      44.297  27.740  30.403  1.00  0.00     0.031 C 
ATOM     61  C   UNL A   1      44.816  30.199  29.801  1.00  0.00     0.031 A 
BRANCH  48  62
ATOM     62  C   UNL A   1      44.214  28.758  34.953  1.00  0.00    -0.014 A 
ATOM     63  C   UNL A   1      44.568  27.633  34.185  1.00  0.00     0.010 A 
ATOM     64  C   UNL A   1      44.101  28.566  36.347  1.00  0.00     0.010 A 
ATOM     65  C   UNL A   1      44.725  26.373  34.776  1.00  0.00     0.020 A 
ATOM     66  C   UNL A   1      44.304  27.329  36.953  1.00  0.00     0.020 A 
ATOM     67  C   UNL A   1      44.579  26.230  36.156  1.00  0.00     0.054 A 
BRANCH  67  68
ATOM     68  S   UNL A   1      44.682  24.587  36.901  1.00  0.00     0.124 S 
ATOM     69  O   UNL A   1      46.055  24.206  36.590  1.00  0.00    -0.237 OA
ATOM     70  O   UNL A   1      44.399  24.869  38.305  1.00  0.00    -0.237 OA
ATOM     71  O   UNL A   1      43.645  23.830  36.202  1.00  0.00    -0.744 OA
ENDBRANCH  67  68
ENDBRANCH  48  62
BRANCH  49  72
ATOM     72  C   UNL A   1      41.362  26.008  27.445  1.00  0.00    -0.014 A 
ATOM     73  C   UNL A   1      42.296  25.253  26.708  1.00  0.00     0.010 A 
ATOM     74  C   UNL A   1      40.144  25.384  27.783  1.00  0.00     0.010 A 
ATOM     75  C   UNL A   1      42.046  23.908  26.381  1.00  0.00     0.020 A 
ATOM     76  C   UNL A   1      39.882  24.049  27.451  1.00  0.00     0.020 A 
ATOM     77  C   UNL A   1      40.847  23.309  26.773  1.00  0.00     0.054 A 
BRANCH  77  78
ATOM     78  S   UNL A   1      40.603  21.527  26.504  1.00  0.00     0.124 S 
ATOM     79  O   UNL A   1      41.723  21.187  25.634  1.00  0.00    -0.237 OA
ATOM     80  O   UNL A   1      40.668  20.988  27.859  1.00  0.00    -0.237 OA
ATOM     81  O   UNL A   1      39.285  21.453  25.874  1.00  0.00    -0.744 OA
ENDBRANCH  77  78
ENDBRANCH  49  72
BRANCH  61  82
ATOM     82  C   UNL A   1      44.863  31.177  28.651  1.00  0.00    -0.014 A 
ATOM     83  C   UNL A   1      45.867  31.194  27.664  1.00  0.00     0.010 A 
ATOM     84  C   UNL A   1      43.754  32.027  28.495  1.00  0.00     0.010 A 
ATOM     85  C   UNL A   1      45.772  32.060  26.563  1.00  0.00     0.020 A 
ATOM     86  C   UNL A   1      43.643  32.877  27.393  1.00  0.00     0.020 A 
ATOM     87  C   UNL A   1      44.658  32.897  26.437  1.00  0.00     0.054 A 
BRANCH  87  88
ATOM     88  S   UNL A   1      44.513  33.987  24.992  1.00  0.00     0.124 S 
ATOM     89  O   UNL A   1      43.461  34.914  25.399  1.00  0.00    -0.237 OA
ATOM     90  O   UNL A   1      45.852  34.561  24.882  1.00  0.00    -0.237 OA
ATOM     91  O   UNL A   1      44.148  33.078  23.905  1.00  0.00    -0.744 OA
ENDBRANCH  87  88
ENDBRANCH  61  82
ENDBRANCH  35  36
ENDBRANCH  28  30
ENDBRANCH  27  28
ENDBRANCH  26  27
ENDBRANCH  25  26
ENDBRANCH  24  25
ENDBRANCH  23  24
ENDBRANCH   1  23
TORSDOF 23
ENDMDL
MODEL 3
REMARK VINA RESULT:      -9.7      1.404      2.086
REMARK SMILES CCOc1ccc(-n2ncc(C(=O)OCCOCCOCCOC(=O)c3ccc(-c4c5nc(c(-c6ccc(S(=O)(=O)[O-])cc6)c6ccc([nH]6)c(-c6ccc(S(=O)(=O)[O-])cc6)c6nc(c(-c7ccc(S(=O)(=O)[O-])cc7)c7ccc4[nH]7)C=C6)C=C5)cc3)c2C)nn1
REMARK SMILES IDX 18 1 17 2 16 3 15 4 14 5 12 6 13 7 11 8 8 9 9 10 86 11 10 12
REMARK SMILES IDX 87 13 7 14 4 15 5 16 89 17 6 18 88 19 3 20 2 21 1 22 19 23
REMARK SMILES IDX 20 24 21 25 22 26 23 27 24 28 25 29 26 30 27 31 85 32 28 33
REMARK SMILES IDX 84 34 29 35 30 36 31 37 78 38 32 39 83 40 77 41 79 42 33 43
REMARK SMILES IDX 82 44 76 45 75 46 34 48 64 49 45 50 63 51 46 52 49 53 62 54
REMARK SMILES IDX 80 55 47 56 48 57 61 59 81 60 50 61 35 62 36 63 44 64 37 65
REMARK SMILES IDX 43 66 38 67 39 68 40 69 41 70 42 71 65 72 66 73 74 74 67 75
REMARK SMILES IDX 73 76 68 77 69 78 70 79 71 80 72 81 51 82 52 83 60 84 53 85
REMARK SMILES IDX 59 86 54 87 55 88 56 89 57 90 58 91
REMARK H PARENT 79 47 49 58
REMARK Flexibility Score: inf
ROOT
ATOM      1  C   UNL A   1      36.054  21.117  25.574  1.00  0.00     0.188 C 
ENDROOT
BRANCH   1   2
ATOM      2  O   UNL A   1      35.129  21.566  26.551  1.00  0.00    -0.376 OA
BRANCH   2   3
ATOM      3  C   UNL A   1      33.789  21.883  26.206  1.00  0.00     0.202 C 
BRANCH   3   4
ATOM      4  C   UNL A   1      32.993  21.142  25.109  1.00  0.00     0.261 C 
BRANCH   4   5
ATOM      5  O   UNL A   1      33.515  21.190  23.777  1.00  0.00    -0.460 OA
BRANCH   5   6
ATOM      6  C   UNL A   1      32.698  21.770  22.848  1.00  0.00     0.341 C 
ATOM      7  O   UNL A   1      31.884  21.182  22.176  1.00  0.00    -0.246 OA
BRANCH   6   8
ATOM      8  C   UNL A   1      32.839  23.219  22.834  1.00  0.00     0.101 A 
ATOM      9  N   UNL A   1      32.381  25.391  22.876  1.00  0.00    -0.217 N 
ATOM     10  N   UNL A   1      33.693  25.300  22.509  1.00  0.00    -0.174 NA
ATOM     11  C   UNL A   1      31.844  24.140  23.145  1.00  0.00     0.058 A 
ATOM     12  C   UNL A   1      33.974  23.999  22.571  1.00  0.00     0.151 A 
ATOM     13  C   UNL A   1      30.453  23.910  23.626  1.00  0.00     0.068 C 
BRANCH   9  14
ATOM     14  C   UNL A   1      31.707  26.643  22.840  1.00  0.00     0.176 A 
ATOM     15  C   UNL A   1      30.464  29.036  23.011  1.00  0.00     0.233 A 
ATOM     16  C   UNL A   1      29.727  27.901  23.280  1.00  0.00     0.074 A 
ATOM     17  N   UNL A   1      31.762  28.995  22.650  1.00  0.00    -0.110 NA
ATOM     18  C   UNL A   1      30.360  26.670  23.179  1.00  0.00     0.057 A 
ATOM     19  N   UNL A   1      32.398  27.782  22.589  1.00  0.00    -0.127 NA
BRANCH  15  20
ATOM     20  O   UNL A   1      29.832  30.253  23.031  1.00  0.00    -0.477 OA
BRANCH  20  21
ATOM     21  C   UNL A   1      28.435  30.109  22.761  1.00  0.00     0.228 C 
ATOM     22  C   UNL A   1      27.894  31.361  22.085  1.00  0.00     0.049 C 
ENDBRANCH  20  21
ENDBRANCH  15  20
ENDBRANCH   9  14
ENDBRANCH   6   8
ENDBRANCH   5   6
ENDBRANCH   4   5
ENDBRANCH   3   4
ENDBRANCH   2   3
ENDBRANCH   1   2
BRANCH   1  23
ATOM     23  C   UNL A   1      37.402  21.842  25.375  1.00  0.00     0.188 C 
BRANCH  23  24
ATOM     24  O   UNL A   1      38.529  20.992  25.403  1.00  0.00    -0.376 OA
BRANCH  24  25
ATOM     25  C   UNL A   1      39.575  21.207  26.335  1.00  0.00     0.202 C 
BRANCH  25  26
ATOM     26  C   UNL A   1      40.921  20.489  26.267  1.00  0.00     0.261 C 
BRANCH  26  27
ATOM     27  O   UNL A   1      42.025  21.173  26.817  1.00  0.00    -0.460 OA
BRANCH  27  28
ATOM     28  C   UNL A   1      43.011  21.447  25.941  1.00  0.00     0.338 C 
ATOM     29  O   UNL A   1      43.555  20.668  25.178  1.00  0.00    -0.246 OA
BRANCH  28  30
ATOM     30  C   UNL A   1      43.405  22.842  26.133  1.00  0.00     0.060 A 
ATOM     31  C   UNL A   1      44.334  23.110  27.140  1.00  0.00     0.016 A 
ATOM     32  C   UNL A   1      42.581  23.832  25.579  1.00  0.00     0.016 A 
ATOM     33  C   UNL A   1      44.260  24.329  27.771  1.00  0.00     0.010 A 
ATOM     34  C   UNL A   1      42.479  25.026  26.236  1.00  0.00     0.010 A 
ATOM     35  C   UNL A   1      43.256  25.217  27.375  1.00  0.00    -0.014 A 
BRANCH  35  36
ATOM     36  C   UNL A   1      43.054  26.416  28.152  1.00  0.00     0.031 A 
ATOM     37  C   UNL A   1      44.162  27.377  27.993  1.00  0.00     0.074 A 
ATOM     38  C   UNL A   1      41.899  26.644  28.803  1.00  0.00     0.049 A 
ATOM     39  N   UNL A   1      45.053  27.709  28.864  1.00  0.00    -0.248 NA
ATOM     40  C   UNL A   1      44.438  27.863  26.627  1.00  0.00     0.031 C 
ATOM     41  C   UNL A   1      40.664  25.853  28.732  1.00  0.00     0.029 A 
ATOM     42  N   UNL A   1      41.536  27.711  29.560  1.00  0.00    -0.354 N 
ATOM     43  C   UNL A   1      45.845  28.650  28.217  1.00  0.00     0.074 A 
ATOM     44  C   UNL A   1      45.597  28.491  26.809  1.00  0.00     0.031 C 
ATOM     45  C   UNL A   1      39.638  26.595  29.207  1.00  0.00     0.029 A 
ATOM     46  C   UNL A   1      40.161  27.851  29.717  1.00  0.00     0.049 A 
ATOM     47  H   UNL A   1      42.187  28.330  29.962  1.00  0.00     0.167 HD
ATOM     48  C   UNL A   1      46.344  29.723  28.886  1.00  0.00     0.031 A 
ATOM     49  C   UNL A   1      39.509  28.964  30.142  1.00  0.00     0.031 A 
ATOM     50  C   UNL A   1      46.314  29.522  30.313  1.00  0.00     0.049 A 
ATOM     51  C   UNL A   1      40.510  29.831  30.814  1.00  0.00     0.074 A 
ATOM     52  C   UNL A   1      46.842  28.583  31.177  1.00  0.00     0.029 A 
ATOM     53  N   UNL A   1      45.313  30.166  31.002  1.00  0.00    -0.354 N 
ATOM     54  N   UNL A   1      41.103  29.519  31.933  1.00  0.00    -0.248 NA
ATOM     55  C   UNL A   1      41.185  30.844  30.018  1.00  0.00     0.031 C 
ATOM     56  C   UNL A   1      45.862  28.422  32.198  1.00  0.00     0.029 A 
ATOM     57  C   UNL A   1      44.813  29.309  31.945  1.00  0.00     0.049 A 
ATOM     58  H   UNL A   1      45.007  31.088  30.844  1.00  0.00     0.167 HD
ATOM     59  C   UNL A   1      42.410  29.959  31.780  1.00  0.00     0.074 A 
ATOM     60  C   UNL A   1      42.371  30.863  30.634  1.00  0.00     0.031 C 
ATOM     61  C   UNL A   1      43.442  29.327  32.415  1.00  0.00     0.031 A 
BRANCH  48  62
ATOM     62  C   UNL A   1      46.384  31.105  28.272  1.00  0.00    -0.014 A 
ATOM     63  C   UNL A   1      45.197  31.859  28.234  1.00  0.00     0.010 A 
ATOM     64  C   UNL A   1      47.458  31.567  27.480  1.00  0.00     0.010 A 
ATOM     65  C   UNL A   1      45.073  32.972  27.391  1.00  0.00     0.020 A 
ATOM     66  C   UNL A   1      47.364  32.700  26.676  1.00  0.00     0.020 A 
ATOM     67  C   UNL A   1      46.157  33.375  26.609  1.00  0.00     0.054 A 
BRANCH  67  68
ATOM     68  S   UNL A   1      45.961  34.746  25.450  1.00  0.00     0.124 S 
ATOM     69  O   UNL A   1      45.348  35.765  26.295  1.00  0.00    -0.237 OA
ATOM     70  O   UNL A   1      47.339  35.001  25.040  1.00  0.00    -0.237 OA
ATOM     71  O   UNL A   1      45.099  34.192  24.408  1.00  0.00    -0.744 OA
ENDBRANCH  67  68
ENDBRANCH  48  62
BRANCH  49  72
ATOM     72  C   UNL A   1      38.179  29.470  29.711  1.00  0.00    -0.014 A 
ATOM     73  C   UNL A   1      37.372  30.223  30.586  1.00  0.00     0.010 A 
ATOM     74  C   UNL A   1      37.816  29.450  28.348  1.00  0.00     0.010 A 
ATOM     75  C   UNL A   1      36.286  30.976  30.105  1.00  0.00     0.020 A 
ATOM     76  C   UNL A   1      36.729  30.188  27.863  1.00  0.00     0.020 A 
ATOM     77  C   UNL A   1      35.984  30.970  28.742  1.00  0.00     0.054 A 
BRANCH  77  78
ATOM     78  S   UNL A   1      34.693  32.079  28.101  1.00  0.00     0.124 S 
ATOM     79  O   UNL A   1      35.475  33.121  27.445  1.00  0.00    -0.237 OA
ATOM     80  O   UNL A   1      33.934  31.204  27.213  1.00  0.00    -0.237 OA
ATOM     81  O   UNL A   1      33.979  32.505  29.304  1.00  0.00    -0.744 OA
ENDBRANCH  77  78
ENDBRANCH  49  72
BRANCH  61  82
ATOM     82  C   UNL A   1      43.120  28.407  33.568  1.00  0.00    -0.014 A 
ATOM     83  C   UNL A   1      42.470  28.812  34.750  1.00  0.00     0.010 A 
ATOM     84  C   UNL A   1      43.368  27.036  33.375  1.00  0.00     0.010 A 
ATOM     85  C   UNL A   1      42.103  27.868  35.722  1.00  0.00     0.020 A 
ATOM     86  C   UNL A   1      42.988  26.091  34.328  1.00  0.00     0.020 A 
ATOM     87  C   UNL A   1      42.366  26.512  35.503  1.00  0.00     0.054 A 
BRANCH  87  88
ATOM     88  S   UNL A   1      41.853  25.286  36.740  1.00  0.00     0.124 S 
ATOM     89  O   UNL A   1      40.746  25.959  37.413  1.00  0.00    -0.237 OA
ATOM     90  O   UNL A   1      41.486  24.132  35.922  1.00  0.00    -0.237 OA
ATOM     91  O   UNL A   1      43.050  25.097  37.560  1.00  0.00    -0.744 OA
ENDBRANCH  87  88
ENDBRANCH  61  82
ENDBRANCH  35  36
ENDBRANCH  28  30
ENDBRANCH  27  28
ENDBRANCH  26  27
ENDBRANCH  25  26
ENDBRANCH  24  25
ENDBRANCH  23  24
ENDBRANCH   1  23
TORSDOF 23
ENDMDL
