MODEL 1
REMARK VINA RESULT:      -9.7      0.000      0.000
REMARK SMILES CC[C@](C)(NC(=O)N1CC[C@@H]([NH+]2CCCCC2)C1)C(=O)OCCOCCOCCOC(=O)c1ccc(-c2c3nc(c(-c4ccc(S(=O)(=O)[O-])cc4)c4ccc([nH]4)c(-c4ccc(S(=O)(=O)[O-])cc4)c4nc(c(-c5ccc(S(=O)(=O)[O-])cc5)c5ccc2[nH]5)C=C4)C=C3)cc1
REMARK SMILES IDX 25 1 24 2 23 3 22 4 21 5 19 6 20 7 3 8 4 9 2 10 1 11 5 12
REMARK SMILES IDX 6 13 7 15 8 16 9 17 18 18 10 19 11 20 12 21 13 22 17 23
REMARK SMILES IDX 14 25 16 26 15 27 26 28 27 29 28 30 29 31 30 32 31 33 32 34
REMARK SMILES IDX 33 35 34 36 92 37 35 38 91 39 36 40 37 41 38 42 85 43 39 44
REMARK SMILES IDX 90 45 84 46 86 47 40 48 89 49 83 50 82 51 41 53 71 54 52 55
REMARK SMILES IDX 70 56 53 57 56 58 69 59 87 60 54 61 55 62 68 64 88 65 57 66
REMARK SMILES IDX 42 67 43 68 51 69 44 70 50 71 45 72 46 73 47 74 48 75 49 76
REMARK SMILES IDX 72 77 73 78 81 79 74 80 80 81 75 82 76 83 77 84 78 85 79 86
REMARK SMILES IDX 58 87 59 88 67 89 60 90 66 91 61 92 62 93 63 94 64 95 65 96
REMARK H PARENT 5 14 12 24 86 52 56 63
REMARK Flexibility Score: inf
ROOT
ATOM      1  C   UNL A   1      39.646  21.437  26.240  1.00  0.00     0.188 C 
ENDROOT
BRANCH   1   2
ATOM      2  O   UNL A   1      38.859  22.622  26.158  1.00  0.00    -0.376 OA
BRANCH   2   3
ATOM      3  C   UNL A   1      37.793  22.507  25.196  1.00  0.00     0.202 C 
BRANCH   3   4
ATOM      4  C   UNL A   1      36.392  22.364  25.824  1.00  0.00     0.261 C 
BRANCH   4   5
ATOM      5  O   UNL A   1      35.767  23.639  26.054  1.00  0.00    -0.462 OA
BRANCH   5   6
ATOM      6  C   UNL A   1      34.493  23.539  26.486  1.00  0.00     0.331 C 
ATOM      7  O   UNL A   1      34.190  22.826  27.441  1.00  0.00    -0.249 OA
BRANCH   6   8
ATOM      8  C   UNL A   1      33.467  24.351  25.635  1.00  0.00     0.136 C 
ATOM      9  C   UNL A   1      34.232  25.692  25.377  1.00  0.00     0.047 C 
BRANCH   8  10
ATOM     10  C   UNL A   1      32.187  24.688  26.436  1.00  0.00     0.037 C 
ATOM     11  C   UNL A   1      31.551  26.040  26.142  1.00  0.00     0.007 C 
ENDBRANCH   8  10
BRANCH   8  12
ATOM     12  N   UNL A   1      33.062  23.895  24.254  1.00  0.00    -0.322 N 
ATOM     13  C   UNL A   1      32.537  22.821  23.614  1.00  0.00     0.318 C 
ATOM     14  H   UNL A   1      33.238  24.613  23.604  1.00  0.00     0.166 HD
ATOM     15  O   UNL A   1      32.105  23.007  22.475  1.00  0.00    -0.249 OA
BRANCH  13  16
ATOM     16  N   UNL A   1      32.603  21.593  24.174  1.00  0.00    -0.319 N 
ATOM     17  C   UNL A   1      32.030  21.287  25.447  1.00  0.00     0.128 C 
ATOM     18  C   UNL A   1      32.530  20.351  23.403  1.00  0.00     0.186 C 
ATOM     19  C   UNL A   1      32.694  19.969  25.758  1.00  0.00     0.088 C 
ATOM     20  C   UNL A   1      32.867  19.248  24.408  1.00  0.00     0.205 C 
BRANCH  20  21
ATOM     21  N   UNL A   1      32.258  17.951  24.077  1.00  0.00    -0.331 N 
ATOM     22  C   UNL A   1      32.161  17.004  25.175  1.00  0.00     0.262 C 
ATOM     23  C   UNL A   1      32.893  17.328  22.914  1.00  0.00     0.262 C 
ATOM     24  H   UNL A   1      31.294  18.194  23.846  1.00  0.00     0.348 HD
ATOM     25  C   UNL A   1      33.503  16.441  25.627  1.00  0.00     0.062 C 
ATOM     26  C   UNL A   1      34.343  16.979  23.200  1.00  0.00     0.062 C 
ATOM     27  C   UNL A   1      34.508  16.166  24.491  1.00  0.00     0.012 C 
ENDBRANCH  20  21
ENDBRANCH  13  16
ENDBRANCH   8  12
ENDBRANCH   6   8
ENDBRANCH   5   6
ENDBRANCH   4   5
ENDBRANCH   3   4
ENDBRANCH   2   3
ENDBRANCH   1   2
BRANCH   1  28
ATOM     28  C   UNL A   1      40.751  21.336  27.316  1.00  0.00     0.188 C 
BRANCH  28  29
ATOM     29  O   UNL A   1      42.051  20.937  26.978  1.00  0.00    -0.376 OA
BRANCH  29  30
ATOM     30  C   UNL A   1      42.649  21.413  25.771  1.00  0.00     0.202 C 
BRANCH  30  31
ATOM     31  C   UNL A   1      43.947  22.213  26.000  1.00  0.00     0.261 C 
BRANCH  31  32
ATOM     32  O   UNL A   1      43.724  23.463  26.671  1.00  0.00    -0.460 OA
BRANCH  32  33
ATOM     33  C   UNL A   1      43.402  24.491  25.843  1.00  0.00     0.338 C 
ATOM     34  O   UNL A   1      43.496  24.522  24.636  1.00  0.00    -0.246 OA
BRANCH  33  35
ATOM     35  C   UNL A   1      42.561  25.406  26.637  1.00  0.00     0.060 A 
ATOM     36  C   UNL A   1      42.903  26.773  26.603  1.00  0.00     0.016 A 
ATOM     37  C   UNL A   1      41.415  24.962  27.298  1.00  0.00     0.016 A 
ATOM     38  C   UNL A   1      42.111  27.700  27.251  1.00  0.00     0.010 A 
ATOM     39  C   UNL A   1      40.689  25.877  28.056  1.00  0.00     0.010 A 
ATOM     40  C   UNL A   1      41.093  27.225  28.083  1.00  0.00    -0.014 A 
BRANCH  40  41
ATOM     41  C   UNL A   1      40.880  28.026  29.302  1.00  0.00     0.031 A 
ATOM     42  C   UNL A   1      41.887  27.813  30.406  1.00  0.00     0.074 A 
ATOM     43  C   UNL A   1      39.956  28.995  29.352  1.00  0.00     0.049 A 
ATOM     44  N   UNL A   1      42.011  28.426  31.550  1.00  0.00    -0.248 NA
ATOM     45  C   UNL A   1      42.922  26.784  30.171  1.00  0.00     0.031 C 
ATOM     46  C   UNL A   1      39.034  29.352  28.274  1.00  0.00     0.029 A 
ATOM     47  N   UNL A   1      39.669  29.877  30.355  1.00  0.00    -0.354 N 
ATOM     48  C   UNL A   1      43.124  27.853  32.159  1.00  0.00     0.074 A 
ATOM     49  C   UNL A   1      43.642  26.844  31.274  1.00  0.00     0.031 C 
ATOM     50  C   UNL A   1      38.276  30.385  28.681  1.00  0.00     0.029 A 
ATOM     51  C   UNL A   1      38.637  30.731  30.054  1.00  0.00     0.049 A 
ATOM     52  H   UNL A   1      40.155  29.898  31.211  1.00  0.00     0.167 HD
ATOM     53  C   UNL A   1      43.662  28.136  33.364  1.00  0.00     0.031 A 
ATOM     54  C   UNL A   1      38.052  31.666  30.824  1.00  0.00     0.031 A 
ATOM     55  C   UNL A   1      43.105  29.116  34.247  1.00  0.00     0.049 A 
ATOM     56  C   UNL A   1      38.597  31.885  32.213  1.00  0.00     0.074 A 
ATOM     57  C   UNL A   1      43.519  29.468  35.516  1.00  0.00     0.029 A 
ATOM     58  N   UNL A   1      41.996  29.894  33.946  1.00  0.00    -0.354 N 
ATOM     59  N   UNL A   1      39.623  31.310  32.800  1.00  0.00    -0.248 NA
ATOM     60  C   UNL A   1      37.911  32.885  33.039  1.00  0.00     0.031 C 
ATOM     61  C   UNL A   1      42.617  30.415  36.009  1.00  0.00     0.029 A 
ATOM     62  C   UNL A   1      41.693  30.711  35.016  1.00  0.00     0.049 A 
ATOM     63  H   UNL A   1      41.499  29.866  33.096  1.00  0.00     0.167 HD
ATOM     64  C   UNL A   1      39.730  31.908  34.051  1.00  0.00     0.074 A 
ATOM     65  C   UNL A   1      38.669  32.895  34.127  1.00  0.00     0.031 C 
ATOM     66  C   UNL A   1      40.624  31.678  35.047  1.00  0.00     0.031 A 
BRANCH  53  67
ATOM     67  C   UNL A   1      44.835  27.306  33.811  1.00  0.00    -0.014 A 
ATOM     68  C   UNL A   1      44.672  26.136  34.576  1.00  0.00     0.010 A 
ATOM     69  C   UNL A   1      46.134  27.722  33.469  1.00  0.00     0.010 A 
ATOM     70  C   UNL A   1      45.788  25.414  35.012  1.00  0.00     0.020 A 
ATOM     71  C   UNL A   1      47.250  26.988  33.877  1.00  0.00     0.020 A 
ATOM     72  C   UNL A   1      47.071  25.845  34.657  1.00  0.00     0.054 A 
BRANCH  72  73
ATOM     73  S   UNL A   1      48.502  24.874  35.204  1.00  0.00     0.124 S 
ATOM     74  O   UNL A   1      48.978  24.300  33.949  1.00  0.00    -0.237 OA
ATOM     75  O   UNL A   1      49.367  25.890  35.799  1.00  0.00    -0.237 OA
ATOM     76  O   UNL A   1      47.930  23.917  36.149  1.00  0.00    -0.744 OA
ENDBRANCH  72  73
ENDBRANCH  53  67
BRANCH  54  77
ATOM     77  C   UNL A   1      36.881  32.431  30.314  1.00  0.00    -0.014 A 
ATOM     78  C   UNL A   1      35.574  31.933  30.446  1.00  0.00     0.010 A 
ATOM     79  C   UNL A   1      37.075  33.675  29.686  1.00  0.00     0.010 A 
ATOM     80  C   UNL A   1      34.486  32.654  29.942  1.00  0.00     0.020 A 
ATOM     81  C   UNL A   1      35.989  34.414  29.211  1.00  0.00     0.020 A 
ATOM     82  C   UNL A   1      34.701  33.893  29.330  1.00  0.00     0.054 A 
BRANCH  82  83
ATOM     83  S   UNL A   1      33.273  34.830  28.721  1.00  0.00     0.124 S 
ATOM     84  O   UNL A   1      32.528  35.084  29.950  1.00  0.00    -0.237 OA
ATOM     85  O   UNL A   1      33.901  35.997  28.107  1.00  0.00    -0.237 OA
ATOM     86  O   UNL A   1      32.635  33.909  27.782  1.00  0.00    -0.744 OA
ENDBRANCH  82  83
ENDBRANCH  54  77
BRANCH  66  87
ATOM     87  C   UNL A   1      40.531  32.550  36.268  1.00  0.00    -0.014 A 
ATOM     88  C   UNL A   1      39.549  32.339  37.252  1.00  0.00     0.010 A 
ATOM     89  C   UNL A   1      41.477  33.576  36.446  1.00  0.00     0.010 A 
ATOM     90  C   UNL A   1      39.483  33.178  38.366  1.00  0.00     0.020 A 
ATOM     91  C   UNL A   1      41.438  34.391  37.576  1.00  0.00     0.020 A 
ATOM     92  C   UNL A   1      40.425  34.201  38.517  1.00  0.00     0.054 A 
BRANCH  92  93
ATOM     93  S   UNL A   1      40.323  35.271  39.976  1.00  0.00     0.124 S 
ATOM     94  O   UNL A   1      41.253  36.342  39.630  1.00  0.00    -0.237 OA
ATOM     95  O   UNL A   1      38.911  35.645  40.001  1.00  0.00    -0.237 OA
ATOM     96  O   UNL A   1      40.751  34.404  41.073  1.00  0.00    -0.744 OA
ENDBRANCH  92  93
ENDBRANCH  66  87
ENDBRANCH  40  41
ENDBRANCH  33  35
ENDBRANCH  32  33
ENDBRANCH  31  32
ENDBRANCH  30  31
ENDBRANCH  29  30
ENDBRANCH  28  29
ENDBRANCH   1  28
TORSDOF 24
ENDMDL
MODEL 2
REMARK VINA RESULT:      -9.7      1.707      2.289
REMARK SMILES CC[C@](C)(NC(=O)N1CC[C@@H]([NH+]2CCCCC2)C1)C(=O)OCCOCCOCCOC(=O)c1ccc(-c2c3nc(c(-c4ccc(S(=O)(=O)[O-])cc4)c4ccc([nH]4)c(-c4ccc(S(=O)(=O)[O-])cc4)c4nc(c(-c5ccc(S(=O)(=O)[O-])cc5)c5ccc2[nH]5)C=C4)C=C3)cc1
REMARK SMILES IDX 25 1 24 2 23 3 22 4 21 5 19 6 20 7 3 8 4 9 2 10 1 11 5 12
REMARK SMILES IDX 6 13 7 15 8 16 9 17 18 18 10 19 11 20 12 21 13 22 17 23
REMARK SMILES IDX 14 25 16 26 15 27 26 28 27 29 28 30 29 31 30 32 31 33 32 34
REMARK SMILES IDX 33 35 34 36 92 37 35 38 91 39 36 40 37 41 38 42 85 43 39 44
REMARK SMILES IDX 90 45 84 46 86 47 40 48 89 49 83 50 82 51 41 53 71 54 52 55
REMARK SMILES IDX 70 56 53 57 56 58 69 59 87 60 54 61 55 62 68 64 88 65 57 66
REMARK SMILES IDX 42 67 43 68 51 69 44 70 50 71 45 72 46 73 47 74 48 75 49 76
REMARK SMILES IDX 72 77 73 78 81 79 74 80 80 81 75 82 76 83 77 84 78 85 79 86
REMARK SMILES IDX 58 87 59 88 67 89 60 90 66 91 61 92 62 93 63 94 64 95 65 96
REMARK H PARENT 5 14 12 24 86 52 56 63
REMARK Flexibility Score: inf
ROOT
ATOM      1  C   UNL A   1      39.593  21.405  25.756  1.00  0.00     0.188 C 
ENDROOT
BRANCH   1   2
ATOM      2  O   UNL A   1      38.270  21.905  25.927  1.00  0.00    -0.376 OA
BRANCH   2   3
ATOM      3  C   UNL A   1      38.253  23.299  26.293  1.00  0.00     0.202 C 
BRANCH   3   4
ATOM      4  C   UNL A   1      36.881  23.980  26.111  1.00  0.00     0.261 C 
BRANCH   4   5
ATOM      5  O   UNL A   1      35.856  23.044  25.733  1.00  0.00    -0.462 OA
BRANCH   5   6
ATOM      6  C   UNL A   1      34.624  23.591  25.690  1.00  0.00     0.331 C 
ATOM      7  O   UNL A   1      33.895  23.619  26.680  1.00  0.00    -0.249 OA
BRANCH   6   8
ATOM      8  C   UNL A   1      34.208  24.114  24.279  1.00  0.00     0.136 C 
ATOM      9  C   UNL A   1      35.259  23.427  23.344  1.00  0.00     0.047 C 
BRANCH   8  10
ATOM     10  C   UNL A   1      34.395  25.645  24.149  1.00  0.00     0.037 C 
ATOM     11  C   UNL A   1      33.120  26.461  23.988  1.00  0.00     0.007 C 
ENDBRANCH   8  10
BRANCH   8  12
ATOM     12  N   UNL A   1      32.880  23.739  23.667  1.00  0.00    -0.322 N 
ATOM     13  C   UNL A   1      31.944  22.759  23.707  1.00  0.00     0.318 C 
ATOM     14  H   UNL A   1      32.602  24.435  23.028  1.00  0.00     0.166 HD
ATOM     15  O   UNL A   1      30.842  23.020  23.221  1.00  0.00    -0.249 OA
BRANCH  13  16
ATOM     16  N   UNL A   1      32.266  21.526  24.156  1.00  0.00    -0.319 N 
ATOM     17  C   UNL A   1      32.038  21.104  25.502  1.00  0.00     0.128 C 
ATOM     18  C   UNL A   1      32.149  20.315  23.342  1.00  0.00     0.186 C 
ATOM     19  C   UNL A   1      32.892  19.861  25.569  1.00  0.00     0.088 C 
ATOM     20  C   UNL A   1      32.822  19.220  24.170  1.00  0.00     0.205 C 
BRANCH  20  21
ATOM     21  N   UNL A   1      32.294  17.875  23.900  1.00  0.00    -0.331 N 
ATOM     22  C   UNL A   1      32.161  17.008  25.059  1.00  0.00     0.262 C 
ATOM     23  C   UNL A   1      33.035  17.198  22.834  1.00  0.00     0.262 C 
ATOM     24  H   UNL A   1      31.339  18.054  23.588  1.00  0.00     0.348 HD
ATOM     25  C   UNL A   1      33.491  16.544  25.641  1.00  0.00     0.062 C 
ATOM     26  C   UNL A   1      34.475  16.941  23.241  1.00  0.00     0.062 C 
ATOM     27  C   UNL A   1      34.583  16.235  24.600  1.00  0.00     0.012 C 
ENDBRANCH  20  21
ENDBRANCH  13  16
ENDBRANCH   8  12
ENDBRANCH   6   8
ENDBRANCH   5   6
ENDBRANCH   4   5
ENDBRANCH   3   4
ENDBRANCH   2   3
ENDBRANCH   1   2
BRANCH   1  28
ATOM     28  C   UNL A   1      39.939  19.989  26.269  1.00  0.00     0.188 C 
BRANCH  28  29
ATOM     29  O   UNL A   1      40.988  19.254  25.701  1.00  0.00    -0.376 OA
BRANCH  29  30
ATOM     30  C   UNL A   1      42.282  19.279  26.306  1.00  0.00     0.202 C 
BRANCH  30  31
ATOM     31  C   UNL A   1      43.203  20.380  25.743  1.00  0.00     0.261 C 
BRANCH  31  32
ATOM     32  O   UNL A   1      43.099  21.621  26.461  1.00  0.00    -0.460 OA
BRANCH  32  33
ATOM     33  C   UNL A   1      43.048  22.722  25.666  1.00  0.00     0.338 C 
ATOM     34  O   UNL A   1      43.166  22.767  24.461  1.00  0.00    -0.246 OA
BRANCH  33  35
ATOM     35  C   UNL A   1      42.445  23.789  26.486  1.00  0.00     0.060 A 
ATOM     36  C   UNL A   1      42.683  25.116  26.075  1.00  0.00     0.016 A 
ATOM     37  C   UNL A   1      41.587  23.501  27.548  1.00  0.00     0.016 A 
ATOM     38  C   UNL A   1      42.079  26.163  26.742  1.00  0.00     0.010 A 
ATOM     39  C   UNL A   1      41.080  24.560  28.298  1.00  0.00     0.010 A 
ATOM     40  C   UNL A   1      41.397  25.880  27.929  1.00  0.00    -0.014 A 
BRANCH  40  41
ATOM     41  C   UNL A   1      41.527  26.917  28.968  1.00  0.00     0.031 A 
ATOM     42  C   UNL A   1      42.783  26.850  29.803  1.00  0.00     0.074 A 
ATOM     43  C   UNL A   1      40.669  27.943  29.046  1.00  0.00     0.049 A 
ATOM     44  N   UNL A   1      43.215  27.662  30.726  1.00  0.00    -0.248 NA
ATOM     45  C   UNL A   1      43.698  25.720  29.534  1.00  0.00     0.031 C 
ATOM     46  C   UNL A   1      39.505  28.150  28.184  1.00  0.00     0.029 A 
ATOM     47  N   UNL A   1      40.673  29.023  29.883  1.00  0.00    -0.354 N 
ATOM     48  C   UNL A   1      44.435  27.138  31.141  1.00  0.00     0.074 A 
ATOM     49  C   UNL A   1      44.683  25.941  30.383  1.00  0.00     0.031 C 
ATOM     50  C   UNL A   1      38.902  29.297  28.546  1.00  0.00     0.029 A 
ATOM     51  C   UNL A   1      39.617  29.876  29.681  1.00  0.00     0.049 A 
ATOM     52  H   UNL A   1      41.366  29.175  30.565  1.00  0.00     0.167 HD
ATOM     53  C   UNL A   1      45.276  27.610  32.085  1.00  0.00     0.031 A 
ATOM     54  C   UNL A   1      39.274  30.985  30.361  1.00  0.00     0.031 A 
ATOM     55  C   UNL A   1      44.989  28.782  32.857  1.00  0.00     0.049 A 
ATOM     56  C   UNL A   1      40.167  31.429  31.492  1.00  0.00     0.074 A 
ATOM     57  C   UNL A   1      45.728  29.343  33.879  1.00  0.00     0.029 A 
ATOM     58  N   UNL A   1      43.857  29.567  32.690  1.00  0.00    -0.354 N 
ATOM     59  N   UNL A   1      41.298  30.905  31.909  1.00  0.00    -0.248 NA
ATOM     60  C   UNL A   1      39.742  32.619  32.238  1.00  0.00     0.031 C 
ATOM     61  C   UNL A   1      45.006  30.433  34.375  1.00  0.00     0.029 A 
ATOM     62  C   UNL A   1      43.862  30.597  33.607  1.00  0.00     0.049 A 
ATOM     63  H   UNL A   1      43.155  29.411  32.017  1.00  0.00     0.167 HD
ATOM     64  C   UNL A   1      41.741  31.726  32.940  1.00  0.00     0.074 A 
ATOM     65  C   UNL A   1      40.758  32.785  33.074  1.00  0.00     0.031 C 
ATOM     66  C   UNL A   1      42.859  31.628  33.704  1.00  0.00     0.031 A 
BRANCH  53  67
ATOM     67  C   UNL A   1      46.507  26.798  32.386  1.00  0.00    -0.014 A 
ATOM     68  C   UNL A   1      47.713  26.987  31.685  1.00  0.00     0.010 A 
ATOM     69  C   UNL A   1      46.444  25.809  33.383  1.00  0.00     0.010 A 
ATOM     70  C   UNL A   1      48.824  26.182  31.961  1.00  0.00     0.020 A 
ATOM     71  C   UNL A   1      47.559  25.024  33.682  1.00  0.00     0.020 A 
ATOM     72  C   UNL A   1      48.739  25.207  32.960  1.00  0.00     0.054 A 
BRANCH  72  73
ATOM     73  S   UNL A   1      50.203  24.199  33.324  1.00  0.00     0.124 S 
ATOM     74  O   UNL A   1      50.584  23.726  31.997  1.00  0.00    -0.237 OA
ATOM     75  O   UNL A   1      51.112  25.168  33.932  1.00  0.00    -0.237 OA
ATOM     76  O   UNL A   1      49.698  23.170  34.231  1.00  0.00    -0.744 OA
ENDBRANCH  72  73
ENDBRANCH  53  67
BRANCH  54  77
ATOM     77  C   UNL A   1      38.026  31.720  30.015  1.00  0.00    -0.014 A 
ATOM     78  C   UNL A   1      36.791  31.364  30.581  1.00  0.00     0.010 A 
ATOM     79  C   UNL A   1      38.074  32.792  29.105  1.00  0.00     0.010 A 
ATOM     80  C   UNL A   1      35.625  32.052  30.228  1.00  0.00     0.020 A 
ATOM     81  C   UNL A   1      36.918  33.503  28.774  1.00  0.00     0.020 A 
ATOM     82  C   UNL A   1      35.697  33.120  29.329  1.00  0.00     0.054 A 
BRANCH  82  83
ATOM     83  S   UNL A   1      34.179  34.024  28.917  1.00  0.00     0.124 S 
ATOM     84  O   UNL A   1      33.499  33.088  28.027  1.00  0.00    -0.237 OA
ATOM     85  O   UNL A   1      33.562  34.214  30.228  1.00  0.00    -0.237 OA
ATOM     86  O   UNL A   1      34.669  35.246  28.284  1.00  0.00    -0.744 OA
ENDBRANCH  82  83
ENDBRANCH  54  77
BRANCH  66  87
ATOM     87  C   UNL A   1      43.107  32.727  34.701  1.00  0.00    -0.014 A 
ATOM     88  C   UNL A   1      43.804  33.896  34.353  1.00  0.00     0.010 A 
ATOM     89  C   UNL A   1      42.589  32.592  36.003  1.00  0.00     0.010 A 
ATOM     90  C   UNL A   1      44.028  34.888  35.309  1.00  0.00     0.020 A 
ATOM     91  C   UNL A   1      42.777  33.599  36.949  1.00  0.00     0.020 A 
ATOM     92  C   UNL A   1      43.517  34.730  36.602  1.00  0.00     0.054 A 
BRANCH  92  93
ATOM     93  S   UNL A   1      43.814  36.036  37.823  1.00  0.00     0.124 S 
ATOM     94  O   UNL A   1      43.502  35.354  39.076  1.00  0.00    -0.237 OA
ATOM     95  O   UNL A   1      45.223  36.356  37.613  1.00  0.00    -0.237 OA
ATOM     96  O   UNL A   1      42.877  37.090  37.438  1.00  0.00    -0.744 OA
ENDBRANCH  92  93
ENDBRANCH  66  87
ENDBRANCH  40  41
ENDBRANCH  33  35
ENDBRANCH  32  33
ENDBRANCH  31  32
ENDBRANCH  30  31
ENDBRANCH  29  30
ENDBRANCH  28  29
ENDBRANCH   1  28
TORSDOF 24
ENDMDL
MODEL 3
REMARK VINA RESULT:      -9.7      5.616      8.268
REMARK SMILES CC[C@](C)(NC(=O)N1CC[C@@H]([NH+]2CCCCC2)C1)C(=O)OCCOCCOCCOC(=O)c1ccc(-c2c3nc(c(-c4ccc(S(=O)(=O)[O-])cc4)c4ccc([nH]4)c(-c4ccc(S(=O)(=O)[O-])cc4)c4nc(c(-c5ccc(S(=O)(=O)[O-])cc5)c5ccc2[nH]5)C=C4)C=C3)cc1
REMARK SMILES IDX 25 1 24 2 23 3 22 4 21 5 19 6 20 7 3 8 4 9 2 10 1 11 5 12
REMARK SMILES IDX 6 13 7 15 8 16 9 17 18 18 10 19 11 20 12 21 13 22 17 23
REMARK SMILES IDX 14 25 16 26 15 27 26 28 27 29 28 30 29 31 30 32 31 33 32 34
REMARK SMILES IDX 33 35 34 36 92 37 35 38 91 39 36 40 37 41 38 42 85 43 39 44
REMARK SMILES IDX 90 45 84 46 86 47 40 48 89 49 83 50 82 51 41 53 71 54 52 55
REMARK SMILES IDX 70 56 53 57 56 58 69 59 87 60 54 61 55 62 68 64 88 65 57 66
REMARK SMILES IDX 42 67 43 68 51 69 44 70 50 71 45 72 46 73 47 74 48 75 49 76
REMARK SMILES IDX 72 77 73 78 81 79 74 80 80 81 75 82 76 83 77 84 78 85 79 86
REMARK SMILES IDX 58 87 59 88 67 89 60 90 66 91 61 92 62 93 63 94 64 95 65 96
REMARK H PARENT 5 14 12 24 86 52 56 63
REMARK Flexibility Score: inf
ROOT
ATOM      1  C   UNL A   1      35.159  21.414  25.476  1.00  0.00     0.188 C 
ENDROOT
BRANCH   1   2
ATOM      2  O   UNL A   1      34.420  20.299  24.986  1.00  0.00    -0.376 OA
BRANCH   2   3
ATOM      3  C   UNL A   1      33.082  20.660  24.589  1.00  0.00     0.202 C 
BRANCH   3   4
ATOM      4  C   UNL A   1      32.396  21.666  25.535  1.00  0.00     0.261 C 
BRANCH   4   5
ATOM      5  O   UNL A   1      32.419  23.006  25.013  1.00  0.00    -0.462 OA
BRANCH   5   6
ATOM      6  C   UNL A   1      31.928  23.922  25.872  1.00  0.00     0.331 C 
ATOM      7  O   UNL A   1      31.680  23.641  27.043  1.00  0.00    -0.249 OA
BRANCH   6   8
ATOM      8  C   UNL A   1      31.657  25.318  25.228  1.00  0.00     0.136 C 
ATOM      9  C   UNL A   1      31.282  26.192  26.471  1.00  0.00     0.047 C 
BRANCH   8  10
ATOM     10  C   UNL A   1      30.432  25.295  24.284  1.00  0.00     0.037 C 
ATOM     11  C   UNL A   1      29.346  26.321  24.574  1.00  0.00     0.007 C 
ENDBRANCH   8  10
BRANCH   8  12
ATOM     12  N   UNL A   1      32.764  26.097  24.559  1.00  0.00    -0.322 N 
ATOM     13  C   UNL A   1      33.162  27.374  24.333  1.00  0.00     0.318 C 
ATOM     14  H   UNL A   1      33.409  25.474  24.153  1.00  0.00     0.166 HD
ATOM     15  O   UNL A   1      34.326  27.538  23.964  1.00  0.00    -0.249 OA
BRANCH  13  16
ATOM     16  N   UNL A   1      32.272  28.389  24.403  1.00  0.00    -0.319 N 
ATOM     17  C   UNL A   1      32.523  29.594  25.128  1.00  0.00     0.128 C 
ATOM     18  C   UNL A   1      31.400  28.774  23.292  1.00  0.00     0.186 C 
ATOM     19  C   UNL A   1      31.136  30.184  25.206  1.00  0.00     0.088 C 
ATOM     20  C   UNL A   1      30.432  29.795  23.891  1.00  0.00     0.205 C 
BRANCH  20  21
ATOM     21  N   UNL A   1      29.920  30.761  22.909  1.00  0.00    -0.331 N 
ATOM     22  C   UNL A   1      29.049  31.796  23.439  1.00  0.00     0.262 C 
ATOM     23  C   UNL A   1      29.293  30.099  21.763  1.00  0.00     0.262 C 
ATOM     24  H   UNL A   1      30.760  31.250  22.598  1.00  0.00     0.348 HD
ATOM     25  C   UNL A   1      27.685  31.287  23.889  1.00  0.00     0.062 C 
ATOM     26  C   UNL A   1      28.054  29.327  22.184  1.00  0.00     0.062 C 
ATOM     27  C   UNL A   1      27.078  30.184  23.000  1.00  0.00     0.012 C 
ENDBRANCH  20  21
ENDBRANCH  13  16
ENDBRANCH   8  12
ENDBRANCH   6   8
ENDBRANCH   5   6
ENDBRANCH   4   5
ENDBRANCH   3   4
ENDBRANCH   2   3
ENDBRANCH   1   2
BRANCH   1  28
ATOM     28  C   UNL A   1      36.554  21.717  24.884  1.00  0.00     0.188 C 
BRANCH  28  29
ATOM     29  O   UNL A   1      37.325  22.784  25.364  1.00  0.00    -0.376 OA
BRANCH  29  30
ATOM     30  C   UNL A   1      38.498  22.523  26.134  1.00  0.00     0.202 C 
BRANCH  30  31
ATOM     31  C   UNL A   1      39.082  21.114  25.908  1.00  0.00     0.261 C 
BRANCH  31  32
ATOM     32  O   UNL A   1      40.031  20.731  26.917  1.00  0.00    -0.460 OA
BRANCH  32  33
ATOM     33  C   UNL A   1      41.206  20.256  26.426  1.00  0.00     0.338 C 
ATOM     34  O   UNL A   1      41.373  19.280  25.728  1.00  0.00    -0.246 OA
BRANCH  33  35
ATOM     35  C   UNL A   1      42.182  21.353  26.572  1.00  0.00     0.060 A 
ATOM     36  C   UNL A   1      42.563  21.691  27.886  1.00  0.00     0.016 A 
ATOM     37  C   UNL A   1      42.785  21.950  25.465  1.00  0.00     0.016 A 
ATOM     38  C   UNL A   1      43.537  22.648  28.097  1.00  0.00     0.010 A 
ATOM     39  C   UNL A   1      43.672  23.003  25.679  1.00  0.00     0.010 A 
ATOM     40  C   UNL A   1      43.978  23.389  26.997  1.00  0.00    -0.014 A 
BRANCH  40  41
ATOM     41  C   UNL A   1      44.272  24.802  27.294  1.00  0.00     0.031 A 
ATOM     42  C   UNL A   1      45.704  25.228  27.081  1.00  0.00     0.074 A 
ATOM     43  C   UNL A   1      43.296  25.679  27.568  1.00  0.00     0.049 A 
ATOM     44  N   UNL A   1      46.245  26.411  27.176  1.00  0.00    -0.248 NA
ATOM     45  C   UNL A   1      46.656  24.174  26.673  1.00  0.00     0.031 C 
ATOM     46  C   UNL A   1      41.870  25.369  27.657  1.00  0.00     0.029 A 
ATOM     47  N   UNL A   1      43.370  27.025  27.793  1.00  0.00    -0.354 N 
ATOM     48  C   UNL A   1      47.585  26.234  26.845  1.00  0.00     0.074 A 
ATOM     49  C   UNL A   1      47.788  24.841  26.551  1.00  0.00     0.031 C 
ATOM     50  C   UNL A   1      41.199  26.504  27.923  1.00  0.00     0.029 A 
ATOM     51  C   UNL A   1      42.153  27.602  28.057  1.00  0.00     0.049 A 
ATOM     52  H   UNL A   1      44.213  27.531  27.767  1.00  0.00     0.167 HD
ATOM     53  C   UNL A   1      48.569  27.157  26.801  1.00  0.00     0.031 A 
ATOM     54  C   UNL A   1      41.867  28.875  28.388  1.00  0.00     0.031 A 
ATOM     55  C   UNL A   1      48.353  28.532  27.137  1.00  0.00     0.049 A 
ATOM     56  C   UNL A   1      43.002  29.865  28.448  1.00  0.00     0.074 A 
ATOM     57  C   UNL A   1      49.270  29.563  27.184  1.00  0.00     0.029 A 
ATOM     58  N   UNL A   1      47.122  29.061  27.498  1.00  0.00    -0.354 N 
ATOM     59  N   UNL A   1      44.275  29.684  28.176  1.00  0.00    -0.248 NA
ATOM     60  C   UNL A   1      42.660  31.235  28.850  1.00  0.00     0.031 C 
ATOM     61  C   UNL A   1      48.603  30.704  27.638  1.00  0.00     0.029 A 
ATOM     62  C   UNL A   1      47.257  30.402  27.793  1.00  0.00     0.049 A 
ATOM     63  H   UNL A   1      46.278  28.555  27.538  1.00  0.00     0.167 HD
ATOM     64  C   UNL A   1      44.880  30.926  28.335  1.00  0.00     0.074 A 
ATOM     65  C   UNL A   1      43.828  31.849  28.717  1.00  0.00     0.031 C 
ATOM     66  C   UNL A   1      46.180  31.282  28.172  1.00  0.00     0.031 A 
BRANCH  53  67
ATOM     67  C   UNL A   1      49.957  26.674  26.478  1.00  0.00    -0.014 A 
ATOM     68  C   UNL A   1      50.429  26.593  25.154  1.00  0.00     0.010 A 
ATOM     69  C   UNL A   1      50.801  26.274  27.529  1.00  0.00     0.010 A 
ATOM     70  C   UNL A   1      51.710  26.097  24.889  1.00  0.00     0.020 A 
ATOM     71  C   UNL A   1      52.092  25.806  27.270  1.00  0.00     0.020 A 
ATOM     72  C   UNL A   1      52.533  25.708  25.950  1.00  0.00     0.054 A 
BRANCH  72  73
ATOM     73  S   UNL A   1      54.203  25.101  25.585  1.00  0.00     0.124 S 
ATOM     74  O   UNL A   1      54.758  26.195  24.792  1.00  0.00    -0.237 OA
ATOM     75  O   UNL A   1      54.779  24.934  26.917  1.00  0.00    -0.237 OA
ATOM     76  O   UNL A   1      53.967  23.859  24.852  1.00  0.00    -0.744 OA
ENDBRANCH  72  73
ENDBRANCH  53  67
BRANCH  54  77
ATOM     77  C   UNL A   1      40.469  29.267  28.715  1.00  0.00    -0.014 A 
ATOM     78  C   UNL A   1      39.500  29.411  27.708  1.00  0.00     0.010 A 
ATOM     79  C   UNL A   1      40.101  29.502  30.053  1.00  0.00     0.010 A 
ATOM     80  C   UNL A   1      38.195  29.802  28.031  1.00  0.00     0.020 A 
ATOM     81  C   UNL A   1      38.792  29.861  30.383  1.00  0.00     0.020 A 
ATOM     82  C   UNL A   1      37.849  30.021  29.368  1.00  0.00     0.054 A 
BRANCH  82  83
ATOM     83  S   UNL A   1      36.142  30.487  29.767  1.00  0.00     0.124 S 
ATOM     84  O   UNL A   1      35.382  29.754  28.758  1.00  0.00    -0.237 OA
ATOM     85  O   UNL A   1      35.998  30.009  31.140  1.00  0.00    -0.237 OA
ATOM     86  O   UNL A   1      36.140  31.940  29.618  1.00  0.00    -0.744 OA
ENDBRANCH  82  83
ENDBRANCH  54  77
BRANCH  66  87
ATOM     87  C   UNL A   1      46.519  32.737  28.344  1.00  0.00    -0.014 A 
ATOM     88  C   UNL A   1      46.453  33.642  27.270  1.00  0.00     0.010 A 
ATOM     89  C   UNL A   1      46.870  33.207  29.623  1.00  0.00     0.010 A 
ATOM     90  C   UNL A   1      46.789  34.983  27.463  1.00  0.00     0.020 A 
ATOM     91  C   UNL A   1      47.168  34.554  29.827  1.00  0.00     0.020 A 
ATOM     92  C   UNL A   1      47.149  35.428  28.740  1.00  0.00     0.054 A 
BRANCH  92  93
ATOM     93  S   UNL A   1      47.573  37.175  28.966  1.00  0.00     0.124 S 
ATOM     94  O   UNL A   1      46.277  37.759  29.303  1.00  0.00    -0.237 OA
ATOM     95  O   UNL A   1      48.546  37.131  30.054  1.00  0.00    -0.237 OA
ATOM     96  O   UNL A   1      48.115  37.572  27.668  1.00  0.00    -0.744 OA
ENDBRANCH  92  93
ENDBRANCH  66  87
ENDBRANCH  40  41
ENDBRANCH  33  35
ENDBRANCH  32  33
ENDBRANCH  31  32
ENDBRANCH  30  31
ENDBRANCH  29  30
ENDBRANCH  28  29
ENDBRANCH   1  28
TORSDOF 24
ENDMDL
