MODEL 1
REMARK VINA RESULT:      -8.7      0.000      0.000
REMARK SMILES O=C(OCCOCCOCCOC(=O)c1cc(NC(=S)NC(=O)c2ccccc2F)ccc1Cl)c1ccc(-c2c3nc(c(-c4ccc(S(=O)(=O)[O-])cc4)c4ccc([nH]4)c(-c4ccc(S(=O)(=O)[O-])cc4)c4nc(c(-c5ccc(S(=O)(=O)[O-])cc5)c5ccc2[nH]5)C=C4)C=C3)cc1
REMARK SMILES IDX 8 1 7 2 6 3 5 4 4 5 3 6 2 7 1 8 35 9 36 10 94 11 37 12 93 13
REMARK SMILES IDX 38 14 39 15 40 16 87 17 41 18 92 19 86 20 88 21 42 22 91 23
REMARK SMILES IDX 85 24 84 25 43 27 73 28 54 29 72 30 55 31 58 32 71 33 89 34
REMARK SMILES IDX 56 35 57 36 70 38 90 39 59 40 44 41 45 42 53 43 46 44 52 45
REMARK SMILES IDX 47 46 48 47 49 48 50 49 51 50 74 51 75 52 83 53 76 54 82 55
REMARK SMILES IDX 77 56 78 57 79 58 80 59 81 60 60 61 61 62 69 63 62 64 68 65
REMARK SMILES IDX 63 66 64 67 65 68 66 69 67 70 9 71 10 72 11 73 12 74 13 75
REMARK SMILES IDX 14 76 15 77 16 78 33 79 17 80 32 81 34 82 31 83 18 84 19 86
REMARK SMILES IDX 20 87 21 88 22 89 23 91 24 92 25 93 29 94 26 95 28 96 30 97
REMARK SMILES IDX 27 98
REMARK H PARENT 88 26 58 37 18 85 21 90
REMARK Flexibility Score: inf
ROOT
ATOM      1  C   UNL A   1      33.631  26.797  25.935  1.00  0.00     0.188 C 
ENDROOT
BRANCH   1   2
ATOM      2  C   UNL A   1      32.794  27.782  26.759  1.00  0.00     0.188 C 
BRANCH   2   3
ATOM      3  O   UNL A   1      33.555  28.637  27.607  1.00  0.00    -0.376 OA
BRANCH   3   4
ATOM      4  C   UNL A   1      34.226  29.764  27.046  1.00  0.00     0.202 C 
BRANCH   4   5
ATOM      5  C   UNL A   1      33.759  31.182  27.417  1.00  0.00     0.261 C 
BRANCH   5   6
ATOM      6  O   UNL A   1      34.009  31.643  28.761  1.00  0.00    -0.460 OA
BRANCH   6   7
ATOM      7  C   UNL A   1      34.379  32.844  29.265  1.00  0.00     0.338 C 
ATOM      8  O   UNL A   1      33.806  33.854  28.866  1.00  0.00    -0.246 OA
BRANCH   7   9
ATOM      9  C   UNL A   1      35.480  33.002  30.251  1.00  0.00     0.060 A 
ATOM     10  C   UNL A   1      35.637  34.132  31.042  1.00  0.00     0.016 A 
ATOM     11  C   UNL A   1      36.260  31.883  30.576  1.00  0.00     0.016 A 
ATOM     12  C   UNL A   1      36.620  34.268  31.992  1.00  0.00     0.010 A 
ATOM     13  C   UNL A   1      37.169  31.948  31.642  1.00  0.00     0.010 A 
ATOM     14  C   UNL A   1      37.401  33.177  32.294  1.00  0.00    -0.014 A 
BRANCH  14  15
ATOM     15  C   UNL A   1      38.621  33.448  33.065  1.00  0.00     0.031 A 
ATOM     16  C   UNL A   1      39.851  33.636  32.240  1.00  0.00     0.074 A 
ATOM     17  C   UNL A   1      38.602  33.714  34.387  1.00  0.00     0.049 A 
ATOM     18  N   UNL A   1      41.062  33.898  32.627  1.00  0.00    -0.248 NA
ATOM     19  C   UNL A   1      39.687  33.567  30.771  1.00  0.00     0.031 C 
ATOM     20  C   UNL A   1      37.409  33.853  35.223  1.00  0.00     0.029 A 
ATOM     21  N   UNL A   1      39.620  33.930  35.272  1.00  0.00    -0.354 N 
ATOM     22  C   UNL A   1      41.795  34.009  31.456  1.00  0.00     0.074 A 
ATOM     23  C   UNL A   1      40.925  33.717  30.348  1.00  0.00     0.031 C 
ATOM     24  C   UNL A   1      37.754  33.982  36.510  1.00  0.00     0.029 A 
ATOM     25  C   UNL A   1      39.201  34.027  36.581  1.00  0.00     0.049 A 
ATOM     26  H   UNL A   1      40.563  34.008  35.001  1.00  0.00     0.167 HD
ATOM     27  C   UNL A   1      43.086  34.364  31.324  1.00  0.00     0.031 A 
ATOM     28  C   UNL A   1      39.914  34.168  37.711  1.00  0.00     0.031 A 
ATOM     29  C   UNL A   1      43.919  34.646  32.451  1.00  0.00     0.049 A 
ATOM     30  C   UNL A   1      41.387  34.377  37.548  1.00  0.00     0.074 A 
ATOM     31  C   UNL A   1      45.259  34.966  32.465  1.00  0.00     0.029 A 
ATOM     32  N   UNL A   1      43.484  34.622  33.770  1.00  0.00    -0.354 N 
ATOM     33  N   UNL A   1      42.084  34.438  36.436  1.00  0.00    -0.248 NA
ATOM     34  C   UNL A   1      42.162  34.594  38.770  1.00  0.00     0.031 C 
ATOM     35  C   UNL A   1      45.659  35.033  33.801  1.00  0.00     0.029 A 
ATOM     36  C   UNL A   1      44.545  34.872  34.615  1.00  0.00     0.049 A 
ATOM     37  H   UNL A   1      42.558  34.453  34.058  1.00  0.00     0.167 HD
ATOM     38  C   UNL A   1      43.375  34.763  36.820  1.00  0.00     0.074 A 
ATOM     39  C   UNL A   1      43.353  34.885  38.268  1.00  0.00     0.031 C 
ATOM     40  C   UNL A   1      44.474  34.963  36.052  1.00  0.00     0.031 A 
BRANCH  27  41
ATOM     41  C   UNL A   1      43.652  34.344  29.937  1.00  0.00    -0.014 A 
ATOM     42  C   UNL A   1      43.588  35.459  29.080  1.00  0.00     0.010 A 
ATOM     43  C   UNL A   1      44.214  33.145  29.469  1.00  0.00     0.010 A 
ATOM     44  C   UNL A   1      44.052  35.363  27.768  1.00  0.00     0.020 A 
ATOM     45  C   UNL A   1      44.718  33.058  28.174  1.00  0.00     0.020 A 
ATOM     46  C   UNL A   1      44.626  34.166  27.328  1.00  0.00     0.054 A 
BRANCH  46  47
ATOM     47  S   UNL A   1      45.287  34.088  25.645  1.00  0.00     0.124 S 
ATOM     48  O   UNL A   1      45.832  32.734  25.594  1.00  0.00    -0.237 OA
ATOM     49  O   UNL A   1      44.096  34.318  24.831  1.00  0.00    -0.237 OA
ATOM     50  O   UNL A   1      46.279  35.160  25.613  1.00  0.00    -0.744 OA
ENDBRANCH  46  47
ENDBRANCH  27  41
BRANCH  28  51
ATOM     51  C   UNL A   1      39.249  34.161  39.043  1.00  0.00    -0.014 A 
ATOM     52  C   UNL A   1      38.886  32.958  39.671  1.00  0.00     0.010 A 
ATOM     53  C   UNL A   1      38.968  35.379  39.693  1.00  0.00     0.010 A 
ATOM     54  C   UNL A   1      38.217  32.971  40.900  1.00  0.00     0.020 A 
ATOM     55  C   UNL A   1      38.326  35.396  40.935  1.00  0.00     0.020 A 
ATOM     56  C   UNL A   1      37.941  34.192  41.524  1.00  0.00     0.054 A 
BRANCH  56  57
ATOM     57  S   UNL A   1      37.087  34.182  43.125  1.00  0.00     0.124 S 
ATOM     58  O   UNL A   1      35.692  34.029  42.727  1.00  0.00    -0.237 OA
ATOM     59  O   UNL A   1      37.688  33.030  43.791  1.00  0.00    -0.237 OA
ATOM     60  O   UNL A   1      37.435  35.479  43.704  1.00  0.00    -0.744 OA
ENDBRANCH  56  57
ENDBRANCH  28  51
BRANCH  40  61
ATOM     61  C   UNL A   1      45.725  35.385  36.765  1.00  0.00    -0.014 A 
ATOM     62  C   UNL A   1      46.023  36.738  36.995  1.00  0.00     0.010 A 
ATOM     63  C   UNL A   1      46.591  34.389  37.254  1.00  0.00     0.010 A 
ATOM     64  C   UNL A   1      47.198  37.089  37.655  1.00  0.00     0.020 A 
ATOM     65  C   UNL A   1      47.737  34.735  37.962  1.00  0.00     0.020 A 
ATOM     66  C   UNL A   1      48.044  36.085  38.138  1.00  0.00     0.054 A 
BRANCH  66  67
ATOM     67  S   UNL A   1      49.545  36.571  39.022  1.00  0.00     0.124 S 
ATOM     68  O   UNL A   1      49.653  37.987  38.677  1.00  0.00    -0.237 OA
ATOM     69  O   UNL A   1      49.199  36.285  40.412  1.00  0.00    -0.237 OA
ATOM     70  O   UNL A   1      50.579  35.711  38.450  1.00  0.00    -0.744 OA
ENDBRANCH  66  67
ENDBRANCH  40  61
ENDBRANCH  14  15
ENDBRANCH   7   9
ENDBRANCH   6   7
ENDBRANCH   5   6
ENDBRANCH   4   5
ENDBRANCH   3   4
ENDBRANCH   2   3
ENDBRANCH   1   2
BRANCH   1  71
ATOM     71  O   UNL A   1      32.924  25.704  25.377  1.00  0.00    -0.376 OA
BRANCH  71  72
ATOM     72  C   UNL A   1      33.152  24.465  26.043  1.00  0.00     0.202 C 
BRANCH  72  73
ATOM     73  C   UNL A   1      34.412  23.595  25.711  1.00  0.00     0.261 C 
BRANCH  73  74
ATOM     74  O   UNL A   1      34.941  23.476  24.334  1.00  0.00    -0.460 OA
BRANCH  74  75
ATOM     75  C   UNL A   1      36.303  23.359  24.255  1.00  0.00     0.339 C 
ATOM     76  O   UNL A   1      36.886  23.327  23.172  1.00  0.00    -0.246 OA
BRANCH  75  77
ATOM     77  C   UNL A   1      37.188  23.189  25.564  1.00  0.00     0.080 A 
ATOM     78  C   UNL A   1      38.472  24.358  26.592  1.00  0.00     0.043 A 
ATOM     79  C   UNL A   1      37.725  21.453  25.429  1.00  0.00     0.055 A 
ATOM     80  C   UNL A   1      39.979  23.866  27.169  1.00  0.00     0.041 A 
ATOM     81  C   UNL A   1      39.300  20.994  26.151  1.00  0.00     0.023 A 
ATOM     82  Cl  UNL A   1      36.716  20.231  24.759  1.00  0.00    -0.083 Cl
ATOM     83  C   UNL A   1      40.384  22.179  26.976  1.00  0.00     0.028 A 
BRANCH  80  84
ATOM     84  N   UNL A   1      40.688  25.008  27.583  1.00  0.00    -0.332 N 
ATOM     85  H   UNL A   1      40.259  25.536  28.294  1.00  0.00     0.169 HD
BRANCH  84  86
ATOM     86  C   UNL A   1      41.913  25.498  27.131  1.00  0.00     0.177 C 
ATOM     87  S   UNL A   1      43.295  24.827  27.818  1.00  0.00    -0.040 S 
BRANCH  86  88
ATOM     88  N   UNL A   1      42.157  26.514  26.126  1.00  0.00    -0.299 N 
ATOM     89  C   UNL A   1      42.115  27.906  25.572  1.00  0.00     0.260 C 
ATOM     90  H   UNL A   1      42.594  26.006  25.405  1.00  0.00     0.172 HD
ATOM     91  O   UNL A   1      42.490  28.124  24.422  1.00  0.00    -0.269 OA
BRANCH  89  92
ATOM     92  C   UNL A   1      41.687  29.099  26.410  1.00  0.00     0.075 A 
ATOM     93  C   UNL A   1      40.106  28.716  27.055  1.00  0.00     0.017 A 
ATOM     94  C   UNL A   1      43.085  29.580  27.425  1.00  0.00     0.135 A 
ATOM     95  C   UNL A   1      39.963  28.551  28.824  1.00  0.00     0.001 A 
ATOM     96  C   UNL A   1      43.095  29.425  29.195  1.00  0.00     0.040 A 
ATOM     97  F   UNL A   1      44.244  29.186  26.880  1.00  0.00    -0.206 F 
ATOM     98  C   UNL A   1      41.589  28.851  29.989  1.00  0.00     0.003 A 
ENDBRANCH  89  92
ENDBRANCH  86  88
ENDBRANCH  84  86
ENDBRANCH  80  84
ENDBRANCH  75  77
ENDBRANCH  74  75
ENDBRANCH  73  74
ENDBRANCH  72  73
ENDBRANCH  71  72
ENDBRANCH   1  71
TORSDOF 24
ENDMDL
MODEL 2
REMARK VINA RESULT:      -8.5      1.499      8.023
REMARK SMILES O=C(OCCOCCOCCOC(=O)c1cc(NC(=S)NC(=O)c2ccccc2F)ccc1Cl)c1ccc(-c2c3nc(c(-c4ccc(S(=O)(=O)[O-])cc4)c4ccc([nH]4)c(-c4ccc(S(=O)(=O)[O-])cc4)c4nc(c(-c5ccc(S(=O)(=O)[O-])cc5)c5ccc2[nH]5)C=C4)C=C3)cc1
REMARK SMILES IDX 8 1 7 2 6 3 5 4 4 5 3 6 2 7 1 8 35 9 36 10 94 11 37 12 93 13
REMARK SMILES IDX 38 14 39 15 40 16 87 17 41 18 92 19 86 20 88 21 42 22 91 23
REMARK SMILES IDX 85 24 84 25 43 27 73 28 54 29 72 30 55 31 58 32 71 33 89 34
REMARK SMILES IDX 56 35 57 36 70 38 90 39 59 40 44 41 45 42 53 43 46 44 52 45
REMARK SMILES IDX 47 46 48 47 49 48 50 49 51 50 74 51 75 52 83 53 76 54 82 55
REMARK SMILES IDX 77 56 78 57 79 58 80 59 81 60 60 61 61 62 69 63 62 64 68 65
REMARK SMILES IDX 63 66 64 67 65 68 66 69 67 70 9 71 10 72 11 73 12 74 13 75
REMARK SMILES IDX 14 76 15 77 16 78 33 79 17 80 32 81 34 82 31 83 18 84 19 86
REMARK SMILES IDX 20 87 21 88 22 89 23 91 24 92 25 93 29 94 26 95 28 96 30 97
REMARK SMILES IDX 27 98
REMARK H PARENT 88 26 58 37 18 85 21 90
REMARK Flexibility Score: inf
ROOT
ATOM      1  C   UNL A   1      33.557  26.832  25.940  1.00  0.00     0.188 C 
ENDROOT
BRANCH   1   2
ATOM      2  C   UNL A   1      32.647  27.778  26.732  1.00  0.00     0.188 C 
BRANCH   2   3
ATOM      3  O   UNL A   1      33.340  28.747  27.512  1.00  0.00    -0.376 OA
BRANCH   3   4
ATOM      4  C   UNL A   1      33.923  29.879  26.868  1.00  0.00     0.202 C 
BRANCH   4   5
ATOM      5  C   UNL A   1      33.437  31.291  27.238  1.00  0.00     0.261 C 
BRANCH   5   6
ATOM      6  O   UNL A   1      33.777  31.799  28.545  1.00  0.00    -0.460 OA
BRANCH   6   7
ATOM      7  C   UNL A   1      34.397  32.929  28.956  1.00  0.00     0.338 C 
ATOM      8  O   UNL A   1      34.033  34.006  28.491  1.00  0.00    -0.246 OA
BRANCH   7   9
ATOM      9  C   UNL A   1      35.531  32.925  29.918  1.00  0.00     0.060 A 
ATOM     10  C   UNL A   1      35.986  34.067  30.564  1.00  0.00     0.016 A 
ATOM     11  C   UNL A   1      36.019  31.695  30.379  1.00  0.00     0.016 A 
ATOM     12  C   UNL A   1      36.999  34.066  31.491  1.00  0.00     0.010 A 
ATOM     13  C   UNL A   1      36.947  31.658  31.430  1.00  0.00     0.010 A 
ATOM     14  C   UNL A   1      37.494  32.859  31.926  1.00  0.00    -0.014 A 
BRANCH  14  15
ATOM     15  C   UNL A   1      38.765  32.908  32.660  1.00  0.00     0.031 A 
ATOM     16  C   UNL A   1      38.628  32.889  34.148  1.00  0.00     0.074 A 
ATOM     17  C   UNL A   1      39.962  32.773  32.053  1.00  0.00     0.049 A 
ATOM     18  N   UNL A   1      39.557  32.908  35.054  1.00  0.00    -0.248 NA
ATOM     19  C   UNL A   1      37.256  32.782  34.689  1.00  0.00     0.031 C 
ATOM     20  C   UNL A   1      40.183  32.483  30.636  1.00  0.00     0.029 A 
ATOM     21  N   UNL A   1      41.232  32.848  32.550  1.00  0.00    -0.354 N 
ATOM     22  C   UNL A   1      38.879  32.832  36.261  1.00  0.00     0.074 A 
ATOM     23  C   UNL A   1      37.467  32.839  35.988  1.00  0.00     0.031 C 
ATOM     24  C   UNL A   1      41.488  32.549  30.345  1.00  0.00     0.029 A 
ATOM     25  C   UNL A   1      42.207  32.796  31.579  1.00  0.00     0.049 A 
ATOM     26  H   UNL A   1      41.431  32.932  33.511  1.00  0.00     0.167 HD
ATOM     27  C   UNL A   1      39.406  32.727  37.494  1.00  0.00     0.031 A 
ATOM     28  C   UNL A   1      43.542  32.908  31.684  1.00  0.00     0.031 A 
ATOM     29  C   UNL A   1      40.817  32.725  37.723  1.00  0.00     0.049 A 
ATOM     30  C   UNL A   1      44.098  32.979  33.073  1.00  0.00     0.074 A 
ATOM     31  C   UNL A   1      41.488  32.678  38.926  1.00  0.00     0.029 A 
ATOM     32  N   UNL A   1      41.773  32.790  36.718  1.00  0.00    -0.354 N 
ATOM     33  N   UNL A   1      43.448  32.950  34.214  1.00  0.00    -0.248 NA
ATOM     34  C   UNL A   1      45.554  33.039  33.198  1.00  0.00     0.031 C 
ATOM     35  C   UNL A   1      42.849  32.820  38.653  1.00  0.00     0.029 A 
ATOM     36  C   UNL A   1      43.033  32.836  37.276  1.00  0.00     0.049 A 
ATOM     37  H   UNL A   1      41.580  32.799  35.752  1.00  0.00     0.167 HD
ATOM     38  C   UNL A   1      44.421  32.925  35.199  1.00  0.00     0.074 A 
ATOM     39  C   UNL A   1      45.701  32.941  34.511  1.00  0.00     0.031 C 
ATOM     40  C   UNL A   1      44.277  32.872  36.546  1.00  0.00     0.031 A 
BRANCH  27  41
ATOM     41  C   UNL A   1      38.442  32.725  38.640  1.00  0.00    -0.014 A 
ATOM     42  C   UNL A   1      37.620  31.620  38.932  1.00  0.00     0.010 A 
ATOM     43  C   UNL A   1      38.325  33.894  39.409  1.00  0.00     0.010 A 
ATOM     44  C   UNL A   1      36.676  31.699  39.957  1.00  0.00     0.020 A 
ATOM     45  C   UNL A   1      37.415  33.961  40.462  1.00  0.00     0.020 A 
ATOM     46  C   UNL A   1      36.590  32.865  40.723  1.00  0.00     0.054 A 
BRANCH  46  47
ATOM     47  S   UNL A   1      35.409  32.916  42.094  1.00  0.00     0.124 S 
ATOM     48  O   UNL A   1      35.693  34.219  42.691  1.00  0.00    -0.237 OA
ATOM     49  O   UNL A   1      34.126  32.807  41.405  1.00  0.00    -0.237 OA
ATOM     50  O   UNL A   1      35.777  31.763  42.912  1.00  0.00    -0.744 OA
ENDBRANCH  46  47
ENDBRANCH  27  41
BRANCH  28  51
ATOM     51  C   UNL A   1      44.410  32.913  30.474  1.00  0.00    -0.014 A 
ATOM     52  C   UNL A   1      44.722  34.107  29.804  1.00  0.00     0.010 A 
ATOM     53  C   UNL A   1      44.928  31.700  29.978  1.00  0.00     0.010 A 
ATOM     54  C   UNL A   1      45.497  34.088  28.639  1.00  0.00     0.020 A 
ATOM     55  C   UNL A   1      45.728  31.679  28.832  1.00  0.00     0.020 A 
ATOM     56  C   UNL A   1      45.995  32.872  28.161  1.00  0.00     0.054 A 
BRANCH  56  57
ATOM     57  S   UNL A   1      47.012  32.875  26.657  1.00  0.00     0.124 S 
ATOM     58  O   UNL A   1      47.696  31.590  26.749  1.00  0.00    -0.237 OA
ATOM     59  O   UNL A   1      46.008  32.988  25.603  1.00  0.00    -0.237 OA
ATOM     60  O   UNL A   1      47.864  34.052  26.826  1.00  0.00    -0.744 OA
ENDBRANCH  56  57
ENDBRANCH  28  51
BRANCH  40  61
ATOM     61  C   UNL A   1      45.537  32.775  37.354  1.00  0.00    -0.014 A 
ATOM     62  C   UNL A   1      46.053  31.538  37.772  1.00  0.00     0.010 A 
ATOM     63  C   UNL A   1      46.238  33.958  37.654  1.00  0.00     0.010 A 
ATOM     64  C   UNL A   1      47.223  31.491  38.526  1.00  0.00     0.020 A 
ATOM     65  C   UNL A   1      47.436  33.910  38.359  1.00  0.00     0.020 A 
ATOM     66  C   UNL A   1      47.908  32.677  38.810  1.00  0.00     0.054 A 
BRANCH  66  67
ATOM     67  S   UNL A   1      49.444  32.581  39.762  1.00  0.00     0.124 S 
ATOM     68  O   UNL A   1      48.950  32.266  41.100  1.00  0.00    -0.237 OA
ATOM     69  O   UNL A   1      50.166  31.507  39.087  1.00  0.00    -0.237 OA
ATOM     70  O   UNL A   1      50.028  33.912  39.612  1.00  0.00    -0.744 OA
ENDBRANCH  66  67
ENDBRANCH  40  61
ENDBRANCH  14  15
ENDBRANCH   7   9
ENDBRANCH   6   7
ENDBRANCH   5   6
ENDBRANCH   4   5
ENDBRANCH   3   4
ENDBRANCH   2   3
ENDBRANCH   1   2
BRANCH   1  71
ATOM     71  O   UNL A   1      32.922  25.702  25.368  1.00  0.00    -0.376 OA
BRANCH  71  72
ATOM     72  C   UNL A   1      33.196  24.479  26.044  1.00  0.00     0.202 C 
BRANCH  72  73
ATOM     73  C   UNL A   1      34.487  23.652  25.719  1.00  0.00     0.261 C 
BRANCH  73  74
ATOM     74  O   UNL A   1      35.017  23.536  24.342  1.00  0.00    -0.460 OA
BRANCH  74  75
ATOM     75  C   UNL A   1      36.374  23.380  24.264  1.00  0.00     0.339 C 
ATOM     76  O   UNL A   1      36.957  23.327  23.182  1.00  0.00    -0.246 OA
BRANCH  75  77
ATOM     77  C   UNL A   1      37.253  23.188  25.575  1.00  0.00     0.080 A 
ATOM     78  C   UNL A   1      38.520  24.345  26.636  1.00  0.00     0.043 A 
ATOM     79  C   UNL A   1      37.806  21.461  25.405  1.00  0.00     0.055 A 
ATOM     80  C   UNL A   1      40.028  23.854  27.211  1.00  0.00     0.041 A 
ATOM     81  C   UNL A   1      39.381  20.999  26.126  1.00  0.00     0.023 A 
ATOM     82  Cl  UNL A   1      36.812  20.245  24.702  1.00  0.00    -0.083 Cl
ATOM     83  C   UNL A   1      40.449  22.175  26.984  1.00  0.00     0.028 A 
BRANCH  80  84
ATOM     84  N   UNL A   1      40.725  24.992  27.655  1.00  0.00    -0.332 N 
ATOM     85  H   UNL A   1      40.289  25.498  28.378  1.00  0.00     0.169 HD
BRANCH  84  86
ATOM     86  C   UNL A   1      41.945  25.507  27.217  1.00  0.00     0.177 C 
ATOM     87  S   UNL A   1      43.333  24.844  27.901  1.00  0.00    -0.040 S 
BRANCH  86  88
ATOM     88  N   UNL A   1      42.179  26.541  26.230  1.00  0.00    -0.299 N 
ATOM     89  C   UNL A   1      42.101  27.936  25.688  1.00  0.00     0.260 C 
ATOM     90  H   UNL A   1      42.656  26.057  25.518  1.00  0.00     0.172 HD
ATOM     91  O   UNL A   1      42.502  28.180  24.551  1.00  0.00    -0.269 OA
BRANCH  89  92
ATOM     92  C   UNL A   1      41.604  29.104  26.523  1.00  0.00     0.075 A 
ATOM     93  C   UNL A   1      39.910  28.805  26.842  1.00  0.00     0.017 A 
ATOM     94  C   UNL A   1      42.818  29.409  27.807  1.00  0.00     0.135 A 
ATOM     95  C   UNL A   1      39.431  28.540  28.538  1.00  0.00     0.001 A 
ATOM     96  C   UNL A   1      42.490  29.141  29.534  1.00  0.00     0.040 A 
ATOM     97  F   UNL A   1      44.030  28.961  27.452  1.00  0.00    -0.206 F 
ATOM     98  C   UNL A   1      40.829  28.638  29.996  1.00  0.00     0.003 A 
ENDBRANCH  89  92
ENDBRANCH  86  88
ENDBRANCH  84  86
ENDBRANCH  80  84
ENDBRANCH  75  77
ENDBRANCH  74  75
ENDBRANCH  73  74
ENDBRANCH  72  73
ENDBRANCH  71  72
ENDBRANCH   1  71
TORSDOF 24
ENDMDL
MODEL 3
REMARK VINA RESULT:      -8.5      3.954      5.793
REMARK SMILES O=C(OCCOCCOCCOC(=O)c1cc(NC(=S)NC(=O)c2ccccc2F)ccc1Cl)c1ccc(-c2c3nc(c(-c4ccc(S(=O)(=O)[O-])cc4)c4ccc([nH]4)c(-c4ccc(S(=O)(=O)[O-])cc4)c4nc(c(-c5ccc(S(=O)(=O)[O-])cc5)c5ccc2[nH]5)C=C4)C=C3)cc1
REMARK SMILES IDX 8 1 7 2 6 3 5 4 4 5 3 6 2 7 1 8 35 9 36 10 94 11 37 12 93 13
REMARK SMILES IDX 38 14 39 15 40 16 87 17 41 18 92 19 86 20 88 21 42 22 91 23
REMARK SMILES IDX 85 24 84 25 43 27 73 28 54 29 72 30 55 31 58 32 71 33 89 34
REMARK SMILES IDX 56 35 57 36 70 38 90 39 59 40 44 41 45 42 53 43 46 44 52 45
REMARK SMILES IDX 47 46 48 47 49 48 50 49 51 50 74 51 75 52 83 53 76 54 82 55
REMARK SMILES IDX 77 56 78 57 79 58 80 59 81 60 60 61 61 62 69 63 62 64 68 65
REMARK SMILES IDX 63 66 64 67 65 68 66 69 67 70 9 71 10 72 11 73 12 74 13 75
REMARK SMILES IDX 14 76 15 77 16 78 33 79 17 80 32 81 34 82 31 83 18 84 19 86
REMARK SMILES IDX 20 87 21 88 22 89 23 91 24 92 25 93 29 94 26 95 28 96 30 97
REMARK SMILES IDX 27 98
REMARK H PARENT 88 26 58 37 18 85 21 90
REMARK Flexibility Score: inf
ROOT
ATOM      1  C   UNL A   1      31.836  30.336  26.813  1.00  0.00     0.188 C 
ENDROOT
BRANCH   1   2
ATOM      2  C   UNL A   1      33.181  31.051  26.981  1.00  0.00     0.188 C 
BRANCH   2   3
ATOM      3  O   UNL A   1      33.224  31.982  28.059  1.00  0.00    -0.376 OA
BRANCH   3   4
ATOM      4  C   UNL A   1      32.830  33.334  27.833  1.00  0.00     0.202 C 
BRANCH   4   5
ATOM      5  C   UNL A   1      33.288  34.428  28.813  1.00  0.00     0.261 C 
BRANCH   5   6
ATOM      6  O   UNL A   1      34.707  34.602  29.011  1.00  0.00    -0.460 OA
BRANCH   6   7
ATOM      7  C   UNL A   1      35.788  33.946  28.529  1.00  0.00     0.338 C 
ATOM      8  O   UNL A   1      35.872  33.756  27.318  1.00  0.00    -0.246 OA
BRANCH   7   9
ATOM      9  C   UNL A   1      36.862  33.405  29.402  1.00  0.00     0.060 A 
ATOM     10  C   UNL A   1      36.782  32.171  30.033  1.00  0.00     0.016 A 
ATOM     11  C   UNL A   1      38.109  34.047  29.413  1.00  0.00     0.016 A 
ATOM     12  C   UNL A   1      37.789  31.640  30.801  1.00  0.00     0.010 A 
ATOM     13  C   UNL A   1      39.197  33.452  30.067  1.00  0.00     0.010 A 
ATOM     14  C   UNL A   1      39.005  32.283  30.830  1.00  0.00    -0.014 A 
BRANCH  14  15
ATOM     15  C   UNL A   1      39.930  31.867  31.893  1.00  0.00     0.031 A 
ATOM     16  C   UNL A   1      40.895  30.798  31.496  1.00  0.00     0.074 A 
ATOM     17  C   UNL A   1      40.043  32.531  33.061  1.00  0.00     0.049 A 
ATOM     18  N   UNL A   1      41.831  30.240  32.202  1.00  0.00    -0.248 NA
ATOM     19  C   UNL A   1      40.830  30.327  30.096  1.00  0.00     0.031 C 
ATOM     20  C   UNL A   1      39.355  33.772  33.417  1.00  0.00     0.029 A 
ATOM     21  N   UNL A   1      40.792  32.268  34.173  1.00  0.00    -0.354 N 
ATOM     22  C   UNL A   1      42.447  29.350  31.336  1.00  0.00     0.074 A 
ATOM     23  C   UNL A   1      41.746  29.380  30.081  1.00  0.00     0.031 C 
ATOM     24  C   UNL A   1      39.591  34.084  34.698  1.00  0.00     0.029 A 
ATOM     25  C   UNL A   1      40.525  33.111  35.229  1.00  0.00     0.049 A 
ATOM     26  H   UNL A   1      41.458  31.544  34.215  1.00  0.00     0.167 HD
ATOM     27  C   UNL A   1      43.538  28.597  31.570  1.00  0.00     0.031 A 
ATOM     28  C   UNL A   1      41.009  33.110  36.482  1.00  0.00     0.031 A 
ATOM     29  C   UNL A   1      44.207  28.595  32.833  1.00  0.00     0.049 A 
ATOM     30  C   UNL A   1      42.102  32.129  36.774  1.00  0.00     0.074 A 
ATOM     31  C   UNL A   1      45.291  27.840  33.224  1.00  0.00     0.029 A 
ATOM     32  N   UNL A   1      43.835  29.380  33.916  1.00  0.00    -0.354 N 
ATOM     33  N   UNL A   1      42.653  31.257  35.962  1.00  0.00    -0.248 NA
ATOM     34  C   UNL A   1      42.677  32.164  38.119  1.00  0.00     0.031 C 
ATOM     35  C   UNL A   1      45.511  28.094  34.579  1.00  0.00     0.029 A 
ATOM     36  C   UNL A   1      44.639  29.092  34.998  1.00  0.00     0.049 A 
ATOM     37  H   UNL A   1      43.108  30.044  33.912  1.00  0.00     0.167 HD
ATOM     38  C   UNL A   1      43.687  30.678  36.679  1.00  0.00     0.074 A 
ATOM     39  C   UNL A   1      43.679  31.306  37.989  1.00  0.00     0.031 C 
ATOM     40  C   UNL A   1      44.577  29.732  36.289  1.00  0.00     0.031 A 
BRANCH  27  41
ATOM     41  C   UNL A   1      43.961  27.667  30.474  1.00  0.00    -0.014 A 
ATOM     42  C   UNL A   1      44.748  28.091  29.387  1.00  0.00     0.010 A 
ATOM     43  C   UNL A   1      43.503  26.340  30.518  1.00  0.00     0.010 A 
ATOM     44  C   UNL A   1      45.044  27.208  28.348  1.00  0.00     0.020 A 
ATOM     45  C   UNL A   1      43.833  25.444  29.506  1.00  0.00     0.020 A 
ATOM     46  C   UNL A   1      44.594  25.886  28.422  1.00  0.00     0.054 A 
BRANCH  46  47
ATOM     47  S   UNL A   1      45.052  24.739  27.098  1.00  0.00     0.124 S 
ATOM     48  O   UNL A   1      46.274  25.348  26.578  1.00  0.00    -0.237 OA
ATOM     49  O   UNL A   1      45.234  23.483  27.822  1.00  0.00    -0.237 OA
ATOM     50  O   UNL A   1      43.905  24.777  26.195  1.00  0.00    -0.744 OA
ENDBRANCH  46  47
ENDBRANCH  27  41
BRANCH  28  51
ATOM     51  C   UNL A   1      40.506  34.074  37.499  1.00  0.00    -0.014 A 
ATOM     52  C   UNL A   1      41.079  35.348  37.643  1.00  0.00     0.010 A 
ATOM     53  C   UNL A   1      39.440  33.709  38.345  1.00  0.00     0.010 A 
ATOM     54  C   UNL A   1      40.628  36.223  38.638  1.00  0.00     0.020 A 
ATOM     55  C   UNL A   1      38.966  34.590  39.321  1.00  0.00     0.020 A 
ATOM     56  C   UNL A   1      39.574  35.837  39.471  1.00  0.00     0.054 A 
BRANCH  56  57
ATOM     57  S   UNL A   1      38.995  36.995  40.743  1.00  0.00     0.124 S 
ATOM     58  O   UNL A   1      38.129  36.149  41.557  1.00  0.00    -0.237 OA
ATOM     59  O   UNL A   1      40.244  37.417  41.371  1.00  0.00    -0.237 OA
ATOM     60  O   UNL A   1      38.312  38.033  39.972  1.00  0.00    -0.744 OA
ENDBRANCH  56  57
ENDBRANCH  28  51
BRANCH  40  61
ATOM     61  C   UNL A   1      45.642  29.362  37.279  1.00  0.00    -0.014 A 
ATOM     62  C   UNL A   1      45.514  28.243  38.117  1.00  0.00     0.010 A 
ATOM     63  C   UNL A   1      46.816  30.136  37.327  1.00  0.00     0.010 A 
ATOM     64  C   UNL A   1      46.522  27.937  39.028  1.00  0.00     0.020 A 
ATOM     65  C   UNL A   1      47.849  29.801  38.196  1.00  0.00     0.020 A 
ATOM     66  C   UNL A   1      47.684  28.715  39.057  1.00  0.00     0.054 A 
BRANCH  66  67
ATOM     67  S   UNL A   1      48.992  28.273  40.226  1.00  0.00     0.124 S 
ATOM     68  O   UNL A   1      48.292  28.354  41.507  1.00  0.00    -0.237 OA
ATOM     69  O   UNL A   1      49.360  26.927  39.793  1.00  0.00    -0.237 OA
ATOM     70  O   UNL A   1      50.012  29.296  40.009  1.00  0.00    -0.744 OA
ENDBRANCH  66  67
ENDBRANCH  40  61
ENDBRANCH  14  15
ENDBRANCH   7   9
ENDBRANCH   6   7
ENDBRANCH   5   6
ENDBRANCH   4   5
ENDBRANCH   3   4
ENDBRANCH   2   3
ENDBRANCH   1   2
BRANCH   1  71
ATOM     71  O   UNL A   1      31.834  28.951  27.108  1.00  0.00    -0.376 OA
BRANCH  71  72
ATOM     72  C   UNL A   1      33.124  28.349  27.077  1.00  0.00     0.202 C 
BRANCH  72  73
ATOM     73  C   UNL A   1      33.694  27.737  25.752  1.00  0.00     0.261 C 
BRANCH  73  74
ATOM     74  O   UNL A   1      32.984  26.669  25.013  1.00  0.00    -0.460 OA
BRANCH  74  75
ATOM     75  C   UNL A   1      32.834  25.499  25.707  1.00  0.00     0.339 C 
ATOM     76  O   UNL A   1      31.857  25.294  26.426  1.00  0.00    -0.246 OA
BRANCH  75  77
ATOM     77  C   UNL A   1      33.958  24.375  25.669  1.00  0.00     0.080 A 
ATOM     78  C   UNL A   1      35.908  24.277  26.178  1.00  0.00     0.043 A 
ATOM     79  C   UNL A   1      33.559  23.500  24.122  1.00  0.00     0.055 A 
ATOM     80  C   UNL A   1      37.122  23.589  25.230  1.00  0.00     0.041 A 
ATOM     81  C   UNL A   1      34.897  22.716  23.221  1.00  0.00     0.023 A 
ATOM     82  Cl  UNL A   1      31.940  23.289  23.580  1.00  0.00    -0.083 Cl
ATOM     83  C   UNL A   1      36.617  22.783  23.766  1.00  0.00     0.028 A 
BRANCH  80  84
ATOM     84  N   UNL A   1      38.367  23.948  25.776  1.00  0.00    -0.332 N 
ATOM     85  H   UNL A   1      38.606  24.899  25.693  1.00  0.00     0.169 HD
BRANCH  84  86
ATOM     86  C   UNL A   1      39.312  23.149  26.420  1.00  0.00     0.177 C 
ATOM     87  S   UNL A   1      40.231  23.886  27.623  1.00  0.00    -0.040 S 
BRANCH  86  88
ATOM     88  N   UNL A   1      39.604  21.747  26.196  1.00  0.00    -0.299 N 
ATOM     89  C   UNL A   1      40.464  20.521  26.237  1.00  0.00     0.260 C 
ATOM     90  H   UNL A   1      38.771  21.415  25.790  1.00  0.00     0.172 HD
ATOM     91  O   UNL A   1      40.070  19.473  25.728  1.00  0.00    -0.269 OA
BRANCH  89  92
ATOM     92  C   UNL A   1      41.801  20.493  26.958  1.00  0.00     0.075 A 
ATOM     93  C   UNL A   1      42.015  18.861  27.551  1.00  0.00     0.017 A 
ATOM     94  C   UNL A   1      42.996  21.339  25.922  1.00  0.00     0.135 A 
ATOM     95  C   UNL A   1      43.367  17.915  26.875  1.00  0.00     0.001 A 
ATOM     96  C   UNL A   1      44.364  20.510  25.147  1.00  0.00     0.040 A 
ATOM     97  F   UNL A   1      42.398  22.204  25.091  1.00  0.00    -0.206 F 
ATOM     98  C   UNL A   1      44.597  18.767  25.514  1.00  0.00     0.003 A 
ENDBRANCH  89  92
ENDBRANCH  86  88
ENDBRANCH  84  86
ENDBRANCH  80  84
ENDBRANCH  75  77
ENDBRANCH  74  75
ENDBRANCH  73  74
ENDBRANCH  72  73
ENDBRANCH  71  72
ENDBRANCH   1  71
TORSDOF 24
ENDMDL
