MODEL 1
REMARK VINA RESULT:      -9.2      0.000      0.000
REMARK SMILES Cc1c(NCc2ccccn2)cccc1C(=O)N1CCOC[C@@H]1CC(=O)OCCOCCOCCOC(=O)c1ccc(-c2c3nc(c(-c4ccc(S(=O)(=O)[O-])cc4)c4ccc([nH]4)c(-c4ccc(S(=O)(=O)[O-])cc4)c4nc(c(-c5ccc(S(=O)(=O)[O-])cc5)c5ccc2[nH]5)C=C4)C=C3)cc1
REMARK SMILES IDX 30 1 29 2 28 3 27 4 25 5 26 6 24 7 23 8 18 9 19 10 20 11
REMARK SMILES IDX 22 12 21 13 16 14 17 15 15 16 1 17 2 18 3 19 12 20 14 21
REMARK SMILES IDX 13 22 4 23 5 25 6 26 7 27 11 28 8 29 10 30 9 31 31 32 32 33
REMARK SMILES IDX 33 34 34 35 35 36 36 37 37 38 38 39 39 40 40 41 98 42 41 43
REMARK SMILES IDX 97 44 42 45 43 46 44 47 91 48 45 49 96 50 90 51 92 52 46 53
REMARK SMILES IDX 95 54 89 55 88 56 47 58 77 59 58 60 76 61 59 62 62 63 75 64
REMARK SMILES IDX 93 65 60 66 61 67 74 69 94 70 63 71 48 72 49 73 57 74 50 75
REMARK SMILES IDX 56 76 51 77 52 78 53 79 54 80 55 81 78 82 79 83 87 84 80 85
REMARK SMILES IDX 86 86 81 87 82 88 83 89 84 90 85 91 64 92 65 93 73 94 66 95
REMARK SMILES IDX 72 96 67 97 68 98 69 99 70 100 71 101
REMARK H PARENT 4 24 92 57 62 68
REMARK Flexibility Score: inf
ROOT
ATOM      1  O   UNL A   1      38.254  21.851  26.195  1.00  0.00    -0.376 OA
ENDROOT
BRANCH   1   2
ATOM      2  C   UNL A   1      38.173  23.232  25.877  1.00  0.00     0.202 C 
BRANCH   2   3
ATOM      3  C   UNL A   1      36.794  23.744  25.387  1.00  0.00     0.261 C 
BRANCH   3   4
ATOM      4  O   UNL A   1      35.752  22.992  24.671  1.00  0.00    -0.463 OA
BRANCH   4   5
ATOM      5  C   UNL A   1      35.465  23.136  23.353  1.00  0.00     0.308 C 
ATOM      6  O   UNL A   1      36.308  23.085  22.522  1.00  0.00    -0.252 OA
BRANCH   5   7
ATOM      7  C   UNL A   1      33.949  23.454  23.061  1.00  0.00     0.150 C 
BRANCH   7   8
ATOM      8  C   UNL A   1      32.665  22.946  23.796  1.00  0.00     0.122 C 
ATOM      9  N   UNL A   1      31.872  24.000  24.409  1.00  0.00    -0.330 N 
ATOM     10  C   UNL A   1      30.682  23.513  25.104  1.00  0.00     0.148 C 
ATOM     11  C   UNL A   1      31.023  22.388  26.072  1.00  0.00     0.181 C 
ATOM     12  C   UNL A   1      32.757  21.645  24.694  1.00  0.00     0.185 C 
ATOM     13  O   UNL A   1      31.493  21.281  25.288  1.00  0.00    -0.377 OA
BRANCH   9  14
ATOM     14  C   UNL A   1      31.678  25.105  23.591  1.00  0.00     0.254 C 
ATOM     15  O   UNL A   1      31.070  25.018  22.529  1.00  0.00    -0.269 OA
BRANCH  14  16
ATOM     16  C   UNL A   1      32.400  26.352  23.979  1.00  0.00     0.045 A 
ATOM     17  C   UNL A   1      31.559  26.314  26.398  1.00  0.00     0.047 C 
ATOM     18  C   UNL A   1      32.343  26.942  25.267  1.00  0.00    -0.015 A 
ATOM     19  C   UNL A   1      33.097  28.115  25.510  1.00  0.00     0.038 A 
ATOM     20  C   UNL A   1      33.940  28.608  24.502  1.00  0.00     0.026 A 
ATOM     21  C   UNL A   1      33.258  26.871  22.994  1.00  0.00     0.014 A 
ATOM     22  C   UNL A   1      34.044  27.981  23.265  1.00  0.00     0.003 A 
BRANCH  19  23
ATOM     23  N   UNL A   1      33.019  28.742  26.739  1.00  0.00    -0.379 N 
ATOM     24  H   UNL A   1      32.808  28.181  27.521  1.00  0.00     0.160 HD
BRANCH  23  25
ATOM     25  C   UNL A   1      33.221  30.155  26.975  1.00  0.00     0.169 C 
BRANCH  25  26
ATOM     26  C   UNL A   1      34.612  30.451  27.499  1.00  0.00     0.059 A 
ATOM     27  C   UNL A   1      35.534  29.437  27.772  1.00  0.00     0.026 A 
ATOM     28  N   UNL A   1      34.903  31.758  27.728  1.00  0.00    -0.259 NA
ATOM     29  C   UNL A   1      36.784  29.762  28.280  1.00  0.00     0.004 A 
ATOM     30  C   UNL A   1      36.121  32.044  28.230  1.00  0.00     0.111 A 
ATOM     31  C   UNL A   1      37.086  31.093  28.519  1.00  0.00     0.020 A 
ENDBRANCH  25  26
ENDBRANCH  23  25
ENDBRANCH  19  23
ENDBRANCH  14  16
ENDBRANCH   9  14
ENDBRANCH   7   8
ENDBRANCH   5   7
ENDBRANCH   4   5
ENDBRANCH   3   4
ENDBRANCH   2   3
ENDBRANCH   1   2
BRANCH   1  32
ATOM     32  C   UNL A   1      39.045  20.950  25.427  1.00  0.00     0.188 C 
BRANCH  32  33
ATOM     33  C   UNL A   1      40.145  20.169  26.112  1.00  0.00     0.188 C 
BRANCH  33  34
ATOM     34  O   UNL A   1      41.448  20.722  26.093  1.00  0.00    -0.376 OA
BRANCH  34  35
ATOM     35  C   UNL A   1      41.616  21.837  26.963  1.00  0.00     0.202 C 
BRANCH  35  36
ATOM     36  C   UNL A   1      41.840  23.197  26.258  1.00  0.00     0.261 C 
BRANCH  36  37
ATOM     37  O   UNL A   1      41.817  24.269  27.246  1.00  0.00    -0.460 OA
BRANCH  37  38
ATOM     38  C   UNL A   1      41.215  25.415  27.629  1.00  0.00     0.338 C 
ATOM     39  O   UNL A   1      40.504  25.300  28.626  1.00  0.00    -0.246 OA
BRANCH  38  40
ATOM     40  C   UNL A   1      41.104  26.703  26.853  1.00  0.00     0.060 A 
ATOM     41  C   UNL A   1      41.982  26.962  25.788  1.00  0.00     0.016 A 
ATOM     42  C   UNL A   1      40.450  27.807  27.280  1.00  0.00     0.016 A 
ATOM     43  C   UNL A   1      42.559  28.237  25.518  1.00  0.00     0.010 A 
ATOM     44  C   UNL A   1      41.092  29.045  27.062  1.00  0.00     0.010 A 
ATOM     45  C   UNL A   1      42.286  29.286  26.368  1.00  0.00    -0.014 A 
BRANCH  45  46
ATOM     46  C   UNL A   1      43.401  30.115  27.028  1.00  0.00     0.031 A 
ATOM     47  C   UNL A   1      43.856  31.564  26.821  1.00  0.00     0.074 A 
ATOM     48  C   UNL A   1      43.874  29.521  28.159  1.00  0.00     0.049 A 
ATOM     49  N   UNL A   1      44.194  32.317  27.823  1.00  0.00    -0.248 NA
ATOM     50  C   UNL A   1      43.901  32.373  25.581  1.00  0.00     0.031 C 
ATOM     51  C   UNL A   1      44.644  30.045  29.286  1.00  0.00     0.029 A 
ATOM     52  N   UNL A   1      43.897  28.144  28.404  1.00  0.00    -0.354 N 
ATOM     53  C   UNL A   1      44.327  33.637  27.452  1.00  0.00     0.074 A 
ATOM     54  C   UNL A   1      44.058  33.644  26.037  1.00  0.00     0.031 C 
ATOM     55  C   UNL A   1      45.259  29.034  29.921  1.00  0.00     0.029 A 
ATOM     56  C   UNL A   1      45.091  27.867  29.083  1.00  0.00     0.049 A 
ATOM     57  H   UNL A   1      43.205  27.492  28.146  1.00  0.00     0.167 HD
ATOM     58  C   UNL A   1      44.818  34.530  28.369  1.00  0.00     0.031 A 
ATOM     59  C   UNL A   1      46.074  27.289  28.326  1.00  0.00     0.031 A 
ATOM     60  C   UNL A   1      45.867  33.839  29.123  1.00  0.00     0.049 A 
ATOM     61  C   UNL A   1      47.195  28.315  27.992  1.00  0.00     0.074 A 
ATOM     62  C   UNL A   1      46.162  33.449  30.413  1.00  0.00     0.029 A 
ATOM     63  N   UNL A   1      46.810  33.218  28.324  1.00  0.00    -0.354 N 
ATOM     64  N   UNL A   1      47.256  29.543  28.464  1.00  0.00    -0.248 NA
ATOM     65  C   UNL A   1      48.325  28.062  27.103  1.00  0.00     0.031 C 
ATOM     66  C   UNL A   1      47.219  32.467  30.331  1.00  0.00     0.029 A 
ATOM     67  C   UNL A   1      47.595  32.324  29.005  1.00  0.00     0.049 A 
ATOM     68  H   UNL A   1      46.908  33.400  27.361  1.00  0.00     0.167 HD
ATOM     69  C   UNL A   1      48.307  30.245  27.937  1.00  0.00     0.074 A 
ATOM     70  C   UNL A   1      48.956  29.255  27.088  1.00  0.00     0.031 C 
ATOM     71  C   UNL A   1      48.556  31.573  28.200  1.00  0.00     0.031 A 
BRANCH  58  72
ATOM     72  C   UNL A   1      44.455  35.995  28.582  1.00  0.00    -0.014 A 
ATOM     73  C   UNL A   1      43.303  36.532  27.951  1.00  0.00     0.010 A 
ATOM     74  C   UNL A   1      45.291  36.937  29.221  1.00  0.00     0.010 A 
ATOM     75  C   UNL A   1      42.996  37.911  27.955  1.00  0.00     0.020 A 
ATOM     76  C   UNL A   1      44.985  38.326  29.243  1.00  0.00     0.020 A 
ATOM     77  C   UNL A   1      43.840  38.806  28.603  1.00  0.00     0.054 A 
BRANCH  77  78
ATOM     78  S   UNL A   1      43.429  40.586  28.565  1.00  0.00     0.124 S 
ATOM     79  O   UNL A   1      42.591  40.743  29.752  1.00  0.00    -0.237 OA
ATOM     80  O   UNL A   1      44.743  41.220  28.641  1.00  0.00    -0.237 OA
ATOM     81  O   UNL A   1      42.733  40.757  27.292  1.00  0.00    -0.744 OA
ENDBRANCH  77  78
ENDBRANCH  58  72
BRANCH  59  82
ATOM     82  C   UNL A   1      45.493  26.101  27.549  1.00  0.00    -0.014 A 
ATOM     83  C   UNL A   1      45.434  26.227  26.122  1.00  0.00     0.010 A 
ATOM     84  C   UNL A   1      45.329  24.798  28.046  1.00  0.00     0.010 A 
ATOM     85  C   UNL A   1      45.338  25.124  25.244  1.00  0.00     0.020 A 
ATOM     86  C   UNL A   1      45.200  23.680  27.163  1.00  0.00     0.020 A 
ATOM     87  C   UNL A   1      45.239  23.841  25.767  1.00  0.00     0.054 A 
BRANCH  87  88
ATOM     88  S   UNL A   1      45.300  22.375  24.629  1.00  0.00     0.124 S 
ATOM     89  O   UNL A   1      45.137  21.252  25.547  1.00  0.00    -0.237 OA
ATOM     90  O   UNL A   1      44.201  22.573  23.687  1.00  0.00    -0.237 OA
ATOM     91  O   UNL A   1      46.622  22.497  24.019  1.00  0.00    -0.744 OA
ENDBRANCH  87  88
ENDBRANCH  59  82
BRANCH  71  92
ATOM     92  C   UNL A   1      49.702  32.352  27.566  1.00  0.00    -0.014 A 
ATOM     93  C   UNL A   1      49.523  33.121  26.411  1.00  0.00     0.010 A 
ATOM     94  C   UNL A   1      51.027  32.275  28.072  1.00  0.00     0.010 A 
ATOM     95  C   UNL A   1      50.565  33.897  25.886  1.00  0.00     0.020 A 
ATOM     96  C   UNL A   1      52.081  33.030  27.549  1.00  0.00     0.020 A 
ATOM     97  C   UNL A   1      51.828  33.875  26.480  1.00  0.00     0.054 A 
BRANCH  97  98
ATOM     98  S   UNL A   1      53.138  34.936  25.828  1.00  0.00     0.124 S 
ATOM     99  O   UNL A   1      53.007  36.141  26.644  1.00  0.00    -0.237 OA
ATOM    100  O   UNL A   1      54.328  34.129  26.086  1.00  0.00    -0.237 OA
ATOM    101  O   UNL A   1      52.788  35.099  24.420  1.00  0.00    -0.744 OA
ENDBRANCH  97  98
ENDBRANCH  71  92
ENDBRANCH  45  46
ENDBRANCH  38  40
ENDBRANCH  37  38
ENDBRANCH  36  37
ENDBRANCH  35  36
ENDBRANCH  34  35
ENDBRANCH  33  34
ENDBRANCH  32  33
ENDBRANCH   1  32
TORSDOF 26
ENDMDL
MODEL 2
REMARK VINA RESULT:      -9.1      8.360     12.486
REMARK SMILES Cc1c(NCc2ccccn2)cccc1C(=O)N1CCOC[C@@H]1CC(=O)OCCOCCOCCOC(=O)c1ccc(-c2c3nc(c(-c4ccc(S(=O)(=O)[O-])cc4)c4ccc([nH]4)c(-c4ccc(S(=O)(=O)[O-])cc4)c4nc(c(-c5ccc(S(=O)(=O)[O-])cc5)c5ccc2[nH]5)C=C4)C=C3)cc1
REMARK SMILES IDX 30 1 29 2 28 3 27 4 25 5 26 6 24 7 23 8 18 9 19 10 20 11
REMARK SMILES IDX 22 12 21 13 16 14 17 15 15 16 1 17 2 18 3 19 12 20 14 21
REMARK SMILES IDX 13 22 4 23 5 25 6 26 7 27 11 28 8 29 10 30 9 31 31 32 32 33
REMARK SMILES IDX 33 34 34 35 35 36 36 37 37 38 38 39 39 40 40 41 98 42 41 43
REMARK SMILES IDX 97 44 42 45 43 46 44 47 91 48 45 49 96 50 90 51 92 52 46 53
REMARK SMILES IDX 95 54 89 55 88 56 47 58 77 59 58 60 76 61 59 62 62 63 75 64
REMARK SMILES IDX 93 65 60 66 61 67 74 69 94 70 63 71 48 72 49 73 57 74 50 75
REMARK SMILES IDX 56 76 51 77 52 78 53 79 54 80 55 81 78 82 79 83 87 84 80 85
REMARK SMILES IDX 86 86 81 87 82 88 83 89 84 90 85 91 64 92 65 93 73 94 66 95
REMARK SMILES IDX 72 96 67 97 68 98 69 99 70 100 71 101
REMARK H PARENT 4 24 92 57 62 68
REMARK Flexibility Score: inf
ROOT
ATOM      1  O   UNL A   1      32.508  29.227  25.144  1.00  0.00    -0.376 OA
ENDROOT
BRANCH   1   2
ATOM      2  C   UNL A   1      31.372  29.148  24.298  1.00  0.00     0.202 C 
BRANCH   2   3
ATOM      3  C   UNL A   1      31.644  28.784  22.816  1.00  0.00     0.261 C 
BRANCH   3   4
ATOM      4  O   UNL A   1      32.481  27.695  22.290  1.00  0.00    -0.463 OA
BRANCH   4   5
ATOM      5  C   UNL A   1      32.010  26.492  21.875  1.00  0.00     0.308 C 
ATOM      6  O   UNL A   1      31.472  26.360  20.827  1.00  0.00    -0.252 OA
BRANCH   5   7
ATOM      7  C   UNL A   1      32.174  25.341  22.939  1.00  0.00     0.150 C 
BRANCH   7   8
ATOM      8  C   UNL A   1      31.725  25.297  24.437  1.00  0.00     0.122 C 
ATOM      9  N   UNL A   1      32.564  24.467  25.287  1.00  0.00    -0.330 N 
ATOM     10  C   UNL A   1      32.128  24.423  26.681  1.00  0.00     0.148 C 
ATOM     11  C   UNL A   1      30.649  24.079  26.791  1.00  0.00     0.181 C 
ATOM     12  C   UNL A   1      30.184  25.160  24.773  1.00  0.00     0.185 C 
ATOM     13  O   UNL A   1      29.916  25.158  26.191  1.00  0.00    -0.377 OA
BRANCH   9  14
ATOM     14  C   UNL A   1      33.925  24.658  25.091  1.00  0.00     0.254 C 
ATOM     15  O   UNL A   1      34.368  25.717  24.659  1.00  0.00    -0.269 OA
BRANCH  14  16
ATOM     16  C   UNL A   1      34.794  23.457  25.257  1.00  0.00     0.045 A 
ATOM     17  C   UNL A   1      33.072  21.837  24.270  1.00  0.00     0.047 C 
ATOM     18  C   UNL A   1      34.413  22.137  24.904  1.00  0.00    -0.015 A 
ATOM     19  C   UNL A   1      35.344  21.088  25.091  1.00  0.00     0.038 A 
ATOM     20  C   UNL A   1      36.639  21.394  25.538  1.00  0.00     0.026 A 
ATOM     21  C   UNL A   1      36.100  23.727  25.699  1.00  0.00     0.014 A 
ATOM     22  C   UNL A   1      37.026  22.701  25.814  1.00  0.00     0.003 A 
BRANCH  19  23
ATOM     23  N   UNL A   1      34.982  19.785  24.806  1.00  0.00    -0.379 N 
ATOM     24  H   UNL A   1      35.708  19.141  24.636  1.00  0.00     0.160 HD
BRANCH  23  25
ATOM     25  C   UNL A   1      33.626  19.287  24.735  1.00  0.00     0.169 C 
BRANCH  25  26
ATOM     26  C   UNL A   1      33.553  17.796  25.001  1.00  0.00     0.059 A 
ATOM     27  C   UNL A   1      34.659  16.958  24.837  1.00  0.00     0.026 A 
ATOM     28  N   UNL A   1      32.340  17.310  25.372  1.00  0.00    -0.259 NA
ATOM     29  C   UNL A   1      34.529  15.595  25.066  1.00  0.00     0.004 A 
ATOM     30  C   UNL A   1      32.240  15.981  25.579  1.00  0.00     0.111 A 
ATOM     31  C   UNL A   1      33.293  15.092  25.440  1.00  0.00     0.020 A 
ENDBRANCH  25  26
ENDBRANCH  23  25
ENDBRANCH  19  23
ENDBRANCH  14  16
ENDBRANCH   9  14
ENDBRANCH   7   8
ENDBRANCH   5   7
ENDBRANCH   4   5
ENDBRANCH   3   4
ENDBRANCH   2   3
ENDBRANCH   1   2
BRANCH   1  32
ATOM     32  C   UNL A   1      32.439  29.815  26.438  1.00  0.00     0.188 C 
BRANCH  32  33
ATOM     33  C   UNL A   1      33.688  30.421  27.040  1.00  0.00     0.188 C 
BRANCH  33  34
ATOM     34  O   UNL A   1      33.551  31.649  27.732  1.00  0.00    -0.376 OA
BRANCH  34  35
ATOM     35  C   UNL A   1      34.574  31.887  28.695  1.00  0.00     0.202 C 
BRANCH  35  36
ATOM     36  C   UNL A   1      34.337  33.102  29.624  1.00  0.00     0.261 C 
BRANCH  36  37
ATOM     37  O   UNL A   1      34.391  32.671  31.016  1.00  0.00    -0.460 OA
BRANCH  37  38
ATOM     38  C   UNL A   1      35.181  32.506  32.099  1.00  0.00     0.338 C 
ATOM     39  O   UNL A   1      34.772  33.074  33.110  1.00  0.00    -0.246 OA
BRANCH  38  40
ATOM     40  C   UNL A   1      36.583  31.952  32.142  1.00  0.00     0.060 A 
ATOM     41  C   UNL A   1      36.862  30.796  32.888  1.00  0.00     0.016 A 
ATOM     42  C   UNL A   1      37.694  32.640  31.796  1.00  0.00     0.016 A 
ATOM     43  C   UNL A   1      38.041  30.613  33.667  1.00  0.00     0.010 A 
ATOM     44  C   UNL A   1      38.817  32.490  32.637  1.00  0.00     0.010 A 
ATOM     45  C   UNL A   1      38.958  31.638  33.741  1.00  0.00    -0.014 A 
BRANCH  45  46
ATOM     46  C   UNL A   1      39.449  32.201  35.086  1.00  0.00     0.031 A 
ATOM     47  C   UNL A   1      38.695  32.646  36.344  1.00  0.00     0.074 A 
ATOM     48  C   UNL A   1      40.789  32.017  35.254  1.00  0.00     0.049 A 
ATOM     49  N   UNL A   1      39.140  32.372  37.532  1.00  0.00    -0.248 NA
ATOM     50  C   UNL A   1      37.381  33.319  36.470  1.00  0.00     0.031 C 
ATOM     51  C   UNL A   1      41.634  32.051  36.447  1.00  0.00     0.029 A 
ATOM     52  N   UNL A   1      41.735  31.953  34.226  1.00  0.00    -0.354 N 
ATOM     53  C   UNL A   1      38.202  32.638  38.505  1.00  0.00     0.074 A 
ATOM     54  C   UNL A   1      37.071  33.165  37.785  1.00  0.00     0.031 C 
ATOM     55  C   UNL A   1      42.910  32.265  36.089  1.00  0.00     0.029 A 
ATOM     56  C   UNL A   1      42.885  32.610  34.684  1.00  0.00     0.049 A 
ATOM     57  H   UNL A   1      41.614  31.527  33.346  1.00  0.00     0.167 HD
ATOM     58  C   UNL A   1      38.574  32.535  39.821  1.00  0.00     0.031 A 
ATOM     59  C   UNL A   1      43.084  33.863  34.173  1.00  0.00     0.031 A 
ATOM     60  C   UNL A   1      39.944  33.043  39.921  1.00  0.00     0.049 A 
ATOM     61  C   UNL A   1      42.759  34.954  35.233  1.00  0.00     0.074 A 
ATOM     62  C   UNL A   1      41.209  32.618  40.275  1.00  0.00     0.029 A 
ATOM     63  N   UNL A   1      40.121  34.287  39.343  1.00  0.00    -0.354 N 
ATOM     64  N   UNL A   1      42.444  34.713  36.489  1.00  0.00    -0.248 NA
ATOM     65  C   UNL A   1      42.748  36.393  34.980  1.00  0.00     0.031 C 
ATOM     66  C   UNL A   1      42.146  33.588  39.757  1.00  0.00     0.029 A 
ATOM     67  C   UNL A   1      41.438  34.618  39.158  1.00  0.00     0.049 A 
ATOM     68  H   UNL A   1      39.374  34.877  39.089  1.00  0.00     0.167 HD
ATOM     69  C   UNL A   1      42.130  35.859  37.170  1.00  0.00     0.074 A 
ATOM     70  C   UNL A   1      42.348  36.894  36.168  1.00  0.00     0.031 C 
ATOM     71  C   UNL A   1      41.689  35.885  38.474  1.00  0.00     0.031 A 
BRANCH  58  72
ATOM     72  C   UNL A   1      37.761  32.065  41.022  1.00  0.00    -0.014 A 
ATOM     73  C   UNL A   1      36.367  31.842  40.882  1.00  0.00     0.010 A 
ATOM     74  C   UNL A   1      38.254  32.010  42.344  1.00  0.00     0.010 A 
ATOM     75  C   UNL A   1      35.516  31.577  41.978  1.00  0.00     0.020 A 
ATOM     76  C   UNL A   1      37.409  31.731  43.454  1.00  0.00     0.020 A 
ATOM     77  C   UNL A   1      36.041  31.522  43.265  1.00  0.00     0.054 A 
BRANCH  77  78
ATOM     78  S   UNL A   1      34.910  31.206  44.663  1.00  0.00     0.124 S 
ATOM     79  O   UNL A   1      35.723  30.373  45.547  1.00  0.00    -0.237 OA
ATOM     80  O   UNL A   1      34.629  32.551  45.159  1.00  0.00    -0.237 OA
ATOM     81  O   UNL A   1      33.774  30.525  44.047  1.00  0.00    -0.744 OA
ENDBRANCH  77  78
ENDBRANCH  58  72
BRANCH  59  82
ATOM     82  C   UNL A   1      42.937  33.826  32.647  1.00  0.00    -0.014 A 
ATOM     83  C   UNL A   1      41.805  34.505  32.089  1.00  0.00     0.010 A 
ATOM     84  C   UNL A   1      43.951  33.494  31.733  1.00  0.00     0.010 A 
ATOM     85  C   UNL A   1      41.734  34.931  30.743  1.00  0.00     0.020 A 
ATOM     86  C   UNL A   1      43.871  33.895  30.362  1.00  0.00     0.020 A 
ATOM     87  C   UNL A   1      42.782  34.641  29.879  1.00  0.00     0.054 A 
BRANCH  87  88
ATOM     88  S   UNL A   1      42.786  35.353  28.164  1.00  0.00     0.124 S 
ATOM     89  O   UNL A   1      41.363  35.528  27.889  1.00  0.00    -0.237 OA
ATOM     90  O   UNL A   1      43.556  36.589  28.261  1.00  0.00    -0.237 OA
ATOM     91  O   UNL A   1      43.449  34.309  27.385  1.00  0.00    -0.744 OA
ENDBRANCH  87  88
ENDBRANCH  59  82
BRANCH  71  92
ATOM     92  C   UNL A   1      41.298  37.165  39.200  1.00  0.00    -0.014 A 
ATOM     93  C   UNL A   1      39.962  37.567  39.322  1.00  0.00     0.010 A 
ATOM     94  C   UNL A   1      42.272  38.055  39.726  1.00  0.00     0.010 A 
ATOM     95  C   UNL A   1      39.610  38.703  40.062  1.00  0.00     0.020 A 
ATOM     96  C   UNL A   1      41.937  39.201  40.452  1.00  0.00     0.020 A 
ATOM     97  C   UNL A   1      40.598  39.492  40.654  1.00  0.00     0.054 A 
BRANCH  97  98
ATOM     98  S   UNL A   1      40.117  40.914  41.662  1.00  0.00     0.124 S 
ATOM     99  O   UNL A   1      39.380  41.743  40.712  1.00  0.00    -0.237 OA
ATOM    100  O   UNL A   1      39.309  40.280  42.701  1.00  0.00    -0.237 OA
ATOM    101  O   UNL A   1      41.390  41.470  42.113  1.00  0.00    -0.744 OA
ENDBRANCH  97  98
ENDBRANCH  71  92
ENDBRANCH  45  46
ENDBRANCH  38  40
ENDBRANCH  37  38
ENDBRANCH  36  37
ENDBRANCH  35  36
ENDBRANCH  34  35
ENDBRANCH  33  34
ENDBRANCH  32  33
ENDBRANCH   1  32
TORSDOF 26
ENDMDL
MODEL 3
REMARK VINA RESULT:      -9.0      3.928     10.406
REMARK SMILES Cc1c(NCc2ccccn2)cccc1C(=O)N1CCOC[C@@H]1CC(=O)OCCOCCOCCOC(=O)c1ccc(-c2c3nc(c(-c4ccc(S(=O)(=O)[O-])cc4)c4ccc([nH]4)c(-c4ccc(S(=O)(=O)[O-])cc4)c4nc(c(-c5ccc(S(=O)(=O)[O-])cc5)c5ccc2[nH]5)C=C4)C=C3)cc1
REMARK SMILES IDX 30 1 29 2 28 3 27 4 25 5 26 6 24 7 23 8 18 9 19 10 20 11
REMARK SMILES IDX 22 12 21 13 16 14 17 15 15 16 1 17 2 18 3 19 12 20 14 21
REMARK SMILES IDX 13 22 4 23 5 25 6 26 7 27 11 28 8 29 10 30 9 31 31 32 32 33
REMARK SMILES IDX 33 34 34 35 35 36 36 37 37 38 38 39 39 40 40 41 98 42 41 43
REMARK SMILES IDX 97 44 42 45 43 46 44 47 91 48 45 49 96 50 90 51 92 52 46 53
REMARK SMILES IDX 95 54 89 55 88 56 47 58 77 59 58 60 76 61 59 62 62 63 75 64
REMARK SMILES IDX 93 65 60 66 61 67 74 69 94 70 63 71 48 72 49 73 57 74 50 75
REMARK SMILES IDX 56 76 51 77 52 78 53 79 54 80 55 81 78 82 79 83 87 84 80 85
REMARK SMILES IDX 86 86 81 87 82 88 83 89 84 90 85 91 64 92 65 93 73 94 66 95
REMARK SMILES IDX 72 96 67 97 68 98 69 99 70 100 71 101
REMARK H PARENT 4 24 92 57 62 68
REMARK Flexibility Score: inf
ROOT
ATOM      1  O   UNL A   1      35.931  32.702  28.400  1.00  0.00    -0.376 OA
ENDROOT
BRANCH   1   2
ATOM      2  C   UNL A   1      34.591  32.284  28.603  1.00  0.00     0.202 C 
BRANCH   2   3
ATOM      3  C   UNL A   1      34.216  30.887  28.045  1.00  0.00     0.261 C 
BRANCH   3   4
ATOM      4  O   UNL A   1      34.033  30.493  26.639  1.00  0.00    -0.463 OA
BRANCH   4   5
ATOM      5  C   UNL A   1      32.966  29.804  26.164  1.00  0.00     0.308 C 
ATOM      6  O   UNL A   1      31.854  30.111  26.432  1.00  0.00    -0.252 OA
BRANCH   5   7
ATOM      7  C   UNL A   1      33.355  28.536  25.312  1.00  0.00     0.150 C 
BRANCH   7   8
ATOM      8  C   UNL A   1      32.500  27.728  24.280  1.00  0.00     0.122 C 
ATOM      9  N   UNL A   1      33.025  26.406  23.976  1.00  0.00    -0.330 N 
ATOM     10  C   UNL A   1      32.226  25.666  23.001  1.00  0.00     0.148 C 
ATOM     11  C   UNL A   1      31.957  26.498  21.755  1.00  0.00     0.181 C 
ATOM     12  C   UNL A   1      31.933  28.472  23.003  1.00  0.00     0.185 C 
ATOM     13  O   UNL A   1      31.144  27.611  22.155  1.00  0.00    -0.377 OA
BRANCH   9  14
ATOM     14  C   UNL A   1      33.420  25.687  25.096  1.00  0.00     0.254 C 
ATOM     15  O   UNL A   1      34.523  25.851  25.607  1.00  0.00    -0.269 OA
BRANCH  14  16
ATOM     16  C   UNL A   1      32.512  24.586  25.531  1.00  0.00     0.045 A 
ATOM     17  C   UNL A   1      34.157  22.725  24.906  1.00  0.00     0.047 C 
ATOM     18  C   UNL A   1      32.824  23.205  25.433  1.00  0.00    -0.015 A 
ATOM     19  C   UNL A   1      31.881  22.262  25.907  1.00  0.00     0.038 A 
ATOM     20  C   UNL A   1      30.711  22.718  26.533  1.00  0.00     0.026 A 
ATOM     21  C   UNL A   1      31.332  25.007  26.167  1.00  0.00     0.014 A 
ATOM     22  C   UNL A   1      30.447  24.075  26.688  1.00  0.00     0.003 A 
BRANCH  19  23
ATOM     23  N   UNL A   1      32.134  20.909  25.775  1.00  0.00    -0.379 N 
ATOM     24  H   UNL A   1      32.229  20.385  26.604  1.00  0.00     0.160 HD
BRANCH  23  25
ATOM     25  C   UNL A   1      32.271  20.199  24.524  1.00  0.00     0.169 C 
BRANCH  25  26
ATOM     26  C   UNL A   1      32.901  18.832  24.711  1.00  0.00     0.059 A 
ATOM     27  C   UNL A   1      34.240  18.584  24.398  1.00  0.00     0.026 A 
ATOM     28  N   UNL A   1      32.081  17.848  25.164  1.00  0.00    -0.259 NA
ATOM     29  C   UNL A   1      34.758  17.306  24.561  1.00  0.00     0.004 A 
ATOM     30  C   UNL A   1      32.609  16.615  25.303  1.00  0.00     0.111 A 
ATOM     31  C   UNL A   1      33.926  16.297  25.018  1.00  0.00     0.020 A 
ENDBRANCH  25  26
ENDBRANCH  23  25
ENDBRANCH  19  23
ENDBRANCH  14  16
ENDBRANCH   9  14
ENDBRANCH   7   8
ENDBRANCH   5   7
ENDBRANCH   4   5
ENDBRANCH   3   4
ENDBRANCH   2   3
ENDBRANCH   1   2
BRANCH   1  32
ATOM     32  C   UNL A   1      36.799  32.996  29.490  1.00  0.00     0.188 C 
BRANCH  32  33
ATOM     33  C   UNL A   1      36.203  33.455  30.803  1.00  0.00     0.188 C 
BRANCH  33  34
ATOM     34  O   UNL A   1      36.469  32.670  31.951  1.00  0.00    -0.376 OA
BRANCH  34  35
ATOM     35  C   UNL A   1      37.814  32.209  32.037  1.00  0.00     0.202 C 
BRANCH  35  36
ATOM     36  C   UNL A   1      38.106  31.238  33.208  1.00  0.00     0.261 C 
BRANCH  36  37
ATOM     37  O   UNL A   1      38.956  30.150  32.739  1.00  0.00    -0.460 OA
BRANCH  37  38
ATOM     38  C   UNL A   1      39.422  29.490  31.657  1.00  0.00     0.338 C 
ATOM     39  O   UNL A   1      39.622  28.292  31.847  1.00  0.00    -0.246 OA
BRANCH  38  40
ATOM     40  C   UNL A   1      39.957  30.081  30.376  1.00  0.00     0.060 A 
ATOM     41  C   UNL A   1      39.723  29.437  29.151  1.00  0.00     0.016 A 
ATOM     42  C   UNL A   1      40.934  31.013  30.307  1.00  0.00     0.016 A 
ATOM     43  C   UNL A   1      40.687  29.329  28.108  1.00  0.00     0.010 A 
ATOM     44  C   UNL A   1      41.913  30.827  29.307  1.00  0.00     0.010 A 
ATOM     45  C   UNL A   1      41.949  29.844  28.308  1.00  0.00    -0.014 A 
BRANCH  45  46
ATOM     46  C   UNL A   1      43.219  28.999  28.110  1.00  0.00     0.031 A 
ATOM     47  C   UNL A   1      43.488  27.501  28.287  1.00  0.00     0.074 A 
ATOM     48  C   UNL A   1      44.175  29.676  27.413  1.00  0.00     0.049 A 
ATOM     49  N   UNL A   1      44.228  26.843  27.448  1.00  0.00    -0.248 NA
ATOM     50  C   UNL A   1      42.936  26.552  29.283  1.00  0.00     0.031 C 
ATOM     51  C   UNL A   1      45.362  29.218  26.692  1.00  0.00     0.029 A 
ATOM     52  N   UNL A   1      44.345  31.064  27.408  1.00  0.00    -0.354 N 
ATOM     53  C   UNL A   1      44.139  25.482  27.643  1.00  0.00     0.074 A 
ATOM     54  C   UNL A   1      43.250  25.334  28.767  1.00  0.00     0.031 C 
ATOM     55  C   UNL A   1      46.227  30.236  26.557  1.00  0.00     0.029 A 
ATOM     56  C   UNL A   1      45.725  31.308  27.388  1.00  0.00     0.049 A 
ATOM     57  H   UNL A   1      43.631  31.741  27.417  1.00  0.00     0.167 HD
ATOM     58  C   UNL A   1      44.971  24.660  26.928  1.00  0.00     0.031 A 
ATOM     59  C   UNL A   1      46.265  31.703  28.582  1.00  0.00     0.031 A 
ATOM     60  C   UNL A   1      46.268  25.336  26.837  1.00  0.00     0.049 A 
ATOM     61  C   UNL A   1      47.080  30.548  29.232  1.00  0.00     0.074 A 
ATOM     62  C   UNL A   1      47.134  25.845  25.891  1.00  0.00     0.029 A 
ATOM     63  N   UNL A   1      46.756  25.772  28.056  1.00  0.00    -0.354 N 
ATOM     64  N   UNL A   1      47.317  29.382  28.666  1.00  0.00    -0.248 NA
ATOM     65  C   UNL A   1      47.682  30.592  30.563  1.00  0.00     0.031 C 
ATOM     66  C   UNL A   1      48.061  26.711  26.582  1.00  0.00     0.029 A 
ATOM     67  C   UNL A   1      47.790  26.664  27.940  1.00  0.00     0.049 A 
ATOM     68  H   UNL A   1      46.395  25.471  28.922  1.00  0.00     0.167 HD
ATOM     69  C   UNL A   1      47.989  28.532  29.503  1.00  0.00     0.074 A 
ATOM     70  C   UNL A   1      48.202  29.353  30.687  1.00  0.00     0.031 C 
ATOM     71  C   UNL A   1      48.294  27.226  29.192  1.00  0.00     0.031 A 
BRANCH  58  72
ATOM     72  C   UNL A   1      44.707  23.269  26.364  1.00  0.00    -0.014 A 
ATOM     73  C   UNL A   1      43.417  22.693  26.493  1.00  0.00     0.010 A 
ATOM     74  C   UNL A   1      45.711  22.404  25.876  1.00  0.00     0.010 A 
ATOM     75  C   UNL A   1      43.137  21.350  26.156  1.00  0.00     0.020 A 
ATOM     76  C   UNL A   1      45.438  21.054  25.522  1.00  0.00     0.020 A 
ATOM     77  C   UNL A   1      44.151  20.532  25.670  1.00  0.00     0.054 A 
BRANCH  77  78
ATOM     78  S   UNL A   1      43.763  18.792  25.272  1.00  0.00     0.124 S 
ATOM     79  O   UNL A   1      44.667  18.512  24.159  1.00  0.00    -0.237 OA
ATOM     80  O   UNL A   1      44.076  18.100  26.519  1.00  0.00    -0.237 OA
ATOM     81  O   UNL A   1      42.345  18.822  24.921  1.00  0.00    -0.744 OA
ENDBRANCH  77  78
ENDBRANCH  58  72
BRANCH  59  82
ATOM     82  C   UNL A   1      45.426  32.841  29.176  1.00  0.00    -0.014 A 
ATOM     83  C   UNL A   1      44.739  32.565  30.404  1.00  0.00     0.010 A 
ATOM     84  C   UNL A   1      45.525  34.199  28.833  1.00  0.00     0.010 A 
ATOM     85  C   UNL A   1      44.287  33.570  31.289  1.00  0.00     0.020 A 
ATOM     86  C   UNL A   1      45.042  35.221  29.710  1.00  0.00     0.020 A 
ATOM     87  C   UNL A   1      44.457  34.906  30.949  1.00  0.00     0.054 A 
BRANCH  87  88
ATOM     88  S   UNL A   1      44.038  36.231  32.181  1.00  0.00     0.124 S 
ATOM     89  O   UNL A   1      45.291  36.394  32.911  1.00  0.00    -0.237 OA
ATOM     90  O   UNL A   1      43.629  37.383  31.384  1.00  0.00    -0.237 OA
ATOM     91  O   UNL A   1      42.945  35.628  32.941  1.00  0.00    -0.744 OA
ENDBRANCH  87  88
ENDBRANCH  59  82
BRANCH  71  92
ATOM     92  C   UNL A   1      48.999  26.278  30.154  1.00  0.00    -0.014 A 
ATOM     93  C   UNL A   1      50.215  25.666  29.829  1.00  0.00     0.010 A 
ATOM     94  C   UNL A   1      48.422  25.910  31.398  1.00  0.00     0.010 A 
ATOM     95  C   UNL A   1      50.893  24.862  30.754  1.00  0.00     0.020 A 
ATOM     96  C   UNL A   1      49.078  25.095  32.324  1.00  0.00     0.020 A 
ATOM     97  C   UNL A   1      50.338  24.611  32.010  1.00  0.00     0.054 A 
BRANCH  97  98
ATOM     98  S   UNL A   1      51.262  23.628  33.213  1.00  0.00     0.124 S 
ATOM     99  O   UNL A   1      52.583  24.249  33.184  1.00  0.00    -0.237 OA
ATOM    100  O   UNL A   1      50.490  23.850  34.433  1.00  0.00    -0.237 OA
ATOM    101  O   UNL A   1      51.202  22.271  32.676  1.00  0.00    -0.744 OA
ENDBRANCH  97  98
ENDBRANCH  71  92
ENDBRANCH  45  46
ENDBRANCH  38  40
ENDBRANCH  37  38
ENDBRANCH  36  37
ENDBRANCH  35  36
ENDBRANCH  34  35
ENDBRANCH  33  34
ENDBRANCH  32  33
ENDBRANCH   1  32
TORSDOF 26
ENDMDL
