MODEL 1
REMARK VINA RESULT:     -11.4      0.000      0.000
REMARK SMILES Cc1cccc(-c2ncc(C[NH+]3CCC4(CC3)NC(=O)C[C@H]4C(=O)OCCOCCOCCOC(=O)c3ccc(-c4c5nc(c(-c6ccc(S(=O)(=O)[O-])cc6)c6ccc([nH]6)c(-c6ccc(S(=O)(=O)[O-])cc6)c6nc(c(-c7ccc(S(=O)(=O)[O-])cc7)c7ccc4[nH]7)C=C6)C=C5)cc3)cn2)c1
REMARK SMILES IDX 29 1 28 2 27 3 26 4 25 5 23 6 24 7 22 8 12 9 13 10 17 11
REMARK SMILES IDX 14 13 16 14 15 15 18 16 19 17 21 19 20 20 11 21 10 22 7 23
REMARK SMILES IDX 8 24 98 25 9 26 97 27 6 28 1 29 2 30 3 31 99 32 4 33 5 34
REMARK SMILES IDX 30 35 31 36 32 37 33 38 34 39 35 40 36 41 37 42 38 43 96 44
REMARK SMILES IDX 39 45 95 46 40 47 41 48 42 49 89 50 43 51 94 52 88 53 90 54
REMARK SMILES IDX 44 55 93 56 87 57 86 58 45 60 75 61 56 62 74 63 57 64 60 65
REMARK SMILES IDX 73 66 91 67 58 68 59 69 72 71 92 72 61 73 46 74 47 75 55 76
REMARK SMILES IDX 48 77 54 78 49 79 50 80 51 81 52 82 53 83 76 84 77 85 85 86
REMARK SMILES IDX 78 87 84 88 79 89 80 90 81 91 82 92 83 93 62 94 63 95 71 96
REMARK SMILES IDX 64 97 70 98 65 99 66 100 67 101 68 102 69 103
REMARK H PARENT 12 12 18 18 90 59 60 70
REMARK Flexibility Score: inf
ROOT
ATOM      1  C   UNL A   1      39.064  24.580  26.876  1.00  0.00     0.188 C 
ENDROOT
BRANCH   1   2
ATOM      2  O   UNL A   1      38.420  23.861  25.787  1.00  0.00    -0.376 OA
BRANCH   2   3
ATOM      3  C   UNL A   1      37.672  22.613  25.719  1.00  0.00     0.202 C 
BRANCH   3   4
ATOM      4  C   UNL A   1      36.333  21.943  24.722  1.00  0.00     0.261 C 
BRANCH   4   5
ATOM      5  O   UNL A   1      34.533  21.473  24.822  1.00  0.00    -0.463 OA
BRANCH   5   6
ATOM      6  C   UNL A   1      33.031  21.910  24.882  1.00  0.00     0.311 C 
ATOM      7  O   UNL A   1      32.268  21.990  25.867  1.00  0.00    -0.252 OA
BRANCH   6   8
ATOM      8  C   UNL A   1      32.380  22.612  23.777  1.00  0.00     0.134 C 
ATOM      9  N   UNL A   1      30.697  26.574  26.333  1.00  0.00    -0.331 N 
ATOM     10  C   UNL A   1      29.901  25.648  25.177  1.00  0.00     0.264 C 
ATOM     11  C   UNL A   1      32.118  25.495  27.059  1.00  0.00     0.264 C 
ATOM     12  H   UNL A   1      30.184  26.859  27.169  1.00  0.00     0.348 HD
ATOM     13  C   UNL A   1      30.697  24.749  23.808  1.00  0.00     0.091 C 
ATOM     14  C   UNL A   1      33.473  24.593  25.527  1.00  0.00     0.091 C 
ATOM     15  C   UNL A   1      32.458  24.097  23.896  1.00  0.00     0.064 C 
ATOM     16  N   UNL A   1      33.036  24.387  22.606  1.00  0.00    -0.349 N 
ATOM     17  C   UNL A   1      33.099  23.320  21.721  1.00  0.00     0.221 C 
ATOM     18  H   UNL A   1      33.365  25.285  22.369  1.00  0.00     0.164 HD
ATOM     19  C   UNL A   1      32.599  22.095  22.388  1.00  0.00     0.117 C 
ATOM     20  O   UNL A   1      33.463  23.380  20.559  1.00  0.00    -0.275 OA
BRANCH   9  21
ATOM     21  C   UNL A   1      31.107  28.054  25.454  1.00  0.00     0.302 C 
BRANCH  21  22
ATOM     22  C   UNL A   1      32.382  29.135  25.700  1.00  0.00     0.043 A 
ATOM     23  C   UNL A   1      34.576  30.135  27.183  1.00  0.00     0.159 A 
ATOM     24  N   UNL A   1      34.791  29.223  26.207  1.00  0.00    -0.236 NA
ATOM     25  N   UNL A   1      33.403  30.782  27.251  1.00  0.00    -0.236 NA
ATOM     26  C   UNL A   1      33.710  28.832  25.429  1.00  0.00     0.124 A 
ATOM     27  C   UNL A   1      32.363  30.297  26.473  1.00  0.00     0.124 A 
BRANCH  23  28
ATOM     28  C   UNL A   1      35.662  30.445  28.196  1.00  0.00     0.019 A 
ATOM     29  C   UNL A   1      37.848  33.440  29.379  1.00  0.00     0.044 C 
ATOM     30  C   UNL A   1      37.263  32.051  29.296  1.00  0.00    -0.050 A 
ATOM     31  C   UNL A   1      37.569  31.107  30.262  1.00  0.00     0.003 A 
ATOM     32  C   UNL A   1      36.344  31.686  28.284  1.00  0.00     0.015 A 
ATOM     33  C   UNL A   1      37.008  29.834  30.167  1.00  0.00     0.001 A 
ATOM     34  C   UNL A   1      36.083  29.507  29.149  1.00  0.00     0.012 A 
ENDBRANCH  23  28
ENDBRANCH  21  22
ENDBRANCH   9  21
ENDBRANCH   6   8
ENDBRANCH   5   6
ENDBRANCH   4   5
ENDBRANCH   3   4
ENDBRANCH   2   3
ENDBRANCH   1   2
BRANCH   1  35
ATOM     35  C   UNL A   1      40.416  24.152  27.468  1.00  0.00     0.188 C 
BRANCH  35  36
ATOM     36  O   UNL A   1      40.380  22.794  27.859  1.00  0.00    -0.376 OA
BRANCH  36  37
ATOM     37  C   UNL A   1      41.155  21.845  27.135  1.00  0.00     0.202 C 
BRANCH  37  38
ATOM     38  C   UNL A   1      41.838  22.200  25.789  1.00  0.00     0.261 C 
BRANCH  38  39
ATOM     39  O   UNL A   1      42.976  23.172  25.554  1.00  0.00    -0.460 OA
BRANCH  39  40
ATOM     40  C   UNL A   1      44.199  23.769  25.442  1.00  0.00     0.338 C 
ATOM     41  O   UNL A   1      44.603  23.845  24.291  1.00  0.00    -0.246 OA
BRANCH  40  42
ATOM     42  C   UNL A   1      45.048  24.277  26.751  1.00  0.00     0.060 A 
ATOM     43  C   UNL A   1      44.976  23.771  28.539  1.00  0.00     0.016 A 
ATOM     44  C   UNL A   1      44.706  25.790  26.492  1.00  0.00     0.016 A 
ATOM     45  C   UNL A   1      44.181  25.084  29.783  1.00  0.00     0.010 A 
ATOM     46  C   UNL A   1      44.029  26.816  27.607  1.00  0.00     0.010 A 
ATOM     47  C   UNL A   1      43.822  26.756  29.259  1.00  0.00    -0.014 A 
BRANCH  47  48
ATOM     48  C   UNL A   1      44.145  28.462  30.028  1.00  0.00     0.031 A 
ATOM     49  C   UNL A   1      42.923  29.627  30.950  1.00  0.00     0.074 A 
ATOM     50  C   UNL A   1      45.396  28.936  30.136  1.00  0.00     0.049 A 
ATOM     51  N   UNL A   1      42.464  30.795  30.520  1.00  0.00    -0.248 NA
ATOM     52  C   UNL A   1      41.700  29.216  32.027  1.00  0.00     0.031 C 
ATOM     53  C   UNL A   1      45.893  30.050  30.944  1.00  0.00     0.029 A 
ATOM     54  N   UNL A   1      46.541  28.444  29.538  1.00  0.00    -0.354 N 
ATOM     55  C   UNL A   1      41.294  31.135  31.276  1.00  0.00     0.074 A 
ATOM     56  C   UNL A   1      40.664  29.948  31.664  1.00  0.00     0.031 C 
ATOM     57  C   UNL A   1      47.129  30.368  30.505  1.00  0.00     0.029 A 
ATOM     58  C   UNL A   1      47.377  29.544  29.327  1.00  0.00     0.049 A 
ATOM     59  H   UNL A   1      46.730  27.506  29.306  1.00  0.00     0.167 HD
ATOM     60  C   UNL A   1      41.214  32.227  32.098  1.00  0.00     0.031 A 
ATOM     61  C   UNL A   1      47.463  29.967  28.033  1.00  0.00     0.031 A 
ATOM     62  C   UNL A   1      42.476  32.902  31.970  1.00  0.00     0.049 A 
ATOM     63  C   UNL A   1      46.739  31.294  27.925  1.00  0.00     0.074 A 
ATOM     64  C   UNL A   1      43.656  32.812  32.686  1.00  0.00     0.029 A 
ATOM     65  N   UNL A   1      42.807  33.285  30.690  1.00  0.00    -0.354 N 
ATOM     66  N   UNL A   1      45.710  31.663  28.652  1.00  0.00    -0.248 NA
ATOM     67  C   UNL A   1      47.291  32.387  27.138  1.00  0.00     0.031 C 
ATOM     68  C   UNL A   1      44.718  33.093  31.770  1.00  0.00     0.029 A 
ATOM     69  C   UNL A   1      44.170  33.345  30.521  1.00  0.00     0.049 A 
ATOM     70  H   UNL A   1      42.151  33.492  29.985  1.00  0.00     0.167 HD
ATOM     71  C   UNL A   1      45.520  33.012  28.513  1.00  0.00     0.074 A 
ATOM     72  C   UNL A   1      46.524  33.411  27.540  1.00  0.00     0.031 C 
ATOM     73  C   UNL A   1      44.634  33.780  29.217  1.00  0.00     0.031 A 
BRANCH  60  74
ATOM     74  C   UNL A   1      40.216  32.412  33.258  1.00  0.00    -0.014 A 
ATOM     75  C   UNL A   1      40.670  33.045  34.429  1.00  0.00     0.010 A 
ATOM     76  C   UNL A   1      38.850  32.018  33.282  1.00  0.00     0.010 A 
ATOM     77  C   UNL A   1      39.844  33.249  35.550  1.00  0.00     0.020 A 
ATOM     78  C   UNL A   1      38.022  32.170  34.418  1.00  0.00     0.020 A 
ATOM     79  C   UNL A   1      38.523  32.808  35.544  1.00  0.00     0.054 A 
BRANCH  79  80
ATOM     80  S   UNL A   1      37.476  33.139  36.989  1.00  0.00     0.124 S 
ATOM     81  O   UNL A   1      36.266  33.693  36.386  1.00  0.00    -0.237 OA
ATOM     82  O   UNL A   1      37.331  31.811  37.579  1.00  0.00    -0.237 OA
ATOM     83  O   UNL A   1      38.257  34.087  37.781  1.00  0.00    -0.744 OA
ENDBRANCH  79  80
ENDBRANCH  60  74
BRANCH  61  84
ATOM     84  C   UNL A   1      47.487  28.777  27.092  1.00  0.00    -0.014 A 
ATOM     85  C   UNL A   1      46.639  28.869  25.951  1.00  0.00     0.010 A 
ATOM     86  C   UNL A   1      48.585  27.895  27.009  1.00  0.00     0.010 A 
ATOM     87  C   UNL A   1      46.957  28.239  24.739  1.00  0.00     0.020 A 
ATOM     88  C   UNL A   1      48.893  27.238  25.793  1.00  0.00     0.020 A 
ATOM     89  C   UNL A   1      48.109  27.463  24.655  1.00  0.00     0.054 A 
BRANCH  89  90
ATOM     90  S   UNL A   1      48.618  26.870  23.010  1.00  0.00     0.124 S 
ATOM     91  O   UNL A   1      50.057  27.129  23.006  1.00  0.00    -0.237 OA
ATOM     92  O   UNL A   1      48.245  25.456  23.074  1.00  0.00    -0.237 OA
ATOM     93  O   UNL A   1      47.846  27.702  22.095  1.00  0.00    -0.744 OA
ENDBRANCH  89  90
ENDBRANCH  61  84
BRANCH  73  94
ATOM     94  C   UNL A   1      44.050  35.079  28.690  1.00  0.00    -0.014 A 
ATOM     95  C   UNL A   1      43.144  35.135  27.628  1.00  0.00     0.010 A 
ATOM     96  C   UNL A   1      44.271  36.292  29.399  1.00  0.00     0.010 A 
ATOM     97  C   UNL A   1      42.594  36.348  27.215  1.00  0.00     0.020 A 
ATOM     98  C   UNL A   1      43.630  37.481  29.076  1.00  0.00     0.020 A 
ATOM     99  C   UNL A   1      42.847  37.513  27.938  1.00  0.00     0.054 A 
BRANCH  99 100
ATOM    100  S   UNL A   1      42.171  39.075  27.361  1.00  0.00     0.124 S 
ATOM    101  O   UNL A   1      41.636  39.633  28.601  1.00  0.00    -0.237 OA
ATOM    102  O   UNL A   1      43.345  39.755  26.820  1.00  0.00    -0.237 OA
ATOM    103  O   UNL A   1      41.174  38.677  26.370  1.00  0.00    -0.744 OA
ENDBRANCH  99 100
ENDBRANCH  73  94
ENDBRANCH  47  48
ENDBRANCH  40  42
ENDBRANCH  39  40
ENDBRANCH  38  39
ENDBRANCH  37  38
ENDBRANCH  36  37
ENDBRANCH  35  36
ENDBRANCH   1  35
TORSDOF 23
ENDMDL
MODEL 2
REMARK VINA RESULT:     -11.0      6.062     10.975
REMARK SMILES Cc1cccc(-c2ncc(C[NH+]3CCC4(CC3)NC(=O)C[C@H]4C(=O)OCCOCCOCCOC(=O)c3ccc(-c4c5nc(c(-c6ccc(S(=O)(=O)[O-])cc6)c6ccc([nH]6)c(-c6ccc(S(=O)(=O)[O-])cc6)c6nc(c(-c7ccc(S(=O)(=O)[O-])cc7)c7ccc4[nH]7)C=C6)C=C5)cc3)cn2)c1
REMARK SMILES IDX 29 1 28 2 27 3 26 4 25 5 23 6 24 7 22 8 12 9 13 10 17 11
REMARK SMILES IDX 14 13 16 14 15 15 18 16 19 17 21 19 20 20 11 21 10 22 7 23
REMARK SMILES IDX 8 24 98 25 9 26 97 27 6 28 1 29 2 30 3 31 99 32 4 33 5 34
REMARK SMILES IDX 30 35 31 36 32 37 33 38 34 39 35 40 36 41 37 42 38 43 96 44
REMARK SMILES IDX 39 45 95 46 40 47 41 48 42 49 89 50 43 51 94 52 88 53 90 54
REMARK SMILES IDX 44 55 93 56 87 57 86 58 45 60 75 61 56 62 74 63 57 64 60 65
REMARK SMILES IDX 73 66 91 67 58 68 59 69 72 71 92 72 61 73 46 74 47 75 55 76
REMARK SMILES IDX 48 77 54 78 49 79 50 80 51 81 52 82 53 83 76 84 77 85 85 86
REMARK SMILES IDX 78 87 84 88 79 89 80 90 81 91 82 92 83 93 62 94 63 95 71 96
REMARK SMILES IDX 64 97 70 98 65 99 66 100 67 101 68 102 69 103
REMARK H PARENT 12 12 18 18 90 59 60 70
REMARK Flexibility Score: inf
ROOT
ATOM      1  C   UNL A   1      37.356  23.768  25.728  1.00  0.00     0.188 C 
ENDROOT
BRANCH   1   2
ATOM      2  O   UNL A   1      35.924  24.013  25.799  1.00  0.00    -0.376 OA
BRANCH   2   3
ATOM      3  C   UNL A   1      34.766  23.137  25.924  1.00  0.00     0.202 C 
BRANCH   3   4
ATOM      4  C   UNL A   1      33.157  22.977  25.138  1.00  0.00     0.261 C 
BRANCH   4   5
ATOM      5  O   UNL A   1      31.574  23.915  24.847  1.00  0.00    -0.463 OA
BRANCH   5   6
ATOM      6  C   UNL A   1      30.836  25.285  24.671  1.00  0.00     0.311 C 
ATOM      7  O   UNL A   1      29.956  25.808  25.385  1.00  0.00    -0.252 OA
BRANCH   6   8
ATOM      8  C   UNL A   1      31.328  26.324  23.767  1.00  0.00     0.134 C 
ATOM      9  N   UNL A   1      32.089  29.928  27.156  1.00  0.00    -0.331 N 
ATOM     10  C   UNL A   1      31.381  30.042  25.635  1.00  0.00     0.264 C 
ATOM     11  C   UNL A   1      31.952  28.091  27.721  1.00  0.00     0.264 C 
ATOM     12  H   UNL A   1      31.660  30.433  27.934  1.00  0.00     0.348 HD
ATOM     13  C   UNL A   1      31.756  28.973  24.210  1.00  0.00     0.091 C 
ATOM     14  C   UNL A   1      32.731  26.606  26.243  1.00  0.00     0.091 C 
ATOM     15  C   UNL A   1      32.362  27.202  24.386  1.00  0.00     0.064 C 
ATOM     16  N   UNL A   1      33.397  27.052  23.393  1.00  0.00    -0.349 N 
ATOM     17  C   UNL A   1      33.023  26.397  22.228  1.00  0.00     0.221 C 
ATOM     18  H   UNL A   1      34.311  27.394  23.532  1.00  0.00     0.164 HD
ATOM     19  C   UNL A   1      31.618  25.941  22.347  1.00  0.00     0.117 C 
ATOM     20  O   UNL A   1      33.720  26.253  21.238  1.00  0.00    -0.275 OA
BRANCH   9  21
ATOM     21  C   UNL A   1      33.693  30.633  26.911  1.00  0.00     0.302 C 
BRANCH  21  22
ATOM     22  C   UNL A   1      34.553  31.717  27.880  1.00  0.00     0.043 A 
ATOM     23  C   UNL A   1      34.923  33.217  30.252  1.00  0.00     0.159 A 
ATOM     24  N   UNL A   1      35.484  31.991  30.144  1.00  0.00    -0.236 NA
ATOM     25  N   UNL A   1      34.460  33.842  29.158  1.00  0.00    -0.236 NA
ATOM     26  C   UNL A   1      35.373  31.326  28.931  1.00  0.00     0.124 A 
ATOM     27  C   UNL A   1      34.339  33.091  28.000  1.00  0.00     0.124 A 
BRANCH  23  28
ATOM     28  C   UNL A   1      34.828  33.901  31.602  1.00  0.00     0.019 A 
ATOM     29  C   UNL A   1      36.375  33.665  35.166  1.00  0.00     0.044 C 
ATOM     30  C   UNL A   1      35.535  34.148  34.009  1.00  0.00    -0.050 A 
ATOM     31  C   UNL A   1      34.820  35.330  34.113  1.00  0.00     0.003 A 
ATOM     32  C   UNL A   1      35.497  33.461  32.773  1.00  0.00     0.015 A 
ATOM     33  C   UNL A   1      34.058  35.759  33.027  1.00  0.00     0.001 A 
ATOM     34  C   UNL A   1      34.054  35.053  31.801  1.00  0.00     0.012 A 
ENDBRANCH  23  28
ENDBRANCH  21  22
ENDBRANCH   9  21
ENDBRANCH   6   8
ENDBRANCH   5   6
ENDBRANCH   4   5
ENDBRANCH   3   4
ENDBRANCH   2   3
ENDBRANCH   1   2
BRANCH   1  35
ATOM     35  C   UNL A   1      38.324  24.175  26.849  1.00  0.00     0.188 C 
BRANCH  35  36
ATOM     36  O   UNL A   1      39.641  24.301  26.348  1.00  0.00    -0.376 OA
BRANCH  36  37
ATOM     37  C   UNL A   1      40.566  25.133  27.039  1.00  0.00     0.202 C 
BRANCH  37  38
ATOM     38  C   UNL A   1      40.156  26.509  27.623  1.00  0.00     0.261 C 
BRANCH  38  39
ATOM     39  O   UNL A   1      40.990  27.772  27.695  1.00  0.00    -0.460 OA
BRANCH  39  40
ATOM     40  C   UNL A   1      42.000  28.691  27.652  1.00  0.00     0.338 C 
ATOM     41  O   UNL A   1      42.498  28.819  26.543  1.00  0.00    -0.246 OA
BRANCH  40  42
ATOM     42  C   UNL A   1      42.512  29.492  28.990  1.00  0.00     0.060 A 
ATOM     43  C   UNL A   1      43.730  30.881  29.204  1.00  0.00     0.016 A 
ATOM     44  C   UNL A   1      42.904  28.165  29.738  1.00  0.00     0.016 A 
ATOM     45  C   UNL A   1      45.454  30.403  30.041  1.00  0.00     0.010 A 
ATOM     46  C   UNL A   1      44.391  27.856  30.406  1.00  0.00     0.010 A 
ATOM     47  C   UNL A   1      45.704  28.803  30.799  1.00  0.00    -0.014 A 
BRANCH  47  48
ATOM     48  C   UNL A   1      46.450  28.246  32.454  1.00  0.00     0.031 A 
ATOM     49  C   UNL A   1      47.953  27.089  32.777  1.00  0.00     0.074 A 
ATOM     50  C   UNL A   1      46.046  28.803  33.607  1.00  0.00     0.049 A 
ATOM     51  N   UNL A   1      47.918  25.869  33.297  1.00  0.00    -0.248 NA
ATOM     52  C   UNL A   1      49.403  27.000  31.932  1.00  0.00     0.031 C 
ATOM     53  C   UNL A   1      46.679  28.750  34.926  1.00  0.00     0.029 A 
ATOM     54  N   UNL A   1      44.947  29.613  33.815  1.00  0.00    -0.354 N 
ATOM     55  C   UNL A   1      49.150  25.204  32.990  1.00  0.00     0.074 A 
ATOM     56  C   UNL A   1      49.630  25.710  31.778  1.00  0.00     0.031 C 
ATOM     57  C   UNL A   1      45.778  29.171  35.839  1.00  0.00     0.029 A 
ATOM     58  C   UNL A   1      44.522  29.370  35.123  1.00  0.00     0.049 A 
ATOM     59  H   UNL A   1      44.543  30.238  33.170  1.00  0.00     0.167 HD
ATOM     60  C   UNL A   1      50.047  24.796  33.940  1.00  0.00     0.031 A 
ATOM     61  C   UNL A   1      43.387  28.622  35.235  1.00  0.00     0.031 A 
ATOM     62  C   UNL A   1      49.455  25.135  35.204  1.00  0.00     0.049 A 
ATOM     63  C   UNL A   1      43.775  27.261  35.777  1.00  0.00     0.074 A 
ATOM     64  C   UNL A   1      49.555  26.256  36.007  1.00  0.00     0.029 A 
ATOM     65  N   UNL A   1      48.219  24.577  35.439  1.00  0.00    -0.354 N 
ATOM     66  N   UNL A   1      44.922  26.657  35.574  1.00  0.00    -0.248 NA
ATOM     67  C   UNL A   1      42.963  26.599  36.789  1.00  0.00     0.031 C 
ATOM     68  C   UNL A   1      48.304  26.390  36.688  1.00  0.00     0.029 A 
ATOM     69  C   UNL A   1      47.470  25.356  36.288  1.00  0.00     0.049 A 
ATOM     70  H   UNL A   1      47.910  23.727  35.049  1.00  0.00     0.167 HD
ATOM     71  C   UNL A   1      45.047  25.616  36.456  1.00  0.00     0.074 A 
ATOM     72  C   UNL A   1      43.786  25.614  37.179  1.00  0.00     0.031 C 
ATOM     73  C   UNL A   1      46.160  24.843  36.639  1.00  0.00     0.031 A 
BRANCH  60  74
ATOM     74  C   UNL A   1      51.544  24.509  33.703  1.00  0.00    -0.014 A 
ATOM     75  C   UNL A   1      52.479  25.105  34.568  1.00  0.00     0.010 A 
ATOM     76  C   UNL A   1      52.106  23.680  32.693  1.00  0.00     0.010 A 
ATOM     77  C   UNL A   1      53.867  24.919  34.430  1.00  0.00     0.020 A 
ATOM     78  C   UNL A   1      53.499  23.523  32.510  1.00  0.00     0.020 A 
ATOM     79  C   UNL A   1      54.374  24.132  33.399  1.00  0.00     0.054 A 
BRANCH  79  80
ATOM     80  S   UNL A   1      56.168  23.874  33.287  1.00  0.00     0.124 S 
ATOM     81  O   UNL A   1      56.701  25.189  33.637  1.00  0.00    -0.237 OA
ATOM     82  O   UNL A   1      56.393  22.823  34.275  1.00  0.00    -0.237 OA
ATOM     83  O   UNL A   1      56.381  23.475  31.897  1.00  0.00    -0.744 OA
ENDBRANCH  79  80
ENDBRANCH  60  74
BRANCH  61  84
ATOM     84  C   UNL A   1      42.396  29.006  34.151  1.00  0.00    -0.014 A 
ATOM     85  C   UNL A   1      41.706  27.926  33.528  1.00  0.00     0.010 A 
ATOM     86  C   UNL A   1      41.790  30.278  34.092  1.00  0.00     0.010 A 
ATOM     87  C   UNL A   1      40.410  28.074  33.014  1.00  0.00     0.020 A 
ATOM     88  C   UNL A   1      40.491  30.434  33.550  1.00  0.00     0.020 A 
ATOM     89  C   UNL A   1      39.792  29.320  33.070  1.00  0.00     0.054 A 
BRANCH  89  90
ATOM     90  S   UNL A   1      38.028  29.416  32.625  1.00  0.00     0.124 S 
ATOM     91  O   UNL A   1      37.480  28.196  33.217  1.00  0.00    -0.237 OA
ATOM     92  O   UNL A   1      37.622  30.659  33.282  1.00  0.00    -0.237 OA
ATOM     93  O   UNL A   1      38.047  29.431  31.167  1.00  0.00    -0.744 OA
ENDBRANCH  89  90
ENDBRANCH  61  84
BRANCH  73  94
ATOM     94  C   UNL A   1      46.110  23.418  37.161  1.00  0.00    -0.014 A 
ATOM     95  C   UNL A   1      45.869  22.311  36.343  1.00  0.00     0.010 A 
ATOM     96  C   UNL A   1      46.499  23.141  38.501  1.00  0.00     0.010 A 
ATOM     97  C   UNL A   1      45.886  21.016  36.860  1.00  0.00     0.020 A 
ATOM     98  C   UNL A   1      46.645  21.851  38.993  1.00  0.00     0.020 A 
ATOM     99  C   UNL A   1      46.267  20.797  38.183  1.00  0.00     0.054 A 
BRANCH  99 100
ATOM    100  S   UNL A   1      46.234  19.126  38.847  1.00  0.00     0.124 S 
ATOM    101  O   UNL A   1      45.329  18.463  37.910  1.00  0.00    -0.237 OA
ATOM    102  O   UNL A   1      47.634  18.718  38.767  1.00  0.00    -0.237 OA
ATOM    103  O   UNL A   1      45.716  19.302  40.202  1.00  0.00    -0.744 OA
ENDBRANCH  99 100
ENDBRANCH  73  94
ENDBRANCH  47  48
ENDBRANCH  40  42
ENDBRANCH  39  40
ENDBRANCH  38  39
ENDBRANCH  37  38
ENDBRANCH  36  37
ENDBRANCH  35  36
ENDBRANCH   1  35
TORSDOF 23
ENDMDL
MODEL 3
REMARK VINA RESULT:     -10.5      3.192      5.739
REMARK SMILES Cc1cccc(-c2ncc(C[NH+]3CCC4(CC3)NC(=O)C[C@H]4C(=O)OCCOCCOCCOC(=O)c3ccc(-c4c5nc(c(-c6ccc(S(=O)(=O)[O-])cc6)c6ccc([nH]6)c(-c6ccc(S(=O)(=O)[O-])cc6)c6nc(c(-c7ccc(S(=O)(=O)[O-])cc7)c7ccc4[nH]7)C=C6)C=C5)cc3)cn2)c1
REMARK SMILES IDX 29 1 28 2 27 3 26 4 25 5 23 6 24 7 22 8 12 9 13 10 17 11
REMARK SMILES IDX 14 13 16 14 15 15 18 16 19 17 21 19 20 20 11 21 10 22 7 23
REMARK SMILES IDX 8 24 98 25 9 26 97 27 6 28 1 29 2 30 3 31 99 32 4 33 5 34
REMARK SMILES IDX 30 35 31 36 32 37 33 38 34 39 35 40 36 41 37 42 38 43 96 44
REMARK SMILES IDX 39 45 95 46 40 47 41 48 42 49 89 50 43 51 94 52 88 53 90 54
REMARK SMILES IDX 44 55 93 56 87 57 86 58 45 60 75 61 56 62 74 63 57 64 60 65
REMARK SMILES IDX 73 66 91 67 58 68 59 69 72 71 92 72 61 73 46 74 47 75 55 76
REMARK SMILES IDX 48 77 54 78 49 79 50 80 51 81 52 82 53 83 76 84 77 85 85 86
REMARK SMILES IDX 78 87 84 88 79 89 80 90 81 91 82 92 83 93 62 94 63 95 71 96
REMARK SMILES IDX 64 97 70 98 65 99 66 100 67 101 68 102 69 103
REMARK H PARENT 12 12 18 18 90 59 60 70
REMARK Flexibility Score: inf
ROOT
ATOM      1  C   UNL A   1      37.181  23.441  26.348  1.00  0.00     0.188 C 
ENDROOT
BRANCH   1   2
ATOM      2  O   UNL A   1      35.735  23.301  26.426  1.00  0.00    -0.376 OA
BRANCH   2   3
ATOM      3  C   UNL A   1      34.647  23.656  25.523  1.00  0.00     0.202 C 
BRANCH   3   4
ATOM      4  C   UNL A   1      33.019  24.407  25.669  1.00  0.00     0.261 C 
BRANCH   4   5
ATOM      5  O   UNL A   1      31.732  25.308  24.668  1.00  0.00    -0.463 OA
BRANCH   5   6
ATOM      6  C   UNL A   1      31.380  26.259  23.475  1.00  0.00     0.311 C 
ATOM      7  O   UNL A   1      31.295  26.003  22.256  1.00  0.00    -0.252 OA
BRANCH   6   8
ATOM      8  C   UNL A   1      30.773  27.573  23.681  1.00  0.00     0.134 C 
ATOM      9  N   UNL A   1      33.672  29.125  27.455  1.00  0.00    -0.331 N 
ATOM     10  C   UNL A   1      32.003  29.252  27.284  1.00  0.00     0.264 C 
ATOM     11  C   UNL A   1      34.261  27.683  26.321  1.00  0.00     0.264 C 
ATOM     12  H   UNL A   1      34.051  28.861  28.366  1.00  0.00     0.348 HD
ATOM     13  C   UNL A   1      31.106  29.360  25.704  1.00  0.00     0.091 C 
ATOM     14  C   UNL A   1      33.573  27.832  24.199  1.00  0.00     0.091 C 
ATOM     15  C   UNL A   1      31.752  28.615  24.104  1.00  0.00     0.064 C 
ATOM     16  N   UNL A   1      31.474  29.599  23.085  1.00  0.00    -0.349 N 
ATOM     17  C   UNL A   1      30.360  29.351  22.296  1.00  0.00     0.221 C 
ATOM     18  H   UNL A   1      32.039  30.397  22.960  1.00  0.00     0.164 HD
ATOM     19  C   UNL A   1      29.766  28.048  22.677  1.00  0.00     0.117 C 
ATOM     20  O   UNL A   1      29.906  30.102  21.451  1.00  0.00    -0.275 OA
BRANCH   9  21
ATOM     21  C   UNL A   1      34.240  30.767  27.120  1.00  0.00     0.302 C 
BRANCH  21  22
ATOM     22  C   UNL A   1      34.902  31.912  28.170  1.00  0.00     0.043 A 
ATOM     23  C   UNL A   1      36.896  32.819  29.963  1.00  0.00     0.159 A 
ATOM     24  N   UNL A   1      36.982  33.141  28.652  1.00  0.00    -0.236 NA
ATOM     25  N   UNL A   1      35.746  32.345  30.464  1.00  0.00    -0.236 NA
ATOM     26  C   UNL A   1      35.936  32.771  27.819  1.00  0.00     0.124 A 
ATOM     27  C   UNL A   1      34.770  31.957  29.559  1.00  0.00     0.124 A 
BRANCH  23  28
ATOM     28  C   UNL A   1      38.090  33.007  30.879  1.00  0.00     0.019 A 
ATOM     29  C   UNL A   1      41.416  31.219  31.824  1.00  0.00     0.044 C 
ATOM     30  C   UNL A   1      40.314  32.250  31.795  1.00  0.00    -0.050 A 
ATOM     31  C   UNL A   1      40.471  33.458  32.452  1.00  0.00     0.003 A 
ATOM     32  C   UNL A   1      39.125  32.052  31.054  1.00  0.00     0.015 A 
ATOM     33  C   UNL A   1      39.440  34.396  32.403  1.00  0.00     0.001 A 
ATOM     34  C   UNL A   1      38.270  34.170  31.641  1.00  0.00     0.012 A 
ENDBRANCH  23  28
ENDBRANCH  21  22
ENDBRANCH   9  21
ENDBRANCH   6   8
ENDBRANCH   5   6
ENDBRANCH   4   5
ENDBRANCH   3   4
ENDBRANCH   2   3
ENDBRANCH   1   2
BRANCH   1  35
ATOM     35  C   UNL A   1      38.027  22.729  25.281  1.00  0.00     0.188 C 
BRANCH  35  36
ATOM     36  O   UNL A   1      38.532  21.507  25.781  1.00  0.00    -0.376 OA
BRANCH  36  37
ATOM     37  C   UNL A   1      39.747  21.513  26.522  1.00  0.00     0.202 C 
BRANCH  37  38
ATOM     38  C   UNL A   1      40.854  22.569  26.274  1.00  0.00     0.261 C 
BRANCH  38  39
ATOM     39  O   UNL A   1      40.841  24.035  26.658  1.00  0.00    -0.460 OA
BRANCH  39  40
ATOM     40  C   UNL A   1      40.681  25.391  26.681  1.00  0.00     0.338 C 
ATOM     41  O   UNL A   1      40.433  25.874  25.587  1.00  0.00    -0.246 OA
BRANCH  40  42
ATOM     42  C   UNL A   1      40.864  26.270  28.056  1.00  0.00     0.060 A 
ATOM     43  C   UNL A   1      39.882  27.687  28.752  1.00  0.00     0.016 A 
ATOM     44  C   UNL A   1      42.364  26.618  27.735  1.00  0.00     0.016 A 
ATOM     45  C   UNL A   1      40.746  29.462  28.681  1.00  0.00     0.010 A 
ATOM     46  C   UNL A   1      42.996  28.152  27.694  1.00  0.00     0.010 A 
ATOM     47  C   UNL A   1      42.470  29.636  28.239  1.00  0.00    -0.014 A 
BRANCH  47  48
ATOM     48  C   UNL A   1      43.915  30.617  28.983  1.00  0.00     0.031 A 
ATOM     49  C   UNL A   1      44.133  32.523  29.138  1.00  0.00     0.074 A 
ATOM     50  C   UNL A   1      44.890  29.990  29.660  1.00  0.00     0.049 A 
ATOM     51  N   UNL A   1      45.006  33.277  28.481  1.00  0.00    -0.248 NA
ATOM     52  C   UNL A   1      42.972  33.680  29.505  1.00  0.00     0.031 C 
ATOM     53  C   UNL A   1      45.903  30.555  30.551  1.00  0.00     0.029 A 
ATOM     54  N   UNL A   1      45.140  28.632  29.717  1.00  0.00    -0.354 N 
ATOM     55  C   UNL A   1      44.579  34.643  28.558  1.00  0.00     0.074 A 
ATOM     56  C   UNL A   1      43.184  34.662  28.651  1.00  0.00     0.031 C 
ATOM     57  C   UNL A   1      46.855  29.619  30.751  1.00  0.00     0.029 A 
ATOM     58  C   UNL A   1      46.521  28.495  29.883  1.00  0.00     0.049 A 
ATOM     59  H   UNL A   1      44.479  27.906  29.653  1.00  0.00     0.167 HD
ATOM     60  C   UNL A   1      45.299  35.627  29.182  1.00  0.00     0.031 A 
ATOM     61  C   UNL A   1      47.200  28.084  28.774  1.00  0.00     0.031 A 
ATOM     62  C   UNL A   1      46.500  34.993  29.649  1.00  0.00     0.049 A 
ATOM     63  C   UNL A   1      48.014  29.257  28.263  1.00  0.00     0.074 A 
ATOM     64  C   UNL A   1      46.829  34.392  30.850  1.00  0.00     0.029 A 
ATOM     65  N   UNL A   1      47.259  34.388  28.673  1.00  0.00    -0.354 N 
ATOM     66  N   UNL A   1      47.686  30.522  28.381  1.00  0.00    -0.248 NA
ATOM     67  C   UNL A   1      49.378  29.072  27.789  1.00  0.00     0.031 C 
ATOM     68  C   UNL A   1      47.769  33.355  30.551  1.00  0.00     0.029 A 
ATOM     69  C   UNL A   1      47.991  33.343  29.183  1.00  0.00     0.049 A 
ATOM     70  H   UNL A   1      47.276  34.669  27.729  1.00  0.00     0.167 HD
ATOM     71  C   UNL A   1      48.778  31.299  28.100  1.00  0.00     0.074 A 
ATOM     72  C   UNL A   1      49.803  30.342  27.718  1.00  0.00     0.031 C 
ATOM     73  C   UNL A   1      48.863  32.656  28.248  1.00  0.00     0.031 A 
BRANCH  60  74
ATOM     74  C   UNL A   1      44.734  36.964  29.703  1.00  0.00    -0.014 A 
ATOM     75  C   UNL A   1      44.837  37.237  31.079  1.00  0.00     0.010 A 
ATOM     76  C   UNL A   1      44.116  37.989  28.934  1.00  0.00     0.010 A 
ATOM     77  C   UNL A   1      44.342  38.420  31.657  1.00  0.00     0.020 A 
ATOM     78  C   UNL A   1      43.569  39.160  29.507  1.00  0.00     0.020 A 
ATOM     79  C   UNL A   1      43.705  39.377  30.871  1.00  0.00     0.054 A 
BRANCH  79  80
ATOM     80  S   UNL A   1      43.128  40.914  31.646  1.00  0.00     0.124 S 
ATOM     81  O   UNL A   1      43.527  40.736  33.041  1.00  0.00    -0.237 OA
ATOM     82  O   UNL A   1      43.868  41.932  30.907  1.00  0.00    -0.237 OA
ATOM     83  O   UNL A   1      41.684  40.905  31.415  1.00  0.00    -0.744 OA
ENDBRANCH  79  80
ENDBRANCH  60  74
BRANCH  61  84
ATOM     84  C   UNL A   1      46.397  27.038  28.023  1.00  0.00    -0.014 A 
ATOM     85  C   UNL A   1      46.143  27.318  26.649  1.00  0.00     0.010 A 
ATOM     86  C   UNL A   1      46.340  25.688  28.427  1.00  0.00     0.010 A 
ATOM     87  C   UNL A   1      45.999  26.295  25.700  1.00  0.00     0.020 A 
ATOM     88  C   UNL A   1      46.169  24.656  27.473  1.00  0.00     0.020 A 
ATOM     89  C   UNL A   1      46.058  24.968  26.113  1.00  0.00     0.054 A 
BRANCH  89  90
ATOM     90  S   UNL A   1      46.117  23.678  24.828  1.00  0.00     0.124 S 
ATOM     91  O   UNL A   1      44.768  23.724  24.265  1.00  0.00    -0.237 OA
ATOM     92  O   UNL A   1      47.172  24.184  23.947  1.00  0.00    -0.237 OA
ATOM     93  O   UNL A   1      46.425  22.466  25.576  1.00  0.00    -0.744 OA
ENDBRANCH  89  90
ENDBRANCH  61  84
BRANCH  73  94
ATOM     94  C   UNL A   1      49.809  33.527  27.440  1.00  0.00    -0.014 A 
ATOM     95  C   UNL A   1      50.018  33.363  26.068  1.00  0.00     0.010 A 
ATOM     96  C   UNL A   1      50.385  34.684  28.033  1.00  0.00     0.010 A 
ATOM     97  C   UNL A   1      50.856  34.222  25.359  1.00  0.00     0.020 A 
ATOM     98  C   UNL A   1      51.117  35.617  27.311  1.00  0.00     0.020 A 
ATOM     99  C   UNL A   1      51.404  35.339  25.988  1.00  0.00     0.054 A 
BRANCH  99 100
ATOM    100  S   UNL A   1      52.523  36.408  25.072  1.00  0.00     0.124 S 
ATOM    101  O   UNL A   1      52.950  37.338  26.115  1.00  0.00    -0.237 OA
ATOM    102  O   UNL A   1      53.546  35.477  24.602  1.00  0.00    -0.237 OA
ATOM    103  O   UNL A   1      51.678  36.980  24.027  1.00  0.00    -0.744 OA
ENDBRANCH  99 100
ENDBRANCH  73  94
ENDBRANCH  47  48
ENDBRANCH  40  42
ENDBRANCH  39  40
ENDBRANCH  38  39
ENDBRANCH  37  38
ENDBRANCH  36  37
ENDBRANCH  35  36
ENDBRANCH   1  35
TORSDOF 23
ENDMDL
