MODEL 1
REMARK VINA RESULT:      -9.4      0.000      0.000
REMARK SMILES CN(C)c1ccc(C(=O)NCCCC(=O)OCCOCCOCCOC(=O)c2ccc(-c3c4nc(c(-c5ccc(S(=O)(=O)[O-])cc5)c5ccc([nH]5)c(-c5ccc(S(=O)(=O)[O-])cc5)c5nc(c(-c6ccc(S(=O)(=O)[O-])cc6)c6ccc3[nH]6)C=C5)C=C4)cc2)cn1
REMARK SMILES IDX 20 1 19 2 18 3 17 4 16 5 14 6 15 7 13 8 12 9 11 10 10 11
REMARK SMILES IDX 8 12 9 13 7 15 4 16 5 17 89 18 6 19 88 20 2 21 1 22 3 23
REMARK SMILES IDX 21 24 22 25 23 26 24 27 25 28 26 29 27 30 28 31 29 32 87 33
REMARK SMILES IDX 30 34 86 35 31 36 32 37 33 38 80 39 34 40 85 41 79 42 81 43
REMARK SMILES IDX 35 44 84 45 78 46 77 47 36 49 66 50 47 51 65 52 48 53 51 54
REMARK SMILES IDX 64 55 82 56 49 57 50 58 63 60 83 61 52 62 37 63 38 64 46 65
REMARK SMILES IDX 39 66 45 67 40 68 41 69 42 70 43 71 44 72 67 73 68 74 76 75
REMARK SMILES IDX 69 76 75 77 70 78 71 79 72 80 73 81 74 82 53 83 54 84 62 85
REMARK SMILES IDX 55 86 61 87 56 88 57 89 58 90 59 91 60 92
REMARK H PARENT 10 14 81 48 51 59
REMARK Flexibility Score: inf
ROOT
ATOM      1  C   UNL A   1      32.830  30.718  26.811  1.00  0.00     0.188 C 
ENDROOT
BRANCH   1   2
ATOM      2  O   UNL A   1      32.113  29.587  27.284  1.00  0.00    -0.376 OA
BRANCH   2   3
ATOM      3  C   UNL A   1      32.023  28.464  26.409  1.00  0.00     0.202 C 
BRANCH   3   4
ATOM      4  C   UNL A   1      31.192  27.269  26.897  1.00  0.00     0.261 C 
BRANCH   4   5
ATOM      5  O   UNL A   1      30.689  26.434  25.833  1.00  0.00    -0.463 OA
BRANCH   5   6
ATOM      6  C   UNL A   1      30.233  25.209  26.198  1.00  0.00     0.305 C 
ATOM      7  O   UNL A   1      29.212  25.016  26.849  1.00  0.00    -0.252 OA
BRANCH   6   8
ATOM      8  C   UNL A   1      31.064  24.047  25.684  1.00  0.00     0.124 C 
BRANCH   8   9
ATOM      9  C   UNL A   1      32.360  23.631  26.372  1.00  0.00     0.033 C 
BRANCH   9  10
ATOM     10  C   UNL A   1      33.612  24.449  26.082  1.00  0.00     0.117 C 
BRANCH  10  11
ATOM     11  N   UNL A   1      33.970  24.434  24.679  1.00  0.00    -0.352 N 
ATOM     12  C   UNL A   1      34.024  23.476  23.702  1.00  0.00     0.252 C 
ATOM     13  O   UNL A   1      34.398  23.871  22.592  1.00  0.00    -0.269 OA
ATOM     14  H   UNL A   1      34.238  25.322  24.350  1.00  0.00     0.163 HD
BRANCH  12  15
ATOM     15  C   UNL A   1      33.683  22.033  23.850  1.00  0.00     0.058 A 
ATOM     16  C   UNL A   1      33.395  19.266  24.291  1.00  0.00     0.127 A 
ATOM     17  C   UNL A   1      32.441  19.975  23.571  1.00  0.00     0.048 A 
ATOM     18  N   UNL A   1      34.467  19.912  24.789  1.00  0.00    -0.239 NA
ATOM     19  C   UNL A   1      32.584  21.351  23.350  1.00  0.00     0.019 A 
ATOM     20  C   UNL A   1      34.596  21.247  24.548  1.00  0.00     0.127 A 
BRANCH  16  21
ATOM     21  N   UNL A   1      33.272  17.911  24.518  1.00  0.00    -0.363 N 
ATOM     22  C   UNL A   1      33.644  16.926  23.525  1.00  0.00     0.144 C 
ATOM     23  C   UNL A   1      32.631  17.503  25.752  1.00  0.00     0.144 C 
ENDBRANCH  16  21
ENDBRANCH  12  15
ENDBRANCH  10  11
ENDBRANCH   9  10
ENDBRANCH   8   9
ENDBRANCH   6   8
ENDBRANCH   5   6
ENDBRANCH   4   5
ENDBRANCH   3   4
ENDBRANCH   2   3
ENDBRANCH   1   2
BRANCH   1  24
ATOM     24  C   UNL A   1      34.227  30.943  27.397  1.00  0.00     0.188 C 
BRANCH  24  25
ATOM     25  O   UNL A   1      34.307  31.773  28.543  1.00  0.00    -0.376 OA
BRANCH  25  26
ATOM     26  C   UNL A   1      35.184  32.898  28.447  1.00  0.00     0.202 C 
BRANCH  26  27
ATOM     27  C   UNL A   1      35.750  33.477  29.770  1.00  0.00     0.261 C 
BRANCH  27  28
ATOM     28  O   UNL A   1      37.006  32.950  30.253  1.00  0.00    -0.460 OA
BRANCH  28  29
ATOM     29  C   UNL A   1      37.005  31.726  30.837  1.00  0.00     0.338 C 
ATOM     30  O   UNL A   1      36.065  31.218  31.430  1.00  0.00    -0.246 OA
BRANCH  29  31
ATOM     31  C   UNL A   1      38.208  30.973  30.362  1.00  0.00     0.060 A 
ATOM     32  C   UNL A   1      39.114  30.491  31.321  1.00  0.00     0.016 A 
ATOM     33  C   UNL A   1      38.405  30.661  29.014  1.00  0.00     0.016 A 
ATOM     34  C   UNL A   1      40.237  29.746  30.935  1.00  0.00     0.010 A 
ATOM     35  C   UNL A   1      39.539  29.932  28.626  1.00  0.00     0.010 A 
ATOM     36  C   UNL A   1      40.484  29.501  29.577  1.00  0.00    -0.014 A 
BRANCH  36  37
ATOM     37  C   UNL A   1      41.816  29.006  29.126  1.00  0.00     0.031 A 
ATOM     38  C   UNL A   1      42.954  29.997  29.078  1.00  0.00     0.074 A 
ATOM     39  C   UNL A   1      42.038  27.727  28.766  1.00  0.00     0.049 A 
ATOM     40  N   UNL A   1      44.176  29.843  28.636  1.00  0.00    -0.248 NA
ATOM     41  C   UNL A   1      42.666  31.345  29.594  1.00  0.00     0.031 C 
ATOM     42  C   UNL A   1      41.056  26.646  28.815  1.00  0.00     0.029 A 
ATOM     43  N   UNL A   1      43.173  27.126  28.270  1.00  0.00    -0.354 N 
ATOM     44  C   UNL A   1      44.794  31.077  28.802  1.00  0.00     0.074 A 
ATOM     45  C   UNL A   1      43.808  31.974  29.361  1.00  0.00     0.031 C 
ATOM     46  C   UNL A   1      41.627  25.517  28.352  1.00  0.00     0.029 A 
ATOM     47  C   UNL A   1      43.001  25.803  27.935  1.00  0.00     0.049 A 
ATOM     48  H   UNL A   1      44.030  27.601  28.163  1.00  0.00     0.167 HD
ATOM     49  C   UNL A   1      46.069  31.438  28.518  1.00  0.00     0.031 A 
ATOM     50  C   UNL A   1      43.840  24.930  27.337  1.00  0.00     0.031 A 
ATOM     51  C   UNL A   1      47.052  30.556  27.949  1.00  0.00     0.049 A 
ATOM     52  C   UNL A   1      45.231  25.375  26.948  1.00  0.00     0.074 A 
ATOM     53  C   UNL A   1      48.372  30.830  27.637  1.00  0.00     0.029 A 
ATOM     54  N   UNL A   1      46.824  29.235  27.598  1.00  0.00    -0.354 N 
ATOM     55  N   UNL A   1      45.805  26.542  27.125  1.00  0.00    -0.248 NA
ATOM     56  C   UNL A   1      46.089  24.382  26.281  1.00  0.00     0.031 C 
ATOM     57  C   UNL A   1      48.924  29.694  27.036  1.00  0.00     0.029 A 
ATOM     58  C   UNL A   1      47.971  28.689  27.045  1.00  0.00     0.049 A 
ATOM     59  H   UNL A   1      45.973  28.756  27.722  1.00  0.00     0.167 HD
ATOM     60  C   UNL A   1      47.100  26.409  26.627  1.00  0.00     0.074 A 
ATOM     61  C   UNL A   1      47.228  25.050  26.149  1.00  0.00     0.031 C 
ATOM     62  C   UNL A   1      48.095  27.330  26.579  1.00  0.00     0.031 A 
BRANCH  49  63
ATOM     63  C   UNL A   1      46.461  32.869  28.781  1.00  0.00    -0.014 A 
ATOM     64  C   UNL A   1      46.289  33.866  27.804  1.00  0.00     0.010 A 
ATOM     65  C   UNL A   1      46.979  33.225  30.039  1.00  0.00     0.010 A 
ATOM     66  C   UNL A   1      46.667  35.185  28.068  1.00  0.00     0.020 A 
ATOM     67  C   UNL A   1      47.327  34.549  30.319  1.00  0.00     0.020 A 
ATOM     68  C   UNL A   1      47.185  35.518  29.324  1.00  0.00     0.054 A 
BRANCH  68  69
ATOM     69  S   UNL A   1      47.648  37.242  29.644  1.00  0.00     0.124 S 
ATOM     70  O   UNL A   1      46.450  37.757  30.302  1.00  0.00    -0.237 OA
ATOM     71  O   UNL A   1      48.824  37.102  30.499  1.00  0.00    -0.237 OA
ATOM     72  O   UNL A   1      47.908  37.785  28.312  1.00  0.00    -0.744 OA
ENDBRANCH  68  69
ENDBRANCH  49  63
BRANCH  50  73
ATOM     73  C   UNL A   1      43.388  23.539  27.035  1.00  0.00    -0.014 A 
ATOM     74  C   UNL A   1      42.948  22.685  28.063  1.00  0.00     0.010 A 
ATOM     75  C   UNL A   1      43.415  23.055  25.714  1.00  0.00     0.010 A 
ATOM     76  C   UNL A   1      42.560  21.371  27.777  1.00  0.00     0.020 A 
ATOM     77  C   UNL A   1      42.999  21.753  25.420  1.00  0.00     0.020 A 
ATOM     78  C   UNL A   1      42.583  20.916  26.456  1.00  0.00     0.054 A 
BRANCH  78  79
ATOM     79  S   UNL A   1      42.023  19.225  26.104  1.00  0.00     0.124 S 
ATOM     80  O   UNL A   1      42.714  18.929  24.853  1.00  0.00    -0.237 OA
ATOM     81  O   UNL A   1      42.493  18.489  27.276  1.00  0.00    -0.237 OA
ATOM     82  O   UNL A   1      40.572  19.359  26.003  1.00  0.00    -0.744 OA
ENDBRANCH  78  79
ENDBRANCH  50  73
BRANCH  62  83
ATOM     83  C   UNL A   1      49.437  26.899  26.040  1.00  0.00    -0.014 A 
ATOM     84  C   UNL A   1      49.791  27.095  24.694  1.00  0.00     0.010 A 
ATOM     85  C   UNL A   1      50.391  26.357  26.924  1.00  0.00     0.010 A 
ATOM     86  C   UNL A   1      51.063  26.733  24.237  1.00  0.00     0.020 A 
ATOM     87  C   UNL A   1      51.672  26.022  26.478  1.00  0.00     0.020 A 
ATOM     88  C   UNL A   1      51.996  26.201  25.133  1.00  0.00     0.054 A 
BRANCH  88  89
ATOM     89  S   UNL A   1      53.656  25.791  24.525  1.00  0.00     0.124 S 
ATOM     90  O   UNL A   1      53.699  24.343  24.711  1.00  0.00    -0.237 OA
ATOM     91  O   UNL A   1      53.611  26.246  23.138  1.00  0.00    -0.237 OA
ATOM     92  O   UNL A   1      54.545  26.557  25.397  1.00  0.00    -0.744 OA
ENDBRANCH  88  89
ENDBRANCH  62  83
ENDBRANCH  36  37
ENDBRANCH  29  31
ENDBRANCH  28  29
ENDBRANCH  27  28
ENDBRANCH  26  27
ENDBRANCH  25  26
ENDBRANCH  24  25
ENDBRANCH   1  24
TORSDOF 25
ENDMDL
MODEL 2
REMARK VINA RESULT:      -9.3      1.282      2.473
REMARK SMILES CN(C)c1ccc(C(=O)NCCCC(=O)OCCOCCOCCOC(=O)c2ccc(-c3c4nc(c(-c5ccc(S(=O)(=O)[O-])cc5)c5ccc([nH]5)c(-c5ccc(S(=O)(=O)[O-])cc5)c5nc(c(-c6ccc(S(=O)(=O)[O-])cc6)c6ccc3[nH]6)C=C5)C=C4)cc2)cn1
REMARK SMILES IDX 20 1 19 2 18 3 17 4 16 5 14 6 15 7 13 8 12 9 11 10 10 11
REMARK SMILES IDX 8 12 9 13 7 15 4 16 5 17 89 18 6 19 88 20 2 21 1 22 3 23
REMARK SMILES IDX 21 24 22 25 23 26 24 27 25 28 26 29 27 30 28 31 29 32 87 33
REMARK SMILES IDX 30 34 86 35 31 36 32 37 33 38 80 39 34 40 85 41 79 42 81 43
REMARK SMILES IDX 35 44 84 45 78 46 77 47 36 49 66 50 47 51 65 52 48 53 51 54
REMARK SMILES IDX 64 55 82 56 49 57 50 58 63 60 83 61 52 62 37 63 38 64 46 65
REMARK SMILES IDX 39 66 45 67 40 68 41 69 42 70 43 71 44 72 67 73 68 74 76 75
REMARK SMILES IDX 69 76 75 77 70 78 71 79 72 80 73 81 74 82 53 83 54 84 62 85
REMARK SMILES IDX 55 86 61 87 56 88 57 89 58 90 59 91 60 92
REMARK H PARENT 10 14 81 48 51 59
REMARK Flexibility Score: inf
ROOT
ATOM      1  C   UNL A   1      32.509  29.887  26.594  1.00  0.00     0.188 C 
ENDROOT
BRANCH   1   2
ATOM      2  O   UNL A   1      32.701  28.967  25.529  1.00  0.00    -0.376 OA
BRANCH   2   3
ATOM      3  C   UNL A   1      31.963  27.749  25.584  1.00  0.00     0.202 C 
BRANCH   3   4
ATOM      4  C   UNL A   1      32.525  26.637  26.481  1.00  0.00     0.261 C 
BRANCH   4   5
ATOM      5  O   UNL A   1      32.393  25.313  25.923  1.00  0.00    -0.463 OA
BRANCH   5   6
ATOM      6  C   UNL A   1      31.360  24.566  26.390  1.00  0.00     0.305 C 
ATOM      7  O   UNL A   1      30.224  24.992  26.568  1.00  0.00    -0.252 OA
BRANCH   6   8
ATOM      8  C   UNL A   1      31.695  23.105  26.633  1.00  0.00     0.124 C 
BRANCH   8   9
ATOM      9  C   UNL A   1      32.676  22.685  27.723  1.00  0.00     0.033 C 
BRANCH   9  10
ATOM     10  C   UNL A   1      34.161  22.701  27.386  1.00  0.00     0.117 C 
BRANCH  10  11
ATOM     11  N   UNL A   1      34.531  21.647  26.465  1.00  0.00    -0.352 N 
ATOM     12  C   UNL A   1      34.501  21.491  25.105  1.00  0.00     0.252 C 
ATOM     13  O   UNL A   1      34.913  20.405  24.686  1.00  0.00    -0.269 OA
ATOM     14  H   UNL A   1      34.890  20.855  26.926  1.00  0.00     0.163 HD
BRANCH  12  15
ATOM     15  C   UNL A   1      34.026  22.490  24.106  1.00  0.00     0.058 A 
ATOM     16  C   UNL A   1      33.381  24.628  22.389  1.00  0.00     0.127 A 
ATOM     17  C   UNL A   1      32.652  23.445  22.357  1.00  0.00     0.048 A 
ATOM     18  N   UNL A   1      34.411  24.752  23.248  1.00  0.00    -0.239 NA
ATOM     19  C   UNL A   1      32.971  22.382  23.212  1.00  0.00     0.019 A 
ATOM     20  C   UNL A   1      34.694  23.711  24.082  1.00  0.00     0.127 A 
BRANCH  16  21
ATOM     21  N   UNL A   1      33.081  25.686  21.556  1.00  0.00    -0.363 N 
ATOM     22  C   UNL A   1      32.424  25.501  20.280  1.00  0.00     0.144 C 
ATOM     23  C   UNL A   1      33.568  26.994  21.949  1.00  0.00     0.144 C 
ENDBRANCH  16  21
ENDBRANCH  12  15
ENDBRANCH  10  11
ENDBRANCH   9  10
ENDBRANCH   8   9
ENDBRANCH   6   8
ENDBRANCH   5   6
ENDBRANCH   4   5
ENDBRANCH   3   4
ENDBRANCH   2   3
ENDBRANCH   1   2
BRANCH   1  24
ATOM     24  C   UNL A   1      33.769  30.406  27.292  1.00  0.00     0.188 C 
BRANCH  24  25
ATOM     25  O   UNL A   1      33.797  31.788  27.605  1.00  0.00    -0.376 OA
BRANCH  25  26
ATOM     26  C   UNL A   1      34.987  32.268  28.235  1.00  0.00     0.202 C 
BRANCH  26  27
ATOM     27  C   UNL A   1      35.011  32.301  29.785  1.00  0.00     0.261 C 
BRANCH  27  28
ATOM     28  O   UNL A   1      36.292  32.174  30.443  1.00  0.00    -0.460 OA
BRANCH  28  29
ATOM     29  C   UNL A   1      36.641  30.959  30.936  1.00  0.00     0.338 C 
ATOM     30  O   UNL A   1      35.877  30.140  31.425  1.00  0.00    -0.246 OA
BRANCH  29  31
ATOM     31  C   UNL A   1      38.036  30.650  30.491  1.00  0.00     0.060 A 
ATOM     32  C   UNL A   1      38.275  30.479  29.117  1.00  0.00     0.016 A 
ATOM     33  C   UNL A   1      39.111  30.618  31.384  1.00  0.00     0.016 A 
ATOM     34  C   UNL A   1      39.569  30.226  28.642  1.00  0.00     0.010 A 
ATOM     35  C   UNL A   1      40.403  30.346  30.909  1.00  0.00     0.010 A 
ATOM     36  C   UNL A   1      40.638  30.110  29.541  1.00  0.00    -0.014 A 
BRANCH  36  37
ATOM     37  C   UNL A   1      41.938  29.528  29.103  1.00  0.00     0.031 A 
ATOM     38  C   UNL A   1      43.131  30.449  29.029  1.00  0.00     0.074 A 
ATOM     39  C   UNL A   1      42.084  28.229  28.774  1.00  0.00     0.049 A 
ATOM     40  N   UNL A   1      44.341  30.213  28.590  1.00  0.00    -0.248 NA
ATOM     41  C   UNL A   1      42.924  31.824  29.512  1.00  0.00     0.031 C 
ATOM     42  C   UNL A   1      41.041  27.209  28.850  1.00  0.00     0.029 A 
ATOM     43  N   UNL A   1      43.181  27.551  28.292  1.00  0.00    -0.354 N 
ATOM     44  C   UNL A   1      45.031  31.413  28.725  1.00  0.00     0.074 A 
ATOM     45  C   UNL A   1      44.100  32.379  29.263  1.00  0.00     0.031 C 
ATOM     46  C   UNL A   1      41.545  26.037  28.415  1.00  0.00     0.029 A 
ATOM     47  C   UNL A   1      42.932  26.232  27.991  1.00  0.00     0.049 A 
ATOM     48  H   UNL A   1      44.064  27.972  28.174  1.00  0.00     0.167 HD
ATOM     49  C   UNL A   1      46.324  31.691  28.432  1.00  0.00     0.031 A 
ATOM     50  C   UNL A   1      43.717  25.297  27.414  1.00  0.00     0.031 A 
ATOM     51  C   UNL A   1      47.253  30.740  27.885  1.00  0.00     0.049 A 
ATOM     52  C   UNL A   1      45.131  25.650  27.014  1.00  0.00     0.074 A 
ATOM     53  C   UNL A   1      48.586  30.928  27.565  1.00  0.00     0.029 A 
ATOM     54  N   UNL A   1      46.947  29.425  27.567  1.00  0.00    -0.354 N 
ATOM     55  N   UNL A   1      45.773  26.786  27.162  1.00  0.00    -0.248 NA
ATOM     56  C   UNL A   1      45.929  24.593  26.372  1.00  0.00     0.031 C 
ATOM     57  C   UNL A   1      49.070  29.747  26.994  1.00  0.00     0.029 A 
ATOM     58  C   UNL A   1      48.060  28.800  27.028  1.00  0.00     0.049 A 
ATOM     59  H   UNL A   1      46.070  29.001  27.703  1.00  0.00     0.167 HD
ATOM     60  C   UNL A   1      47.057  26.565  26.667  1.00  0.00     0.074 A 
ATOM     61  C   UNL A   1      47.104  25.189  26.223  1.00  0.00     0.031 C 
ATOM     62  C   UNL A   1      48.104  27.425  26.595  1.00  0.00     0.031 A 
BRANCH  49  63
ATOM     63  C   UNL A   1      46.800  33.103  28.659  1.00  0.00    -0.014 A 
ATOM     64  C   UNL A   1      47.370  33.496  29.883  1.00  0.00     0.010 A 
ATOM     65  C   UNL A   1      46.704  34.041  27.615  1.00  0.00     0.010 A 
ATOM     66  C   UNL A   1      47.797  34.813  30.073  1.00  0.00     0.020 A 
ATOM     67  C   UNL A   1      47.160  35.351  27.789  1.00  0.00     0.020 A 
ATOM     68  C   UNL A   1      47.688  35.732  29.024  1.00  0.00     0.054 A 
BRANCH  68  69
ATOM     69  S   UNL A   1      48.269  37.429  29.294  1.00  0.00     0.124 S 
ATOM     70  O   UNL A   1      49.267  37.242  30.344  1.00  0.00    -0.237 OA
ATOM     71  O   UNL A   1      48.799  37.796  27.982  1.00  0.00    -0.237 OA
ATOM     72  O   UNL A   1      47.065  38.148  29.702  1.00  0.00    -0.744 OA
ENDBRANCH  68  69
ENDBRANCH  49  63
BRANCH  50  73
ATOM     73  C   UNL A   1      43.184  23.928  27.148  1.00  0.00    -0.014 A 
ATOM     74  C   UNL A   1      42.721  23.570  25.869  1.00  0.00     0.010 A 
ATOM     75  C   UNL A   1      43.117  22.978  28.184  1.00  0.00     0.010 A 
ATOM     76  C   UNL A   1      42.189  22.297  25.636  1.00  0.00     0.020 A 
ATOM     77  C   UNL A   1      42.615  21.695  27.949  1.00  0.00     0.020 A 
ATOM     78  C   UNL A   1      42.145  21.366  26.676  1.00  0.00     0.054 A 
BRANCH  78  79
ATOM     79  S   UNL A   1      41.500  19.703  26.336  1.00  0.00     0.124 S 
ATOM     80  O   UNL A   1      41.661  19.043  27.627  1.00  0.00    -0.237 OA
ATOM     81  O   UNL A   1      40.123  19.978  25.932  1.00  0.00    -0.237 OA
ATOM     82  O   UNL A   1      42.369  19.212  25.268  1.00  0.00    -0.744 OA
ENDBRANCH  78  79
ENDBRANCH  50  73
BRANCH  62  83
ATOM     83  C   UNL A   1      49.417  26.904  26.067  1.00  0.00    -0.014 A 
ATOM     84  C   UNL A   1      49.853  27.184  24.760  1.00  0.00     0.010 A 
ATOM     85  C   UNL A   1      50.266  26.181  26.928  1.00  0.00     0.010 A 
ATOM     86  C   UNL A   1      51.100  26.731  24.317  1.00  0.00     0.020 A 
ATOM     87  C   UNL A   1      51.525  25.752  26.499  1.00  0.00     0.020 A 
ATOM     88  C   UNL A   1      51.930  26.020  25.191  1.00  0.00     0.054 A 
BRANCH  88  89
ATOM     89  S   UNL A   1      53.565  25.490  24.608  1.00  0.00     0.124 S 
ATOM     90  O   UNL A   1      53.542  25.916  23.212  1.00  0.00    -0.237 OA
ATOM     91  O   UNL A   1      54.471  26.235  25.479  1.00  0.00    -0.237 OA
ATOM     92  O   UNL A   1      53.557  24.043  24.819  1.00  0.00    -0.744 OA
ENDBRANCH  88  89
ENDBRANCH  62  83
ENDBRANCH  36  37
ENDBRANCH  29  31
ENDBRANCH  28  29
ENDBRANCH  27  28
ENDBRANCH  26  27
ENDBRANCH  25  26
ENDBRANCH  24  25
ENDBRANCH   1  24
TORSDOF 25
ENDMDL
MODEL 3
REMARK VINA RESULT:      -9.3      2.155      8.533
REMARK SMILES CN(C)c1ccc(C(=O)NCCCC(=O)OCCOCCOCCOC(=O)c2ccc(-c3c4nc(c(-c5ccc(S(=O)(=O)[O-])cc5)c5ccc([nH]5)c(-c5ccc(S(=O)(=O)[O-])cc5)c5nc(c(-c6ccc(S(=O)(=O)[O-])cc6)c6ccc3[nH]6)C=C5)C=C4)cc2)cn1
REMARK SMILES IDX 20 1 19 2 18 3 17 4 16 5 14 6 15 7 13 8 12 9 11 10 10 11
REMARK SMILES IDX 8 12 9 13 7 15 4 16 5 17 89 18 6 19 88 20 2 21 1 22 3 23
REMARK SMILES IDX 21 24 22 25 23 26 24 27 25 28 26 29 27 30 28 31 29 32 87 33
REMARK SMILES IDX 30 34 86 35 31 36 32 37 33 38 80 39 34 40 85 41 79 42 81 43
REMARK SMILES IDX 35 44 84 45 78 46 77 47 36 49 66 50 47 51 65 52 48 53 51 54
REMARK SMILES IDX 64 55 82 56 49 57 50 58 63 60 83 61 52 62 37 63 38 64 46 65
REMARK SMILES IDX 39 66 45 67 40 68 41 69 42 70 43 71 44 72 67 73 68 74 76 75
REMARK SMILES IDX 69 76 75 77 70 78 71 79 72 80 73 81 74 82 53 83 54 84 62 85
REMARK SMILES IDX 55 86 61 87 56 88 57 89 58 90 59 91 60 92
REMARK H PARENT 10 14 81 48 51 59
REMARK Flexibility Score: inf
ROOT
ATOM      1  C   UNL A   1      31.900  28.236  26.343  1.00  0.00     0.188 C 
ENDROOT
BRANCH   1   2
ATOM      2  O   UNL A   1      31.939  27.401  25.195  1.00  0.00    -0.376 OA
BRANCH   2   3
ATOM      3  C   UNL A   1      30.779  27.383  24.367  1.00  0.00     0.202 C 
BRANCH   3   4
ATOM      4  C   UNL A   1      29.991  26.066  24.305  1.00  0.00     0.261 C 
BRANCH   4   5
ATOM      5  O   UNL A   1      30.527  25.108  23.368  1.00  0.00    -0.463 OA
BRANCH   5   6
ATOM      6  C   UNL A   1      31.018  23.959  23.900  1.00  0.00     0.305 C 
ATOM      7  O   UNL A   1      31.446  23.020  23.239  1.00  0.00    -0.252 OA
BRANCH   6   8
ATOM      8  C   UNL A   1      31.057  23.932  25.417  1.00  0.00     0.124 C 
BRANCH   8   9
ATOM      9  C   UNL A   1      32.229  23.314  26.171  1.00  0.00     0.033 C 
BRANCH   9  10
ATOM     10  C   UNL A   1      33.611  23.917  25.953  1.00  0.00     0.117 C 
BRANCH  10  11
ATOM     11  N   UNL A   1      34.058  23.793  24.582  1.00  0.00    -0.352 N 
ATOM     12  C   UNL A   1      35.192  23.331  23.969  1.00  0.00     0.252 C 
ATOM     13  O   UNL A   1      35.195  23.401  22.735  1.00  0.00    -0.269 OA
ATOM     14  H   UNL A   1      33.388  24.118  23.937  1.00  0.00     0.163 HD
BRANCH  12  15
ATOM     15  C   UNL A   1      36.398  22.766  24.639  1.00  0.00     0.058 A 
ATOM     16  C   UNL A   1      38.760  22.070  26.006  1.00  0.00     0.127 A 
ATOM     17  C   UNL A   1      38.062  21.124  25.266  1.00  0.00     0.048 A 
ATOM     18  N   UNL A   1      38.299  23.334  26.076  1.00  0.00    -0.239 NA
ATOM     19  C   UNL A   1      36.887  21.470  24.584  1.00  0.00     0.019 A 
ATOM     20  C   UNL A   1      37.164  23.653  25.391  1.00  0.00     0.127 A 
BRANCH  16  21
ATOM     21  N   UNL A   1      39.919  21.750  26.683  1.00  0.00    -0.363 N 
ATOM     22  C   UNL A   1      40.571  22.680  27.580  1.00  0.00     0.144 C 
ATOM     23  C   UNL A   1      40.540  20.479  26.365  1.00  0.00     0.144 C 
ENDBRANCH  16  21
ENDBRANCH  12  15
ENDBRANCH  10  11
ENDBRANCH   9  10
ENDBRANCH   8   9
ENDBRANCH   6   8
ENDBRANCH   5   6
ENDBRANCH   4   5
ENDBRANCH   3   4
ENDBRANCH   2   3
ENDBRANCH   1   2
BRANCH   1  24
ATOM     24  C   UNL A   1      33.239  28.791  26.838  1.00  0.00     0.188 C 
BRANCH  24  25
ATOM     25  O   UNL A   1      33.232  30.122  27.325  1.00  0.00    -0.376 OA
BRANCH  25  26
ATOM     26  C   UNL A   1      34.492  30.797  27.333  1.00  0.00     0.202 C 
BRANCH  26  27
ATOM     27  C   UNL A   1      35.455  30.499  28.510  1.00  0.00     0.261 C 
BRANCH  27  28
ATOM     28  O   UNL A   1      36.678  29.787  28.218  1.00  0.00    -0.460 OA
BRANCH  28  29
ATOM     29  C   UNL A   1      37.426  29.345  29.260  1.00  0.00     0.338 C 
ATOM     30  O   UNL A   1      36.994  28.945  30.331  1.00  0.00    -0.246 OA
BRANCH  29  31
ATOM     31  C   UNL A   1      38.823  29.117  28.777  1.00  0.00     0.060 A 
ATOM     32  C   UNL A   1      39.782  28.663  29.699  1.00  0.00     0.016 A 
ATOM     33  C   UNL A   1      39.177  29.253  27.432  1.00  0.00     0.016 A 
ATOM     34  C   UNL A   1      41.097  28.395  29.293  1.00  0.00     0.010 A 
ATOM     35  C   UNL A   1      40.498  29.004  27.029  1.00  0.00     0.010 A 
ATOM     36  C   UNL A   1      41.477  28.610  27.961  1.00  0.00    -0.014 A 
BRANCH  36  37
ATOM     37  C   UNL A   1      42.919  28.649  27.582  1.00  0.00     0.031 A 
ATOM     38  C   UNL A   1      43.530  27.390  27.017  1.00  0.00     0.074 A 
ATOM     39  C   UNL A   1      43.683  29.749  27.724  1.00  0.00     0.049 A 
ATOM     40  N   UNL A   1      44.775  27.135  26.702  1.00  0.00    -0.248 NA
ATOM     41  C   UNL A   1      42.609  26.265  26.784  1.00  0.00     0.031 C 
ATOM     42  C   UNL A   1      43.222  31.051  28.199  1.00  0.00     0.029 A 
ATOM     43  N   UNL A   1      45.027  29.935  27.489  1.00  0.00    -0.354 N 
ATOM     44  C   UNL A   1      44.788  25.820  26.253  1.00  0.00     0.074 A 
ATOM     45  C   UNL A   1      43.435  25.321  26.361  1.00  0.00     0.031 C 
ATOM     46  C   UNL A   1      44.269  31.898  28.236  1.00  0.00     0.029 A 
ATOM     47  C   UNL A   1      45.482  31.189  27.827  1.00  0.00     0.049 A 
ATOM     48  H   UNL A   1      45.610  29.234  27.114  1.00  0.00     0.167 HD
ATOM     49  C   UNL A   1      45.829  25.086  25.790  1.00  0.00     0.031 A 
ATOM     50  C   UNL A   1      46.733  31.699  27.834  1.00  0.00     0.031 A 
ATOM     51  C   UNL A   1      47.180  25.570  25.694  1.00  0.00     0.049 A 
ATOM     52  C   UNL A   1      47.895  30.838  27.397  1.00  0.00     0.074 A 
ATOM     53  C   UNL A   1      48.299  24.902  25.227  1.00  0.00     0.029 A 
ATOM     54  N   UNL A   1      47.599  26.835  26.076  1.00  0.00    -0.354 N 
ATOM     55  N   UNL A   1      47.889  29.599  26.962  1.00  0.00    -0.248 NA
ATOM     56  C   UNL A   1      49.235  31.446  27.447  1.00  0.00     0.031 C 
ATOM     57  C   UNL A   1      49.406  25.740  25.388  1.00  0.00     0.029 A 
ATOM     58  C   UNL A   1      48.965  26.957  25.883  1.00  0.00     0.049 A 
ATOM     59  H   UNL A   1      47.013  27.540  26.433  1.00  0.00     0.167 HD
ATOM     60  C   UNL A   1      49.214  29.297  26.652  1.00  0.00     0.074 A 
ATOM     61  C   UNL A   1      49.992  30.481  26.942  1.00  0.00     0.031 C 
ATOM     62  C   UNL A   1      49.735  28.143  26.165  1.00  0.00     0.031 A 
BRANCH  49  63
ATOM     63  C   UNL A   1      45.552  23.660  25.393  1.00  0.00    -0.014 A 
ATOM     64  C   UNL A   1      45.900  22.585  26.232  1.00  0.00     0.010 A 
ATOM     65  C   UNL A   1      44.901  23.394  24.174  1.00  0.00     0.010 A 
ATOM     66  C   UNL A   1      45.640  21.270  25.839  1.00  0.00     0.020 A 
ATOM     67  C   UNL A   1      44.609  22.082  23.793  1.00  0.00     0.020 A 
ATOM     68  C   UNL A   1      44.997  21.027  24.621  1.00  0.00     0.054 A 
BRANCH  68  69
ATOM     69  S   UNL A   1      44.654  19.310  24.146  1.00  0.00     0.124 S 
ATOM     70  O   UNL A   1      44.670  19.393  22.688  1.00  0.00    -0.237 OA
ATOM     71  O   UNL A   1      45.772  18.585  24.746  1.00  0.00    -0.237 OA
ATOM     72  O   UNL A   1      43.347  19.039  24.740  1.00  0.00    -0.744 OA
ENDBRANCH  68  69
ENDBRANCH  49  63
BRANCH  50  73
ATOM     73  C   UNL A   1      46.971  33.098  28.298  1.00  0.00    -0.014 A 
ATOM     74  C   UNL A   1      47.017  34.164  27.382  1.00  0.00     0.010 A 
ATOM     75  C   UNL A   1      47.175  33.367  29.665  1.00  0.00     0.010 A 
ATOM     76  C   UNL A   1      47.277  35.467  27.821  1.00  0.00     0.020 A 
ATOM     77  C   UNL A   1      47.404  34.672  30.111  1.00  0.00     0.020 A 
ATOM     78  C   UNL A   1      47.463  35.713  29.183  1.00  0.00     0.054 A 
BRANCH  78  79
ATOM     79  S   UNL A   1      47.745  37.420  29.733  1.00  0.00     0.124 S 
ATOM     80  O   UNL A   1      48.239  38.056  28.517  1.00  0.00    -0.237 OA
ATOM     81  O   UNL A   1      46.412  37.834  30.168  1.00  0.00    -0.237 OA
ATOM     82  O   UNL A   1      48.725  37.275  30.808  1.00  0.00    -0.744 OA
ENDBRANCH  78  79
ENDBRANCH  50  73
BRANCH  62  83
ATOM     83  C   UNL A   1      51.211  28.105  25.856  1.00  0.00    -0.014 A 
ATOM     84  C   UNL A   1      52.155  27.674  26.804  1.00  0.00     0.010 A 
ATOM     85  C   UNL A   1      51.650  28.436  24.558  1.00  0.00     0.010 A 
ATOM     86  C   UNL A   1      53.512  27.599  26.469  1.00  0.00     0.020 A 
ATOM     87  C   UNL A   1      53.000  28.334  24.211  1.00  0.00     0.020 A 
ATOM     88  C   UNL A   1      53.925  27.928  25.174  1.00  0.00     0.054 A 
BRANCH  88  89
ATOM     89  S   UNL A   1      55.682  27.770  24.750  1.00  0.00     0.124 S 
ATOM     90  O   UNL A   1      55.707  26.505  24.021  1.00  0.00    -0.237 OA
ATOM     91  O   UNL A   1      55.925  28.966  23.946  1.00  0.00    -0.237 OA
ATOM     92  O   UNL A   1      56.353  27.753  26.049  1.00  0.00    -0.744 OA
ENDBRANCH  88  89
ENDBRANCH  62  83
ENDBRANCH  36  37
ENDBRANCH  29  31
ENDBRANCH  28  29
ENDBRANCH  27  28
ENDBRANCH  26  27
ENDBRANCH  25  26
ENDBRANCH  24  25
ENDBRANCH   1  24
TORSDOF 25
ENDMDL
