MODEL 1
REMARK VINA RESULT:     -10.7      0.000      0.000
REMARK SMILES O=C(Cn1nc(C(=O)OCCOCCOCCOC(=O)c2ccc(-c3c4nc(c(-c5ccc(S(=O)(=O)[O-])cc5)c5ccc([nH]5)c(-c5ccc(S(=O)(=O)[O-])cc5)c5nc(c(-c6ccc(S(=O)(=O)[O-])cc6)c6ccc3[nH]6)C=C5)C=C4)cc2)c2ccccc2c1=O)Nc1ccc2c(c1)C(=O)c1ccccc1C2=O
REMARK SMILES IDX 13 1 12 2 11 3 10 4 9 5 7 6 8 7 6 8 4 9 5 10 87 11 86 12
REMARK SMILES IDX 88 13 81 14 85 15 82 16 84 17 83 18 3 19 2 20 1 21 89 22
REMARK SMILES IDX 90 24 91 25 95 26 92 27 94 28 93 29 96 30 104 31 97 32 98 33
REMARK SMILES IDX 103 34 105 35 99 36 102 37 100 38 101 39 14 40 15 41 16 42
REMARK SMILES IDX 17 43 18 44 19 45 20 46 21 47 22 48 80 49 23 50 79 51 24 52
REMARK SMILES IDX 25 53 26 54 73 55 27 56 78 57 72 58 74 59 28 60 77 61 71 62
REMARK SMILES IDX 70 63 29 65 59 66 40 67 58 68 41 69 44 70 57 71 75 72 42 73
REMARK SMILES IDX 43 74 56 76 76 77 45 78 30 79 31 80 39 81 32 82 38 83 33 84
REMARK SMILES IDX 34 85 35 86 36 87 37 88 60 89 61 90 69 91 62 92 68 93 63 94
REMARK SMILES IDX 64 95 65 96 66 97 67 98 46 99 47 100 55 101 48 102 54 103
REMARK SMILES IDX 49 104 50 105 51 106 52 107 53 108
REMARK H PARENT 89 23 74 64 44 75
REMARK Flexibility Score: inf
ROOT
ATOM      1  C   UNL A   1      51.951  24.227  40.535  1.00  0.00     0.188 C 
ENDROOT
BRANCH   1   2
ATOM      2  O   UNL A   1      51.727  22.969  41.161  1.00  0.00    -0.376 OA
BRANCH   2   3
ATOM      3  C   UNL A   1      51.454  21.882  40.286  1.00  0.00     0.202 C 
BRANCH   3   4
ATOM      4  C   UNL A   1      50.048  21.312  40.478  1.00  0.00     0.261 C 
BRANCH   4   5
ATOM      5  O   UNL A   1      49.184  21.599  39.368  1.00  0.00    -0.458 OA
BRANCH   5   6
ATOM      6  C   UNL A   1      47.865  21.660  39.617  1.00  0.00     0.359 C 
ATOM      7  O   UNL A   1      47.256  22.541  40.188  1.00  0.00    -0.244 OA
BRANCH   6   8
ATOM      8  C   UNL A   1      47.182  20.449  38.987  1.00  0.00     0.176 A 
ATOM      9  N   UNL A   1      46.300  18.322  39.232  1.00  0.00    -0.219 N 
ATOM     10  N   UNL A   1      46.962  19.420  39.757  1.00  0.00    -0.161 NA
ATOM     11  C   UNL A   1      45.645  18.365  38.002  1.00  0.00     0.275 A 
ATOM     12  C   UNL A   1      46.077  19.422  37.074  1.00  0.00     0.051 A 
ATOM     13  O   UNL A   1      44.765  17.582  37.654  1.00  0.00    -0.267 OA
ATOM     14  C   UNL A   1      46.825  20.489  37.558  1.00  0.00     0.022 A 
ATOM     15  C   UNL A   1      45.737  19.346  35.716  1.00  0.00     0.014 A 
ATOM     16  C   UNL A   1      47.213  21.511  36.683  1.00  0.00     0.011 A 
ATOM     17  C   UNL A   1      46.144  20.351  34.843  1.00  0.00     0.001 A 
ATOM     18  C   UNL A   1      46.871  21.437  35.329  1.00  0.00     0.001 A 
BRANCH   9  19
ATOM     19  C   UNL A   1      45.995  17.241  40.175  1.00  0.00     0.248 C 
BRANCH  19  20
ATOM     20  C   UNL A   1      44.565  17.337  40.737  1.00  0.00     0.246 C 
ATOM     21  O   UNL A   1      44.221  18.228  41.510  1.00  0.00    -0.273 OA
ATOM     22  N   UNL A   1      43.763  16.266  40.345  1.00  0.00    -0.324 N 
ATOM     23  H   UNL A   1      43.841  15.961  39.412  1.00  0.00     0.169 HD
BRANCH  22  24
ATOM     24  C   UNL A   1      42.849  15.583  41.180  1.00  0.00     0.042 A 
ATOM     25  C   UNL A   1      41.968  14.683  40.555  1.00  0.00     0.027 A 
ATOM     26  C   UNL A   1      42.978  15.570  42.571  1.00  0.00     0.039 A 
ATOM     27  C   UNL A   1      41.367  13.653  41.283  1.00  0.00     0.015 A 
ATOM     28  C   UNL A   1      42.434  14.501  43.281  1.00  0.00     0.036 A 
ATOM     29  C   UNL A   1      41.694  13.514  42.630  1.00  0.00     0.034 A 
ATOM     30  C   UNL A   1      42.911  14.244  44.654  1.00  0.00     0.194 C 
ATOM     31  C   UNL A   1      41.546  12.191  43.277  1.00  0.00     0.194 C 
ATOM     32  O   UNL A   1      43.082  15.132  45.462  1.00  0.00    -0.289 OA
ATOM     33  C   UNL A   1      43.283  12.841  44.923  1.00  0.00     0.034 A 
ATOM     34  C   UNL A   1      42.630  11.827  44.220  1.00  0.00     0.034 A 
ATOM     35  O   UNL A   1      40.675  11.403  42.946  1.00  0.00    -0.289 OA
ATOM     36  C   UNL A   1      44.390  12.561  45.722  1.00  0.00     0.013 A 
ATOM     37  C   UNL A   1      43.103  10.517  44.282  1.00  0.00     0.013 A 
ATOM     38  C   UNL A   1      44.882  11.255  45.760  1.00  0.00     0.001 A 
ATOM     39  C   UNL A   1      44.247  10.241  45.035  1.00  0.00     0.001 A 
ENDBRANCH  22  24
ENDBRANCH  19  20
ENDBRANCH   9  19
ENDBRANCH   6   8
ENDBRANCH   5   6
ENDBRANCH   4   5
ENDBRANCH   3   4
ENDBRANCH   2   3
ENDBRANCH   1   2
BRANCH   1  40
ATOM     40  C   UNL A   1      50.728  24.782  39.776  1.00  0.00     0.188 C 
BRANCH  40  41
ATOM     41  O   UNL A   1      50.830  26.039  39.118  1.00  0.00    -0.376 OA
BRANCH  41  42
ATOM     42  C   UNL A   1      50.777  26.082  37.698  1.00  0.00     0.202 C 
BRANCH  42  43
ATOM     43  C   UNL A   1      49.557  26.756  37.066  1.00  0.00     0.261 C 
BRANCH  43  44
ATOM     44  O   UNL A   1      48.600  27.205  38.040  1.00  0.00    -0.460 OA
BRANCH  44  45
ATOM     45  C   UNL A   1      47.437  26.507  38.084  1.00  0.00     0.338 C 
ATOM     46  O   UNL A   1      47.213  25.482  38.703  1.00  0.00    -0.246 OA
BRANCH  45  47
ATOM     47  C   UNL A   1      46.384  27.282  37.395  1.00  0.00     0.060 A 
ATOM     48  C   UNL A   1      46.668  28.502  36.776  1.00  0.00     0.016 A 
ATOM     49  C   UNL A   1      45.089  26.752  37.357  1.00  0.00     0.016 A 
ATOM     50  C   UNL A   1      45.651  29.182  36.099  1.00  0.00     0.010 A 
ATOM     51  C   UNL A   1      44.071  27.442  36.698  1.00  0.00     0.010 A 
ATOM     52  C   UNL A   1      44.349  28.655  36.052  1.00  0.00    -0.014 A 
BRANCH  52  53
ATOM     53  C   UNL A   1      43.304  29.318  35.237  1.00  0.00     0.031 A 
ATOM     54  C   UNL A   1      43.057  28.918  33.815  1.00  0.00     0.074 A 
ATOM     55  C   UNL A   1      42.570  30.297  35.799  1.00  0.00     0.049 A 
ATOM     56  N   UNL A   1      42.150  29.362  32.985  1.00  0.00    -0.248 NA
ATOM     57  C   UNL A   1      43.946  27.893  33.248  1.00  0.00     0.031 C 
ATOM     58  C   UNL A   1      42.722  30.768  37.176  1.00  0.00     0.029 A 
ATOM     59  N   UNL A   1      41.550  31.062  35.291  1.00  0.00    -0.354 N 
ATOM     60  C   UNL A   1      42.337  28.657  31.804  1.00  0.00     0.074 A 
ATOM     61  C   UNL A   1      43.480  27.791  32.008  1.00  0.00     0.031 C 
ATOM     62  C   UNL A   1      41.811  31.725  37.412  1.00  0.00     0.029 A 
ATOM     63  C   UNL A   1      41.025  31.950  36.200  1.00  0.00     0.049 A 
ATOM     64  H   UNL A   1      41.226  30.982  34.365  1.00  0.00     0.167 HD
ATOM     65  C   UNL A   1      41.604  28.714  30.667  1.00  0.00     0.031 A 
ATOM     66  C   UNL A   1      40.015  32.835  36.082  1.00  0.00     0.031 A 
ATOM     67  C   UNL A   1      40.471  29.583  30.473  1.00  0.00     0.049 A 
ATOM     68  C   UNL A   1      39.248  32.915  34.794  1.00  0.00     0.074 A 
ATOM     69  C   UNL A   1      39.650  29.682  29.362  1.00  0.00     0.029 A 
ATOM     70  N   UNL A   1      39.999  30.500  31.401  1.00  0.00    -0.354 N 
ATOM     71  N   UNL A   1      39.407  32.207  33.702  1.00  0.00    -0.248 NA
ATOM     72  C   UNL A   1      38.156  33.896  34.723  1.00  0.00     0.031 C 
ATOM     73  C   UNL A   1      38.719  30.697  29.594  1.00  0.00     0.029 A 
ATOM     74  C   UNL A   1      38.916  31.186  30.876  1.00  0.00     0.049 A 
ATOM     75  H   UNL A   1      40.377  30.641  32.299  1.00  0.00     0.167 HD
ATOM     76  C   UNL A   1      38.421  32.639  32.822  1.00  0.00     0.074 A 
ATOM     77  C   UNL A   1      37.667  33.667  33.509  1.00  0.00     0.031 C 
ATOM     78  C   UNL A   1      38.167  32.212  31.562  1.00  0.00     0.031 A 
BRANCH  65  79
ATOM     79  C   UNL A   1      41.979  27.798  29.531  1.00  0.00    -0.014 A 
ATOM     80  C   UNL A   1      42.989  28.175  28.626  1.00  0.00     0.010 A 
ATOM     81  C   UNL A   1      41.244  26.624  29.287  1.00  0.00     0.010 A 
ATOM     82  C   UNL A   1      43.242  27.407  27.486  1.00  0.00     0.020 A 
ATOM     83  C   UNL A   1      41.513  25.840  28.161  1.00  0.00     0.020 A 
ATOM     84  C   UNL A   1      42.495  26.248  27.258  1.00  0.00     0.054 A 
BRANCH  84  85
ATOM     85  S   UNL A   1      42.830  25.266  25.769  1.00  0.00     0.124 S 
ATOM     86  O   UNL A   1      44.287  25.290  25.705  1.00  0.00    -0.237 OA
ATOM     87  O   UNL A   1      42.231  23.974  26.098  1.00  0.00    -0.237 OA
ATOM     88  O   UNL A   1      42.143  26.007  24.713  1.00  0.00    -0.744 OA
ENDBRANCH  84  85
ENDBRANCH  65  79
BRANCH  66  89
ATOM     89  C   UNL A   1      39.649  33.660  37.263  1.00  0.00    -0.014 A 
ATOM     90  C   UNL A   1      40.329  34.863  37.532  1.00  0.00     0.010 A 
ATOM     91  C   UNL A   1      38.701  33.189  38.187  1.00  0.00     0.010 A 
ATOM     92  C   UNL A   1      40.112  35.547  38.730  1.00  0.00     0.020 A 
ATOM     93  C   UNL A   1      38.463  33.884  39.376  1.00  0.00     0.020 A 
ATOM     94  C   UNL A   1      39.192  35.041  39.653  1.00  0.00     0.054 A 
BRANCH  94  95
ATOM     95  S   UNL A   1      38.980  35.902  41.235  1.00  0.00     0.124 S 
ATOM     96  O   UNL A   1      38.999  37.301  40.820  1.00  0.00    -0.237 OA
ATOM     97  O   UNL A   1      37.689  35.401  41.702  1.00  0.00    -0.237 OA
ATOM     98  O   UNL A   1      40.134  35.465  42.018  1.00  0.00    -0.744 OA
ENDBRANCH  94  95
ENDBRANCH  66  89
BRANCH  78  99
ATOM     99  C   UNL A   1      37.024  32.838  30.806  1.00  0.00    -0.014 A 
ATOM    100  C   UNL A   1      37.294  33.751  29.769  1.00  0.00     0.010 A 
ATOM    101  C   UNL A   1      35.696  32.651  31.226  1.00  0.00     0.010 A 
ATOM    102  C   UNL A   1      36.264  34.503  29.199  1.00  0.00     0.020 A 
ATOM    103  C   UNL A   1      34.659  33.384  30.640  1.00  0.00     0.020 A 
ATOM    104  C   UNL A   1      34.954  34.327  29.652  1.00  0.00     0.054 A 
BRANCH 104 105
ATOM    105  S   UNL A   1      33.639  35.361  28.951  1.00  0.00     0.124 S 
ATOM    106  O   UNL A   1      34.305  35.966  27.801  1.00  0.00    -0.237 OA
ATOM    107  O   UNL A   1      32.597  34.387  28.634  1.00  0.00    -0.237 OA
ATOM    108  O   UNL A   1      33.310  36.281  30.038  1.00  0.00    -0.744 OA
ENDBRANCH 104 105
ENDBRANCH  78  99
ENDBRANCH  52  53
ENDBRANCH  45  47
ENDBRANCH  44  45
ENDBRANCH  43  44
ENDBRANCH  42  43
ENDBRANCH  41  42
ENDBRANCH  40  41
ENDBRANCH   1  40
TORSDOF 23
ENDMDL
MODEL 2
REMARK VINA RESULT:     -10.6      9.970     14.397
REMARK SMILES O=C(Cn1nc(C(=O)OCCOCCOCCOC(=O)c2ccc(-c3c4nc(c(-c5ccc(S(=O)(=O)[O-])cc5)c5ccc([nH]5)c(-c5ccc(S(=O)(=O)[O-])cc5)c5nc(c(-c6ccc(S(=O)(=O)[O-])cc6)c6ccc3[nH]6)C=C5)C=C4)cc2)c2ccccc2c1=O)Nc1ccc2c(c1)C(=O)c1ccccc1C2=O
REMARK SMILES IDX 13 1 12 2 11 3 10 4 9 5 7 6 8 7 6 8 4 9 5 10 87 11 86 12
REMARK SMILES IDX 88 13 81 14 85 15 82 16 84 17 83 18 3 19 2 20 1 21 89 22
REMARK SMILES IDX 90 24 91 25 95 26 92 27 94 28 93 29 96 30 104 31 97 32 98 33
REMARK SMILES IDX 103 34 105 35 99 36 102 37 100 38 101 39 14 40 15 41 16 42
REMARK SMILES IDX 17 43 18 44 19 45 20 46 21 47 22 48 80 49 23 50 79 51 24 52
REMARK SMILES IDX 25 53 26 54 73 55 27 56 78 57 72 58 74 59 28 60 77 61 71 62
REMARK SMILES IDX 70 63 29 65 59 66 40 67 58 68 41 69 44 70 57 71 75 72 42 73
REMARK SMILES IDX 43 74 56 76 76 77 45 78 30 79 31 80 39 81 32 82 38 83 33 84
REMARK SMILES IDX 34 85 35 86 36 87 37 88 60 89 61 90 69 91 62 92 68 93 63 94
REMARK SMILES IDX 64 95 65 96 66 97 67 98 46 99 47 100 55 101 48 102 54 103
REMARK SMILES IDX 49 104 50 105 51 106 52 107 53 108
REMARK H PARENT 89 23 74 64 44 75
REMARK Flexibility Score: inf
ROOT
ATOM      1  C   UNL A   1      37.736  30.011  27.923  1.00  0.00     0.188 C 
ENDROOT
BRANCH   1   2
ATOM      2  O   UNL A   1      38.932  30.349  28.614  1.00  0.00    -0.376 OA
BRANCH   2   3
ATOM      3  C   UNL A   1      39.925  29.332  28.667  1.00  0.00     0.202 C 
BRANCH   3   4
ATOM      4  C   UNL A   1      40.264  28.769  27.286  1.00  0.00     0.261 C 
BRANCH   4   5
ATOM      5  O   UNL A   1      40.081  27.347  27.214  1.00  0.00    -0.458 OA
BRANCH   5   6
ATOM      6  C   UNL A   1      40.955  26.653  26.465  1.00  0.00     0.359 C 
ATOM      7  O   UNL A   1      41.596  27.048  25.513  1.00  0.00    -0.244 OA
BRANCH   6   8
ATOM      8  C   UNL A   1      41.104  25.249  27.045  1.00  0.00     0.176 A 
ATOM      9  N   UNL A   1      40.406  23.042  27.093  1.00  0.00    -0.219 N 
ATOM     10  N   UNL A   1      40.269  24.339  26.626  1.00  0.00    -0.161 NA
ATOM     11  C   UNL A   1      41.535  22.616  27.792  1.00  0.00     0.275 A 
ATOM     12  C   UNL A   1      42.337  23.671  28.433  1.00  0.00     0.051 A 
ATOM     13  O   UNL A   1      41.879  21.443  27.913  1.00  0.00    -0.267 OA
ATOM     14  C   UNL A   1      42.152  24.994  28.049  1.00  0.00     0.022 A 
ATOM     15  C   UNL A   1      43.273  23.338  29.421  1.00  0.00     0.014 A 
ATOM     16  C   UNL A   1      42.934  25.997  28.635  1.00  0.00     0.011 A 
ATOM     17  C   UNL A   1      44.033  24.339  30.020  1.00  0.00     0.001 A 
ATOM     18  C   UNL A   1      43.870  25.664  29.619  1.00  0.00     0.001 A 
BRANCH   9  19
ATOM     19  C   UNL A   1      39.502  22.046  26.508  1.00  0.00     0.248 C 
BRANCH  19  20
ATOM     20  C   UNL A   1      38.252  22.685  25.875  1.00  0.00     0.246 C 
ATOM     21  O   UNL A   1      37.624  23.586  26.428  1.00  0.00    -0.273 OA
ATOM     22  N   UNL A   1      37.883  22.069  24.681  1.00  0.00    -0.324 N 
ATOM     23  H   UNL A   1      38.604  21.822  24.057  1.00  0.00     0.169 HD
BRANCH  22  24
ATOM     24  C   UNL A   1      36.556  21.770  24.294  1.00  0.00     0.042 A 
ATOM     25  C   UNL A   1      35.934  20.689  24.944  1.00  0.00     0.027 A 
ATOM     26  C   UNL A   1      35.788  22.648  23.525  1.00  0.00     0.039 A 
ATOM     27  C   UNL A   1      34.541  20.590  24.987  1.00  0.00     0.015 A 
ATOM     28  C   UNL A   1      34.400  22.587  23.630  1.00  0.00     0.036 A 
ATOM     29  C   UNL A   1      33.785  21.609  24.411  1.00  0.00     0.034 A 
ATOM     30  C   UNL A   1      33.602  23.745  23.180  1.00  0.00     0.194 C 
ATOM     31  C   UNL A   1      32.403  21.842  24.888  1.00  0.00     0.194 C 
ATOM     32  O   UNL A   1      33.836  24.336  22.147  1.00  0.00    -0.289 OA
ATOM     33  C   UNL A   1      32.583  24.201  24.146  1.00  0.00     0.034 A 
ATOM     34  C   UNL A   1      32.012  23.266  25.011  1.00  0.00     0.034 A 
ATOM     35  O   UNL A   1      31.695  20.933  25.288  1.00  0.00    -0.289 OA
ATOM     36  C   UNL A   1      32.344  25.565  24.305  1.00  0.00     0.013 A 
ATOM     37  C   UNL A   1      31.219  23.693  26.076  1.00  0.00     0.013 A 
ATOM     38  C   UNL A   1      31.576  25.994  25.388  1.00  0.00     0.001 A 
ATOM     39  C   UNL A   1      31.024  25.062  26.275  1.00  0.00     0.001 A 
ENDBRANCH  22  24
ENDBRANCH  19  20
ENDBRANCH   9  19
ENDBRANCH   6   8
ENDBRANCH   5   6
ENDBRANCH   4   5
ENDBRANCH   3   4
ENDBRANCH   2   3
ENDBRANCH   1   2
BRANCH   1  40
ATOM     40  C   UNL A   1      36.453  30.583  28.562  1.00  0.00     0.188 C 
BRANCH  40  41
ATOM     41  O   UNL A   1      36.299  30.536  29.975  1.00  0.00    -0.376 OA
BRANCH  41  42
ATOM     42  C   UNL A   1      36.544  29.312  30.655  1.00  0.00     0.202 C 
BRANCH  42  43
ATOM     43  C   UNL A   1      37.302  29.392  31.982  1.00  0.00     0.261 C 
BRANCH  43  44
ATOM     44  O   UNL A   1      36.894  30.507  32.793  1.00  0.00    -0.460 OA
BRANCH  44  45
ATOM     45  C   UNL A   1      37.823  30.965  33.669  1.00  0.00     0.338 C 
ATOM     46  O   UNL A   1      37.764  30.945  34.887  1.00  0.00    -0.246 OA
BRANCH  45  47
ATOM     47  C   UNL A   1      39.041  31.345  32.926  1.00  0.00     0.060 A 
ATOM     48  C   UNL A   1      38.965  32.011  31.700  1.00  0.00     0.016 A 
ATOM     49  C   UNL A   1      40.285  31.041  33.492  1.00  0.00     0.016 A 
ATOM     50  C   UNL A   1      40.143  32.390  31.049  1.00  0.00     0.010 A 
ATOM     51  C   UNL A   1      41.460  31.403  32.831  1.00  0.00     0.010 A 
ATOM     52  C   UNL A   1      41.396  32.093  31.612  1.00  0.00    -0.014 A 
BRANCH  52  53
ATOM     53  C   UNL A   1      42.638  32.598  30.979  1.00  0.00     0.031 A 
ATOM     54  C   UNL A   1      43.533  31.689  30.194  1.00  0.00     0.074 A 
ATOM     55  C   UNL A   1      42.954  33.899  31.122  1.00  0.00     0.049 A 
ATOM     56  N   UNL A   1      44.624  31.984  29.536  1.00  0.00    -0.248 NA
ATOM     57  C   UNL A   1      43.162  30.268  30.143  1.00  0.00     0.031 C 
ATOM     58  C   UNL A   1      42.155  34.875  31.862  1.00  0.00     0.029 A 
ATOM     59  N   UNL A   1      44.017  34.624  30.644  1.00  0.00    -0.354 N 
ATOM     60  C   UNL A   1      45.060  30.793  28.971  1.00  0.00     0.074 A 
ATOM     61  C   UNL A   1      44.144  29.760  29.408  1.00  0.00     0.031 C 
ATOM     62  C   UNL A   1      42.743  36.078  31.771  1.00  0.00     0.029 A 
ATOM     63  C   UNL A   1      43.968  35.955  30.983  1.00  0.00     0.049 A 
ATOM     64  H   UNL A   1      44.743  34.229  30.110  1.00  0.00     0.167 HD
ATOM     65  C   UNL A   1      46.116  30.592  28.147  1.00  0.00     0.031 A 
ATOM     66  C   UNL A   1      44.804  36.970  30.684  1.00  0.00     0.031 A 
ATOM     67  C   UNL A   1      47.024  31.627  27.723  1.00  0.00     0.049 A 
ATOM     68  C   UNL A   1      45.995  36.713  29.807  1.00  0.00     0.074 A 
ATOM     69  C   UNL A   1      48.102  31.517  26.860  1.00  0.00     0.029 A 
ATOM     70  N   UNL A   1      46.969  32.954  28.124  1.00  0.00    -0.354 N 
ATOM     71  N   UNL A   1      46.368  35.590  29.242  1.00  0.00    -0.248 NA
ATOM     72  C   UNL A   1      46.870  37.856  29.511  1.00  0.00     0.031 C 
ATOM     73  C   UNL A   1      48.733  32.761  26.786  1.00  0.00     0.029 A 
ATOM     74  C   UNL A   1      48.010  33.664  27.549  1.00  0.00     0.049 A 
ATOM     75  H   UNL A   1      46.290  33.333  28.728  1.00  0.00     0.167 HD
ATOM     76  C   UNL A   1      47.506  35.895  28.503  1.00  0.00     0.074 A 
ATOM     77  C   UNL A   1      47.760  37.309  28.690  1.00  0.00     0.031 C 
ATOM     78  C   UNL A   1      48.262  35.072  27.738  1.00  0.00     0.031 A 
BRANCH  65  79
ATOM     79  C   UNL A   1      46.350  29.201  27.617  1.00  0.00    -0.014 A 
ATOM     80  C   UNL A   1      45.916  28.859  26.322  1.00  0.00     0.010 A 
ATOM     81  C   UNL A   1      46.885  28.200  28.447  1.00  0.00     0.010 A 
ATOM     82  C   UNL A   1      45.992  27.537  25.876  1.00  0.00     0.020 A 
ATOM     83  C   UNL A   1      46.985  26.882  27.994  1.00  0.00     0.020 A 
ATOM     84  C   UNL A   1      46.519  26.555  26.720  1.00  0.00     0.054 A 
BRANCH  84  85
ATOM     85  S   UNL A   1      46.603  24.841  26.129  1.00  0.00     0.124 S 
ATOM     86  O   UNL A   1      45.358  24.278  26.640  1.00  0.00    -0.237 OA
ATOM     87  O   UNL A   1      46.677  25.006  24.679  1.00  0.00    -0.237 OA
ATOM     88  O   UNL A   1      47.824  24.330  26.749  1.00  0.00    -0.744 OA
ENDBRANCH  84  85
ENDBRANCH  65  79
BRANCH  66  89
ATOM     89  C   UNL A   1      44.477  38.333  31.180  1.00  0.00    -0.014 A 
ATOM     90  C   UNL A   1      44.799  38.709  32.497  1.00  0.00     0.010 A 
ATOM     91  C   UNL A   1      43.739  39.218  30.375  1.00  0.00     0.010 A 
ATOM     92  C   UNL A   1      44.338  39.919  33.021  1.00  0.00     0.020 A 
ATOM     93  C   UNL A   1      43.297  40.440  30.888  1.00  0.00     0.020 A 
ATOM     94  C   UNL A   1      43.573  40.768  32.217  1.00  0.00     0.054 A 
BRANCH  94  95
ATOM     95  S   UNL A   1      42.918  42.298  32.938  1.00  0.00     0.124 S 
ATOM     96  O   UNL A   1      44.126  42.912  33.484  1.00  0.00    -0.237 OA
ATOM     97  O   UNL A   1      42.336  42.974  31.781  1.00  0.00    -0.237 OA
ATOM     98  O   UNL A   1      41.955  41.823  33.929  1.00  0.00    -0.744 OA
ENDBRANCH  94  95
ENDBRANCH  66  89
BRANCH  78  99
ATOM     99  C   UNL A   1      49.455  35.650  27.022  1.00  0.00    -0.014 A 
ATOM    100  C   UNL A   1      49.320  36.095  25.693  1.00  0.00     0.010 A 
ATOM    101  C   UNL A   1      50.735  35.603  27.602  1.00  0.00     0.010 A 
ATOM    102  C   UNL A   1      50.447  36.435  24.940  1.00  0.00     0.020 A 
ATOM    103  C   UNL A   1      51.862  35.965  26.858  1.00  0.00     0.020 A 
ATOM    104  C   UNL A   1      51.714  36.349  25.524  1.00  0.00     0.054 A 
BRANCH 104 105
ATOM    105  S   UNL A   1      53.171  36.726  24.510  1.00  0.00     0.124 S 
ATOM    106  O   UNL A   1      53.209  38.185  24.557  1.00  0.00    -0.237 OA
ATOM    107  O   UNL A   1      54.246  36.045  25.227  1.00  0.00    -0.237 OA
ATOM    108  O   UNL A   1      52.839  36.150  23.208  1.00  0.00    -0.744 OA
ENDBRANCH 104 105
ENDBRANCH  78  99
ENDBRANCH  52  53
ENDBRANCH  45  47
ENDBRANCH  44  45
ENDBRANCH  43  44
ENDBRANCH  42  43
ENDBRANCH  41  42
ENDBRANCH  40  41
ENDBRANCH   1  40
TORSDOF 23
ENDMDL
MODEL 3
REMARK VINA RESULT:     -10.5      9.649     15.984
REMARK SMILES O=C(Cn1nc(C(=O)OCCOCCOCCOC(=O)c2ccc(-c3c4nc(c(-c5ccc(S(=O)(=O)[O-])cc5)c5ccc([nH]5)c(-c5ccc(S(=O)(=O)[O-])cc5)c5nc(c(-c6ccc(S(=O)(=O)[O-])cc6)c6ccc3[nH]6)C=C5)C=C4)cc2)c2ccccc2c1=O)Nc1ccc2c(c1)C(=O)c1ccccc1C2=O
REMARK SMILES IDX 13 1 12 2 11 3 10 4 9 5 7 6 8 7 6 8 4 9 5 10 87 11 86 12
REMARK SMILES IDX 88 13 81 14 85 15 82 16 84 17 83 18 3 19 2 20 1 21 89 22
REMARK SMILES IDX 90 24 91 25 95 26 92 27 94 28 93 29 96 30 104 31 97 32 98 33
REMARK SMILES IDX 103 34 105 35 99 36 102 37 100 38 101 39 14 40 15 41 16 42
REMARK SMILES IDX 17 43 18 44 19 45 20 46 21 47 22 48 80 49 23 50 79 51 24 52
REMARK SMILES IDX 25 53 26 54 73 55 27 56 78 57 72 58 74 59 28 60 77 61 71 62
REMARK SMILES IDX 70 63 29 65 59 66 40 67 58 68 41 69 44 70 57 71 75 72 42 73
REMARK SMILES IDX 43 74 56 76 76 77 45 78 30 79 31 80 39 81 32 82 38 83 33 84
REMARK SMILES IDX 34 85 35 86 36 87 37 88 60 89 61 90 69 91 62 92 68 93 63 94
REMARK SMILES IDX 64 95 65 96 66 97 67 98 46 99 47 100 55 101 48 102 54 103
REMARK SMILES IDX 49 104 50 105 51 106 52 107 53 108
REMARK H PARENT 89 23 74 64 44 75
REMARK Flexibility Score: inf
ROOT
ATOM      1  C   UNL A   1      39.558  24.507  27.221  1.00  0.00     0.188 C 
ENDROOT
BRANCH   1   2
ATOM      2  O   UNL A   1      40.020  25.532  26.350  1.00  0.00    -0.376 OA
BRANCH   2   3
ATOM      3  C   UNL A   1      40.309  26.782  26.965  1.00  0.00     0.202 C 
BRANCH   3   4
ATOM      4  C   UNL A   1      39.265  27.179  28.009  1.00  0.00     0.261 C 
BRANCH   4   5
ATOM      5  O   UNL A   1      39.506  28.483  28.558  1.00  0.00    -0.458 OA
BRANCH   5   6
ATOM      6  C   UNL A   1      38.847  28.808  29.683  1.00  0.00     0.359 C 
ATOM      7  O   UNL A   1      39.095  28.456  30.818  1.00  0.00    -0.244 OA
BRANCH   6   8
ATOM      8  C   UNL A   1      37.731  29.792  29.341  1.00  0.00     0.176 A 
ATOM      9  N   UNL A   1      35.576  30.156  28.577  1.00  0.00    -0.219 N 
ATOM     10  N   UNL A   1      36.628  29.298  28.852  1.00  0.00    -0.161 NA
ATOM     11  C   UNL A   1      35.555  31.476  29.025  1.00  0.00     0.275 A 
ATOM     12  C   UNL A   1      36.858  32.067  29.367  1.00  0.00     0.051 A 
ATOM     13  O   UNL A   1      34.539  32.159  29.132  1.00  0.00    -0.267 OA
ATOM     14  C   UNL A   1      37.954  31.233  29.557  1.00  0.00     0.022 A 
ATOM     15  C   UNL A   1      36.987  33.456  29.496  1.00  0.00     0.014 A 
ATOM     16  C   UNL A   1      39.190  31.789  29.911  1.00  0.00     0.011 A 
ATOM     17  C   UNL A   1      38.222  34.010  29.825  1.00  0.00     0.001 A 
ATOM     18  C   UNL A   1      39.317  33.175  30.042  1.00  0.00     0.001 A 
BRANCH   9  19
ATOM     19  C   UNL A   1      34.331  29.527  28.125  1.00  0.00     0.248 C 
BRANCH  19  20
ATOM     20  C   UNL A   1      33.976  29.898  26.674  1.00  0.00     0.246 C 
ATOM     21  O   UNL A   1      33.318  30.897  26.393  1.00  0.00    -0.273 OA
ATOM     22  N   UNL A   1      34.403  28.938  25.757  1.00  0.00    -0.324 N 
ATOM     23  H   UNL A   1      35.294  28.544  25.897  1.00  0.00     0.169 HD
BRANCH  22  24
ATOM     24  C   UNL A   1      33.656  28.485  24.645  1.00  0.00     0.042 A 
ATOM     25  C   UNL A   1      34.262  28.608  23.382  1.00  0.00     0.027 A 
ATOM     26  C   UNL A   1      32.508  27.701  24.787  1.00  0.00     0.039 A 
ATOM     27  C   UNL A   1      33.846  27.811  22.312  1.00  0.00     0.015 A 
ATOM     28  C   UNL A   1      32.143  26.858  23.739  1.00  0.00     0.036 A 
ATOM     29  C   UNL A   1      32.851  26.864  22.538  1.00  0.00     0.034 A 
ATOM     30  C   UNL A   1      31.219  25.740  24.017  1.00  0.00     0.194 C 
ATOM     31  C   UNL A   1      32.768  25.678  21.656  1.00  0.00     0.194 C 
ATOM     32  O   UNL A   1      30.231  25.866  24.708  1.00  0.00    -0.289 OA
ATOM     33  C   UNL A   1      31.664  24.432  23.495  1.00  0.00     0.034 A 
ATOM     34  C   UNL A   1      32.455  24.403  22.345  1.00  0.00     0.034 A 
ATOM     35  O   UNL A   1      33.080  25.725  20.478  1.00  0.00    -0.289 OA
ATOM     36  C   UNL A   1      31.447  23.279  24.246  1.00  0.00     0.013 A 
ATOM     37  C   UNL A   1      33.072  23.216  21.952  1.00  0.00     0.013 A 
ATOM     38  C   UNL A   1      32.090  22.099  23.871  1.00  0.00     0.001 A 
ATOM     39  C   UNL A   1      32.907  22.070  22.734  1.00  0.00     0.001 A 
ENDBRANCH  22  24
ENDBRANCH  19  20
ENDBRANCH   9  19
ENDBRANCH   6   8
ENDBRANCH   5   6
ENDBRANCH   4   5
ENDBRANCH   3   4
ENDBRANCH   2   3
ENDBRANCH   1   2
BRANCH   1  40
ATOM     40  C   UNL A   1      40.600  23.407  27.512  1.00  0.00     0.188 C 
BRANCH  40  41
ATOM     41  O   UNL A   1      41.834  23.413  26.805  1.00  0.00    -0.376 OA
BRANCH  41  42
ATOM     42  C   UNL A   1      42.979  22.829  27.410  1.00  0.00     0.202 C 
BRANCH  42  43
ATOM     43  C   UNL A   1      44.095  23.778  27.854  1.00  0.00     0.261 C 
BRANCH  43  44
ATOM     44  O   UNL A   1      43.596  24.972  28.480  1.00  0.00    -0.460 OA
BRANCH  44  45
ATOM     45  C   UNL A   1      43.816  25.069  29.815  1.00  0.00     0.338 C 
ATOM     46  O   UNL A   1      44.174  24.183  30.572  1.00  0.00    -0.246 OA
BRANCH  45  47
ATOM     47  C   UNL A   1      43.732  26.489  30.216  1.00  0.00     0.060 A 
ATOM     48  C   UNL A   1      44.468  26.983  31.295  1.00  0.00     0.016 A 
ATOM     49  C   UNL A   1      42.908  27.340  29.469  1.00  0.00     0.016 A 
ATOM     50  C   UNL A   1      44.393  28.342  31.613  1.00  0.00     0.010 A 
ATOM     51  C   UNL A   1      42.819  28.693  29.802  1.00  0.00     0.010 A 
ATOM     52  C   UNL A   1      43.572  29.206  30.867  1.00  0.00    -0.014 A 
BRANCH  52  53
ATOM     53  C   UNL A   1      43.583  30.663  31.134  1.00  0.00     0.031 A 
ATOM     54  C   UNL A   1      42.714  31.266  32.195  1.00  0.00     0.074 A 
ATOM     55  C   UNL A   1      44.395  31.449  30.401  1.00  0.00     0.049 A 
ATOM     56  N   UNL A   1      42.644  32.510  32.586  1.00  0.00    -0.248 NA
ATOM     57  C   UNL A   1      41.801  30.356  32.903  1.00  0.00     0.031 C 
ATOM     58  C   UNL A   1      45.287  30.971  29.344  1.00  0.00     0.029 A 
ATOM     59  N   UNL A   1      44.611  32.803  30.440  1.00  0.00    -0.354 N 
ATOM     60  C   UNL A   1      41.700  32.537  33.604  1.00  0.00     0.074 A 
ATOM     61  C   UNL A   1      41.184  31.189  33.734  1.00  0.00     0.031 C 
ATOM     62  C   UNL A   1      45.972  32.013  28.849  1.00  0.00     0.029 A 
ATOM     63  C   UNL A   1      45.556  33.234  29.538  1.00  0.00     0.049 A 
ATOM     64  H   UNL A   1      44.136  33.409  31.053  1.00  0.00     0.167 HD
ATOM     65  C   UNL A   1      41.321  33.586  34.371  1.00  0.00     0.031 A 
ATOM     66  C   UNL A   1      46.047  34.466  29.300  1.00  0.00     0.031 A 
ATOM     67  C   UNL A   1      41.837  34.924  34.230  1.00  0.00     0.049 A 
ATOM     68  C   UNL A   1      45.576  35.624  30.131  1.00  0.00     0.074 A 
ATOM     69  C   UNL A   1      41.532  36.042  34.988  1.00  0.00     0.029 A 
ATOM     70  N   UNL A   1      42.758  35.329  33.276  1.00  0.00    -0.354 N 
ATOM     71  N   UNL A   1      44.716  35.623  31.122  1.00  0.00    -0.248 NA
ATOM     72  C   UNL A   1      46.147  36.944  29.830  1.00  0.00     0.031 C 
ATOM     73  C   UNL A   1      42.222  37.134  34.457  1.00  0.00     0.029 A 
ATOM     74  C   UNL A   1      43.010  36.684  33.409  1.00  0.00     0.049 A 
ATOM     75  H   UNL A   1      43.172  34.740  32.604  1.00  0.00     0.167 HD
ATOM     76  C   UNL A   1      44.662  36.936  31.578  1.00  0.00     0.074 A 
ATOM     77  C   UNL A   1      45.577  37.703  30.759  1.00  0.00     0.031 C 
ATOM     78  C   UNL A   1      43.921  37.448  32.590  1.00  0.00     0.031 A 
BRANCH  65  79
ATOM     79  C   UNL A   1      40.307  33.344  35.459  1.00  0.00    -0.014 A 
ATOM     80  C   UNL A   1      40.733  32.966  36.746  1.00  0.00     0.010 A 
ATOM     81  C   UNL A   1      38.930  33.365  35.171  1.00  0.00     0.010 A 
ATOM     82  C   UNL A   1      39.802  32.593  37.720  1.00  0.00     0.020 A 
ATOM     83  C   UNL A   1      37.996  33.017  36.151  1.00  0.00     0.020 A 
ATOM     84  C   UNL A   1      38.439  32.613  37.412  1.00  0.00     0.054 A 
BRANCH  84  85
ATOM     85  S   UNL A   1      37.243  32.118  38.683  1.00  0.00     0.124 S 
ATOM     86  O   UNL A   1      36.042  32.840  38.275  1.00  0.00    -0.237 OA
ATOM     87  O   UNL A   1      37.193  30.666  38.528  1.00  0.00    -0.237 OA
ATOM     88  O   UNL A   1      37.860  32.580  39.925  1.00  0.00    -0.744 OA
ENDBRANCH  84  85
ENDBRANCH  65  79
BRANCH  66  89
ATOM     89  C   UNL A   1      47.098  34.626  28.260  1.00  0.00    -0.014 A 
ATOM     90  C   UNL A   1      48.461  34.580  28.609  1.00  0.00     0.010 A 
ATOM     91  C   UNL A   1      46.739  34.940  26.938  1.00  0.00     0.010 A 
ATOM     92  C   UNL A   1      49.443  34.906  27.671  1.00  0.00     0.020 A 
ATOM     93  C   UNL A   1      47.721  35.243  25.990  1.00  0.00     0.020 A 
ATOM     94  C   UNL A   1      49.064  35.254  26.371  1.00  0.00     0.054 A 
BRANCH  94  95
ATOM     95  S   UNL A   1      50.348  35.747  25.190  1.00  0.00     0.124 S 
ATOM     96  O   UNL A   1      49.627  36.693  24.343  1.00  0.00    -0.237 OA
ATOM     97  O   UNL A   1      51.372  36.330  26.055  1.00  0.00    -0.237 OA
ATOM     98  O   UNL A   1      50.723  34.490  24.548  1.00  0.00    -0.744 OA
ENDBRANCH  94  95
ENDBRANCH  66  89
BRANCH  78  99
ATOM     99  C   UNL A   1      44.045  38.917  32.900  1.00  0.00    -0.014 A 
ATOM    100  C   UNL A   1      44.805  39.331  34.010  1.00  0.00     0.010 A 
ATOM    101  C   UNL A   1      43.284  39.867  32.198  1.00  0.00     0.010 A 
ATOM    102  C   UNL A   1      44.763  40.659  34.444  1.00  0.00     0.020 A 
ATOM    103  C   UNL A   1      43.259  41.202  32.615  1.00  0.00     0.020 A 
ATOM    104  C   UNL A   1      43.974  41.582  33.752  1.00  0.00     0.054 A 
BRANCH 104 105
ATOM    105  S   UNL A   1      43.876  43.285  34.371  1.00  0.00     0.124 S 
ATOM    106  O   UNL A   1      42.577  43.295  35.037  1.00  0.00    -0.237 OA
ATOM    107  O   UNL A   1      45.037  43.375  35.253  1.00  0.00    -0.237 OA
ATOM    108  O   UNL A   1      43.962  44.095  33.157  1.00  0.00    -0.744 OA
ENDBRANCH 104 105
ENDBRANCH  78  99
ENDBRANCH  52  53
ENDBRANCH  45  47
ENDBRANCH  44  45
ENDBRANCH  43  44
ENDBRANCH  42  43
ENDBRANCH  41  42
ENDBRANCH  40  41
ENDBRANCH   1  40
TORSDOF 23
ENDMDL
