MODEL 1
REMARK VINA RESULT:      -8.6      0.000      0.000
REMARK SMILES C#CCN(CC(=O)OCCOCCOCCOC(=O)c1ccc(-c2c3nc(c(-c4ccc(S(=O)(=O)[O-])cc4)c4ccc([nH]4)c(-c4ccc(S(=O)(=O)[O-])cc4)c4nc(c(-c5ccc(S(=O)(=O)[O-])cc5)c5ccc2[nH]5)C=C4)C=C3)cc1)C(=O)[C@H]1C[NH2+]C[C@H]1C
REMARK SMILES IDX 12 1 11 2 10 3 9 4 8 5 6 6 7 7 5 8 4 9 3 10 2 11 1 12 80 13
REMARK SMILES IDX 81 14 82 15 83 16 86 17 84 18 85 19 87 20 13 23 14 24 15 25
REMARK SMILES IDX 16 26 17 27 18 28 19 29 20 30 21 31 79 32 22 33 78 34 23 35
REMARK SMILES IDX 24 36 25 37 72 38 26 39 77 40 71 41 73 42 27 43 76 44 70 45
REMARK SMILES IDX 69 46 28 48 58 49 39 50 57 51 40 52 43 53 56 54 74 55 41 56
REMARK SMILES IDX 42 57 55 59 75 60 44 61 29 62 30 63 38 64 31 65 37 66 32 67
REMARK SMILES IDX 33 68 34 69 35 70 36 71 59 72 60 73 68 74 61 75 67 76 62 77
REMARK SMILES IDX 63 78 64 79 65 80 66 81 45 82 46 83 54 84 47 85 53 86 48 87
REMARK SMILES IDX 49 88 50 89 51 90 52 91
REMARK H PARENT 84 21 84 22 73 47 43 58
REMARK Flexibility Score: inf
ROOT
ATOM      1  C   UNL A   1      33.354  29.984  26.223  1.00  0.00     0.188 C 
ENDROOT
BRANCH   1   2
ATOM      2  O   UNL A   1      32.187  29.808  25.465  1.00  0.00    -0.376 OA
BRANCH   2   3
ATOM      3  C   UNL A   1      32.500  29.411  24.135  1.00  0.00     0.202 C 
BRANCH   3   4
ATOM      4  C   UNL A   1      31.355  28.668  23.353  1.00  0.00     0.261 C 
BRANCH   4   5
ATOM      5  O   UNL A   1      30.491  27.689  24.092  1.00  0.00    -0.462 OA
BRANCH   5   6
ATOM      6  C   UNL A   1      30.463  26.377  23.690  1.00  0.00     0.325 C 
ATOM      7  O   UNL A   1      29.525  25.633  23.986  1.00  0.00    -0.250 OA
BRANCH   6   8
ATOM      8  C   UNL A   1      31.534  25.893  22.595  1.00  0.00     0.243 C 
BRANCH   8   9
ATOM      9  N   UNL A   1      32.749  25.036  22.754  1.00  0.00    -0.320 N 
BRANCH   9  10
ATOM     10  C   UNL A   1      33.925  25.747  23.264  1.00  0.00     0.210 C 
BRANCH  10  11
ATOM     11  C   UNL A   1      33.810  26.064  24.746  1.00  0.00    -0.085 C 
ATOM     12  C   UNL A   1      33.711  26.335  26.018  1.00  0.00     0.006 C 
ENDBRANCH  10  11
ENDBRANCH   9  10
BRANCH   9  13
ATOM     13  C   UNL A   1      32.993  23.666  22.561  1.00  0.00     0.233 C 
ATOM     14  O   UNL A   1      34.034  23.323  21.969  1.00  0.00    -0.274 OA
BRANCH  13  15
ATOM     15  C   UNL A   1      32.180  22.465  23.252  1.00  0.00     0.142 C 
ATOM     16  C   UNL A   1      31.779  20.814  22.160  1.00  0.00     0.274 C 
ATOM     17  C   UNL A   1      32.858  21.758  25.028  1.00  0.00     0.059 C 
ATOM     18  N   UNL A   1      32.447  19.217  23.054  1.00  0.00    -0.345 N 
ATOM     19  C   UNL A   1      33.145  19.764  24.843  1.00  0.00     0.264 C 
ATOM     20  C   UNL A   1      33.998  22.473  25.743  1.00  0.00     0.015 C 
ATOM     21  H   UNL A   1      33.197  18.799  22.503  1.00  0.00     0.346 HD
ATOM     22  H   UNL A   1      31.702  18.529  23.157  1.00  0.00     0.346 HD
ENDBRANCH  13  15
ENDBRANCH   9  13
ENDBRANCH   8   9
ENDBRANCH   6   8
ENDBRANCH   5   6
ENDBRANCH   4   5
ENDBRANCH   3   4
ENDBRANCH   2   3
ENDBRANCH   1   2
BRANCH   1  23
ATOM     23  C   UNL A   1      33.205  30.961  27.409  1.00  0.00     0.188 C 
BRANCH  23  24
ATOM     24  O   UNL A   1      32.745  32.280  27.280  1.00  0.00    -0.376 OA
BRANCH  24  25
ATOM     25  C   UNL A   1      33.497  33.244  28.000  1.00  0.00     0.202 C 
BRANCH  25  26
ATOM     26  C   UNL A   1      34.718  32.891  28.893  1.00  0.00     0.261 C 
BRANCH  26  27
ATOM     27  O   UNL A   1      34.594  32.709  30.333  1.00  0.00    -0.460 OA
BRANCH  27  28
ATOM     28  C   UNL A   1      35.523  31.840  31.163  1.00  0.00     0.338 C 
ATOM     29  O   UNL A   1      34.984  32.050  32.255  1.00  0.00    -0.246 OA
BRANCH  28  30
ATOM     30  C   UNL A   1      37.303  30.810  30.484  1.00  0.00     0.060 A 
ATOM     31  C   UNL A   1      37.869  30.625  29.084  1.00  0.00     0.016 A 
ATOM     32  C   UNL A   1      38.509  30.322  31.319  1.00  0.00     0.016 A 
ATOM     33  C   UNL A   1      39.095  30.120  28.654  1.00  0.00     0.010 A 
ATOM     34  C   UNL A   1      39.784  29.935  30.924  1.00  0.00     0.010 A 
ATOM     35  C   UNL A   1      40.054  29.854  29.587  1.00  0.00    -0.014 A 
BRANCH  35  36
ATOM     36  C   UNL A   1      41.368  29.457  29.152  1.00  0.00     0.031 A 
ATOM     37  C   UNL A   1      42.392  30.522  29.166  1.00  0.00     0.074 A 
ATOM     38  C   UNL A   1      41.536  28.182  28.777  1.00  0.00     0.049 A 
ATOM     39  N   UNL A   1      43.631  30.448  28.798  1.00  0.00    -0.248 NA
ATOM     40  C   UNL A   1      41.960  31.858  29.628  1.00  0.00     0.031 C 
ATOM     41  C   UNL A   1      40.489  27.148  28.777  1.00  0.00     0.029 A 
ATOM     42  N   UNL A   1      42.643  27.535  28.335  1.00  0.00    -0.354 N 
ATOM     43  C   UNL A   1      44.125  31.727  28.972  1.00  0.00     0.074 A 
ATOM     44  C   UNL A   1      43.047  32.576  29.410  1.00  0.00     0.031 C 
ATOM     45  C   UNL A   1      41.025  25.983  28.380  1.00  0.00     0.029 A 
ATOM     46  C   UNL A   1      42.423  26.212  28.049  1.00  0.00     0.049 A 
ATOM     47  H   UNL A   1      43.519  27.973  28.231  1.00  0.00     0.167 HD
ATOM     48  C   UNL A   1      45.396  32.125  28.787  1.00  0.00     0.031 A 
ATOM     49  C   UNL A   1      43.286  25.313  27.551  1.00  0.00     0.031 A 
ATOM     50  C   UNL A   1      46.401  31.217  28.319  1.00  0.00     0.049 A 
ATOM     51  C   UNL A   1      44.681  25.806  27.295  1.00  0.00     0.074 A 
ATOM     52  C   UNL A   1      47.735  31.458  28.078  1.00  0.00     0.029 A 
ATOM     53  N   UNL A   1      46.160  29.880  28.010  1.00  0.00    -0.354 N 
ATOM     54  N   UNL A   1      45.175  27.008  27.504  1.00  0.00    -0.248 NA
ATOM     55  C   UNL A   1      45.634  24.840  26.751  1.00  0.00     0.031 C 
ATOM     56  C   UNL A   1      48.282  30.287  27.548  1.00  0.00     0.029 A 
ATOM     57  C   UNL A   1      47.313  29.288  27.545  1.00  0.00     0.049 A 
ATOM     58  H   UNL A   1      45.293  29.425  28.110  1.00  0.00     0.167 HD
ATOM     59  C   UNL A   1      46.510  26.940  27.141  1.00  0.00     0.074 A 
ATOM     60  C   UNL A   1      46.744  25.567  26.722  1.00  0.00     0.031 C 
ATOM     61  C   UNL A   1      47.461  27.908  27.145  1.00  0.00     0.031 A 
BRANCH  48  62
ATOM     62  C   UNL A   1      45.702  33.567  29.040  1.00  0.00    -0.014 A 
ATOM     63  C   UNL A   1      46.100  34.021  30.313  1.00  0.00     0.010 A 
ATOM     64  C   UNL A   1      45.560  34.493  27.994  1.00  0.00     0.010 A 
ATOM     65  C   UNL A   1      46.327  35.378  30.539  1.00  0.00     0.020 A 
ATOM     66  C   UNL A   1      45.825  35.846  28.207  1.00  0.00     0.020 A 
ATOM     67  C   UNL A   1      46.202  36.280  29.479  1.00  0.00     0.054 A 
BRANCH  67  68
ATOM     68  S   UNL A   1      46.580  38.024  29.783  1.00  0.00     0.124 S 
ATOM     69  O   UNL A   1      45.247  38.606  29.912  1.00  0.00    -0.237 OA
ATOM     70  O   UNL A   1      47.362  37.965  31.016  1.00  0.00    -0.237 OA
ATOM     71  O   UNL A   1      47.325  38.431  28.594  1.00  0.00    -0.744 OA
ENDBRANCH  67  68
ENDBRANCH  48  62
BRANCH  49  72
ATOM     72  C   UNL A   1      42.851  23.920  27.279  1.00  0.00    -0.014 A 
ATOM     73  C   UNL A   1      42.369  23.553  26.012  1.00  0.00     0.010 A 
ATOM     74  C   UNL A   1      42.946  22.936  28.283  1.00  0.00     0.010 A 
ATOM     75  C   UNL A   1      41.960  22.240  25.763  1.00  0.00     0.020 A 
ATOM     76  C   UNL A   1      42.572  21.614  28.028  1.00  0.00     0.020 A 
ATOM     77  C   UNL A   1      42.066  21.279  26.774  1.00  0.00     0.054 A 
BRANCH  77  78
ATOM     78  S   UNL A   1      41.544  19.580  26.416  1.00  0.00     0.124 S 
ATOM     79  O   UNL A   1      42.297  19.281  25.202  1.00  0.00    -0.237 OA
ATOM     80  O   UNL A   1      41.970  18.865  27.617  1.00  0.00    -0.237 OA
ATOM     81  O   UNL A   1      40.098  19.693  26.243  1.00  0.00    -0.744 OA
ENDBRANCH  77  78
ENDBRANCH  49  72
BRANCH  61  82
ATOM     82  C   UNL A   1      48.835  27.489  26.718  1.00  0.00    -0.014 A 
ATOM     83  C   UNL A   1      49.237  27.584  25.376  1.00  0.00     0.010 A 
ATOM     84  C   UNL A   1      49.758  27.084  27.699  1.00  0.00     0.010 A 
ATOM     85  C   UNL A   1      50.541  27.251  25.017  1.00  0.00     0.020 A 
ATOM     86  C   UNL A   1      51.073  26.797  27.350  1.00  0.00     0.020 A 
ATOM     87  C   UNL A   1      51.452  26.872  26.009  1.00  0.00     0.054 A 
BRANCH  87  88
ATOM     88  S   UNL A   1      53.158  26.522  25.521  1.00  0.00     0.124 S 
ATOM     89  O   UNL A   1      53.913  27.410  26.402  1.00  0.00    -0.237 OA
ATOM     90  O   UNL A   1      53.281  25.095  25.808  1.00  0.00    -0.237 OA
ATOM     91  O   UNL A   1      53.194  26.874  24.104  1.00  0.00    -0.744 OA
ENDBRANCH  87  88
ENDBRANCH  61  82
ENDBRANCH  35  36
ENDBRANCH  28  30
ENDBRANCH  27  28
ENDBRANCH  26  27
ENDBRANCH  25  26
ENDBRANCH  24  25
ENDBRANCH  23  24
ENDBRANCH   1  23
TORSDOF 25
ENDMDL
MODEL 2
REMARK VINA RESULT:      -8.5      1.501      8.469
REMARK SMILES C#CCN(CC(=O)OCCOCCOCCOC(=O)c1ccc(-c2c3nc(c(-c4ccc(S(=O)(=O)[O-])cc4)c4ccc([nH]4)c(-c4ccc(S(=O)(=O)[O-])cc4)c4nc(c(-c5ccc(S(=O)(=O)[O-])cc5)c5ccc2[nH]5)C=C4)C=C3)cc1)C(=O)[C@H]1C[NH2+]C[C@H]1C
REMARK SMILES IDX 12 1 11 2 10 3 9 4 8 5 6 6 7 7 5 8 4 9 3 10 2 11 1 12 80 13
REMARK SMILES IDX 81 14 82 15 83 16 86 17 84 18 85 19 87 20 13 23 14 24 15 25
REMARK SMILES IDX 16 26 17 27 18 28 19 29 20 30 21 31 79 32 22 33 78 34 23 35
REMARK SMILES IDX 24 36 25 37 72 38 26 39 77 40 71 41 73 42 27 43 76 44 70 45
REMARK SMILES IDX 69 46 28 48 58 49 39 50 57 51 40 52 43 53 56 54 74 55 41 56
REMARK SMILES IDX 42 57 55 59 75 60 44 61 29 62 30 63 38 64 31 65 37 66 32 67
REMARK SMILES IDX 33 68 34 69 35 70 36 71 59 72 60 73 68 74 61 75 67 76 62 77
REMARK SMILES IDX 63 78 64 79 65 80 66 81 45 82 46 83 54 84 47 85 53 86 48 87
REMARK SMILES IDX 49 88 50 89 51 90 52 91
REMARK H PARENT 84 21 84 22 73 47 43 58
REMARK Flexibility Score: inf
ROOT
ATOM      1  C   UNL A   1      33.267  29.218  25.117  1.00  0.00     0.188 C 
ENDROOT
BRANCH   1   2
ATOM      2  O   UNL A   1      32.252  28.489  24.481  1.00  0.00    -0.376 OA
BRANCH   2   3
ATOM      3  C   UNL A   1      32.450  28.463  23.071  1.00  0.00     0.202 C 
BRANCH   3   4
ATOM      4  C   UNL A   1      32.440  27.039  22.403  1.00  0.00     0.261 C 
BRANCH   4   5
ATOM      5  O   UNL A   1      31.246  26.154  22.602  1.00  0.00    -0.462 OA
BRANCH   5   6
ATOM      6  C   UNL A   1      31.430  24.838  22.943  1.00  0.00     0.325 C 
ATOM      7  O   UNL A   1      30.478  24.103  23.215  1.00  0.00    -0.250 OA
BRANCH   6   8
ATOM      8  C   UNL A   1      32.883  24.189  22.717  1.00  0.00     0.243 C 
BRANCH   8   9
ATOM      9  N   UNL A   1      33.991  23.953  23.693  1.00  0.00    -0.320 N 
BRANCH   9  10
ATOM     10  C   UNL A   1      35.135  23.222  23.140  1.00  0.00     0.210 C 
BRANCH  10  11
ATOM     11  C   UNL A   1      35.727  22.237  24.135  1.00  0.00    -0.085 C 
ATOM     12  C   UNL A   1      36.234  21.393  24.989  1.00  0.00     0.006 C 
ENDBRANCH  10  11
ENDBRANCH   9  10
BRANCH   9  13
ATOM     13  C   UNL A   1      34.192  24.328  25.032  1.00  0.00     0.233 C 
ATOM     14  O   UNL A   1      35.188  25.021  25.314  1.00  0.00    -0.274 OA
BRANCH  13  15
ATOM     15  C   UNL A   1      33.123  24.164  26.219  1.00  0.00     0.142 C 
ATOM     16  C   UNL A   1      31.660  25.543  26.401  1.00  0.00     0.274 C 
ATOM     17  C   UNL A   1      32.177  22.379  26.406  1.00  0.00     0.059 C 
ATOM     18  N   UNL A   1      29.906  24.694  26.382  1.00  0.00    -0.345 N 
ATOM     19  C   UNL A   1      30.184  22.718  26.370  1.00  0.00     0.264 C 
ATOM     20  C   UNL A   1      32.611  21.199  25.546  1.00  0.00     0.015 C 
ATOM     21  H   UNL A   1      29.392  24.977  25.548  1.00  0.00     0.346 HD
ATOM     22  H   UNL A   1      29.366  24.974  27.201  1.00  0.00     0.346 HD
ENDBRANCH  13  15
ENDBRANCH   9  13
ENDBRANCH   8   9
ENDBRANCH   6   8
ENDBRANCH   5   6
ENDBRANCH   4   5
ENDBRANCH   3   4
ENDBRANCH   2   3
ENDBRANCH   1   2
BRANCH   1  23
ATOM     23  C   UNL A   1      33.074  29.391  26.638  1.00  0.00     0.188 C 
BRANCH  23  24
ATOM     24  O   UNL A   1      32.613  30.573  27.236  1.00  0.00    -0.376 OA
BRANCH  24  25
ATOM     25  C   UNL A   1      33.623  31.535  27.502  1.00  0.00     0.202 C 
BRANCH  25  26
ATOM     26  C   UNL A   1      34.979  31.195  28.175  1.00  0.00     0.261 C 
BRANCH  26  27
ATOM     27  O   UNL A   1      35.302  31.631  29.528  1.00  0.00    -0.460 OA
BRANCH  27  28
ATOM     28  C   UNL A   1      36.343  30.967  30.410  1.00  0.00     0.338 C 
ATOM     29  O   UNL A   1      35.814  31.239  31.493  1.00  0.00    -0.246 OA
BRANCH  28  30
ATOM     30  C   UNL A   1      38.209  30.065  29.778  1.00  0.00     0.060 A 
ATOM     31  C   UNL A   1      38.801  29.880  28.388  1.00  0.00     0.016 A 
ATOM     32  C   UNL A   1      39.444  29.709  30.637  1.00  0.00     0.016 A 
ATOM     33  C   UNL A   1      40.067  29.464  27.984  1.00  0.00     0.010 A 
ATOM     34  C   UNL A   1      40.750  29.416  30.263  1.00  0.00     0.010 A 
ATOM     35  C   UNL A   1      41.038  29.312  28.931  1.00  0.00    -0.014 A 
BRANCH  35  36
ATOM     36  C   UNL A   1      42.384  29.011  28.517  1.00  0.00     0.031 A 
ATOM     37  C   UNL A   1      42.626  27.612  28.110  1.00  0.00     0.074 A 
ATOM     38  C   UNL A   1      43.276  30.010  28.544  1.00  0.00     0.049 A 
ATOM     39  N   UNL A   1      43.738  27.069  27.730  1.00  0.00    -0.248 NA
ATOM     40  C   UNL A   1      41.472  26.690  28.163  1.00  0.00     0.031 C 
ATOM     41  C   UNL A   1      42.996  31.394  28.957  1.00  0.00     0.029 A 
ATOM     42  N   UNL A   1      44.591  30.021  28.210  1.00  0.00    -0.354 N 
ATOM     43  C   UNL A   1      43.423  25.742  27.510  1.00  0.00     0.074 A 
ATOM     44  C   UNL A   1      42.041  25.538  27.861  1.00  0.00     0.031 C 
ATOM     45  C   UNL A   1      44.112  32.126  28.819  1.00  0.00     0.029 A 
ATOM     46  C   UNL A   1      45.182  31.249  28.367  1.00  0.00     0.049 A 
ATOM     47  H   UNL A   1      45.073  29.227  27.887  1.00  0.00     0.167 HD
ATOM     48  C   UNL A   1      44.247  24.793  27.032  1.00  0.00     0.031 A 
ATOM     49  C   UNL A   1      46.466  31.586  28.175  1.00  0.00     0.031 A 
ATOM     50  C   UNL A   1      45.620  25.077  26.736  1.00  0.00     0.049 A 
ATOM     51  C   UNL A   1      47.375  30.488  27.703  1.00  0.00     0.074 A 
ATOM     52  C   UNL A   1      46.589  24.231  26.247  1.00  0.00     0.029 A 
ATOM     53  N   UNL A   1      46.214  26.323  26.922  1.00  0.00    -0.354 N 
ATOM     54  N   UNL A   1      47.073  29.233  27.443  1.00  0.00    -0.248 NA
ATOM     55  C   UNL A   1      48.778  30.837  27.489  1.00  0.00     0.031 C 
ATOM     56  C   UNL A   1      47.789  24.946  26.212  1.00  0.00     0.029 A 
ATOM     57  C   UNL A   1      47.550  26.263  26.590  1.00  0.00     0.049 A 
ATOM     58  H   UNL A   1      45.748  27.130  27.242  1.00  0.00     0.167 HD
ATOM     59  C   UNL A   1      48.248  28.642  27.007  1.00  0.00     0.074 A 
ATOM     60  C   UNL A   1      49.256  29.691  27.020  1.00  0.00     0.031 C 
ATOM     61  C   UNL A   1      48.489  27.360  26.632  1.00  0.00     0.031 A 
BRANCH  48  62
ATOM     62  C   UNL A   1      43.682  23.417  26.874  1.00  0.00    -0.014 A 
ATOM     63  C   UNL A   1      43.230  22.675  27.983  1.00  0.00     0.010 A 
ATOM     64  C   UNL A   1      43.631  22.839  25.595  1.00  0.00     0.010 A 
ATOM     65  C   UNL A   1      42.758  21.374  27.818  1.00  0.00     0.020 A 
ATOM     66  C   UNL A   1      43.123  21.552  25.420  1.00  0.00     0.020 A 
ATOM     67  C   UNL A   1      42.695  20.826  26.534  1.00  0.00     0.054 A 
BRANCH  67  68
ATOM     68  S   UNL A   1      42.004  19.163  26.340  1.00  0.00     0.124 S 
ATOM     69  O   UNL A   1      42.062  18.650  27.706  1.00  0.00    -0.237 OA
ATOM     70  O   UNL A   1      40.664  19.439  25.828  1.00  0.00    -0.237 OA
ATOM     71  O   UNL A   1      42.911  18.518  25.394  1.00  0.00    -0.744 OA
ENDBRANCH  67  68
ENDBRANCH  48  62
BRANCH  49  72
ATOM     72  C   UNL A   1      46.927  32.974  28.427  1.00  0.00    -0.014 A 
ATOM     73  C   UNL A   1      47.104  33.875  27.363  1.00  0.00     0.010 A 
ATOM     74  C   UNL A   1      47.163  33.419  29.743  1.00  0.00     0.010 A 
ATOM     75  C   UNL A   1      47.541  35.181  27.606  1.00  0.00     0.020 A 
ATOM     76  C   UNL A   1      47.564  34.733  29.994  1.00  0.00     0.020 A 
ATOM     77  C   UNL A   1      47.767  35.601  28.921  1.00  0.00     0.054 A 
BRANCH  77  78
ATOM     78  S   UNL A   1      48.314  37.305  29.208  1.00  0.00     0.124 S 
ATOM     79  O   UNL A   1      47.048  38.032  29.221  1.00  0.00    -0.237 OA
ATOM     80  O   UNL A   1      48.997  37.200  30.494  1.00  0.00    -0.237 OA
ATOM     81  O   UNL A   1      49.183  37.583  28.067  1.00  0.00    -0.744 OA
ENDBRANCH  77  78
ENDBRANCH  49  72
BRANCH  61  82
ATOM     82  C   UNL A   1      49.883  27.052  26.176  1.00  0.00    -0.014 A 
ATOM     83  C   UNL A   1      50.256  27.207  24.831  1.00  0.00     0.010 A 
ATOM     84  C   UNL A   1      50.846  26.691  27.134  1.00  0.00     0.010 A 
ATOM     85  C   UNL A   1      51.575  26.977  24.448  1.00  0.00     0.020 A 
ATOM     86  C   UNL A   1      52.174  26.508  26.761  1.00  0.00     0.020 A 
ATOM     87  C   UNL A   1      52.525  26.642  25.417  1.00  0.00     0.054 A 
BRANCH  87  88
ATOM     88  S   UNL A   1      54.245  26.427  24.898  1.00  0.00     0.124 S 
ATOM     89  O   UNL A   1      54.727  25.429  25.850  1.00  0.00    -0.237 OA
ATOM     90  O   UNL A   1      54.102  25.966  23.520  1.00  0.00    -0.237 OA
ATOM     91  O   UNL A   1      54.823  27.761  25.048  1.00  0.00    -0.744 OA
ENDBRANCH  87  88
ENDBRANCH  61  82
ENDBRANCH  35  36
ENDBRANCH  28  30
ENDBRANCH  27  28
ENDBRANCH  26  27
ENDBRANCH  25  26
ENDBRANCH  24  25
ENDBRANCH  23  24
ENDBRANCH   1  23
TORSDOF 25
ENDMDL
MODEL 3
REMARK VINA RESULT:      -8.3      1.418      2.204
REMARK SMILES C#CCN(CC(=O)OCCOCCOCCOC(=O)c1ccc(-c2c3nc(c(-c4ccc(S(=O)(=O)[O-])cc4)c4ccc([nH]4)c(-c4ccc(S(=O)(=O)[O-])cc4)c4nc(c(-c5ccc(S(=O)(=O)[O-])cc5)c5ccc2[nH]5)C=C4)C=C3)cc1)C(=O)[C@H]1C[NH2+]C[C@H]1C
REMARK SMILES IDX 12 1 11 2 10 3 9 4 8 5 6 6 7 7 5 8 4 9 3 10 2 11 1 12 80 13
REMARK SMILES IDX 81 14 82 15 83 16 86 17 84 18 85 19 87 20 13 23 14 24 15 25
REMARK SMILES IDX 16 26 17 27 18 28 19 29 20 30 21 31 79 32 22 33 78 34 23 35
REMARK SMILES IDX 24 36 25 37 72 38 26 39 77 40 71 41 73 42 27 43 76 44 70 45
REMARK SMILES IDX 69 46 28 48 58 49 39 50 57 51 40 52 43 53 56 54 74 55 41 56
REMARK SMILES IDX 42 57 55 59 75 60 44 61 29 62 30 63 38 64 31 65 37 66 32 67
REMARK SMILES IDX 33 68 34 69 35 70 36 71 59 72 60 73 68 74 61 75 67 76 62 77
REMARK SMILES IDX 63 78 64 79 65 80 66 81 45 82 46 83 54 84 47 85 53 86 48 87
REMARK SMILES IDX 49 88 50 89 51 90 52 91
REMARK H PARENT 84 21 84 22 73 47 43 58
REMARK Flexibility Score: inf
ROOT
ATOM      1  C   UNL A   1      33.272  29.197  24.723  1.00  0.00     0.188 C 
ENDROOT
BRANCH   1   2
ATOM      2  O   UNL A   1      32.127  28.468  24.368  1.00  0.00    -0.376 OA
BRANCH   2   3
ATOM      3  C   UNL A   1      31.950  28.455  22.955  1.00  0.00     0.202 C 
BRANCH   3   4
ATOM      4  C   UNL A   1      31.822  27.034  22.293  1.00  0.00     0.261 C 
BRANCH   4   5
ATOM      5  O   UNL A   1      30.743  26.107  22.771  1.00  0.00    -0.462 OA
BRANCH   5   6
ATOM      6  C   UNL A   1      31.029  24.779  22.956  1.00  0.00     0.325 C 
ATOM      7  O   UNL A   1      30.135  23.940  23.087  1.00  0.00    -0.250 OA
BRANCH   6   8
ATOM      8  C   UNL A   1      32.541  24.286  22.726  1.00  0.00     0.243 C 
BRANCH   8   9
ATOM      9  N   UNL A   1      33.671  24.168  23.699  1.00  0.00    -0.320 N 
BRANCH   9  10
ATOM     10  C   UNL A   1      34.804  23.376  23.212  1.00  0.00     0.210 C 
BRANCH  10  11
ATOM     11  C   UNL A   1      35.674  22.856  24.345  1.00  0.00    -0.085 C 
ATOM     12  C   UNL A   1      36.419  22.409  25.317  1.00  0.00     0.006 C 
ENDBRANCH  10  11
ENDBRANCH   9  10
BRANCH   9  13
ATOM     13  C   UNL A   1      33.900  24.701  24.979  1.00  0.00     0.233 C 
ATOM     14  O   UNL A   1      34.789  25.562  25.116  1.00  0.00    -0.274 OA
BRANCH  13  15
ATOM     15  C   UNL A   1      32.954  24.494  26.260  1.00  0.00     0.142 C 
ATOM     16  C   UNL A   1      31.333  25.680  26.467  1.00  0.00     0.274 C 
ATOM     17  C   UNL A   1      32.277  22.621  26.649  1.00  0.00     0.059 C 
ATOM     18  N   UNL A   1      29.715  24.611  26.655  1.00  0.00    -0.345 N 
ATOM     19  C   UNL A   1      30.258  22.693  26.757  1.00  0.00     0.264 C 
ATOM     20  C   UNL A   1      32.802  21.443  25.840  1.00  0.00     0.015 C 
ATOM     21  H   UNL A   1      29.108  24.757  25.849  1.00  0.00     0.346 HD
ATOM     22  H   UNL A   1      29.204  24.882  27.495  1.00  0.00     0.346 HD
ENDBRANCH  13  15
ENDBRANCH   9  13
ENDBRANCH   8   9
ENDBRANCH   6   8
ENDBRANCH   5   6
ENDBRANCH   4   5
ENDBRANCH   3   4
ENDBRANCH   2   3
ENDBRANCH   1   2
BRANCH   1  23
ATOM     23  C   UNL A   1      33.583  29.202  26.235  1.00  0.00     0.188 C 
BRANCH  23  24
ATOM     24  O   UNL A   1      32.884  29.977  27.172  1.00  0.00    -0.376 OA
BRANCH  24  25
ATOM     25  C   UNL A   1      33.531  31.186  27.542  1.00  0.00     0.202 C 
BRANCH  25  26
ATOM     26  C   UNL A   1      34.863  31.240  28.337  1.00  0.00     0.261 C 
BRANCH  26  27
ATOM     27  O   UNL A   1      34.898  31.517  29.768  1.00  0.00    -0.460 OA
BRANCH  27  28
ATOM     28  C   UNL A   1      36.098  31.244  30.657  1.00  0.00     0.338 C 
ATOM     29  O   UNL A   1      35.521  31.409  31.737  1.00  0.00    -0.246 OA
BRANCH  28  30
ATOM     30  C   UNL A   1      38.142  30.900  30.027  1.00  0.00     0.060 A 
ATOM     31  C   UNL A   1      39.389  30.580  30.838  1.00  0.00     0.016 A 
ATOM     32  C   UNL A   1      38.674  30.609  28.605  1.00  0.00     0.016 A 
ATOM     33  C   UNL A   1      40.664  30.186  30.435  1.00  0.00     0.010 A 
ATOM     34  C   UNL A   1      39.894  30.095  28.185  1.00  0.00     0.010 A 
ATOM     35  C   UNL A   1      40.867  29.881  29.121  1.00  0.00    -0.014 A 
BRANCH  35  36
ATOM     36  C   UNL A   1      42.141  29.348  28.712  1.00  0.00     0.031 A 
ATOM     37  C   UNL A   1      43.254  30.317  28.674  1.00  0.00     0.074 A 
ATOM     38  C   UNL A   1      42.194  28.045  28.405  1.00  0.00     0.049 A 
ATOM     39  N   UNL A   1      44.481  30.115  28.315  1.00  0.00    -0.248 NA
ATOM     40  C   UNL A   1      42.943  31.709  29.065  1.00  0.00     0.031 C 
ATOM     41  C   UNL A   1      41.061  27.108  28.455  1.00  0.00     0.029 A 
ATOM     42  N   UNL A   1      43.240  27.281  28.001  1.00  0.00    -0.354 N 
ATOM     43  C   UNL A   1      45.087  31.352  28.424  1.00  0.00     0.074 A 
ATOM     44  C   UNL A   1      44.088  32.315  28.814  1.00  0.00     0.031 C 
ATOM     45  C   UNL A   1      41.491  25.882  28.121  1.00  0.00     0.029 A 
ATOM     46  C   UNL A   1      42.904  25.969  27.783  1.00  0.00     0.049 A 
ATOM     47  H   UNL A   1      44.151  27.633  27.877  1.00  0.00     0.167 HD
ATOM     48  C   UNL A   1      46.388  31.626  28.224  1.00  0.00     0.031 A 
ATOM     49  C   UNL A   1      43.683  24.972  27.336  1.00  0.00     0.031 A 
ATOM     50  C   UNL A   1      47.308  30.610  27.808  1.00  0.00     0.049 A 
ATOM     51  C   UNL A   1      45.116  25.326  27.060  1.00  0.00     0.074 A 
ATOM     52  C   UNL A   1      48.658  30.719  27.559  1.00  0.00     0.029 A 
ATOM     53  N   UNL A   1      46.950  29.286  27.567  1.00  0.00    -0.354 N 
ATOM     54  N   UNL A   1      45.714  26.489  27.208  1.00  0.00    -0.248 NA
ATOM     55  C   UNL A   1      45.980  24.253  26.571  1.00  0.00     0.031 C 
ATOM     56  C   UNL A   1      49.099  29.479  27.093  1.00  0.00     0.029 A 
ATOM     57  C   UNL A   1      48.046  28.570  27.139  1.00  0.00     0.049 A 
ATOM     58  H   UNL A   1      46.046  28.915  27.688  1.00  0.00     0.167 HD
ATOM     59  C   UNL A   1      47.038  26.284  26.855  1.00  0.00     0.074 A 
ATOM     60  C   UNL A   1      47.149  24.876  26.508  1.00  0.00     0.031 C 
ATOM     61  C   UNL A   1      48.071  27.163  26.812  1.00  0.00     0.031 A 
BRANCH  48  62
ATOM     62  C   UNL A   1      46.820  33.047  28.402  1.00  0.00    -0.014 A 
ATOM     63  C   UNL A   1      47.449  33.480  29.587  1.00  0.00     0.010 A 
ATOM     64  C   UNL A   1      46.566  33.976  27.381  1.00  0.00     0.010 A 
ATOM     65  C   UNL A   1      47.795  34.821  29.753  1.00  0.00     0.020 A 
ATOM     66  C   UNL A   1      46.946  35.310  27.528  1.00  0.00     0.020 A 
ATOM     67  C   UNL A   1      47.553  35.724  28.715  1.00  0.00     0.054 A 
BRANCH  67  68
ATOM     68  S   UNL A   1      48.084  37.442  28.928  1.00  0.00     0.124 S 
ATOM     69  O   UNL A   1      48.547  37.786  27.586  1.00  0.00    -0.237 OA
ATOM     70  O   UNL A   1      46.852  38.100  29.356  1.00  0.00    -0.237 OA
ATOM     71  O   UNL A   1      49.130  37.359  29.945  1.00  0.00    -0.744 OA
ENDBRANCH  67  68
ENDBRANCH  48  62
BRANCH  49  72
ATOM     72  C   UNL A   1      43.126  23.611  27.136  1.00  0.00    -0.014 A 
ATOM     73  C   UNL A   1      42.887  22.765  28.232  1.00  0.00     0.010 A 
ATOM     74  C   UNL A   1      42.797  23.160  25.842  1.00  0.00     0.010 A 
ATOM     75  C   UNL A   1      42.364  21.483  28.036  1.00  0.00     0.020 A 
ATOM     76  C   UNL A   1      42.240  21.894  25.645  1.00  0.00     0.020 A 
ATOM     77  C   UNL A   1      42.043  21.057  26.743  1.00  0.00     0.054 A 
BRANCH  77  78
ATOM     78  S   UNL A   1      41.349  19.397  26.522  1.00  0.00     0.124 S 
ATOM     79  O   UNL A   1      39.993  19.694  26.070  1.00  0.00    -0.237 OA
ATOM     80  O   UNL A   1      42.239  18.820  25.518  1.00  0.00    -0.237 OA
ATOM     81  O   UNL A   1      41.449  18.803  27.853  1.00  0.00    -0.744 OA
ENDBRANCH  77  78
ENDBRANCH  49  72
BRANCH  61  82
ATOM     82  C   UNL A   1      49.402  26.603  26.412  1.00  0.00    -0.014 A 
ATOM     83  C   UNL A   1      49.871  26.719  25.093  1.00  0.00     0.010 A 
ATOM     84  C   UNL A   1      50.226  26.037  27.401  1.00  0.00     0.010 A 
ATOM     85  C   UNL A   1      51.139  26.249  24.764  1.00  0.00     0.020 A 
ATOM     86  C   UNL A   1      51.511  25.610  27.085  1.00  0.00     0.020 A 
ATOM     87  C   UNL A   1      51.954  25.710  25.765  1.00  0.00     0.054 A 
BRANCH  87  88
ATOM     88  S   UNL A   1      53.626  25.181  25.321  1.00  0.00     0.124 S 
ATOM     89  O   UNL A   1      53.480  23.728  25.269  1.00  0.00    -0.237 OA
ATOM     90  O   UNL A   1      53.833  25.840  24.035  1.00  0.00    -0.237 OA
ATOM     91  O   UNL A   1      54.452  25.684  26.416  1.00  0.00    -0.744 OA
ENDBRANCH  87  88
ENDBRANCH  61  82
ENDBRANCH  35  36
ENDBRANCH  28  30
ENDBRANCH  27  28
ENDBRANCH  26  27
ENDBRANCH  25  26
ENDBRANCH  24  25
ENDBRANCH  23  24
ENDBRANCH   1  23
TORSDOF 25
ENDMDL
