MODEL 1
REMARK VINA RESULT:     -10.4      0.000      0.000
REMARK SMILES CCc1ccc2[nH]c(C(=O)c3cc(C)ccn3)c(CC(=O)OCCOCCOCCOC(=O)c3ccc(-c4c5nc(c(-c6ccc(S(=O)(=O)[O-])cc6)c6ccc([nH]6)c(-c6ccc(S(=O)(=O)[O-])cc6)c6nc(c(-c7ccc(S(=O)(=O)[O-])cc7)c7ccc4[nH]7)C=C6)C=C5)cc3)c2c1
REMARK SMILES IDX 26 1 25 2 24 3 23 4 22 5 20 6 21 7 19 8 18 9 3 10 4 11 95 12
REMARK SMILES IDX 5 13 94 14 6 15 7 16 8 17 2 19 1 20 9 21 10 22 11 23 12 24
REMARK SMILES IDX 17 25 13 26 16 27 14 28 15 29 27 30 28 31 29 32 30 33 31 34
REMARK SMILES IDX 32 35 33 36 34 37 35 38 93 39 36 40 92 41 37 42 38 43 39 44
REMARK SMILES IDX 86 45 40 46 91 47 85 48 87 49 41 50 90 51 84 52 83 53 42 55
REMARK SMILES IDX 72 56 53 57 71 58 54 59 57 60 70 61 88 62 55 63 56 64 69 66
REMARK SMILES IDX 89 67 58 68 43 69 44 70 52 71 45 72 51 73 46 74 47 75 48 76
REMARK SMILES IDX 49 77 50 78 73 79 74 80 82 81 75 82 81 83 76 84 77 85 78 86
REMARK SMILES IDX 79 87 80 88 59 89 60 90 68 91 61 92 67 93 62 94 63 95 64 96
REMARK SMILES IDX 65 97 66 98
REMARK H PARENT 7 18 87 54 57 65
REMARK Flexibility Score: inf
ROOT
ATOM      1  C   UNL A   1      40.352  21.509  27.037  1.00  0.00     0.188 C 
ENDROOT
BRANCH   1   2
ATOM      2  O   UNL A   1      39.537  22.163  26.066  1.00  0.00    -0.376 OA
BRANCH   2   3
ATOM      3  C   UNL A   1      38.833  23.333  26.462  1.00  0.00     0.202 C 
BRANCH   3   4
ATOM      4  C   UNL A   1      37.503  23.588  25.744  1.00  0.00     0.261 C 
BRANCH   4   5
ATOM      5  O   UNL A   1      37.271  22.625  24.693  1.00  0.00    -0.463 OA
BRANCH   5   6
ATOM      6  C   UNL A   1      36.267  21.732  24.889  1.00  0.00     0.310 C 
ATOM      7  O   UNL A   1      36.312  20.841  25.732  1.00  0.00    -0.252 OA
BRANCH   6   8
ATOM      8  C   UNL A   1      35.007  22.046  24.087  1.00  0.00     0.161 C 
BRANCH   8   9
ATOM      9  C   UNL A   1      33.674  21.980  24.798  1.00  0.00     0.000 A 
ATOM     10  C   UNL A   1      32.391  25.357  26.071  1.00  0.00    -0.048 A 
ATOM     11  C   UNL A   1      31.150  24.868  26.504  1.00  0.00     0.006 A 
ATOM     12  C   UNL A   1      33.345  24.455  25.572  1.00  0.00     0.014 A 
ATOM     13  C   UNL A   1      30.827  23.509  26.442  1.00  0.00     0.027 A 
ATOM     14  C   UNL A   1      33.021  23.089  25.432  1.00  0.00     0.004 A 
ATOM     15  C   UNL A   1      31.777  22.655  25.877  1.00  0.00     0.046 A 
ATOM     16  N   UNL A   1      31.705  21.312  25.608  1.00  0.00    -0.352 N 
ATOM     17  C   UNL A   1      32.718  20.953  24.745  1.00  0.00     0.093 A 
ATOM     18  H   UNL A   1      31.030  20.697  25.975  1.00  0.00     0.167 HD
BRANCH  10  19
ATOM     19  C   UNL A   1      32.615  26.853  26.100  1.00  0.00     0.032 C 
ATOM     20  C   UNL A   1      31.679  27.666  26.984  1.00  0.00     0.009 C 
ENDBRANCH  10  19
BRANCH  17  21
ATOM     21  C   UNL A   1      32.672  19.765  23.904  1.00  0.00     0.227 C 
ATOM     22  O   UNL A   1      32.131  19.751  22.802  1.00  0.00    -0.285 OA
BRANCH  21  23
ATOM     23  C   UNL A   1      33.259  18.488  24.409  1.00  0.00     0.113 A 
ATOM     24  C   UNL A   1      32.435  17.458  24.852  1.00  0.00     0.036 A 
ATOM     25  N   UNL A   1      34.612  18.399  24.336  1.00  0.00    -0.253 NA
ATOM     26  C   UNL A   1      33.031  16.244  25.215  1.00  0.00    -0.047 A 
ATOM     27  C   UNL A   1      35.148  17.191  24.623  1.00  0.00     0.112 A 
ATOM     28  C   UNL A   1      32.232  15.089  25.744  1.00  0.00     0.044 C 
ATOM     29  C   UNL A   1      34.411  16.101  25.053  1.00  0.00     0.023 A 
ENDBRANCH  21  23
ENDBRANCH  17  21
ENDBRANCH   8   9
ENDBRANCH   6   8
ENDBRANCH   5   6
ENDBRANCH   4   5
ENDBRANCH   3   4
ENDBRANCH   2   3
ENDBRANCH   1   2
BRANCH   1  30
ATOM     30  C   UNL A   1      41.740  20.981  26.606  1.00  0.00     0.188 C 
BRANCH  30  31
ATOM     31  O   UNL A   1      42.797  21.906  26.829  1.00  0.00    -0.376 OA
BRANCH  31  32
ATOM     32  C   UNL A   1      43.549  22.223  25.666  1.00  0.00     0.202 C 
BRANCH  32  33
ATOM     33  C   UNL A   1      43.122  23.555  25.053  1.00  0.00     0.261 C 
BRANCH  33  34
ATOM     34  O   UNL A   1      42.487  24.410  26.029  1.00  0.00    -0.460 OA
BRANCH  34  35
ATOM     35  C   UNL A   1      42.365  25.716  25.738  1.00  0.00     0.338 C 
ATOM     36  O   UNL A   1      42.589  26.235  24.643  1.00  0.00    -0.246 OA
BRANCH  35  37
ATOM     37  C   UNL A   1      41.968  26.492  26.938  1.00  0.00     0.060 A 
ATOM     38  C   UNL A   1      42.530  27.733  27.254  1.00  0.00     0.016 A 
ATOM     39  C   UNL A   1      41.075  25.909  27.835  1.00  0.00     0.016 A 
ATOM     40  C   UNL A   1      42.251  28.360  28.475  1.00  0.00     0.010 A 
ATOM     41  C   UNL A   1      40.745  26.568  29.026  1.00  0.00     0.010 A 
ATOM     42  C   UNL A   1      41.346  27.793  29.374  1.00  0.00    -0.014 A 
BRANCH  42  43
ATOM     43  C   UNL A   1      41.022  28.429  30.685  1.00  0.00     0.031 A 
ATOM     44  C   UNL A   1      39.897  29.428  30.775  1.00  0.00     0.074 A 
ATOM     45  C   UNL A   1      41.757  28.172  31.785  1.00  0.00     0.049 A 
ATOM     46  N   UNL A   1      39.640  30.305  31.712  1.00  0.00    -0.248 NA
ATOM     47  C   UNL A   1      38.940  29.447  29.657  1.00  0.00     0.031 C 
ATOM     48  C   UNL A   1      42.817  27.169  31.893  1.00  0.00     0.029 A 
ATOM     49  N   UNL A   1      41.739  28.765  33.028  1.00  0.00    -0.354 N 
ATOM     50  C   UNL A   1      38.534  31.023  31.269  1.00  0.00     0.074 A 
ATOM     51  C   UNL A   1      38.161  30.469  29.985  1.00  0.00     0.031 C 
ATOM     52  C   UNL A   1      43.350  27.220  33.123  1.00  0.00     0.029 A 
ATOM     53  C   UNL A   1      42.736  28.317  33.864  1.00  0.00     0.049 A 
ATOM     54  H   UNL A   1      41.076  29.443  33.293  1.00  0.00     0.167 HD
ATOM     55  C   UNL A   1      37.902  32.060  31.872  1.00  0.00     0.031 A 
ATOM     56  C   UNL A   1      43.157  28.771  35.062  1.00  0.00     0.031 A 
ATOM     57  C   UNL A   1      38.257  32.590  33.164  1.00  0.00     0.049 A 
ATOM     58  C   UNL A   1      42.495  29.979  35.673  1.00  0.00     0.074 A 
ATOM     59  C   UNL A   1      37.661  33.630  33.858  1.00  0.00     0.029 A 
ATOM     60  N   UNL A   1      39.293  32.125  33.957  1.00  0.00    -0.354 N 
ATOM     61  N   UNL A   1      41.485  30.683  35.223  1.00  0.00    -0.248 NA
ATOM     62  C   UNL A   1      43.045  30.462  36.949  1.00  0.00     0.031 C 
ATOM     63  C   UNL A   1      38.373  33.830  35.046  1.00  0.00     0.029 A 
ATOM     64  C   UNL A   1      39.372  32.874  35.120  1.00  0.00     0.049 A 
ATOM     65  H   UNL A   1      39.886  31.373  33.729  1.00  0.00     0.167 HD
ATOM     66  C   UNL A   1      41.263  31.675  36.174  1.00  0.00     0.074 A 
ATOM     67  C   UNL A   1      42.233  31.472  37.228  1.00  0.00     0.031 C 
ATOM     68  C   UNL A   1      40.336  32.665  36.170  1.00  0.00     0.031 A 
BRANCH  55  69
ATOM     69  C   UNL A   1      36.789  32.741  31.117  1.00  0.00    -0.014 A 
ATOM     70  C   UNL A   1      37.046  33.641  30.069  1.00  0.00     0.010 A 
ATOM     71  C   UNL A   1      35.454  32.417  31.429  1.00  0.00     0.010 A 
ATOM     72  C   UNL A   1      35.988  34.229  29.368  1.00  0.00     0.020 A 
ATOM     73  C   UNL A   1      34.395  32.982  30.714  1.00  0.00     0.020 A 
ATOM     74  C   UNL A   1      34.669  33.897  29.698  1.00  0.00     0.054 A 
BRANCH  74  75
ATOM     75  S   UNL A   1      33.317  34.659  28.758  1.00  0.00     0.124 S 
ATOM     76  O   UNL A   1      32.463  35.173  29.825  1.00  0.00    -0.237 OA
ATOM     77  O   UNL A   1      34.009  35.673  27.966  1.00  0.00    -0.237 OA
ATOM     78  O   UNL A   1      32.757  33.549  27.991  1.00  0.00    -0.744 OA
ENDBRANCH  74  75
ENDBRANCH  55  69
BRANCH  56  79
ATOM     79  C   UNL A   1      44.319  28.128  35.737  1.00  0.00    -0.014 A 
ATOM     80  C   UNL A   1      44.126  27.074  36.647  1.00  0.00     0.010 A 
ATOM     81  C   UNL A   1      45.629  28.580  35.484  1.00  0.00     0.010 A 
ATOM     82  C   UNL A   1      45.217  26.497  37.304  1.00  0.00     0.020 A 
ATOM     83  C   UNL A   1      46.725  27.983  36.113  1.00  0.00     0.020 A 
ATOM     84  C   UNL A   1      46.510  26.955  37.032  1.00  0.00     0.054 A 
BRANCH  84  85
ATOM     85  S   UNL A   1      47.914  26.167  37.867  1.00  0.00     0.124 S 
ATOM     86  O   UNL A   1      48.873  26.021  36.776  1.00  0.00    -0.237 OA
ATOM     87  O   UNL A   1      48.265  27.148  38.891  1.00  0.00    -0.237 OA
ATOM     88  O   UNL A   1      47.351  24.919  38.378  1.00  0.00    -0.744 OA
ENDBRANCH  84  85
ENDBRANCH  56  79
BRANCH  68  89
ATOM     89  C   UNL A   1      40.292  33.581  37.365  1.00  0.00    -0.014 A 
ATOM     90  C   UNL A   1      39.671  33.193  38.565  1.00  0.00     0.010 A 
ATOM     91  C   UNL A   1      40.927  34.836  37.299  1.00  0.00     0.010 A 
ATOM     92  C   UNL A   1      39.657  34.055  39.665  1.00  0.00     0.020 A 
ATOM     93  C   UNL A   1      40.938  35.690  38.405  1.00  0.00     0.020 A 
ATOM     94  C   UNL A   1      40.290  35.299  39.577  1.00  0.00     0.054 A 
BRANCH  94  95
ATOM     95  S   UNL A   1      40.294  36.384  41.032  1.00  0.00     0.124 S 
ATOM     96  O   UNL A   1      41.278  37.396  40.655  1.00  0.00    -0.237 OA
ATOM     97  O   UNL A   1      38.910  36.846  41.094  1.00  0.00    -0.237 OA
ATOM     98  O   UNL A   1      40.698  35.500  42.123  1.00  0.00    -0.744 OA
ENDBRANCH  94  95
ENDBRANCH  68  89
ENDBRANCH  42  43
ENDBRANCH  35  37
ENDBRANCH  34  35
ENDBRANCH  33  34
ENDBRANCH  32  33
ENDBRANCH  31  32
ENDBRANCH  30  31
ENDBRANCH   1  30
TORSDOF 24
ENDMDL
MODEL 2
REMARK VINA RESULT:      -9.7      1.468      3.878
REMARK SMILES CCc1ccc2[nH]c(C(=O)c3cc(C)ccn3)c(CC(=O)OCCOCCOCCOC(=O)c3ccc(-c4c5nc(c(-c6ccc(S(=O)(=O)[O-])cc6)c6ccc([nH]6)c(-c6ccc(S(=O)(=O)[O-])cc6)c6nc(c(-c7ccc(S(=O)(=O)[O-])cc7)c7ccc4[nH]7)C=C6)C=C5)cc3)c2c1
REMARK SMILES IDX 26 1 25 2 24 3 23 4 22 5 20 6 21 7 19 8 18 9 3 10 4 11 95 12
REMARK SMILES IDX 5 13 94 14 6 15 7 16 8 17 2 19 1 20 9 21 10 22 11 23 12 24
REMARK SMILES IDX 17 25 13 26 16 27 14 28 15 29 27 30 28 31 29 32 30 33 31 34
REMARK SMILES IDX 32 35 33 36 34 37 35 38 93 39 36 40 92 41 37 42 38 43 39 44
REMARK SMILES IDX 86 45 40 46 91 47 85 48 87 49 41 50 90 51 84 52 83 53 42 55
REMARK SMILES IDX 72 56 53 57 71 58 54 59 57 60 70 61 88 62 55 63 56 64 69 66
REMARK SMILES IDX 89 67 58 68 43 69 44 70 52 71 45 72 51 73 46 74 47 75 48 76
REMARK SMILES IDX 49 77 50 78 73 79 74 80 82 81 75 82 81 83 76 84 77 85 78 86
REMARK SMILES IDX 79 87 80 88 59 89 60 90 68 91 61 92 67 93 62 94 63 95 64 96
REMARK SMILES IDX 65 97 66 98
REMARK H PARENT 7 18 87 54 57 65
REMARK Flexibility Score: inf
ROOT
ATOM      1  C   UNL A   1      41.226  21.242  27.390  1.00  0.00     0.188 C 
ENDROOT
BRANCH   1   2
ATOM      2  O   UNL A   1      40.312  22.309  27.637  1.00  0.00    -0.376 OA
BRANCH   2   3
ATOM      3  C   UNL A   1      39.442  22.702  26.584  1.00  0.00     0.202 C 
BRANCH   3   4
ATOM      4  C   UNL A   1      38.733  24.049  26.771  1.00  0.00     0.261 C 
BRANCH   4   5
ATOM      5  O   UNL A   1      37.810  24.320  25.695  1.00  0.00    -0.463 OA
BRANCH   5   6
ATOM      6  C   UNL A   1      36.643  23.623  25.695  1.00  0.00     0.310 C 
ATOM      7  O   UNL A   1      36.157  23.125  26.706  1.00  0.00    -0.252 OA
BRANCH   6   8
ATOM      8  C   UNL A   1      35.906  23.670  24.360  1.00  0.00     0.161 C 
BRANCH   8   9
ATOM      9  C   UNL A   1      34.472  23.190  24.321  1.00  0.00     0.000 A 
ATOM     10  C   UNL A   1      34.071  19.388  24.553  1.00  0.00    -0.048 A 
ATOM     11  C   UNL A   1      32.670  19.410  24.619  1.00  0.00     0.006 A 
ATOM     12  C   UNL A   1      34.765  20.593  24.357  1.00  0.00     0.014 A 
ATOM     13  C   UNL A   1      31.943  20.600  24.509  1.00  0.00     0.027 A 
ATOM     14  C   UNL A   1      34.062  21.815  24.313  1.00  0.00     0.004 A 
ATOM     15  C   UNL A   1      32.674  21.782  24.383  1.00  0.00     0.046 A 
ATOM     16  N   UNL A   1      32.243  23.084  24.344  1.00  0.00    -0.352 N 
ATOM     17  C   UNL A   1      33.306  23.935  24.560  1.00  0.00     0.093 A 
ATOM     18  H   UNL A   1      31.314  23.368  24.187  1.00  0.00     0.167 HD
BRANCH  10  19
ATOM     19  C   UNL A   1      34.771  18.064  24.767  1.00  0.00     0.032 C 
ATOM     20  C   UNL A   1      34.427  16.944  23.793  1.00  0.00     0.009 C 
ENDBRANCH  10  19
BRANCH  17  21
ATOM     21  C   UNL A   1      33.155  25.301  25.041  1.00  0.00     0.227 C 
ATOM     22  O   UNL A   1      33.964  25.834  25.795  1.00  0.00    -0.285 OA
BRANCH  21  23
ATOM     23  C   UNL A   1      31.945  26.084  24.650  1.00  0.00     0.113 A 
ATOM     24  C   UNL A   1      32.057  27.179  23.796  1.00  0.00     0.036 A 
ATOM     25  N   UNL A   1      30.765  25.613  25.128  1.00  0.00    -0.253 NA
ATOM     26  C   UNL A   1      30.881  27.813  23.377  1.00  0.00    -0.047 A 
ATOM     27  C   UNL A   1      29.647  26.201  24.646  1.00  0.00     0.112 A 
ATOM     28  C   UNL A   1      30.899  29.024  22.491  1.00  0.00     0.044 C 
ATOM     29  C   UNL A   1      29.654  27.281  23.779  1.00  0.00     0.023 A 
ENDBRANCH  21  23
ENDBRANCH  17  21
ENDBRANCH   8   9
ENDBRANCH   6   8
ENDBRANCH   5   6
ENDBRANCH   4   5
ENDBRANCH   3   4
ENDBRANCH   2   3
ENDBRANCH   1   2
BRANCH   1  30
ATOM     30  C   UNL A   1      41.696  20.989  25.939  1.00  0.00     0.188 C 
BRANCH  30  31
ATOM     31  O   UNL A   1      42.462  22.056  25.392  1.00  0.00    -0.376 OA
BRANCH  31  32
ATOM     32  C   UNL A   1      43.798  22.118  25.869  1.00  0.00     0.202 C 
BRANCH  32  33
ATOM     33  C   UNL A   1      44.094  23.439  26.576  1.00  0.00     0.261 C 
BRANCH  33  34
ATOM     34  O   UNL A   1      43.097  24.440  26.270  1.00  0.00    -0.460 OA
BRANCH  34  35
ATOM     35  C   UNL A   1      43.493  25.721  26.202  1.00  0.00     0.338 C 
ATOM     36  O   UNL A   1      44.243  26.201  25.351  1.00  0.00    -0.246 OA
BRANCH  35  37
ATOM     37  C   UNL A   1      42.947  26.505  27.338  1.00  0.00     0.060 A 
ATOM     38  C   UNL A   1      43.390  27.796  27.645  1.00  0.00     0.016 A 
ATOM     39  C   UNL A   1      42.032  25.887  28.188  1.00  0.00     0.016 A 
ATOM     40  C   UNL A   1      42.971  28.441  28.816  1.00  0.00     0.010 A 
ATOM     41  C   UNL A   1      41.563  26.559  29.324  1.00  0.00     0.010 A 
ATOM     42  C   UNL A   1      42.042  27.837  29.667  1.00  0.00    -0.014 A 
BRANCH  42  43
ATOM     43  C   UNL A   1      41.571  28.490  30.923  1.00  0.00     0.031 A 
ATOM     44  C   UNL A   1      40.368  29.398  30.890  1.00  0.00     0.074 A 
ATOM     45  C   UNL A   1      42.239  28.333  32.084  1.00  0.00     0.049 A 
ATOM     46  N   UNL A   1      39.973  30.284  31.768  1.00  0.00    -0.248 NA
ATOM     47  C   UNL A   1      39.501  29.300  29.705  1.00  0.00     0.031 C 
ATOM     48  C   UNL A   1      43.362  27.423  32.309  1.00  0.00     0.029 A 
ATOM     49  N   UNL A   1      42.080  28.966  33.296  1.00  0.00    -0.354 N 
ATOM     50  C   UNL A   1      38.852  30.894  31.217  1.00  0.00     0.074 A 
ATOM     51  C   UNL A   1      38.622  30.266  29.932  1.00  0.00     0.031 C 
ATOM     52  C   UNL A   1      43.794  27.560  33.572  1.00  0.00     0.029 A 
ATOM     53  C   UNL A   1      43.042  28.629  34.221  1.00  0.00     0.049 A 
ATOM     54  H   UNL A   1      41.348  29.597  33.484  1.00  0.00     0.167 HD
ATOM     55  C   UNL A   1      38.097  31.897  31.728  1.00  0.00     0.031 A 
ATOM     56  C   UNL A   1      43.334  29.158  35.426  1.00  0.00     0.031 A 
ATOM     57  C   UNL A   1      38.310  32.499  33.020  1.00  0.00     0.049 A 
ATOM     58  C   UNL A   1      42.536  30.329  35.937  1.00  0.00     0.074 A 
ATOM     59  C   UNL A   1      37.584  33.512  33.626  1.00  0.00     0.029 A 
ATOM     60  N   UNL A   1      39.316  32.147  33.905  1.00  0.00    -0.354 N 
ATOM     61  N   UNL A   1      41.511  30.933  35.386  1.00  0.00    -0.248 NA
ATOM     62  C   UNL A   1      42.949  30.900  37.228  1.00  0.00     0.031 C 
ATOM     63  C   UNL A   1      38.186  33.810  34.853  1.00  0.00     0.029 A 
ATOM     64  C   UNL A   1      39.248  32.941  35.039  1.00  0.00     0.049 A 
ATOM     65  H   UNL A   1      39.981  31.438  33.752  1.00  0.00     0.167 HD
ATOM     66  C   UNL A   1      41.141  31.937  36.276  1.00  0.00     0.074 A 
ATOM     67  C   UNL A   1      42.041  31.851  37.406  1.00  0.00     0.031 C 
ATOM     68  C   UNL A   1      40.143  32.848  36.164  1.00  0.00     0.031 A 
BRANCH  55  69
ATOM     69  C   UNL A   1      36.995  32.459  30.867  1.00  0.00    -0.014 A 
ATOM     70  C   UNL A   1      37.249  33.408  29.863  1.00  0.00     0.010 A 
ATOM     71  C   UNL A   1      35.683  31.971  31.031  1.00  0.00     0.010 A 
ATOM     72  C   UNL A   1      36.206  33.882  29.060  1.00  0.00     0.020 A 
ATOM     73  C   UNL A   1      34.645  32.423  30.214  1.00  0.00     0.020 A 
ATOM     74  C   UNL A   1      34.910  33.388  29.244  1.00  0.00     0.054 A 
BRANCH  74  75
ATOM     75  S   UNL A   1      33.582  34.007  28.173  1.00  0.00     0.124 S 
ATOM     76  O   UNL A   1      34.313  34.894  27.272  1.00  0.00    -0.237 OA
ATOM     77  O   UNL A   1      33.063  32.784  27.566  1.00  0.00    -0.237 OA
ATOM     78  O   UNL A   1      32.671  34.673  29.100  1.00  0.00    -0.744 OA
ENDBRANCH  74  75
ENDBRANCH  55  69
BRANCH  56  79
ATOM     79  C   UNL A   1      44.489  28.635  36.210  1.00  0.00    -0.014 A 
ATOM     80  C   UNL A   1      45.797  29.067  35.935  1.00  0.00     0.010 A 
ATOM     81  C   UNL A   1      44.284  27.686  37.231  1.00  0.00     0.010 A 
ATOM     82  C   UNL A   1      46.880  28.548  36.650  1.00  0.00     0.020 A 
ATOM     83  C   UNL A   1      45.360  27.190  37.971  1.00  0.00     0.020 A 
ATOM     84  C   UNL A   1      46.654  27.613  37.665  1.00  0.00     0.054 A 
BRANCH  84  85
ATOM     85  S   UNL A   1      48.070  26.979  38.606  1.00  0.00     0.124 S 
ATOM     86  O   UNL A   1      47.423  26.433  39.795  1.00  0.00    -0.237 OA
ATOM     87  O   UNL A   1      48.645  25.997  37.690  1.00  0.00    -0.237 OA
ATOM     88  O   UNL A   1      48.891  28.167  38.829  1.00  0.00    -0.744 OA
ENDBRANCH  84  85
ENDBRANCH  56  79
BRANCH  68  89
ATOM     89  C   UNL A   1      39.937  33.799  37.314  1.00  0.00    -0.014 A 
ATOM     90  C   UNL A   1      40.500  35.087  37.312  1.00  0.00     0.010 A 
ATOM     91  C   UNL A   1      39.126  33.410  38.396  1.00  0.00     0.010 A 
ATOM     92  C   UNL A   1      40.282  35.957  38.384  1.00  0.00     0.020 A 
ATOM     93  C   UNL A   1      38.882  34.286  39.458  1.00  0.00     0.020 A 
ATOM     94  C   UNL A   1      39.475  35.549  39.452  1.00  0.00     0.054 A 
BRANCH  94  95
ATOM     95  S   UNL A   1      39.172  36.710  40.814  1.00  0.00     0.124 S 
ATOM     96  O   UNL A   1      38.793  37.926  40.098  1.00  0.00    -0.237 OA
ATOM     97  O   UNL A   1      38.099  36.059  41.559  1.00  0.00    -0.237 OA
ATOM     98  O   UNL A   1      40.456  36.773  41.508  1.00  0.00    -0.744 OA
ENDBRANCH  94  95
ENDBRANCH  68  89
ENDBRANCH  42  43
ENDBRANCH  35  37
ENDBRANCH  34  35
ENDBRANCH  33  34
ENDBRANCH  32  33
ENDBRANCH  31  32
ENDBRANCH  30  31
ENDBRANCH   1  30
TORSDOF 24
ENDMDL
MODEL 3
REMARK VINA RESULT:      -9.6      5.875     10.811
REMARK SMILES CCc1ccc2[nH]c(C(=O)c3cc(C)ccn3)c(CC(=O)OCCOCCOCCOC(=O)c3ccc(-c4c5nc(c(-c6ccc(S(=O)(=O)[O-])cc6)c6ccc([nH]6)c(-c6ccc(S(=O)(=O)[O-])cc6)c6nc(c(-c7ccc(S(=O)(=O)[O-])cc7)c7ccc4[nH]7)C=C6)C=C5)cc3)c2c1
REMARK SMILES IDX 26 1 25 2 24 3 23 4 22 5 20 6 21 7 19 8 18 9 3 10 4 11 95 12
REMARK SMILES IDX 5 13 94 14 6 15 7 16 8 17 2 19 1 20 9 21 10 22 11 23 12 24
REMARK SMILES IDX 17 25 13 26 16 27 14 28 15 29 27 30 28 31 29 32 30 33 31 34
REMARK SMILES IDX 32 35 33 36 34 37 35 38 93 39 36 40 92 41 37 42 38 43 39 44
REMARK SMILES IDX 86 45 40 46 91 47 85 48 87 49 41 50 90 51 84 52 83 53 42 55
REMARK SMILES IDX 72 56 53 57 71 58 54 59 57 60 70 61 88 62 55 63 56 64 69 66
REMARK SMILES IDX 89 67 58 68 43 69 44 70 52 71 45 72 51 73 46 74 47 75 48 76
REMARK SMILES IDX 49 77 50 78 73 79 74 80 82 81 75 82 81 83 76 84 77 85 78 86
REMARK SMILES IDX 79 87 80 88 59 89 60 90 68 91 61 92 67 93 62 94 63 95 64 96
REMARK SMILES IDX 65 97 66 98
REMARK H PARENT 7 18 87 54 57 65
REMARK Flexibility Score: inf
ROOT
ATOM      1  C   UNL A   1      38.542  20.716  25.449  1.00  0.00     0.188 C 
ENDROOT
BRANCH   1   2
ATOM      2  O   UNL A   1      37.952  21.935  25.001  1.00  0.00    -0.376 OA
BRANCH   2   3
ATOM      3  C   UNL A   1      37.757  22.973  25.953  1.00  0.00     0.202 C 
BRANCH   3   4
ATOM      4  C   UNL A   1      36.409  23.701  25.881  1.00  0.00     0.261 C 
BRANCH   4   5
ATOM      5  O   UNL A   1      35.328  22.792  25.581  1.00  0.00    -0.463 OA
BRANCH   5   6
ATOM      6  C   UNL A   1      34.400  22.599  26.553  1.00  0.00     0.310 C 
ATOM      7  O   UNL A   1      34.675  22.560  27.749  1.00  0.00    -0.252 OA
BRANCH   6   8
ATOM      8  C   UNL A   1      32.964  22.613  26.036  1.00  0.00     0.161 C 
BRANCH   8   9
ATOM      9  C   UNL A   1      32.708  22.119  24.630  1.00  0.00     0.000 A 
ATOM     10  C   UNL A   1      32.658  18.305  24.280  1.00  0.00    -0.048 A 
ATOM     11  C   UNL A   1      32.273  18.304  22.931  1.00  0.00     0.006 A 
ATOM     12  C   UNL A   1      32.923  19.529  24.915  1.00  0.00     0.014 A 
ATOM     13  C   UNL A   1      32.130  19.489  22.202  1.00  0.00     0.027 A 
ATOM     14  C   UNL A   1      32.719  20.743  24.225  1.00  0.00     0.004 A 
ATOM     15  C   UNL A   1      32.336  20.687  22.889  1.00  0.00     0.046 A 
ATOM     16  N   UNL A   1      32.184  21.983  22.465  1.00  0.00    -0.352 N 
ATOM     17  C   UNL A   1      32.157  22.830  23.552  1.00  0.00     0.093 A 
ATOM     18  H   UNL A   1      32.104  22.265  21.526  1.00  0.00     0.167 HD
BRANCH  10  19
ATOM     19  C   UNL A   1      32.704  16.979  25.006  1.00  0.00     0.032 C 
ATOM     20  C   UNL A   1      33.966  16.145  24.826  1.00  0.00     0.009 C 
ENDBRANCH  10  19
BRANCH  17  21
ATOM     21  C   UNL A   1      31.560  24.158  23.520  1.00  0.00     0.227 C 
ATOM     22  O   UNL A   1      30.393  24.355  23.195  1.00  0.00    -0.285 OA
BRANCH  21  23
ATOM     23  C   UNL A   1      32.403  25.347  23.845  1.00  0.00     0.113 A 
ATOM     24  C   UNL A   1      32.796  26.230  22.843  1.00  0.00     0.036 A 
ATOM     25  N   UNL A   1      32.685  25.521  25.162  1.00  0.00    -0.253 NA
ATOM     26  C   UNL A   1      33.494  27.385  23.215  1.00  0.00    -0.047 A 
ATOM     27  C   UNL A   1      33.295  26.680  25.495  1.00  0.00     0.112 A 
ATOM     28  C   UNL A   1      33.996  28.376  22.206  1.00  0.00     0.044 C 
ATOM     29  C   UNL A   1      33.706  27.629  24.574  1.00  0.00     0.023 A 
ENDBRANCH  21  23
ENDBRANCH  17  21
ENDBRANCH   8   9
ENDBRANCH   6   8
ENDBRANCH   5   6
ENDBRANCH   4   5
ENDBRANCH   3   4
ENDBRANCH   2   3
ENDBRANCH   1   2
BRANCH   1  30
ATOM     30  C   UNL A   1      39.955  20.761  26.073  1.00  0.00     0.188 C 
BRANCH  30  31
ATOM     31  O   UNL A   1      40.676  19.542  25.942  1.00  0.00    -0.376 OA
BRANCH  31  32
ATOM     32  C   UNL A   1      41.947  19.546  26.577  1.00  0.00     0.202 C 
BRANCH  32  33
ATOM     33  C   UNL A   1      42.941  18.624  25.873  1.00  0.00     0.261 C 
BRANCH  33  34
ATOM     34  O   UNL A   1      43.413  19.197  24.634  1.00  0.00    -0.460 OA
BRANCH  34  35
ATOM     35  C   UNL A   1      44.662  19.689  24.603  1.00  0.00     0.338 C 
ATOM     36  O   UNL A   1      45.689  19.039  24.404  1.00  0.00    -0.246 OA
BRANCH  35  37
ATOM     37  C   UNL A   1      44.667  21.143  24.900  1.00  0.00     0.060 A 
ATOM     38  C   UNL A   1      44.260  22.104  23.968  1.00  0.00     0.016 A 
ATOM     39  C   UNL A   1      45.193  21.567  26.119  1.00  0.00     0.016 A 
ATOM     40  C   UNL A   1      44.430  23.470  24.224  1.00  0.00     0.010 A 
ATOM     41  C   UNL A   1      45.300  22.934  26.400  1.00  0.00     0.010 A 
ATOM     42  C   UNL A   1      44.941  23.907  25.448  1.00  0.00    -0.014 A 
BRANCH  42  43
ATOM     43  C   UNL A   1      45.138  25.353  25.759  1.00  0.00     0.031 A 
ATOM     44  C   UNL A   1      46.523  25.946  25.719  1.00  0.00     0.074 A 
ATOM     45  C   UNL A   1      44.104  26.132  26.136  1.00  0.00     0.049 A 
ATOM     46  N   UNL A   1      46.960  27.069  26.231  1.00  0.00    -0.248 NA
ATOM     47  C   UNL A   1      47.555  25.166  25.017  1.00  0.00     0.031 C 
ATOM     48  C   UNL A   1      42.694  25.742  26.139  1.00  0.00     0.029 A 
ATOM     49  N   UNL A   1      44.090  27.421  26.621  1.00  0.00    -0.354 N 
ATOM     50  C   UNL A   1      48.326  27.101  25.971  1.00  0.00     0.074 A 
ATOM     51  C   UNL A   1      48.643  25.889  25.243  1.00  0.00     0.031 C 
ATOM     52  C   UNL A   1      41.956  26.761  26.607  1.00  0.00     0.029 A 
ATOM     53  C   UNL A   1      42.843  27.842  27.023  1.00  0.00     0.049 A 
ATOM     54  H   UNL A   1      44.894  27.987  26.673  1.00  0.00     0.167 HD
ATOM     55  C   UNL A   1      49.232  28.045  26.323  1.00  0.00     0.031 A 
ATOM     56  C   UNL A   1      42.457  28.938  27.707  1.00  0.00     0.031 A 
ATOM     57  C   UNL A   1      48.909  29.263  27.022  1.00  0.00     0.049 A 
ATOM     58  C   UNL A   1      43.493  29.932  28.164  1.00  0.00     0.074 A 
ATOM     59  C   UNL A   1      49.762  30.285  27.407  1.00  0.00     0.029 A 
ATOM     60  N   UNL A   1      47.638  29.629  27.436  1.00  0.00    -0.354 N 
ATOM     61  N   UNL A   1      44.788  29.928  27.958  1.00  0.00    -0.248 NA
ATOM     62  C   UNL A   1      43.013  31.071  28.960  1.00  0.00     0.031 C 
ATOM     63  C   UNL A   1      49.016  31.241  28.104  1.00  0.00     0.029 A 
ATOM     64  C   UNL A   1      47.689  30.846  28.098  1.00  0.00     0.049 A 
ATOM     65  H   UNL A   1      46.821  29.103  27.284  1.00  0.00     0.167 HD
ATOM     66  C   UNL A   1      45.272  31.076  28.578  1.00  0.00     0.074 A 
ATOM     67  C   UNL A   1      44.132  31.756  29.153  1.00  0.00     0.031 C 
ATOM     68  C   UNL A   1      46.550  31.523  28.663  1.00  0.00     0.031 A 
BRANCH  55  69
ATOM     69  C   UNL A   1      50.683  27.778  26.015  1.00  0.00    -0.014 A 
ATOM     70  C   UNL A   1      51.540  27.171  26.949  1.00  0.00     0.010 A 
ATOM     71  C   UNL A   1      51.178  28.088  24.733  1.00  0.00     0.010 A 
ATOM     72  C   UNL A   1      52.873  26.908  26.616  1.00  0.00     0.020 A 
ATOM     73  C   UNL A   1      52.500  27.803  24.388  1.00  0.00     0.020 A 
ATOM     74  C   UNL A   1      53.344  27.229  25.338  1.00  0.00     0.054 A 
BRANCH  74  75
ATOM     75  S   UNL A   1      55.073  26.857  24.928  1.00  0.00     0.124 S 
ATOM     76  O   UNL A   1      55.405  27.947  24.014  1.00  0.00    -0.237 OA
ATOM     77  O   UNL A   1      55.730  26.910  26.231  1.00  0.00    -0.237 OA
ATOM     78  O   UNL A   1      55.008  25.531  24.319  1.00  0.00    -0.744 OA
ENDBRANCH  74  75
ENDBRANCH  55  69
BRANCH  56  79
ATOM     79  C   UNL A   1      41.025  29.124  28.072  1.00  0.00    -0.014 A 
ATOM     80  C   UNL A   1      40.057  29.358  27.080  1.00  0.00     0.010 A 
ATOM     81  C   UNL A   1      40.623  29.081  29.421  1.00  0.00     0.010 A 
ATOM     82  C   UNL A   1      38.719  29.566  27.431  1.00  0.00     0.020 A 
ATOM     83  C   UNL A   1      39.282  29.255  29.773  1.00  0.00     0.020 A 
ATOM     84  C   UNL A   1      38.340  29.512  28.776  1.00  0.00     0.054 A 
BRANCH  84  85
ATOM     85  S   UNL A   1      36.594  29.747  29.206  1.00  0.00     0.124 S 
ATOM     86  O   UNL A   1      36.497  31.201  29.294  1.00  0.00    -0.237 OA
ATOM     87  O   UNL A   1      35.903  29.133  28.075  1.00  0.00    -0.237 OA
ATOM     88  O   UNL A   1      36.455  29.033  30.473  1.00  0.00    -0.744 OA
ENDBRANCH  84  85
ENDBRANCH  56  79
BRANCH  68  89
ATOM     89  C   UNL A   1      46.782  32.837  29.363  1.00  0.00    -0.014 A 
ATOM     90  C   UNL A   1      46.766  34.055  28.661  1.00  0.00     0.010 A 
ATOM     91  C   UNL A   1      46.972  32.854  30.757  1.00  0.00     0.010 A 
ATOM     92  C   UNL A   1      46.970  35.263  29.336  1.00  0.00     0.020 A 
ATOM     93  C   UNL A   1      47.148  34.061  31.440  1.00  0.00     0.020 A 
ATOM     94  C   UNL A   1      47.161  35.257  30.722  1.00  0.00     0.054 A 
BRANCH  94  95
ATOM     95  S   UNL A   1      47.380  36.840  31.581  1.00  0.00     0.124 S 
ATOM     96  O   UNL A   1      46.633  36.622  32.817  1.00  0.00    -0.237 OA
ATOM     97  O   UNL A   1      48.830  36.926  31.731  1.00  0.00    -0.237 OA
ATOM     98  O   UNL A   1      46.796  37.817  30.665  1.00  0.00    -0.744 OA
ENDBRANCH  94  95
ENDBRANCH  68  89
ENDBRANCH  42  43
ENDBRANCH  35  37
ENDBRANCH  34  35
ENDBRANCH  33  34
ENDBRANCH  32  33
ENDBRANCH  31  32
ENDBRANCH  30  31
ENDBRANCH   1  30
TORSDOF 24
ENDMDL
