MODEL 1
REMARK VINA RESULT:      -9.2      0.000      0.000
REMARK SMILES CC(C)[C@@H](NC(=O)c1ccc2[nH]nnc2c1)C(=O)OCCOCCOCCOC(=O)c1ccc(-c2c3nc(c(-c4ccc(S(=O)(=O)[O-])cc4)c4ccc([nH]4)c(-c4ccc(S(=O)(=O)[O-])cc4)c4nc(c(-c5ccc(S(=O)(=O)[O-])cc5)c5ccc2[nH]5)C=C4)C=C3)cc1
REMARK SMILES IDX 24 1 23 2 22 3 21 4 20 5 19 6 17 7 18 8 4 9 2 10 1 11 3 12
REMARK SMILES IDX 5 13 6 14 7 16 8 17 9 18 16 19 10 20 15 21 11 22 14 23 12 24
REMARK SMILES IDX 13 25 25 27 26 28 27 29 28 30 29 31 30 32 31 33 32 34 90 35
REMARK SMILES IDX 33 36 89 37 34 38 35 39 36 40 83 41 37 42 88 43 82 44 84 45
REMARK SMILES IDX 38 46 87 47 81 48 80 49 39 51 69 52 50 53 68 54 51 55 54 56
REMARK SMILES IDX 67 57 85 58 52 59 53 60 66 62 86 63 55 64 40 65 41 66 49 67
REMARK SMILES IDX 42 68 48 69 43 70 44 71 45 72 46 73 47 74 70 75 71 76 79 77
REMARK SMILES IDX 72 78 78 79 73 80 74 81 75 82 76 83 77 84 56 85 57 86 65 87
REMARK SMILES IDX 58 88 64 89 59 90 60 91 61 92 62 93 63 94
REMARK H PARENT 5 15 12 26 84 50 54 61
REMARK Flexibility Score: inf
ROOT
ATOM      1  C   UNL A   1      33.028  27.625  25.501  1.00  0.00     0.188 C 
ENDROOT
BRANCH   1   2
ATOM      2  C   UNL A   1      32.101  27.368  24.320  1.00  0.00     0.188 C 
BRANCH   2   3
ATOM      3  O   UNL A   1      32.589  26.437  23.375  1.00  0.00    -0.376 OA
BRANCH   3   4
ATOM      4  C   UNL A   1      32.848  25.115  23.856  1.00  0.00     0.202 C 
BRANCH   4   5
ATOM      5  C   UNL A   1      34.033  24.319  23.288  1.00  0.00     0.261 C 
BRANCH   5   6
ATOM      6  O   UNL A   1      35.372  24.410  23.836  1.00  0.00    -0.462 OA
BRANCH   6   7
ATOM      7  C   UNL A   1      36.185  23.343  23.589  1.00  0.00     0.328 C 
ATOM      8  O   UNL A   1      36.408  22.881  22.471  1.00  0.00    -0.250 OA
BRANCH   7   9
ATOM      9  C   UNL A   1      36.670  22.576  24.823  1.00  0.00     0.195 C 
BRANCH   9  10
ATOM     10  C   UNL A   1      38.058  23.007  25.390  1.00  0.00     0.017 C 
ATOM     11  C   UNL A   1      37.901  24.053  26.512  1.00  0.00     0.010 C 
ATOM     12  C   UNL A   1      38.882  21.855  25.973  1.00  0.00     0.010 C 
ENDBRANCH   9  10
BRANCH   9  13
ATOM     13  N   UNL A   1      35.669  22.470  25.922  1.00  0.00    -0.338 N 
ATOM     14  C   UNL A   1      34.775  21.496  26.299  1.00  0.00     0.252 C 
ATOM     15  H   UNL A   1      35.642  23.266  26.500  1.00  0.00     0.164 HD
ATOM     16  O   UNL A   1      34.394  21.451  27.466  1.00  0.00    -0.269 OA
BRANCH  14  17
ATOM     17  C   UNL A   1      34.090  20.633  25.322  1.00  0.00     0.042 A 
ATOM     18  C   UNL A   1      32.901  21.028  24.696  1.00  0.00     0.016 A 
ATOM     19  C   UNL A   1      34.708  19.411  25.006  1.00  0.00     0.046 A 
ATOM     20  C   UNL A   1      32.223  20.160  23.822  1.00  0.00     0.031 A 
ATOM     21  C   UNL A   1      34.026  18.528  24.155  1.00  0.00     0.113 A 
ATOM     22  C   UNL A   1      32.803  18.904  23.614  1.00  0.00     0.086 A 
ATOM     23  N   UNL A   1      34.294  17.228  23.816  1.00  0.00    -0.130 NA
ATOM     24  N   UNL A   1      32.369  17.758  23.005  1.00  0.00    -0.258 N 
ATOM     25  N   UNL A   1      33.259  16.758  23.131  1.00  0.00    -0.069 NA
ATOM     26  H   UNL A   1      31.509  17.676  22.533  1.00  0.00     0.192 HD
ENDBRANCH  14  17
ENDBRANCH   9  13
ENDBRANCH   7   9
ENDBRANCH   6   7
ENDBRANCH   5   6
ENDBRANCH   4   5
ENDBRANCH   3   4
ENDBRANCH   2   3
ENDBRANCH   1   2
BRANCH   1  27
ATOM     27  O   UNL A   1      33.479  28.957  25.647  1.00  0.00    -0.376 OA
BRANCH  27  28
ATOM     28  C   UNL A   1      32.610  30.031  25.996  1.00  0.00     0.202 C 
BRANCH  28  29
ATOM     29  C   UNL A   1      32.863  30.897  27.238  1.00  0.00     0.261 C 
BRANCH  29  30
ATOM     30  O   UNL A   1      34.038  31.725  27.227  1.00  0.00    -0.460 OA
BRANCH  30  31
ATOM     31  C   UNL A   1      34.038  32.859  27.973  1.00  0.00     0.338 C 
ATOM     32  O   UNL A   1      33.189  33.723  27.987  1.00  0.00    -0.246 OA
BRANCH  31  33
ATOM     33  C   UNL A   1      35.120  32.713  28.992  1.00  0.00     0.060 A 
ATOM     34  C   UNL A   1      36.308  33.433  28.799  1.00  0.00     0.016 A 
ATOM     35  C   UNL A   1      34.925  32.000  30.180  1.00  0.00     0.016 A 
ATOM     36  C   UNL A   1      37.327  33.381  29.755  1.00  0.00     0.010 A 
ATOM     37  C   UNL A   1      35.943  31.946  31.135  1.00  0.00     0.010 A 
ATOM     38  C   UNL A   1      37.171  32.592  30.902  1.00  0.00    -0.014 A 
BRANCH  38  39
ATOM     39  C   UNL A   1      38.358  32.205  31.707  1.00  0.00     0.031 A 
ATOM     40  C   UNL A   1      39.305  31.203  31.098  1.00  0.00     0.074 A 
ATOM     41  C   UNL A   1      38.616  32.720  32.924  1.00  0.00     0.049 A 
ATOM     42  N   UNL A   1      40.368  30.641  31.612  1.00  0.00    -0.248 NA
ATOM     43  C   UNL A   1      39.004  30.773  29.720  1.00  0.00     0.031 C 
ATOM     44  C   UNL A   1      37.822  33.737  33.607  1.00  0.00     0.029 A 
ATOM     45  N   UNL A   1      39.634  32.440  33.805  1.00  0.00    -0.354 N 
ATOM     46  C   UNL A   1      40.848  29.780  30.630  1.00  0.00     0.074 A 
ATOM     47  C   UNL A   1      39.945  29.869  29.505  1.00  0.00     0.031 C 
ATOM     48  C   UNL A   1      38.379  33.992  34.806  1.00  0.00     0.029 A 
ATOM     49  C   UNL A   1      39.544  33.128  34.993  1.00  0.00     0.049 A 
ATOM     50  H   UNL A   1      40.362  31.808  33.603  1.00  0.00     0.167 HD
ATOM     51  C   UNL A   1      41.944  28.989  30.656  1.00  0.00     0.031 A 
ATOM     52  C   UNL A   1      40.300  33.048  36.109  1.00  0.00     0.031 A 
ATOM     53  C   UNL A   1      42.840  28.892  31.775  1.00  0.00     0.049 A 
ATOM     54  C   UNL A   1      41.473  32.098  36.149  1.00  0.00     0.074 A 
ATOM     55  C   UNL A   1      43.987  28.125  31.893  1.00  0.00     0.029 A 
ATOM     56  N   UNL A   1      42.690  29.576  32.970  1.00  0.00    -0.354 N 
ATOM     57  N   UNL A   1      41.921  31.298  35.209  1.00  0.00    -0.248 NA
ATOM     58  C   UNL A   1      42.245  32.042  37.400  1.00  0.00     0.031 C 
ATOM     59  C   UNL A   1      44.492  28.296  33.185  1.00  0.00     0.029 A 
ATOM     60  C   UNL A   1      43.706  29.228  33.844  1.00  0.00     0.049 A 
ATOM     61  H   UNL A   1      41.969  30.215  33.169  1.00  0.00     0.167 HD
ATOM     62  C   UNL A   1      43.046  30.674  35.744  1.00  0.00     0.074 A 
ATOM     63  C   UNL A   1      43.215  31.195  37.084  1.00  0.00     0.031 C 
ATOM     64  C   UNL A   1      43.867  29.757  35.175  1.00  0.00     0.031 A 
BRANCH  51  65
ATOM     65  C   UNL A   1      42.206  28.128  29.448  1.00  0.00    -0.014 A 
ATOM     66  C   UNL A   1      43.066  28.551  28.417  1.00  0.00     0.010 A 
ATOM     67  C   UNL A   1      41.596  26.864  29.356  1.00  0.00     0.010 A 
ATOM     68  C   UNL A   1      43.278  27.741  27.299  1.00  0.00     0.020 A 
ATOM     69  C   UNL A   1      41.832  26.037  28.256  1.00  0.00     0.020 A 
ATOM     70  C   UNL A   1      42.659  26.489  27.225  1.00  0.00     0.054 A 
BRANCH  70  71
ATOM     71  S   UNL A   1      42.970  25.450  25.772  1.00  0.00     0.124 S 
ATOM     72  O   UNL A   1      44.129  26.109  25.174  1.00  0.00    -0.237 OA
ATOM     73  O   UNL A   1      43.229  24.141  26.366  1.00  0.00    -0.237 OA
ATOM     74  O   UNL A   1      41.732  25.549  25.002  1.00  0.00    -0.744 OA
ENDBRANCH  70  71
ENDBRANCH  51  65
BRANCH  52  75
ATOM     75  C   UNL A   1      39.959  33.875  37.303  1.00  0.00    -0.014 A 
ATOM     76  C   UNL A   1      40.507  35.159  37.475  1.00  0.00     0.010 A 
ATOM     77  C   UNL A   1      39.089  33.370  38.287  1.00  0.00     0.010 A 
ATOM     78  C   UNL A   1      40.201  35.916  38.611  1.00  0.00     0.020 A 
ATOM     79  C   UNL A   1      38.757  34.135  39.410  1.00  0.00     0.020 A 
ATOM     80  C   UNL A   1      39.323  35.401  39.569  1.00  0.00     0.054 A 
BRANCH  80  81
ATOM     81  S   UNL A   1      38.891  36.425  41.003  1.00  0.00     0.124 S 
ATOM     82  O   UNL A   1      40.136  36.422  41.767  1.00  0.00    -0.237 OA
ATOM     83  O   UNL A   1      38.531  37.697  40.383  1.00  0.00    -0.237 OA
ATOM     84  O   UNL A   1      37.778  35.704  41.616  1.00  0.00    -0.744 OA
ENDBRANCH  80  81
ENDBRANCH  52  75
BRANCH  64  85
ATOM     85  C   UNL A   1      45.059  29.284  35.969  1.00  0.00    -0.014 A 
ATOM     86  C   UNL A   1      44.984  28.161  36.812  1.00  0.00     0.010 A 
ATOM     87  C   UNL A   1      46.296  29.935  35.808  1.00  0.00     0.010 A 
ATOM     88  C   UNL A   1      46.118  27.717  37.501  1.00  0.00     0.020 A 
ATOM     89  C   UNL A   1      47.439  29.477  36.469  1.00  0.00     0.020 A 
ATOM     90  C   UNL A   1      47.339  28.377  37.323  1.00  0.00     0.054 A 
BRANCH  90  91
ATOM     91  S   UNL A   1      48.805  27.752  38.190  1.00  0.00     0.124 S 
ATOM     92  O   UNL A   1      48.222  27.175  39.397  1.00  0.00    -0.237 OA
ATOM     93  O   UNL A   1      49.354  26.791  37.236  1.00  0.00    -0.237 OA
ATOM     94  O   UNL A   1      49.620  28.947  38.401  1.00  0.00    -0.744 OA
ENDBRANCH  90  91
ENDBRANCH  64  85
ENDBRANCH  38  39
ENDBRANCH  31  33
ENDBRANCH  30  31
ENDBRANCH  29  30
ENDBRANCH  28  29
ENDBRANCH  27  28
ENDBRANCH   1  27
TORSDOF 23
ENDMDL
MODEL 2
REMARK VINA RESULT:      -9.1      1.907      8.379
REMARK SMILES CC(C)[C@@H](NC(=O)c1ccc2[nH]nnc2c1)C(=O)OCCOCCOCCOC(=O)c1ccc(-c2c3nc(c(-c4ccc(S(=O)(=O)[O-])cc4)c4ccc([nH]4)c(-c4ccc(S(=O)(=O)[O-])cc4)c4nc(c(-c5ccc(S(=O)(=O)[O-])cc5)c5ccc2[nH]5)C=C4)C=C3)cc1
REMARK SMILES IDX 24 1 23 2 22 3 21 4 20 5 19 6 17 7 18 8 4 9 2 10 1 11 3 12
REMARK SMILES IDX 5 13 6 14 7 16 8 17 9 18 16 19 10 20 15 21 11 22 14 23 12 24
REMARK SMILES IDX 13 25 25 27 26 28 27 29 28 30 29 31 30 32 31 33 32 34 90 35
REMARK SMILES IDX 33 36 89 37 34 38 35 39 36 40 83 41 37 42 88 43 82 44 84 45
REMARK SMILES IDX 38 46 87 47 81 48 80 49 39 51 69 52 50 53 68 54 51 55 54 56
REMARK SMILES IDX 67 57 85 58 52 59 53 60 66 62 86 63 55 64 40 65 41 66 49 67
REMARK SMILES IDX 42 68 48 69 43 70 44 71 45 72 46 73 47 74 70 75 71 76 79 77
REMARK SMILES IDX 72 78 78 79 73 80 74 81 75 82 76 83 77 84 56 85 57 86 65 87
REMARK SMILES IDX 58 88 64 89 59 90 60 91 61 92 62 93 63 94
REMARK H PARENT 5 15 12 26 84 50 54 61
REMARK Flexibility Score: inf
ROOT
ATOM      1  C   UNL A   1      33.249  27.339  25.201  1.00  0.00     0.188 C 
ENDROOT
BRANCH   1   2
ATOM      2  C   UNL A   1      32.703  27.212  23.784  1.00  0.00     0.188 C 
BRANCH   2   3
ATOM      3  O   UNL A   1      33.023  25.998  23.133  1.00  0.00    -0.376 OA
BRANCH   3   4
ATOM      4  C   UNL A   1      33.611  24.975  23.942  1.00  0.00     0.202 C 
BRANCH   4   5
ATOM      5  C   UNL A   1      34.669  24.041  23.335  1.00  0.00     0.261 C 
BRANCH   5   6
ATOM      6  O   UNL A   1      36.071  24.105  23.698  1.00  0.00    -0.462 OA
BRANCH   6   7
ATOM      7  C   UNL A   1      36.690  22.903  23.877  1.00  0.00     0.328 C 
ATOM      8  O   UNL A   1      36.824  22.051  23.001  1.00  0.00    -0.250 OA
BRANCH   7   9
ATOM      9  C   UNL A   1      37.048  22.547  25.323  1.00  0.00     0.195 C 
BRANCH   9  10
ATOM     10  C   UNL A   1      38.393  23.131  25.856  1.00  0.00     0.017 C 
ATOM     11  C   UNL A   1      38.153  24.089  27.040  1.00  0.00     0.010 C 
ATOM     12  C   UNL A   1      39.389  22.073  26.339  1.00  0.00     0.010 C 
ENDBRANCH   9  10
BRANCH   9  13
ATOM     13  N   UNL A   1      35.953  22.778  26.308  1.00  0.00    -0.338 N 
ATOM     14  C   UNL A   1      34.864  22.039  26.706  1.00  0.00     0.252 C 
ATOM     15  H   UNL A   1      36.026  23.642  26.773  1.00  0.00     0.164 HD
ATOM     16  O   UNL A   1      34.383  22.232  27.820  1.00  0.00    -0.269 OA
BRANCH  14  17
ATOM     17  C   UNL A   1      34.117  21.174  25.777  1.00  0.00     0.042 A 
ATOM     18  C   UNL A   1      32.839  21.516  25.319  1.00  0.00     0.016 A 
ATOM     19  C   UNL A   1      34.764  20.008  25.330  1.00  0.00     0.046 A 
ATOM     20  C   UNL A   1      32.111  20.642  24.492  1.00  0.00     0.031 A 
ATOM     21  C   UNL A   1      34.036  19.119  24.525  1.00  0.00     0.113 A 
ATOM     22  C   UNL A   1      32.735  19.436  24.155  1.00  0.00     0.086 A 
ATOM     23  N   UNL A   1      34.338  17.854  24.093  1.00  0.00    -0.130 NA
ATOM     24  N   UNL A   1      32.299  18.290  23.547  1.00  0.00    -0.258 N 
ATOM     25  N   UNL A   1      33.256  17.346  23.516  1.00  0.00    -0.069 NA
ATOM     26  H   UNL A   1      31.394  18.171  23.179  1.00  0.00     0.192 HD
ENDBRANCH  14  17
ENDBRANCH   9  13
ENDBRANCH   7   9
ENDBRANCH   6   7
ENDBRANCH   5   6
ENDBRANCH   4   5
ENDBRANCH   3   4
ENDBRANCH   2   3
ENDBRANCH   1   2
BRANCH   1  27
ATOM     27  O   UNL A   1      33.715  28.624  25.564  1.00  0.00    -0.376 OA
BRANCH  27  28
ATOM     28  C   UNL A   1      32.838  29.704  25.870  1.00  0.00     0.202 C 
BRANCH  28  29
ATOM     29  C   UNL A   1      32.982  30.512  27.167  1.00  0.00     0.261 C 
BRANCH  29  30
ATOM     30  O   UNL A   1      34.011  31.515  27.199  1.00  0.00    -0.460 OA
BRANCH  30  31
ATOM     31  C   UNL A   1      34.388  32.019  28.402  1.00  0.00     0.338 C 
ATOM     32  O   UNL A   1      33.714  32.687  29.155  1.00  0.00    -0.246 OA
BRANCH  31  33
ATOM     33  C   UNL A   1      35.675  31.359  28.770  1.00  0.00     0.060 A 
ATOM     34  C   UNL A   1      35.620  30.083  29.347  1.00  0.00     0.016 A 
ATOM     35  C   UNL A   1      36.914  31.915  28.430  1.00  0.00     0.016 A 
ATOM     36  C   UNL A   1      36.799  29.394  29.651  1.00  0.00     0.010 A 
ATOM     37  C   UNL A   1      38.092  31.229  28.735  1.00  0.00     0.010 A 
ATOM     38  C   UNL A   1      38.041  29.989  29.397  1.00  0.00    -0.014 A 
BRANCH  38  39
ATOM     39  C   UNL A   1      39.263  29.473  30.065  1.00  0.00     0.031 A 
ATOM     40  C   UNL A   1      39.694  30.156  31.338  1.00  0.00     0.074 A 
ATOM     41  C   UNL A   1      39.972  28.431  29.591  1.00  0.00     0.049 A 
ATOM     42  N   UNL A   1      40.755  29.957  32.074  1.00  0.00    -0.248 NA
ATOM     43  C   UNL A   1      38.802  31.216  31.843  1.00  0.00     0.031 C 
ATOM     44  C   UNL A   1      39.640  27.640  28.409  1.00  0.00     0.029 A 
ATOM     45  N   UNL A   1      41.133  27.864  30.060  1.00  0.00    -0.354 N 
ATOM     46  C   UNL A   1      40.668  30.877  33.114  1.00  0.00     0.074 A 
ATOM     47  C   UNL A   1      39.470  31.655  32.897  1.00  0.00     0.031 C 
ATOM     48  C   UNL A   1      40.583  26.694  28.239  1.00  0.00     0.029 A 
ATOM     49  C   UNL A   1      41.605  26.836  29.276  1.00  0.00     0.049 A 
ATOM     50  H   UNL A   1      41.586  28.164  30.881  1.00  0.00     0.167 HD
ATOM     51  C   UNL A   1      41.504  31.057  34.161  1.00  0.00     0.031 A 
ATOM     52  C   UNL A   1      42.743  26.114  29.370  1.00  0.00     0.031 A 
ATOM     53  C   UNL A   1      42.700  30.291  34.377  1.00  0.00     0.049 A 
ATOM     54  C   UNL A   1      43.706  26.386  30.502  1.00  0.00     0.074 A 
ATOM     55  C   UNL A   1      43.608  30.392  35.417  1.00  0.00     0.029 A 
ATOM     56  N   UNL A   1      43.159  29.288  33.539  1.00  0.00    -0.354 N 
ATOM     57  N   UNL A   1      43.604  27.252  31.484  1.00  0.00    -0.248 NA
ATOM     58  C   UNL A   1      44.935  25.581  30.540  1.00  0.00     0.031 C 
ATOM     59  C   UNL A   1      44.651  29.495  35.170  1.00  0.00     0.029 A 
ATOM     60  C   UNL A   1      44.353  28.780  34.021  1.00  0.00     0.049 A 
ATOM     61  H   UNL A   1      42.703  28.981  32.723  1.00  0.00     0.167 HD
ATOM     62  C   UNL A   1      44.738  27.068  32.273  1.00  0.00     0.074 A 
ATOM     63  C   UNL A   1      45.505  26.005  31.659  1.00  0.00     0.031 C 
ATOM     64  C   UNL A   1      45.107  27.717  33.405  1.00  0.00     0.031 A 
BRANCH  51  65
ATOM     65  C   UNL A   1      41.174  32.163  35.130  1.00  0.00    -0.014 A 
ATOM     66  C   UNL A   1      41.642  33.475  34.932  1.00  0.00     0.010 A 
ATOM     67  C   UNL A   1      40.362  31.886  36.244  1.00  0.00     0.010 A 
ATOM     68  C   UNL A   1      41.336  34.480  35.855  1.00  0.00     0.020 A 
ATOM     69  C   UNL A   1      40.027  32.894  37.150  1.00  0.00     0.020 A 
ATOM     70  C   UNL A   1      40.531  34.182  36.958  1.00  0.00     0.054 A 
BRANCH  70  71
ATOM     71  S   UNL A   1      40.132  35.510  38.126  1.00  0.00     0.124 S 
ATOM     72  O   UNL A   1      38.939  34.983  38.784  1.00  0.00    -0.237 OA
ATOM     73  O   UNL A   1      41.331  35.573  38.958  1.00  0.00    -0.237 OA
ATOM     74  O   UNL A   1      39.908  36.672  37.269  1.00  0.00    -0.744 OA
ENDBRANCH  70  71
ENDBRANCH  51  65
BRANCH  52  75
ATOM     75  C   UNL A   1      43.055  25.075  28.348  1.00  0.00    -0.014 A 
ATOM     76  C   UNL A   1      42.665  23.736  28.534  1.00  0.00     0.010 A 
ATOM     77  C   UNL A   1      43.763  25.420  27.182  1.00  0.00     0.010 A 
ATOM     78  C   UNL A   1      42.986  22.763  27.581  1.00  0.00     0.020 A 
ATOM     79  C   UNL A   1      44.060  24.457  26.212  1.00  0.00     0.020 A 
ATOM     80  C   UNL A   1      43.676  23.131  26.423  1.00  0.00     0.054 A 
BRANCH  80  81
ATOM     81  S   UNL A   1      44.027  21.865  25.171  1.00  0.00     0.124 S 
ATOM     82  O   UNL A   1      43.861  22.611  23.927  1.00  0.00    -0.237 OA
ATOM     83  O   UNL A   1      45.396  21.473  25.497  1.00  0.00    -0.237 OA
ATOM     84  O   UNL A   1      43.017  20.841  25.428  1.00  0.00    -0.744 OA
ENDBRANCH  80  81
ENDBRANCH  52  75
BRANCH  64  85
ATOM     85  C   UNL A   1      46.372  27.273  34.095  1.00  0.00    -0.014 A 
ATOM     86  C   UNL A   1      47.607  27.895  33.842  1.00  0.00     0.010 A 
ATOM     87  C   UNL A   1      46.304  26.262  35.072  1.00  0.00     0.010 A 
ATOM     88  C   UNL A   1      48.755  27.493  34.533  1.00  0.00     0.020 A 
ATOM     89  C   UNL A   1      47.441  25.879  35.787  1.00  0.00     0.020 A 
ATOM     90  C   UNL A   1      48.665  26.488  35.502  1.00  0.00     0.054 A 
BRANCH  90  91
ATOM     91  S   UNL A   1      50.159  26.020  36.417  1.00  0.00     0.124 S 
ATOM     92  O   UNL A   1      51.152  26.940  35.871  1.00  0.00    -0.237 OA
ATOM     93  O   UNL A   1      49.773  26.262  37.806  1.00  0.00    -0.237 OA
ATOM     94  O   UNL A   1      50.355  24.614  36.068  1.00  0.00    -0.744 OA
ENDBRANCH  90  91
ENDBRANCH  64  85
ENDBRANCH  38  39
ENDBRANCH  31  33
ENDBRANCH  30  31
ENDBRANCH  29  30
ENDBRANCH  28  29
ENDBRANCH  27  28
ENDBRANCH   1  27
TORSDOF 23
ENDMDL
MODEL 3
REMARK VINA RESULT:      -8.9      5.436      8.743
REMARK SMILES CC(C)[C@@H](NC(=O)c1ccc2[nH]nnc2c1)C(=O)OCCOCCOCCOC(=O)c1ccc(-c2c3nc(c(-c4ccc(S(=O)(=O)[O-])cc4)c4ccc([nH]4)c(-c4ccc(S(=O)(=O)[O-])cc4)c4nc(c(-c5ccc(S(=O)(=O)[O-])cc5)c5ccc2[nH]5)C=C4)C=C3)cc1
REMARK SMILES IDX 24 1 23 2 22 3 21 4 20 5 19 6 17 7 18 8 4 9 2 10 1 11 3 12
REMARK SMILES IDX 5 13 6 14 7 16 8 17 9 18 16 19 10 20 15 21 11 22 14 23 12 24
REMARK SMILES IDX 13 25 25 27 26 28 27 29 28 30 29 31 30 32 31 33 32 34 90 35
REMARK SMILES IDX 33 36 89 37 34 38 35 39 36 40 83 41 37 42 88 43 82 44 84 45
REMARK SMILES IDX 38 46 87 47 81 48 80 49 39 51 69 52 50 53 68 54 51 55 54 56
REMARK SMILES IDX 67 57 85 58 52 59 53 60 66 62 86 63 55 64 40 65 41 66 49 67
REMARK SMILES IDX 42 68 48 69 43 70 44 71 45 72 46 73 47 74 70 75 71 76 79 77
REMARK SMILES IDX 72 78 78 79 73 80 74 81 75 82 76 83 77 84 56 85 57 86 65 87
REMARK SMILES IDX 58 88 64 89 59 90 60 91 61 92 62 93 63 94
REMARK H PARENT 5 15 12 26 84 50 54 61
REMARK Flexibility Score: inf
ROOT
ATOM      1  C   UNL A   1      36.843  29.779  29.202  1.00  0.00     0.188 C 
ENDROOT
BRANCH   1   2
ATOM      2  C   UNL A   1      36.126  30.951  28.544  1.00  0.00     0.188 C 
BRANCH   2   3
ATOM      3  O   UNL A   1      35.081  30.588  27.664  1.00  0.00    -0.376 OA
BRANCH   3   4
ATOM      4  C   UNL A   1      35.030  29.215  27.266  1.00  0.00     0.202 C 
BRANCH   4   5
ATOM      5  C   UNL A   1      33.672  28.559  26.973  1.00  0.00     0.261 C 
BRANCH   5   6
ATOM      6  O   UNL A   1      33.549  27.260  26.341  1.00  0.00    -0.462 OA
BRANCH   6   7
ATOM      7  C   UNL A   1      32.276  26.795  26.191  1.00  0.00     0.328 C 
ATOM      8  O   UNL A   1      31.444  26.734  27.095  1.00  0.00    -0.250 OA
BRANCH   7   9
ATOM      9  C   UNL A   1      31.964  26.130  24.847  1.00  0.00     0.195 C 
BRANCH   9  10
ATOM     10  C   UNL A   1      30.974  26.899  23.919  1.00  0.00     0.017 C 
ATOM     11  C   UNL A   1      29.516  26.478  24.190  1.00  0.00     0.010 C 
ATOM     12  C   UNL A   1      31.028  28.423  24.070  1.00  0.00     0.010 C 
ENDBRANCH   9  10
BRANCH   9  13
ATOM     13  N   UNL A   1      33.163  25.691  24.078  1.00  0.00    -0.338 N 
ATOM     14  C   UNL A   1      33.668  24.460  23.731  1.00  0.00     0.252 C 
ATOM     15  H   UNL A   1      33.709  26.441  23.750  1.00  0.00     0.164 HD
ATOM     16  O   UNL A   1      34.392  24.366  22.742  1.00  0.00    -0.269 OA
BRANCH  14  17
ATOM     17  C   UNL A   1      33.553  23.284  24.609  1.00  0.00     0.042 A 
ATOM     18  C   UNL A   1      34.177  23.235  25.861  1.00  0.00     0.016 A 
ATOM     19  C   UNL A   1      32.746  22.225  24.156  1.00  0.00     0.046 A 
ATOM     20  C   UNL A   1      34.117  22.075  26.653  1.00  0.00     0.031 A 
ATOM     21  C   UNL A   1      32.701  21.054  24.927  1.00  0.00     0.113 A 
ATOM     22  C   UNL A   1      33.401  20.995  26.126  1.00  0.00     0.086 A 
ATOM     23  N   UNL A   1      32.153  19.828  24.658  1.00  0.00    -0.130 NA
ATOM     24  N   UNL A   1      33.273  19.683  26.494  1.00  0.00    -0.258 N 
ATOM     25  N   UNL A   1      32.531  18.988  25.614  1.00  0.00    -0.069 NA
ATOM     26  H   UNL A   1      33.675  19.296  27.305  1.00  0.00     0.192 HD
ENDBRANCH  14  17
ENDBRANCH   9  13
ENDBRANCH   7   9
ENDBRANCH   6   7
ENDBRANCH   5   6
ENDBRANCH   4   5
ENDBRANCH   3   4
ENDBRANCH   2   3
ENDBRANCH   1   2
BRANCH   1  27
ATOM     27  O   UNL A   1      37.065  29.900  30.594  1.00  0.00    -0.376 OA
BRANCH  27  28
ATOM     28  C   UNL A   1      36.061  30.350  31.498  1.00  0.00     0.202 C 
BRANCH  28  29
ATOM     29  C   UNL A   1      36.333  31.476  32.505  1.00  0.00     0.261 C 
BRANCH  29  30
ATOM     30  O   UNL A   1      37.639  31.510  33.106  1.00  0.00    -0.460 OA
BRANCH  30  31
ATOM     31  C   UNL A   1      38.504  32.483  32.722  1.00  0.00     0.338 C 
ATOM     32  O   UNL A   1      38.552  33.620  33.135  1.00  0.00    -0.246 OA
BRANCH  31  33
ATOM     33  C   UNL A   1      39.575  31.823  31.918  1.00  0.00     0.060 A 
ATOM     34  C   UNL A   1      40.417  30.908  32.567  1.00  0.00     0.016 A 
ATOM     35  C   UNL A   1      39.666  31.989  30.531  1.00  0.00     0.016 A 
ATOM     36  C   UNL A   1      41.395  30.215  31.845  1.00  0.00     0.010 A 
ATOM     37  C   UNL A   1      40.644  31.298  29.811  1.00  0.00     0.010 A 
ATOM     38  C   UNL A   1      41.548  30.449  30.473  1.00  0.00    -0.014 A 
BRANCH  38  39
ATOM     39  C   UNL A   1      42.803  30.050  29.786  1.00  0.00     0.031 A 
ATOM     40  C   UNL A   1      42.851  28.666  29.190  1.00  0.00     0.074 A 
ATOM     41  C   UNL A   1      43.866  30.868  29.669  1.00  0.00     0.049 A 
ATOM     42  N   UNL A   1      43.841  28.043  28.606  1.00  0.00    -0.248 NA
ATOM     43  C   UNL A   1      41.608  27.877  29.270  1.00  0.00     0.031 C 
ATOM     44  C   UNL A   1      43.938  32.247  30.143  1.00  0.00     0.029 A 
ATOM     45  N   UNL A   1      45.100  30.640  29.107  1.00  0.00    -0.354 N 
ATOM     46  C   UNL A   1      43.347  26.786  28.270  1.00  0.00     0.074 A 
ATOM     47  C   UNL A   1      41.983  26.724  28.741  1.00  0.00     0.031 C 
ATOM     48  C   UNL A   1      45.158  32.742  29.860  1.00  0.00     0.029 A 
ATOM     49  C   UNL A   1      45.966  31.703  29.221  1.00  0.00     0.049 A 
ATOM     50  H   UNL A   1      45.342  29.795  28.664  1.00  0.00     0.167 HD
ATOM     51  C   UNL A   1      43.968  25.775  27.622  1.00  0.00     0.031 A 
ATOM     52  C   UNL A   1      47.267  31.814  28.874  1.00  0.00     0.031 A 
ATOM     53  C   UNL A   1      45.326  25.831  27.157  1.00  0.00     0.049 A 
ATOM     54  C   UNL A   1      47.966  30.644  28.224  1.00  0.00     0.074 A 
ATOM     55  C   UNL A   1      46.042  24.859  26.479  1.00  0.00     0.029 A 
ATOM     56  N   UNL A   1      46.177  26.911  27.328  1.00  0.00    -0.354 N 
ATOM     57  N   UNL A   1      47.483  29.466  27.903  1.00  0.00    -0.248 NA
ATOM     58  C   UNL A   1      49.387  30.819  27.887  1.00  0.00     0.031 C 
ATOM     59  C   UNL A   1      47.346  25.328  26.299  1.00  0.00     0.029 A 
ATOM     60  C   UNL A   1      47.421  26.620  26.794  1.00  0.00     0.049 A 
ATOM     61  H   UNL A   1      45.933  27.759  27.763  1.00  0.00     0.167 HD
ATOM     62  C   UNL A   1      48.530  28.777  27.294  1.00  0.00     0.074 A 
ATOM     63  C   UNL A   1      49.668  29.672  27.285  1.00  0.00     0.031 C 
ATOM     64  C   UNL A   1      48.546  27.520  26.786  1.00  0.00     0.031 A 
BRANCH  51  65
ATOM     65  C   UNL A   1      43.190  24.501  27.420  1.00  0.00    -0.014 A 
ATOM     66  C   UNL A   1      43.251  23.448  28.352  1.00  0.00     0.010 A 
ATOM     67  C   UNL A   1      42.367  24.366  26.287  1.00  0.00     0.010 A 
ATOM     68  C   UNL A   1      42.533  22.269  28.132  1.00  0.00     0.020 A 
ATOM     69  C   UNL A   1      41.623  23.203  26.081  1.00  0.00     0.020 A 
ATOM     70  C   UNL A   1      41.725  22.154  26.997  1.00  0.00     0.054 A 
BRANCH  70  71
ATOM     71  S   UNL A   1      40.787  20.622  26.750  1.00  0.00     0.124 S 
ATOM     72  O   UNL A   1      41.609  19.924  25.763  1.00  0.00    -0.237 OA
ATOM     73  O   UNL A   1      40.778  20.035  28.087  1.00  0.00    -0.237 OA
ATOM     74  O   UNL A   1      39.489  21.083  26.264  1.00  0.00    -0.744 OA
ENDBRANCH  70  71
ENDBRANCH  51  65
BRANCH  52  75
ATOM     75  C   UNL A   1      48.010  33.075  29.156  1.00  0.00    -0.014 A 
ATOM     76  C   UNL A   1      48.534  33.337  30.435  1.00  0.00     0.010 A 
ATOM     77  C   UNL A   1      48.186  34.035  28.140  1.00  0.00     0.010 A 
ATOM     78  C   UNL A   1      49.207  34.536  30.695  1.00  0.00     0.020 A 
ATOM     79  C   UNL A   1      48.884  35.221  28.388  1.00  0.00     0.020 A 
ATOM     80  C   UNL A   1      49.383  35.467  29.668  1.00  0.00     0.054 A 
BRANCH  80  81
ATOM     81  S   UNL A   1      50.314  36.987  30.012  1.00  0.00     0.124 S 
ATOM     82  O   UNL A   1      49.390  38.021  29.556  1.00  0.00    -0.237 OA
ATOM     83  O   UNL A   1      50.517  36.909  31.456  1.00  0.00    -0.237 OA
ATOM     84  O   UNL A   1      51.527  36.833  29.212  1.00  0.00    -0.744 OA
ENDBRANCH  80  81
ENDBRANCH  52  75
BRANCH  64  85
ATOM     85  C   UNL A   1      49.814  27.040  26.126  1.00  0.00    -0.014 A 
ATOM     86  C   UNL A   1      50.104  27.337  24.782  1.00  0.00     0.010 A 
ATOM     87  C   UNL A   1      50.766  26.340  26.891  1.00  0.00     0.010 A 
ATOM     88  C   UNL A   1      51.310  26.918  24.210  1.00  0.00     0.020 A 
ATOM     89  C   UNL A   1      51.984  25.947  26.333  1.00  0.00     0.020 A 
ATOM     90  C   UNL A   1      52.243  26.227  24.990  1.00  0.00     0.054 A 
BRANCH  90  91
ATOM     91  S   UNL A   1      53.819  25.737  24.237  1.00  0.00     0.124 S 
ATOM     92  O   UNL A   1      53.560  25.957  22.817  1.00  0.00    -0.237 OA
ATOM     93  O   UNL A   1      54.769  26.661  24.853  1.00  0.00    -0.237 OA
ATOM     94  O   UNL A   1      53.974  24.338  24.632  1.00  0.00    -0.744 OA
ENDBRANCH  90  91
ENDBRANCH  64  85
ENDBRANCH  38  39
ENDBRANCH  31  33
ENDBRANCH  30  31
ENDBRANCH  29  30
ENDBRANCH  28  29
ENDBRANCH  27  28
ENDBRANCH   1  27
TORSDOF 23
ENDMDL
