MODEL 1
REMARK VINA RESULT:      -8.8      0.000      0.000
REMARK SMILES CCCC[C@H](C(=O)OCCOCCOCCOC(=O)c1ccc(-c2c3nc(c(-c4ccc(S(=O)(=O)[O-])cc4)c4ccc([nH]4)c(-c4ccc(S(=O)(=O)[O-])cc4)c4nc(c(-c5ccc(S(=O)(=O)[O-])cc5)c5ccc2[nH]5)C=C4)C=C3)cc1)[C@H](O)c1ccc(C(F)(F)F)cc1
REMARK SMILES IDX 12 1 11 2 10 3 9 4 8 5 6 6 7 7 5 8 4 9 3 10 2 11 1 12 80 13
REMARK SMILES IDX 82 14 83 15 91 16 84 17 90 18 85 19 86 20 87 21 88 22 89 23
REMARK SMILES IDX 81 24 13 26 14 27 15 28 16 29 17 30 18 31 19 32 20 33 21 34
REMARK SMILES IDX 79 35 22 36 78 37 23 38 24 39 25 40 72 41 26 42 77 43 71 44
REMARK SMILES IDX 73 45 27 46 76 47 70 48 69 49 28 51 58 52 39 53 57 54 40 55
REMARK SMILES IDX 43 56 56 57 74 58 41 59 42 60 55 62 75 63 44 64 29 65 30 66
REMARK SMILES IDX 38 67 31 68 37 69 32 70 33 71 34 72 35 73 36 74 59 75 60 76
REMARK SMILES IDX 68 77 61 78 67 79 62 80 63 81 64 82 65 83 66 84 45 85 46 86
REMARK SMILES IDX 54 87 47 88 53 89 48 90 49 91 50 92 51 93 52 94
REMARK H PARENT 81 25 73 50 43 61
REMARK Flexibility Score: inf
ROOT
ATOM      1  C   UNL A   1      38.623  21.337  25.472  1.00  0.00     0.188 C 
ENDROOT
BRANCH   1   2
ATOM      2  O   UNL A   1      37.998  22.612  25.356  1.00  0.00    -0.376 OA
BRANCH   2   3
ATOM      3  C   UNL A   1      36.584  22.584  25.571  1.00  0.00     0.202 C 
BRANCH   3   4
ATOM      4  C   UNL A   1      35.880  23.918  25.250  1.00  0.00     0.261 C 
BRANCH   4   5
ATOM      5  O   UNL A   1      34.473  23.758  24.940  1.00  0.00    -0.463 OA
BRANCH   5   6
ATOM      6  C   UNL A   1      34.158  23.442  23.660  1.00  0.00     0.312 C 
ATOM      7  O   UNL A   1      34.853  23.776  22.708  1.00  0.00    -0.252 OA
BRANCH   6   8
ATOM      8  C   UNL A   1      32.874  22.614  23.545  1.00  0.00     0.132 C 
BRANCH   8   9
ATOM      9  C   UNL A   1      33.023  21.454  24.604  1.00  0.00     0.018 C 
BRANCH   9  10
ATOM     10  C   UNL A   1      32.340  20.134  24.247  1.00  0.00     0.001 C 
BRANCH  10  11
ATOM     11  C   UNL A   1      33.188  18.871  24.392  1.00  0.00    -0.003 C 
ATOM     12  C   UNL A   1      32.635  17.851  25.374  1.00  0.00     0.004 C 
ENDBRANCH  10  11
ENDBRANCH   9  10
ENDBRANCH   8   9
BRANCH   8  13
ATOM     13  C   UNL A   1      31.535  23.380  23.807  1.00  0.00     0.158 C 
BRANCH  13  14
ATOM     14  C   UNL A   1      31.359  24.903  23.801  1.00  0.00    -0.019 A 
ATOM     15  C   UNL A   1      31.135  25.697  24.925  1.00  0.00     0.007 A 
ATOM     16  C   UNL A   1      31.295  25.571  22.556  1.00  0.00     0.007 A 
ATOM     17  C   UNL A   1      30.775  27.051  24.823  1.00  0.00     0.013 A 
ATOM     18  C   UNL A   1      30.977  26.934  22.445  1.00  0.00     0.013 A 
ATOM     19  C   UNL A   1      30.684  27.684  23.582  1.00  0.00     0.056 A 
BRANCH  19  20
ATOM     20  C   UNL A   1      30.220  29.113  23.478  1.00  0.00     0.416 C 
ATOM     21  F   UNL A   1      30.817  29.788  22.455  1.00  0.00    -0.166 F 
ATOM     22  F   UNL A   1      28.877  29.225  23.252  1.00  0.00    -0.166 F 
ATOM     23  F   UNL A   1      30.459  29.847  24.601  1.00  0.00    -0.166 F 
ENDBRANCH  19  20
ENDBRANCH  13  14
BRANCH  13  24
ATOM     24  O   UNL A   1      30.616  22.926  22.785  1.00  0.00    -0.388 OA
ATOM     25  H   UNL A   1      29.704  23.046  23.094  1.00  0.00     0.211 HD
ENDBRANCH  13  24
ENDBRANCH   8  13
ENDBRANCH   6   8
ENDBRANCH   5   6
ENDBRANCH   4   5
ENDBRANCH   3   4
ENDBRANCH   2   3
ENDBRANCH   1   2
BRANCH   1  26
ATOM     26  C   UNL A   1      39.820  21.345  26.393  1.00  0.00     0.188 C 
BRANCH  26  27
ATOM     27  O   UNL A   1      40.605  20.166  26.201  1.00  0.00    -0.376 OA
BRANCH  27  28
ATOM     28  C   UNL A   1      41.996  20.383  26.430  1.00  0.00     0.202 C 
BRANCH  28  29
ATOM     29  C   UNL A   1      42.285  21.497  27.443  1.00  0.00     0.261 C 
BRANCH  29  30
ATOM     30  O   UNL A   1      43.328  22.366  26.966  1.00  0.00    -0.460 OA
BRANCH  30  31
ATOM     31  C   UNL A   1      42.918  23.423  26.219  1.00  0.00     0.338 C 
ATOM     32  O   UNL A   1      42.747  23.442  25.010  1.00  0.00    -0.246 OA
BRANCH  31  33
ATOM     33  C   UNL A   1      42.498  24.532  27.115  1.00  0.00     0.060 A 
ATOM     34  C   UNL A   1      43.227  25.731  27.059  1.00  0.00     0.016 A 
ATOM     35  C   UNL A   1      41.384  24.434  27.956  1.00  0.00     0.016 A 
ATOM     36  C   UNL A   1      42.875  26.811  27.871  1.00  0.00     0.010 A 
ATOM     37  C   UNL A   1      41.035  25.514  28.772  1.00  0.00     0.010 A 
ATOM     38  C   UNL A   1      41.800  26.694  28.760  1.00  0.00    -0.014 A 
BRANCH  38  39
ATOM     39  C   UNL A   1      41.597  27.710  29.822  1.00  0.00     0.031 A 
ATOM     40  C   UNL A   1      42.508  27.669  31.020  1.00  0.00     0.074 A 
ATOM     41  C   UNL A   1      40.635  28.646  29.734  1.00  0.00     0.049 A 
ATOM     42  N   UNL A   1      42.497  28.411  32.096  1.00  0.00    -0.248 NA
ATOM     43  C   UNL A   1      43.569  26.648  31.000  1.00  0.00     0.031 C 
ATOM     44  C   UNL A   1      39.713  28.817  28.613  1.00  0.00     0.029 A 
ATOM     45  N   UNL A   1      40.272  29.629  30.621  1.00  0.00    -0.354 N 
ATOM     46  C   UNL A   1      43.540  27.940  32.886  1.00  0.00     0.074 A 
ATOM     47  C   UNL A   1      44.144  26.832  32.178  1.00  0.00     0.031 C 
ATOM     48  C   UNL A   1      38.880  29.837  28.886  1.00  0.00     0.029 A 
ATOM     49  C   UNL A   1      39.190  30.373  30.211  1.00  0.00     0.049 A 
ATOM     50  H   UNL A   1      40.741  29.788  31.472  1.00  0.00     0.167 HD
ATOM     51  C   UNL A   1      43.963  28.389  34.091  1.00  0.00     0.031 A 
ATOM     52  C   UNL A   1      38.516  31.356  30.841  1.00  0.00     0.031 A 
ATOM     53  C   UNL A   1      43.351  29.477  34.803  1.00  0.00     0.049 A 
ATOM     54  C   UNL A   1      38.963  31.796  32.214  1.00  0.00     0.074 A 
ATOM     55  C   UNL A   1      43.715  30.016  36.026  1.00  0.00     0.029 A 
ATOM     56  N   UNL A   1      42.245  30.186  34.365  1.00  0.00    -0.354 N 
ATOM     57  N   UNL A   1      39.969  31.362  32.935  1.00  0.00    -0.248 NA
ATOM     58  C   UNL A   1      38.184  32.867  32.854  1.00  0.00     0.031 C 
ATOM     59  C   UNL A   1      42.793  31.017  36.349  1.00  0.00     0.029 A 
ATOM     60  C   UNL A   1      41.893  31.141  35.303  1.00  0.00     0.049 A 
ATOM     61  H   UNL A   1      41.777  30.032  33.512  1.00  0.00     0.167 HD
ATOM     62  C   UNL A   1      39.959  32.123  34.101  1.00  0.00     0.074 A 
ATOM     63  C   UNL A   1      38.854  33.053  33.983  1.00  0.00     0.031 C 
ATOM     64  C   UNL A   1      40.790  32.059  35.171  1.00  0.00     0.031 A 
BRANCH  51  65
ATOM     65  C   UNL A   1      45.122  27.670  34.725  1.00  0.00    -0.014 A 
ATOM     66  C   UNL A   1      44.918  26.557  35.561  1.00  0.00     0.010 A 
ATOM     67  C   UNL A   1      46.434  28.106  34.471  1.00  0.00     0.010 A 
ATOM     68  C   UNL A   1      46.005  25.921  36.167  1.00  0.00     0.020 A 
ATOM     69  C   UNL A   1      47.526  27.456  35.052  1.00  0.00     0.020 A 
ATOM     70  C   UNL A   1      47.302  26.379  35.912  1.00  0.00     0.054 A 
BRANCH  70  71
ATOM     71  S   UNL A   1      48.695  25.529  36.703  1.00  0.00     0.124 S 
ATOM     72  O   UNL A   1      49.838  26.263  36.167  1.00  0.00    -0.237 OA
ATOM     73  O   UNL A   1      48.430  25.732  38.125  1.00  0.00    -0.237 OA
ATOM     74  O   UNL A   1      48.568  24.149  36.239  1.00  0.00    -0.744 OA
ENDBRANCH  70  71
ENDBRANCH  51  65
BRANCH  52  75
ATOM     75  C   UNL A   1      37.335  31.986  30.191  1.00  0.00    -0.014 A 
ATOM     76  C   UNL A   1      36.053  31.423  30.329  1.00  0.00     0.010 A 
ATOM     77  C   UNL A   1      37.486  33.154  29.421  1.00  0.00     0.010 A 
ATOM     78  C   UNL A   1      34.949  32.009  29.700  1.00  0.00     0.020 A 
ATOM     79  C   UNL A   1      36.381  33.757  28.812  1.00  0.00     0.020 A 
ATOM     80  C   UNL A   1      35.120  33.174  28.947  1.00  0.00     0.054 A 
BRANCH  80  81
ATOM     81  S   UNL A   1      33.665  33.947  28.186  1.00  0.00     0.124 S 
ATOM     82  O   UNL A   1      32.986  32.799  27.594  1.00  0.00    -0.237 OA
ATOM     83  O   UNL A   1      32.995  34.556  29.333  1.00  0.00    -0.237 OA
ATOM     84  O   UNL A   1      34.240  34.895  27.235  1.00  0.00    -0.744 OA
ENDBRANCH  80  81
ENDBRANCH  52  75
BRANCH  64  85
ATOM     85  C   UNL A   1      40.565  33.043  36.289  1.00  0.00    -0.014 A 
ATOM     86  C   UNL A   1      39.711  32.745  37.364  1.00  0.00     0.010 A 
ATOM     87  C   UNL A   1      41.274  34.260  36.293  1.00  0.00     0.010 A 
ATOM     88  C   UNL A   1      39.545  33.659  38.409  1.00  0.00     0.020 A 
ATOM     89  C   UNL A   1      41.132  35.164  37.349  1.00  0.00     0.020 A 
ATOM     90  C   UNL A   1      40.257  34.863  38.394  1.00  0.00     0.054 A 
BRANCH  90  91
ATOM     91  S   UNL A   1      40.060  36.013  39.784  1.00  0.00     0.124 S 
ATOM     92  O   UNL A   1      39.413  37.155  39.143  1.00  0.00    -0.237 OA
ATOM     93  O   UNL A   1      39.224  35.257  40.712  1.00  0.00    -0.237 OA
ATOM     94  O   UNL A   1      41.429  36.247  40.236  1.00  0.00    -0.744 OA
ENDBRANCH  90  91
ENDBRANCH  64  85
ENDBRANCH  38  39
ENDBRANCH  31  33
ENDBRANCH  30  31
ENDBRANCH  29  30
ENDBRANCH  28  29
ENDBRANCH  27  28
ENDBRANCH  26  27
ENDBRANCH   1  26
TORSDOF 27
ENDMDL
MODEL 2
REMARK VINA RESULT:      -8.8      2.786      8.901
REMARK SMILES CCCC[C@H](C(=O)OCCOCCOCCOC(=O)c1ccc(-c2c3nc(c(-c4ccc(S(=O)(=O)[O-])cc4)c4ccc([nH]4)c(-c4ccc(S(=O)(=O)[O-])cc4)c4nc(c(-c5ccc(S(=O)(=O)[O-])cc5)c5ccc2[nH]5)C=C4)C=C3)cc1)[C@H](O)c1ccc(C(F)(F)F)cc1
REMARK SMILES IDX 12 1 11 2 10 3 9 4 8 5 6 6 7 7 5 8 4 9 3 10 2 11 1 12 80 13
REMARK SMILES IDX 82 14 83 15 91 16 84 17 90 18 85 19 86 20 87 21 88 22 89 23
REMARK SMILES IDX 81 24 13 26 14 27 15 28 16 29 17 30 18 31 19 32 20 33 21 34
REMARK SMILES IDX 79 35 22 36 78 37 23 38 24 39 25 40 72 41 26 42 77 43 71 44
REMARK SMILES IDX 73 45 27 46 76 47 70 48 69 49 28 51 58 52 39 53 57 54 40 55
REMARK SMILES IDX 43 56 56 57 74 58 41 59 42 60 55 62 75 63 44 64 29 65 30 66
REMARK SMILES IDX 38 67 31 68 37 69 32 70 33 71 34 72 35 73 36 74 59 75 60 76
REMARK SMILES IDX 68 77 61 78 67 79 62 80 63 81 64 82 65 83 66 84 45 85 46 86
REMARK SMILES IDX 54 87 47 88 53 89 48 90 49 91 50 92 51 93 52 94
REMARK H PARENT 81 25 73 50 43 61
REMARK Flexibility Score: inf
ROOT
ATOM      1  C   UNL A   1      39.864  22.074  26.129  1.00  0.00     0.188 C 
ENDROOT
BRANCH   1   2
ATOM      2  O   UNL A   1      38.658  22.817  26.271  1.00  0.00    -0.376 OA
BRANCH   2   3
ATOM      3  C   UNL A   1      37.570  22.306  25.495  1.00  0.00     0.202 C 
BRANCH   3   4
ATOM      4  C   UNL A   1      36.796  23.392  24.721  1.00  0.00     0.261 C 
BRANCH   4   5
ATOM      5  O   UNL A   1      35.887  24.150  25.560  1.00  0.00    -0.463 OA
BRANCH   5   6
ATOM      6  C   UNL A   1      34.628  24.333  25.092  1.00  0.00     0.312 C 
ATOM      7  O   UNL A   1      34.397  24.686  23.942  1.00  0.00    -0.252 OA
BRANCH   6   8
ATOM      8  C   UNL A   1      33.549  24.030  26.137  1.00  0.00     0.132 C 
BRANCH   8   9
ATOM      9  C   UNL A   1      32.788  25.393  26.367  1.00  0.00     0.018 C 
BRANCH   9  10
ATOM     10  C   UNL A   1      33.485  26.644  25.830  1.00  0.00     0.001 C 
BRANCH  10  11
ATOM     11  C   UNL A   1      32.584  27.696  25.185  1.00  0.00    -0.003 C 
ATOM     12  C   UNL A   1      32.245  27.426  23.728  1.00  0.00     0.004 C 
ENDBRANCH  10  11
ENDBRANCH   9  10
ENDBRANCH   8   9
BRANCH   8  13
ATOM     13  C   UNL A   1      32.512  22.921  25.754  1.00  0.00     0.158 C 
BRANCH  13  14
ATOM     14  C   UNL A   1      32.830  21.614  25.021  1.00  0.00    -0.019 A 
ATOM     15  C   UNL A   1      32.167  21.137  23.891  1.00  0.00     0.007 A 
ATOM     16  C   UNL A   1      33.789  20.739  25.583  1.00  0.00     0.007 A 
ATOM     17  C   UNL A   1      32.370  19.837  23.398  1.00  0.00     0.013 A 
ATOM     18  C   UNL A   1      34.031  19.453  25.074  1.00  0.00     0.013 A 
ATOM     19  C   UNL A   1      33.298  18.977  23.988  1.00  0.00     0.056 A 
BRANCH  19  20
ATOM     20  C   UNL A   1      33.450  17.559  23.504  1.00  0.00     0.416 C 
ATOM     21  F   UNL A   1      34.744  17.130  23.528  1.00  0.00    -0.166 F 
ATOM     22  F   UNL A   1      32.754  16.657  24.259  1.00  0.00    -0.166 F 
ATOM     23  F   UNL A   1      33.017  17.370  22.226  1.00  0.00    -0.166 F 
ENDBRANCH  19  20
ENDBRANCH  13  14
BRANCH  13  24
ATOM     24  O   UNL A   1      31.930  22.480  27.004  1.00  0.00    -0.388 OA
ATOM     25  H   UNL A   1      32.460  22.816  27.744  1.00  0.00     0.211 HD
ENDBRANCH  13  24
ENDBRANCH   8  13
ENDBRANCH   6   8
ENDBRANCH   5   6
ENDBRANCH   4   5
ENDBRANCH   3   4
ENDBRANCH   2   3
ENDBRANCH   1   2
BRANCH   1  26
ATOM     26  C   UNL A   1      40.593  21.868  27.436  1.00  0.00     0.188 C 
BRANCH  26  27
ATOM     27  O   UNL A   1      42.006  21.848  27.223  1.00  0.00    -0.376 OA
BRANCH  27  28
ATOM     28  C   UNL A   1      42.433  22.810  26.260  1.00  0.00     0.202 C 
BRANCH  28  29
ATOM     29  C   UNL A   1      43.270  23.947  26.857  1.00  0.00     0.261 C 
BRANCH  29  30
ATOM     30  O   UNL A   1      43.173  25.133  26.049  1.00  0.00    -0.460 OA
BRANCH  30  31
ATOM     31  C   UNL A   1      42.011  25.827  26.160  1.00  0.00     0.338 C 
ATOM     32  O   UNL A   1      41.054  25.777  25.404  1.00  0.00    -0.246 OA
BRANCH  31  33
ATOM     33  C   UNL A   1      41.973  26.529  27.470  1.00  0.00     0.060 A 
ATOM     34  C   UNL A   1      41.006  26.121  28.403  1.00  0.00     0.016 A 
ATOM     35  C   UNL A   1      42.892  27.526  27.811  1.00  0.00     0.016 A 
ATOM     36  C   UNL A   1      40.927  26.737  29.653  1.00  0.00     0.010 A 
ATOM     37  C   UNL A   1      42.810  28.146  29.063  1.00  0.00     0.010 A 
ATOM     38  C   UNL A   1      41.804  27.779  29.975  1.00  0.00    -0.014 A 
BRANCH  38  39
ATOM     39  C   UNL A   1      41.549  28.627  31.165  1.00  0.00     0.031 A 
ATOM     40  C   UNL A   1      40.403  29.602  31.104  1.00  0.00     0.074 A 
ATOM     41  C   UNL A   1      42.307  28.543  32.272  1.00  0.00     0.049 A 
ATOM     42  N   UNL A   1      40.015  30.482  31.988  1.00  0.00    -0.248 NA
ATOM     43  C   UNL A   1      39.592  29.582  29.874  1.00  0.00     0.031 C 
ATOM     44  C   UNL A   1      43.421  27.617  32.473  1.00  0.00     0.029 A 
ATOM     45  N   UNL A   1      42.253  29.262  33.441  1.00  0.00    -0.354 N 
ATOM     46  C   UNL A   1      38.923  31.129  31.418  1.00  0.00     0.074 A 
ATOM     47  C   UNL A   1      38.728  30.557  30.103  1.00  0.00     0.031 C 
ATOM     48  C   UNL A   1      43.954  27.834  33.689  1.00  0.00     0.029 A 
ATOM     49  C   UNL A   1      43.239  28.932  34.340  1.00  0.00     0.049 A 
ATOM     50  H   UNL A   1      41.573  29.952  33.618  1.00  0.00     0.167 HD
ATOM     51  C   UNL A   1      38.146  32.105  31.942  1.00  0.00     0.031 A 
ATOM     52  C   UNL A   1      43.542  29.468  35.541  1.00  0.00     0.031 A 
ATOM     53  C   UNL A   1      38.350  32.686  33.240  1.00  0.00     0.049 A 
ATOM     54  C   UNL A   1      42.705  30.604  36.076  1.00  0.00     0.074 A 
ATOM     55  C   UNL A   1      37.609  33.674  33.866  1.00  0.00     0.029 A 
ATOM     56  N   UNL A   1      39.374  32.341  34.109  1.00  0.00    -0.354 N 
ATOM     57  N   UNL A   1      41.657  31.183  35.539  1.00  0.00    -0.248 NA
ATOM     58  C   UNL A   1      43.089  31.152  37.386  1.00  0.00     0.031 C 
ATOM     59  C   UNL A   1      38.218  33.962  35.092  1.00  0.00     0.029 A 
ATOM     60  C   UNL A   1      39.302  33.113  35.255  1.00  0.00     0.049 A 
ATOM     61  H   UNL A   1      40.052  31.649  33.935  1.00  0.00     0.167 HD
ATOM     62  C   UNL A   1      41.243  32.145  36.456  1.00  0.00     0.074 A 
ATOM     63  C   UNL A   1      42.145  32.061  37.586  1.00  0.00     0.031 C 
ATOM     64  C   UNL A   1      40.208  33.018  36.371  1.00  0.00     0.031 A 
BRANCH  51  65
ATOM     65  C   UNL A   1      37.028  32.630  31.083  1.00  0.00    -0.014 A 
ATOM     66  C   UNL A   1      35.711  32.158  31.234  1.00  0.00     0.010 A 
ATOM     67  C   UNL A   1      37.296  33.617  30.119  1.00  0.00     0.010 A 
ATOM     68  C   UNL A   1      34.691  32.633  30.405  1.00  0.00     0.020 A 
ATOM     69  C   UNL A   1      36.274  34.116  29.307  1.00  0.00     0.020 A 
ATOM     70  C   UNL A   1      34.982  33.606  29.443  1.00  0.00     0.054 A 
BRANCH  70  71
ATOM     71  S   UNL A   1      33.638  34.213  28.388  1.00  0.00     0.124 S 
ATOM     72  O   UNL A   1      34.308  35.259  27.620  1.00  0.00    -0.237 OA
ATOM     73  O   UNL A   1      33.261  33.022  27.630  1.00  0.00    -0.237 OA
ATOM     74  O   UNL A   1      32.635  34.685  29.340  1.00  0.00    -0.744 OA
ENDBRANCH  70  71
ENDBRANCH  51  65
BRANCH  52  75
ATOM     75  C   UNL A   1      44.703  28.951  36.317  1.00  0.00    -0.014 A 
ATOM     76  C   UNL A   1      46.015  29.343  35.994  1.00  0.00     0.010 A 
ATOM     77  C   UNL A   1      44.502  28.055  37.383  1.00  0.00     0.010 A 
ATOM     78  C   UNL A   1      47.103  28.839  36.716  1.00  0.00     0.020 A 
ATOM     79  C   UNL A   1      45.584  27.569  38.122  1.00  0.00     0.020 A 
ATOM     80  C   UNL A   1      46.880  27.957  37.776  1.00  0.00     0.054 A 
BRANCH  80  81
ATOM     81  S   UNL A   1      48.303  27.359  38.733  1.00  0.00     0.124 S 
ATOM     82  O   UNL A   1      48.022  25.931  38.835  1.00  0.00    -0.237 OA
ATOM     83  O   UNL A   1      49.432  27.723  37.879  1.00  0.00    -0.237 OA
ATOM     84  O   UNL A   1      48.212  28.108  39.984  1.00  0.00    -0.744 OA
ENDBRANCH  80  81
ENDBRANCH  52  75
BRANCH  64  85
ATOM     85  C   UNL A   1      39.967  33.931  37.544  1.00  0.00    -0.014 A 
ATOM     86  C   UNL A   1      39.131  33.550  38.607  1.00  0.00     0.010 A 
ATOM     87  C   UNL A   1      40.641  35.166  37.611  1.00  0.00     0.010 A 
ATOM     88  C   UNL A   1      38.950  34.399  39.703  1.00  0.00     0.020 A 
ATOM     89  C   UNL A   1      40.484  36.005  38.717  1.00  0.00     0.020 A 
ATOM     90  C   UNL A   1      39.627  35.622  39.750  1.00  0.00     0.054 A 
BRANCH  90  91
ATOM     91  S   UNL A   1      39.412  36.687  41.203  1.00  0.00     0.124 S 
ATOM     92  O   UNL A   1      38.575  35.858  42.066  1.00  0.00    -0.237 OA
ATOM     93  O   UNL A   1      40.784  36.886  41.662  1.00  0.00    -0.237 OA
ATOM     94  O   UNL A   1      38.762  37.880  40.665  1.00  0.00    -0.744 OA
ENDBRANCH  90  91
ENDBRANCH  64  85
ENDBRANCH  38  39
ENDBRANCH  31  33
ENDBRANCH  30  31
ENDBRANCH  29  30
ENDBRANCH  28  29
ENDBRANCH  27  28
ENDBRANCH  26  27
ENDBRANCH   1  26
TORSDOF 27
ENDMDL
MODEL 3
REMARK VINA RESULT:      -8.7      1.695      8.219
REMARK SMILES CCCC[C@H](C(=O)OCCOCCOCCOC(=O)c1ccc(-c2c3nc(c(-c4ccc(S(=O)(=O)[O-])cc4)c4ccc([nH]4)c(-c4ccc(S(=O)(=O)[O-])cc4)c4nc(c(-c5ccc(S(=O)(=O)[O-])cc5)c5ccc2[nH]5)C=C4)C=C3)cc1)[C@H](O)c1ccc(C(F)(F)F)cc1
REMARK SMILES IDX 12 1 11 2 10 3 9 4 8 5 6 6 7 7 5 8 4 9 3 10 2 11 1 12 80 13
REMARK SMILES IDX 82 14 83 15 91 16 84 17 90 18 85 19 86 20 87 21 88 22 89 23
REMARK SMILES IDX 81 24 13 26 14 27 15 28 16 29 17 30 18 31 19 32 20 33 21 34
REMARK SMILES IDX 79 35 22 36 78 37 23 38 24 39 25 40 72 41 26 42 77 43 71 44
REMARK SMILES IDX 73 45 27 46 76 47 70 48 69 49 28 51 58 52 39 53 57 54 40 55
REMARK SMILES IDX 43 56 56 57 74 58 41 59 42 60 55 62 75 63 44 64 29 65 30 66
REMARK SMILES IDX 38 67 31 68 37 69 32 70 33 71 34 72 35 73 36 74 59 75 60 76
REMARK SMILES IDX 68 77 61 78 67 79 62 80 63 81 64 82 65 83 66 84 45 85 46 86
REMARK SMILES IDX 54 87 47 88 53 89 48 90 49 91 50 92 51 93 52 94
REMARK H PARENT 81 25 73 50 43 61
REMARK Flexibility Score: inf
ROOT
ATOM      1  C   UNL A   1      39.554  22.172  26.137  1.00  0.00     0.188 C 
ENDROOT
BRANCH   1   2
ATOM      2  O   UNL A   1      38.509  23.109  26.381  1.00  0.00    -0.376 OA
BRANCH   2   3
ATOM      3  C   UNL A   1      37.468  23.081  25.400  1.00  0.00     0.202 C 
BRANCH   3   4
ATOM      4  C   UNL A   1      36.176  22.393  25.885  1.00  0.00     0.261 C 
BRANCH   4   5
ATOM      5  O   UNL A   1      35.618  21.478  24.908  1.00  0.00    -0.463 OA
BRANCH   5   6
ATOM      6  C   UNL A   1      34.564  21.924  24.181  1.00  0.00     0.312 C 
ATOM      7  O   UNL A   1      34.695  22.670  23.218  1.00  0.00    -0.252 OA
BRANCH   6   8
ATOM      8  C   UNL A   1      33.220  21.379  24.676  1.00  0.00     0.132 C 
BRANCH   8   9
ATOM      9  C   UNL A   1      33.522  19.920  25.196  1.00  0.00     0.018 C 
BRANCH   9  10
ATOM     10  C   UNL A   1      32.592  18.822  24.679  1.00  0.00     0.001 C 
BRANCH  10  11
ATOM     11  C   UNL A   1      33.121  17.977  23.521  1.00  0.00    -0.003 C 
ATOM     12  C   UNL A   1      34.364  17.167  23.849  1.00  0.00     0.004 C 
ENDBRANCH  10  11
ENDBRANCH   9  10
ENDBRANCH   8   9
BRANCH   8  13
ATOM     13  C   UNL A   1      32.523  22.196  25.814  1.00  0.00     0.158 C 
BRANCH  13  14
ATOM     14  C   UNL A   1      32.364  23.719  25.853  1.00  0.00    -0.019 A 
ATOM     15  C   UNL A   1      33.407  24.641  25.927  1.00  0.00     0.007 A 
ATOM     16  C   UNL A   1      31.060  24.262  25.944  1.00  0.00     0.007 A 
ATOM     17  C   UNL A   1      33.183  26.006  26.171  1.00  0.00     0.013 A 
ATOM     18  C   UNL A   1      30.822  25.630  26.145  1.00  0.00     0.013 A 
ATOM     19  C   UNL A   1      31.889  26.516  26.291  1.00  0.00     0.056 A 
BRANCH  19  20
ATOM     20  C   UNL A   1      31.659  27.965  26.633  1.00  0.00     0.416 C 
ATOM     21  F   UNL A   1      32.817  28.683  26.689  1.00  0.00    -0.166 F 
ATOM     22  F   UNL A   1      30.874  28.612  25.722  1.00  0.00    -0.166 F 
ATOM     23  F   UNL A   1      31.045  28.150  27.836  1.00  0.00    -0.166 F 
ENDBRANCH  19  20
ENDBRANCH  13  14
BRANCH  13  24
ATOM     24  O   UNL A   1      31.161  21.709  25.869  1.00  0.00    -0.388 OA
ATOM     25  H   UNL A   1      31.125  20.911  26.420  1.00  0.00     0.211 HD
ENDBRANCH  13  24
ENDBRANCH   8  13
ENDBRANCH   6   8
ENDBRANCH   5   6
ENDBRANCH   4   5
ENDBRANCH   3   4
ENDBRANCH   2   3
ENDBRANCH   1   2
BRANCH   1  26
ATOM     26  C   UNL A   1      40.487  22.003  27.313  1.00  0.00     0.188 C 
BRANCH  26  27
ATOM     27  O   UNL A   1      41.667  21.303  26.917  1.00  0.00    -0.376 OA
BRANCH  27  28
ATOM     28  C   UNL A   1      42.749  22.176  26.600  1.00  0.00     0.202 C 
BRANCH  28  29
ATOM     29  C   UNL A   1      42.976  23.278  27.641  1.00  0.00     0.261 C 
BRANCH  29  30
ATOM     30  O   UNL A   1      43.255  24.537  27.004  1.00  0.00    -0.460 OA
BRANCH  30  31
ATOM     31  C   UNL A   1      42.168  25.260  26.630  1.00  0.00     0.338 C 
ATOM     32  O   UNL A   1      41.471  25.077  25.645  1.00  0.00    -0.246 OA
BRANCH  31  33
ATOM     33  C   UNL A   1      41.805  26.211  27.715  1.00  0.00     0.060 A 
ATOM     34  C   UNL A   1      42.642  27.319  27.920  1.00  0.00     0.016 A 
ATOM     35  C   UNL A   1      40.647  26.060  28.484  1.00  0.00     0.016 A 
ATOM     36  C   UNL A   1      42.349  28.250  28.918  1.00  0.00     0.010 A 
ATOM     37  C   UNL A   1      40.356  26.990  29.487  1.00  0.00     0.010 A 
ATOM     38  C   UNL A   1      41.224  28.070  29.733  1.00  0.00    -0.014 A 
BRANCH  38  39
ATOM     39  C   UNL A   1      41.061  28.875  30.968  1.00  0.00     0.031 A 
ATOM     40  C   UNL A   1      39.972  29.914  30.994  1.00  0.00     0.074 A 
ATOM     41  C   UNL A   1      41.854  28.697  32.040  1.00  0.00     0.049 A 
ATOM     42  N   UNL A   1      39.667  30.773  31.931  1.00  0.00    -0.248 NA
ATOM     43  C   UNL A   1      39.117  29.996  29.797  1.00  0.00     0.031 C 
ATOM     44  C   UNL A   1      42.918  27.703  32.156  1.00  0.00     0.029 A 
ATOM     45  N   UNL A   1      41.884  29.364  33.240  1.00  0.00    -0.354 N 
ATOM     46  C   UNL A   1      38.594  31.504  31.434  1.00  0.00     0.074 A 
ATOM     47  C   UNL A   1      38.320  31.007  30.103  1.00  0.00     0.031 C 
ATOM     48  C   UNL A   1      43.507  27.833  33.359  1.00  0.00     0.029 A 
ATOM     49  C   UNL A   1      42.881  28.937  34.085  1.00  0.00     0.049 A 
ATOM     50  H   UNL A   1      41.251  30.081  33.475  1.00  0.00     0.167 HD
ATOM     51  C   UNL A   1      37.895  32.498  32.030  1.00  0.00     0.031 A 
ATOM     52  C   UNL A   1      43.258  29.399  35.295  1.00  0.00     0.031 A 
ATOM     53  C   UNL A   1      38.179  33.006  33.344  1.00  0.00     0.049 A 
ATOM     54  C   UNL A   1      42.507  30.554  35.913  1.00  0.00     0.074 A 
ATOM     55  C   UNL A   1      37.519  34.003  34.041  1.00  0.00     0.029 A 
ATOM     56  N   UNL A   1      39.212  32.564  34.155  1.00  0.00    -0.354 N 
ATOM     57  N   UNL A   1      41.476  31.215  35.443  1.00  0.00    -0.248 NA
ATOM     58  C   UNL A   1      42.970  31.018  37.229  1.00  0.00     0.031 C 
ATOM     59  C   UNL A   1      38.188  34.199  35.254  1.00  0.00     0.029 A 
ATOM     60  C   UNL A   1      39.226  33.285  35.337  1.00  0.00     0.049 A 
ATOM     61  H   UNL A   1      39.843  31.843  33.925  1.00  0.00     0.167 HD
ATOM     62  C   UNL A   1      41.151  32.155  36.417  1.00  0.00     0.074 A 
ATOM     63  C   UNL A   1      42.087  31.969  37.507  1.00  0.00     0.031 C 
ATOM     64  C   UNL A   1      40.166  33.087  36.411  1.00  0.00     0.031 A 
BRANCH  51  65
ATOM     65  C   UNL A   1      36.778  33.123  31.239  1.00  0.00    -0.014 A 
ATOM     66  C   UNL A   1      36.931  33.417  29.871  1.00  0.00     0.010 A 
ATOM     67  C   UNL A   1      35.555  33.409  31.869  1.00  0.00     0.010 A 
ATOM     68  C   UNL A   1      35.894  34.027  29.160  1.00  0.00     0.020 A 
ATOM     69  C   UNL A   1      34.505  33.993  31.155  1.00  0.00     0.020 A 
ATOM     70  C   UNL A   1      34.690  34.316  29.810  1.00  0.00     0.054 A 
BRANCH  70  71
ATOM     71  S   UNL A   1      33.357  35.098  28.860  1.00  0.00     0.124 S 
ATOM     72  O   UNL A   1      32.285  35.167  29.850  1.00  0.00    -0.237 OA
ATOM     73  O   UNL A   1      33.943  36.381  28.480  1.00  0.00    -0.237 OA
ATOM     74  O   UNL A   1      33.127  34.170  27.756  1.00  0.00    -0.744 OA
ENDBRANCH  70  71
ENDBRANCH  51  65
BRANCH  52  75
ATOM     75  C   UNL A   1      44.414  28.783  36.002  1.00  0.00    -0.014 A 
ATOM     76  C   UNL A   1      45.723  29.247  35.779  1.00  0.00     0.010 A 
ATOM     77  C   UNL A   1      44.212  27.719  36.901  1.00  0.00     0.010 A 
ATOM     78  C   UNL A   1      46.808  28.651  36.432  1.00  0.00     0.020 A 
ATOM     79  C   UNL A   1      45.291  27.138  37.574  1.00  0.00     0.020 A 
ATOM     80  C   UNL A   1      46.584  27.602  37.328  1.00  0.00     0.054 A 
BRANCH  80  81
ATOM     81  S   UNL A   1      48.001  26.881  38.205  1.00  0.00     0.124 S 
ATOM     82  O   UNL A   1      48.709  28.071  38.667  1.00  0.00    -0.237 OA
ATOM     83  O   UNL A   1      47.355  26.085  39.246  1.00  0.00    -0.237 OA
ATOM     84  O   UNL A   1      48.683  26.107  37.172  1.00  0.00    -0.744 OA
ENDBRANCH  80  81
ENDBRANCH  52  75
BRANCH  64  85
ATOM     85  C   UNL A   1      40.020  33.957  37.632  1.00  0.00    -0.014 A 
ATOM     86  C   UNL A   1      39.533  33.440  38.844  1.00  0.00     0.010 A 
ATOM     87  C   UNL A   1      40.440  35.301  37.579  1.00  0.00     0.010 A 
ATOM     88  C   UNL A   1      39.440  34.257  39.975  1.00  0.00     0.020 A 
ATOM     89  C   UNL A   1      40.375  36.113  38.714  1.00  0.00     0.020 A 
ATOM     90  C   UNL A   1      39.861  35.589  39.901  1.00  0.00     0.054 A 
BRANCH  90  91
ATOM     91  S   UNL A   1      39.773  36.619  41.393  1.00  0.00     0.124 S 
ATOM     92  O   UNL A   1      39.840  37.967  40.836  1.00  0.00    -0.237 OA
ATOM     93  O   UNL A   1      38.485  36.241  41.970  1.00  0.00    -0.237 OA
ATOM     94  O   UNL A   1      40.940  36.206  42.168  1.00  0.00    -0.744 OA
ENDBRANCH  90  91
ENDBRANCH  64  85
ENDBRANCH  38  39
ENDBRANCH  31  33
ENDBRANCH  30  31
ENDBRANCH  29  30
ENDBRANCH  28  29
ENDBRANCH  27  28
ENDBRANCH  26  27
ENDBRANCH   1  26
TORSDOF 27
ENDMDL
