MODEL 1
REMARK VINA RESULT:      -9.5      0.000      0.000
REMARK SMILES COc1ccc(C2=NN=C[C@@H]2C(=O)OCCOCCOCCOC(=O)c2ccc(-c3c4nc(c(-c5ccc(S(=O)(=O)[O-])cc5)c5ccc([nH]5)c(-c5ccc(S(=O)(=O)[O-])cc5)c5nc(c(-c6ccc(S(=O)(=O)[O-])cc6)c6ccc3[nH]6)C=C5)C=C4)cc2)cc1OC
REMARK SMILES IDX 19 1 18 2 17 3 16 4 15 5 14 6 12 7 13 8 11 9 7 10 8 11 9 12
REMARK SMILES IDX 10 13 6 14 3 15 4 16 87 17 5 18 86 19 2 20 1 21 88 22 89 23
REMARK SMILES IDX 20 24 21 25 22 26 23 27 24 28 25 29 26 30 27 31 85 32 28 33
REMARK SMILES IDX 84 34 29 35 30 36 31 37 78 38 32 39 83 40 77 41 79 42 33 43
REMARK SMILES IDX 82 44 76 45 75 46 34 48 64 49 45 50 63 51 46 52 49 53 62 54
REMARK SMILES IDX 80 55 47 56 48 57 61 59 81 60 50 61 35 62 36 63 44 64 37 65
REMARK SMILES IDX 43 66 38 67 39 68 40 69 41 70 42 71 65 72 66 73 74 74 67 75
REMARK SMILES IDX 73 76 68 77 69 78 70 79 71 80 72 81 51 82 52 83 60 84 53 85
REMARK SMILES IDX 59 86 54 87 55 88 56 89 57 90 58 91
REMARK H PARENT 79 47 49 58
REMARK Flexibility Score: inf
ROOT
ATOM      1  C   UNL A   1      34.891  33.196  27.927  1.00  0.00     0.188 C 
ENDROOT
BRANCH   1   2
ATOM      2  C   UNL A   1      34.637  31.700  28.178  1.00  0.00     0.188 C 
BRANCH   2   3
ATOM      3  O   UNL A   1      34.104  30.866  27.167  1.00  0.00    -0.376 OA
BRANCH   3   4
ATOM      4  C   UNL A   1      34.230  29.455  27.248  1.00  0.00     0.202 C 
BRANCH   4   5
ATOM      5  C   UNL A   1      34.198  28.560  25.990  1.00  0.00     0.261 C 
BRANCH   5   6
ATOM      6  O   UNL A   1      32.962  27.879  25.701  1.00  0.00    -0.462 OA
BRANCH   6   7
ATOM      7  C   UNL A   1      32.446  28.069  24.469  1.00  0.00     0.320 C 
ATOM      8  O   UNL A   1      33.092  27.932  23.434  1.00  0.00    -0.251 OA
BRANCH   7   9
ATOM      9  C   UNL A   1      31.000  28.459  24.438  1.00  0.00     0.194 C 
ATOM     10  C   UNL A   1      30.105  27.328  24.069  1.00  0.00     0.090 C 
ATOM     11  N   UNL A   1      29.217  27.631  23.171  1.00  0.00    -0.154 NA
ATOM     12  N   UNL A   1      29.443  28.975  22.775  1.00  0.00    -0.162 NA
ATOM     13  C   UNL A   1      30.478  29.413  23.421  1.00  0.00     0.130 C 
BRANCH  10  14
ATOM     14  C   UNL A   1      30.345  25.970  24.538  1.00  0.00     0.003 A 
ATOM     15  C   UNL A   1      31.047  23.387  25.256  1.00  0.00     0.160 A 
ATOM     16  C   UNL A   1      30.623  24.304  26.235  1.00  0.00     0.051 A 
ATOM     17  C   UNL A   1      31.138  23.773  23.913  1.00  0.00     0.161 A 
ATOM     18  C   UNL A   1      30.286  25.612  25.880  1.00  0.00     0.014 A 
ATOM     19  C   UNL A   1      30.770  25.068  23.564  1.00  0.00     0.060 A 
BRANCH  15  20
ATOM     20  O   UNL A   1      31.227  22.079  25.620  1.00  0.00    -0.493 OA
ATOM     21  C   UNL A   1      32.577  21.793  25.979  1.00  0.00     0.278 C 
ENDBRANCH  15  20
BRANCH  17  22
ATOM     22  O   UNL A   1      31.527  23.033  22.831  1.00  0.00    -0.493 OA
ATOM     23  C   UNL A   1      32.917  22.862  22.617  1.00  0.00     0.278 C 
ENDBRANCH  17  22
ENDBRANCH  10  14
ENDBRANCH   7   9
ENDBRANCH   6   7
ENDBRANCH   5   6
ENDBRANCH   4   5
ENDBRANCH   3   4
ENDBRANCH   2   3
ENDBRANCH   1   2
BRANCH   1  24
ATOM     24  O   UNL A   1      33.774  34.052  28.021  1.00  0.00    -0.376 OA
BRANCH  24  25
ATOM     25  C   UNL A   1      33.735  35.255  28.779  1.00  0.00     0.202 C 
BRANCH  25  26
ATOM     26  C   UNL A   1      33.001  35.394  30.110  1.00  0.00     0.261 C 
BRANCH  26  27
ATOM     27  O   UNL A   1      33.466  34.534  31.120  1.00  0.00    -0.460 OA
BRANCH  27  28
ATOM     28  C   UNL A   1      33.550  35.103  32.336  1.00  0.00     0.338 C 
ATOM     29  O   UNL A   1      32.823  35.969  32.801  1.00  0.00    -0.246 OA
BRANCH  28  30
ATOM     30  C   UNL A   1      34.639  34.436  33.046  1.00  0.00     0.060 A 
ATOM     31  C   UNL A   1      35.725  35.225  33.424  1.00  0.00     0.016 A 
ATOM     32  C   UNL A   1      34.674  33.034  33.051  1.00  0.00     0.016 A 
ATOM     33  C   UNL A   1      36.951  34.615  33.483  1.00  0.00     0.010 A 
ATOM     34  C   UNL A   1      35.897  32.433  33.074  1.00  0.00     0.010 A 
ATOM     35  C   UNL A   1      37.013  33.258  33.161  1.00  0.00    -0.014 A 
BRANCH  35  36
ATOM     36  C   UNL A   1      38.295  32.714  32.800  1.00  0.00     0.031 A 
ATOM     37  C   UNL A   1      39.201  32.557  33.946  1.00  0.00     0.074 A 
ATOM     38  C   UNL A   1      38.530  32.309  31.539  1.00  0.00     0.049 A 
ATOM     39  N   UNL A   1      40.266  33.233  34.205  1.00  0.00    -0.248 NA
ATOM     40  C   UNL A   1      38.753  31.674  35.035  1.00  0.00     0.031 C 
ATOM     41  C   UNL A   1      37.568  32.153  30.440  1.00  0.00     0.029 A 
ATOM     42  N   UNL A   1      39.675  31.816  31.013  1.00  0.00    -0.354 N 
ATOM     43  C   UNL A   1      40.745  32.702  35.393  1.00  0.00     0.074 A 
ATOM     44  C   UNL A   1      39.667  31.940  35.966  1.00  0.00     0.031 C 
ATOM     45  C   UNL A   1      38.120  31.375  29.481  1.00  0.00     0.029 A 
ATOM     46  C   UNL A   1      39.499  31.093  29.843  1.00  0.00     0.049 A 
ATOM     47  H   UNL A   1      40.557  31.957  31.427  1.00  0.00     0.167 HD
ATOM     48  C   UNL A   1      42.075  32.672  35.676  1.00  0.00     0.031 A 
ATOM     49  C   UNL A   1      40.404  30.244  29.291  1.00  0.00     0.031 A 
ATOM     50  C   UNL A   1      42.824  33.555  34.822  1.00  0.00     0.049 A 
ATOM     51  C   UNL A   1      41.726  30.565  29.894  1.00  0.00     0.074 A 
ATOM     52  C   UNL A   1      42.812  34.917  34.598  1.00  0.00     0.029 A 
ATOM     53  N   UNL A   1      43.461  32.991  33.739  1.00  0.00    -0.354 N 
ATOM     54  N   UNL A   1      42.354  31.692  29.696  1.00  0.00    -0.248 NA
ATOM     55  C   UNL A   1      42.131  29.836  31.087  1.00  0.00     0.031 C 
ATOM     56  C   UNL A   1      43.038  35.065  33.199  1.00  0.00     0.029 A 
ATOM     57  C   UNL A   1      43.237  33.796  32.650  1.00  0.00     0.049 A 
ATOM     58  H   UNL A   1      43.985  32.158  33.745  1.00  0.00     0.167 HD
ATOM     59  C   UNL A   1      42.911  32.018  30.926  1.00  0.00     0.074 A 
ATOM     60  C   UNL A   1      42.825  30.792  31.715  1.00  0.00     0.031 C 
ATOM     61  C   UNL A   1      43.127  33.319  31.284  1.00  0.00     0.031 A 
BRANCH  48  62
ATOM     62  C   UNL A   1      42.706  31.546  36.448  1.00  0.00    -0.014 A 
ATOM     63  C   UNL A   1      43.509  31.844  37.562  1.00  0.00     0.010 A 
ATOM     64  C   UNL A   1      42.737  30.216  35.973  1.00  0.00     0.010 A 
ATOM     65  C   UNL A   1      44.328  30.867  38.143  1.00  0.00     0.020 A 
ATOM     66  C   UNL A   1      43.507  29.224  36.573  1.00  0.00     0.020 A 
ATOM     67  C   UNL A   1      44.325  29.564  37.637  1.00  0.00     0.054 A 
BRANCH  67  68
ATOM     68  S   UNL A   1      45.449  28.333  38.332  1.00  0.00     0.124 S 
ATOM     69  O   UNL A   1      45.609  27.409  37.213  1.00  0.00    -0.237 OA
ATOM     70  O   UNL A   1      46.621  29.138  38.666  1.00  0.00    -0.237 OA
ATOM     71  O   UNL A   1      44.713  27.806  39.479  1.00  0.00    -0.744 OA
ENDBRANCH  67  68
ENDBRANCH  48  62
BRANCH  49  72
ATOM     72  C   UNL A   1      40.127  28.965  28.590  1.00  0.00    -0.014 A 
ATOM     73  C   UNL A   1      40.558  28.757  27.267  1.00  0.00     0.010 A 
ATOM     74  C   UNL A   1      39.677  27.840  29.314  1.00  0.00     0.010 A 
ATOM     75  C   UNL A   1      40.595  27.465  26.712  1.00  0.00     0.020 A 
ATOM     76  C   UNL A   1      39.701  26.553  28.766  1.00  0.00     0.020 A 
ATOM     77  C   UNL A   1      40.185  26.367  27.475  1.00  0.00     0.054 A 
BRANCH  77  78
ATOM     78  S   UNL A   1      40.407  24.686  26.820  1.00  0.00     0.124 S 
ATOM     79  O   UNL A   1      41.626  24.819  26.029  1.00  0.00    -0.237 OA
ATOM     80  O   UNL A   1      40.524  23.886  28.035  1.00  0.00    -0.237 OA
ATOM     81  O   UNL A   1      39.187  24.455  26.046  1.00  0.00    -0.744 OA
ENDBRANCH  77  78
ENDBRANCH  49  72
BRANCH  61  82
ATOM     82  C   UNL A   1      43.012  34.384  30.213  1.00  0.00    -0.014 A 
ATOM     83  C   UNL A   1      41.785  34.863  29.712  1.00  0.00     0.010 A 
ATOM     84  C   UNL A   1      44.193  35.035  29.818  1.00  0.00     0.010 A 
ATOM     85  C   UNL A   1      41.747  35.950  28.822  1.00  0.00     0.020 A 
ATOM     86  C   UNL A   1      44.161  36.128  28.948  1.00  0.00     0.020 A 
ATOM     87  C   UNL A   1      42.939  36.575  28.446  1.00  0.00     0.054 A 
BRANCH  87  88
ATOM     88  S   UNL A   1      42.884  38.013  27.339  1.00  0.00     0.124 S 
ATOM     89  O   UNL A   1      41.801  37.667  26.423  1.00  0.00    -0.237 OA
ATOM     90  O   UNL A   1      42.606  39.119  28.253  1.00  0.00    -0.237 OA
ATOM     91  O   UNL A   1      44.217  38.040  26.737  1.00  0.00    -0.744 OA
ENDBRANCH  87  88
ENDBRANCH  61  82
ENDBRANCH  35  36
ENDBRANCH  28  30
ENDBRANCH  27  28
ENDBRANCH  26  27
ENDBRANCH  25  26
ENDBRANCH  24  25
ENDBRANCH   1  24
TORSDOF 23
ENDMDL
MODEL 2
REMARK VINA RESULT:      -9.4      4.999     10.696
REMARK SMILES COc1ccc(C2=NN=C[C@@H]2C(=O)OCCOCCOCCOC(=O)c2ccc(-c3c4nc(c(-c5ccc(S(=O)(=O)[O-])cc5)c5ccc([nH]5)c(-c5ccc(S(=O)(=O)[O-])cc5)c5nc(c(-c6ccc(S(=O)(=O)[O-])cc6)c6ccc3[nH]6)C=C5)C=C4)cc2)cc1OC
REMARK SMILES IDX 19 1 18 2 17 3 16 4 15 5 14 6 12 7 13 8 11 9 7 10 8 11 9 12
REMARK SMILES IDX 10 13 6 14 3 15 4 16 87 17 5 18 86 19 2 20 1 21 88 22 89 23
REMARK SMILES IDX 20 24 21 25 22 26 23 27 24 28 25 29 26 30 27 31 85 32 28 33
REMARK SMILES IDX 84 34 29 35 30 36 31 37 78 38 32 39 83 40 77 41 79 42 33 43
REMARK SMILES IDX 82 44 76 45 75 46 34 48 64 49 45 50 63 51 46 52 49 53 62 54
REMARK SMILES IDX 80 55 47 56 48 57 61 59 81 60 50 61 35 62 36 63 44 64 37 65
REMARK SMILES IDX 43 66 38 67 39 68 40 69 41 70 42 71 65 72 66 73 74 74 67 75
REMARK SMILES IDX 73 76 68 77 69 78 70 79 71 80 72 81 51 82 52 83 60 84 53 85
REMARK SMILES IDX 59 86 54 87 55 88 56 89 57 90 58 91
REMARK H PARENT 79 47 49 58
REMARK Flexibility Score: inf
ROOT
ATOM      1  C   UNL A   1      40.574  22.548  27.111  1.00  0.00     0.188 C 
ENDROOT
BRANCH   1   2
ATOM      2  C   UNL A   1      39.339  23.461  27.206  1.00  0.00     0.188 C 
BRANCH   2   3
ATOM      3  O   UNL A   1      38.466  23.633  26.106  1.00  0.00    -0.376 OA
BRANCH   3   4
ATOM      4  C   UNL A   1      37.537  22.622  25.751  1.00  0.00     0.202 C 
BRANCH   4   5
ATOM      5  C   UNL A   1      36.044  22.935  25.513  1.00  0.00     0.261 C 
BRANCH   5   6
ATOM      6  O   UNL A   1      35.303  22.010  24.693  1.00  0.00    -0.462 OA
BRANCH   6   7
ATOM      7  C   UNL A   1      34.589  22.546  23.681  1.00  0.00     0.320 C 
ATOM      8  O   UNL A   1      35.093  23.161  22.745  1.00  0.00    -0.251 OA
BRANCH   7   9
ATOM      9  C   UNL A   1      33.108  22.334  23.765  1.00  0.00     0.194 C 
ATOM     10  C   UNL A   1      32.438  23.302  24.674  1.00  0.00     0.090 C 
ATOM     11  N   UNL A   1      31.597  22.755  25.499  1.00  0.00    -0.154 NA
ATOM     12  N   UNL A   1      31.645  21.351  25.297  1.00  0.00    -0.162 NA
ATOM     13  C   UNL A   1      32.537  21.109  24.389  1.00  0.00     0.130 C 
BRANCH  10  14
ATOM     14  C   UNL A   1      32.843  24.700  24.747  1.00  0.00     0.003 A 
ATOM     15  C   UNL A   1      33.333  27.428  24.800  1.00  0.00     0.160 A 
ATOM     16  C   UNL A   1      33.785  26.606  25.849  1.00  0.00     0.051 A 
ATOM     17  C   UNL A   1      32.613  26.881  23.729  1.00  0.00     0.161 A 
ATOM     18  C   UNL A   1      33.524  25.234  25.835  1.00  0.00     0.014 A 
ATOM     19  C   UNL A   1      32.386  25.509  23.708  1.00  0.00     0.060 A 
BRANCH  15  20
ATOM     20  O   UNL A   1      33.732  28.737  24.777  1.00  0.00    -0.493 OA
ATOM     21  C   UNL A   1      32.725  29.625  25.257  1.00  0.00     0.278 C 
ENDBRANCH  15  20
BRANCH  17  22
ATOM     22  O   UNL A   1      32.094  27.512  22.633  1.00  0.00    -0.493 OA
ATOM     23  C   UNL A   1      30.685  27.525  22.487  1.00  0.00     0.278 C 
ENDBRANCH  17  22
ENDBRANCH  10  14
ENDBRANCH   7   9
ENDBRANCH   6   7
ENDBRANCH   5   6
ENDBRANCH   4   5
ENDBRANCH   3   4
ENDBRANCH   2   3
ENDBRANCH   1   2
BRANCH   1  24
ATOM     24  O   UNL A   1      40.471  21.279  27.716  1.00  0.00    -0.376 OA
BRANCH  24  25
ATOM     25  C   UNL A   1      40.932  20.064  27.138  1.00  0.00     0.202 C 
BRANCH  25  26
ATOM     26  C   UNL A   1      41.949  19.999  26.001  1.00  0.00     0.261 C 
BRANCH  26  27
ATOM     27  O   UNL A   1      43.082  20.808  26.192  1.00  0.00    -0.460 OA
BRANCH  27  28
ATOM     28  C   UNL A   1      43.965  20.771  25.178  1.00  0.00     0.338 C 
ATOM     29  O   UNL A   1      44.160  19.850  24.397  1.00  0.00    -0.246 OA
BRANCH  28  30
ATOM     30  C   UNL A   1      44.610  22.081  25.125  1.00  0.00     0.060 A 
ATOM     31  C   UNL A   1      45.756  22.254  25.900  1.00  0.00     0.016 A 
ATOM     32  C   UNL A   1      43.905  23.150  24.553  1.00  0.00     0.016 A 
ATOM     33  C   UNL A   1      46.003  23.513  26.380  1.00  0.00     0.010 A 
ATOM     34  C   UNL A   1      44.128  24.397  25.059  1.00  0.00     0.010 A 
ATOM     35  C   UNL A   1      45.089  24.518  26.057  1.00  0.00    -0.014 A 
BRANCH  35  36
ATOM     36  C   UNL A   1      45.080  25.702  26.873  1.00  0.00     0.031 A 
ATOM     37  C   UNL A   1      46.296  26.515  26.730  1.00  0.00     0.074 A 
ATOM     38  C   UNL A   1      43.987  26.027  27.586  1.00  0.00     0.049 A 
ATOM     39  N   UNL A   1      47.234  26.688  27.596  1.00  0.00    -0.248 NA
ATOM     40  C   UNL A   1      46.599  27.032  25.386  1.00  0.00     0.031 C 
ATOM     41  C   UNL A   1      42.648  25.427  27.521  1.00  0.00     0.029 A 
ATOM     42  N   UNL A   1      43.812  27.069  28.432  1.00  0.00    -0.354 N 
ATOM     43  C   UNL A   1      48.145  27.526  26.972  1.00  0.00     0.074 A 
ATOM     44  C   UNL A   1      47.832  27.500  25.568  1.00  0.00     0.031 C 
ATOM     45  C   UNL A   1      41.761  26.270  28.096  1.00  0.00     0.029 A 
ATOM     46  C   UNL A   1      42.485  27.391  28.672  1.00  0.00     0.049 A 
ATOM     47  H   UNL A   1      44.563  27.557  28.840  1.00  0.00     0.167 HD
ATOM     48  C   UNL A   1      48.898  28.412  27.677  1.00  0.00     0.031 A 
ATOM     49  C   UNL A   1      42.036  28.554  29.210  1.00  0.00     0.031 A 
ATOM     50  C   UNL A   1      48.905  28.108  29.084  1.00  0.00     0.049 A 
ATOM     51  C   UNL A   1      43.196  29.200  29.883  1.00  0.00     0.074 A 
ATOM     52  C   UNL A   1      49.321  27.026  29.832  1.00  0.00     0.029 A 
ATOM     53  N   UNL A   1      48.048  28.827  29.886  1.00  0.00    -0.354 N 
ATOM     54  N   UNL A   1      43.788  28.702  30.934  1.00  0.00    -0.248 NA
ATOM     55  C   UNL A   1      43.995  30.144  29.115  1.00  0.00     0.031 C 
ATOM     56  C   UNL A   1      48.357  26.902  30.874  1.00  0.00     0.029 A 
ATOM     57  C   UNL A   1      47.439  27.948  30.747  1.00  0.00     0.049 A 
ATOM     58  H   UNL A   1      47.898  29.799  29.850  1.00  0.00     0.167 HD
ATOM     59  C   UNL A   1      45.143  28.931  30.730  1.00  0.00     0.074 A 
ATOM     60  C   UNL A   1      45.200  29.908  29.646  1.00  0.00     0.031 C 
ATOM     61  C   UNL A   1      46.090  28.100  31.260  1.00  0.00     0.031 A 
BRANCH  48  62
ATOM     62  C   UNL A   1      49.276  29.760  27.127  1.00  0.00    -0.014 A 
ATOM     63  C   UNL A   1      50.612  30.002  26.763  1.00  0.00     0.010 A 
ATOM     64  C   UNL A   1      48.414  30.878  27.181  1.00  0.00     0.010 A 
ATOM     65  C   UNL A   1      51.066  31.302  26.506  1.00  0.00     0.020 A 
ATOM     66  C   UNL A   1      48.840  32.167  26.878  1.00  0.00     0.020 A 
ATOM     67  C   UNL A   1      50.175  32.376  26.573  1.00  0.00     0.054 A 
BRANCH  67  68
ATOM     68  S   UNL A   1      50.784  34.060  26.330  1.00  0.00     0.124 S 
ATOM     69  O   UNL A   1      50.060  34.792  27.363  1.00  0.00    -0.237 OA
ATOM     70  O   UNL A   1      52.220  33.902  26.548  1.00  0.00    -0.237 OA
ATOM     71  O   UNL A   1      50.398  34.368  24.955  1.00  0.00    -0.744 OA
ENDBRANCH  67  68
ENDBRANCH  48  62
BRANCH  49  72
ATOM     72  C   UNL A   1      40.799  29.294  28.852  1.00  0.00    -0.014 A 
ATOM     73  C   UNL A   1      39.979  28.862  27.793  1.00  0.00     0.010 A 
ATOM     74  C   UNL A   1      40.277  30.271  29.725  1.00  0.00     0.010 A 
ATOM     75  C   UNL A   1      38.666  29.344  27.652  1.00  0.00     0.020 A 
ATOM     76  C   UNL A   1      38.974  30.762  29.586  1.00  0.00     0.020 A 
ATOM     77  C   UNL A   1      38.164  30.277  28.564  1.00  0.00     0.054 A 
BRANCH  77  78
ATOM     78  S   UNL A   1      36.412  30.756  28.486  1.00  0.00     0.124 S 
ATOM     79  O   UNL A   1      35.928  29.983  27.347  1.00  0.00    -0.237 OA
ATOM     80  O   UNL A   1      35.912  30.339  29.793  1.00  0.00    -0.237 OA
ATOM     81  O   UNL A   1      36.460  32.203  28.279  1.00  0.00    -0.744 OA
ENDBRANCH  77  78
ENDBRANCH  49  72
BRANCH  61  82
ATOM     82  C   UNL A   1      45.654  27.092  32.302  1.00  0.00    -0.014 A 
ATOM     83  C   UNL A   1      45.678  27.339  33.690  1.00  0.00     0.010 A 
ATOM     84  C   UNL A   1      45.046  25.910  31.846  1.00  0.00     0.010 A 
ATOM     85  C   UNL A   1      45.129  26.414  34.594  1.00  0.00     0.020 A 
ATOM     86  C   UNL A   1      44.481  24.995  32.738  1.00  0.00     0.020 A 
ATOM     87  C   UNL A   1      44.532  25.247  34.109  1.00  0.00     0.054 A 
BRANCH  87  88
ATOM     88  S   UNL A   1      43.775  24.078  35.274  1.00  0.00     0.124 S 
ATOM     89  O   UNL A   1      44.882  23.178  35.585  1.00  0.00    -0.237 OA
ATOM     90  O   UNL A   1      43.342  24.944  36.369  1.00  0.00    -0.237 OA
ATOM     91  O   UNL A   1      42.686  23.476  34.506  1.00  0.00    -0.744 OA
ENDBRANCH  87  88
ENDBRANCH  61  82
ENDBRANCH  35  36
ENDBRANCH  28  30
ENDBRANCH  27  28
ENDBRANCH  26  27
ENDBRANCH  25  26
ENDBRANCH  24  25
ENDBRANCH   1  24
TORSDOF 23
ENDMDL
MODEL 3
REMARK VINA RESULT:      -9.1      3.086      4.562
REMARK SMILES COc1ccc(C2=NN=C[C@@H]2C(=O)OCCOCCOCCOC(=O)c2ccc(-c3c4nc(c(-c5ccc(S(=O)(=O)[O-])cc5)c5ccc([nH]5)c(-c5ccc(S(=O)(=O)[O-])cc5)c5nc(c(-c6ccc(S(=O)(=O)[O-])cc6)c6ccc3[nH]6)C=C5)C=C4)cc2)cc1OC
REMARK SMILES IDX 19 1 18 2 17 3 16 4 15 5 14 6 12 7 13 8 11 9 7 10 8 11 9 12
REMARK SMILES IDX 10 13 6 14 3 15 4 16 87 17 5 18 86 19 2 20 1 21 88 22 89 23
REMARK SMILES IDX 20 24 21 25 22 26 23 27 24 28 25 29 26 30 27 31 85 32 28 33
REMARK SMILES IDX 84 34 29 35 30 36 31 37 78 38 32 39 83 40 77 41 79 42 33 43
REMARK SMILES IDX 82 44 76 45 75 46 34 48 64 49 45 50 63 51 46 52 49 53 62 54
REMARK SMILES IDX 80 55 47 56 48 57 61 59 81 60 50 61 35 62 36 63 44 64 37 65
REMARK SMILES IDX 43 66 38 67 39 68 40 69 41 70 42 71 65 72 66 73 74 74 67 75
REMARK SMILES IDX 73 76 68 77 69 78 70 79 71 80 72 81 51 82 52 83 60 84 53 85
REMARK SMILES IDX 59 86 54 87 55 88 56 89 57 90 58 91
REMARK H PARENT 79 47 49 58
REMARK Flexibility Score: inf
ROOT
ATOM      1  C   UNL A   1      32.153  30.045  26.931  1.00  0.00     0.188 C 
ENDROOT
BRANCH   1   2
ATOM      2  C   UNL A   1      31.993  29.638  25.456  1.00  0.00     0.188 C 
BRANCH   2   3
ATOM      3  O   UNL A   1      31.800  28.287  25.083  1.00  0.00    -0.376 OA
BRANCH   3   4
ATOM      4  C   UNL A   1      30.752  27.519  25.652  1.00  0.00     0.202 C 
BRANCH   4   5
ATOM      5  C   UNL A   1      30.194  26.259  24.955  1.00  0.00     0.261 C 
BRANCH   5   6
ATOM      6  O   UNL A   1      31.153  25.296  24.476  1.00  0.00    -0.462 OA
BRANCH   6   7
ATOM      7  C   UNL A   1      30.867  24.699  23.300  1.00  0.00     0.320 C 
ATOM      8  O   UNL A   1      29.811  24.113  23.075  1.00  0.00    -0.251 OA
BRANCH   7   9
ATOM      9  C   UNL A   1      31.937  24.803  22.257  1.00  0.00     0.194 C 
ATOM     10  C   UNL A   1      33.101  23.919  22.535  1.00  0.00     0.090 C 
ATOM     11  N   UNL A   1      34.251  24.506  22.403  1.00  0.00    -0.154 NA
ATOM     12  N   UNL A   1      34.009  25.868  22.089  1.00  0.00    -0.162 NA
ATOM     13  C   UNL A   1      32.726  26.053  22.082  1.00  0.00     0.130 C 
BRANCH  10  14
ATOM     14  C   UNL A   1      32.938  22.580  23.088  1.00  0.00     0.003 A 
ATOM     15  C   UNL A   1      32.542  20.170  24.397  1.00  0.00     0.160 A 
ATOM     16  C   UNL A   1      32.084  20.344  23.079  1.00  0.00     0.051 A 
ATOM     17  C   UNL A   1      33.185  21.217  25.070  1.00  0.00     0.161 A 
ATOM     18  C   UNL A   1      32.265  21.563  22.421  1.00  0.00     0.014 A 
ATOM     19  C   UNL A   1      33.389  22.418  24.398  1.00  0.00     0.060 A 
BRANCH  15  20
ATOM     20  O   UNL A   1      32.477  18.920  24.952  1.00  0.00    -0.493 OA
ATOM     21  C   UNL A   1      33.529  18.067  24.503  1.00  0.00     0.278 C 
ENDBRANCH  15  20
BRANCH  17  22
ATOM     22  O   UNL A   1      33.691  21.239  26.340  1.00  0.00    -0.493 OA
ATOM     23  C   UNL A   1      35.057  21.577  26.499  1.00  0.00     0.278 C 
ENDBRANCH  17  22
ENDBRANCH  10  14
ENDBRANCH   7   9
ENDBRANCH   6   7
ENDBRANCH   5   6
ENDBRANCH   4   5
ENDBRANCH   3   4
ENDBRANCH   2   3
ENDBRANCH   1   2
BRANCH   1  24
ATOM     24  O   UNL A   1      32.610  31.356  27.180  1.00  0.00    -0.376 OA
BRANCH  24  25
ATOM     25  C   UNL A   1      33.770  31.681  27.935  1.00  0.00     0.202 C 
BRANCH  25  26
ATOM     26  C   UNL A   1      33.852  32.868  28.893  1.00  0.00     0.261 C 
BRANCH  26  27
ATOM     27  O   UNL A   1      35.101  33.022  29.517  1.00  0.00    -0.460 OA
BRANCH  27  28
ATOM     28  C   UNL A   1      35.421  32.030  30.368  1.00  0.00     0.338 C 
ATOM     29  O   UNL A   1      34.992  31.857  31.501  1.00  0.00    -0.246 OA
BRANCH  28  30
ATOM     30  C   UNL A   1      36.330  31.134  29.658  1.00  0.00     0.060 A 
ATOM     31  C   UNL A   1      36.438  29.830  30.140  1.00  0.00     0.016 A 
ATOM     32  C   UNL A   1      37.238  31.689  28.744  1.00  0.00     0.016 A 
ATOM     33  C   UNL A   1      37.641  29.197  29.969  1.00  0.00     0.010 A 
ATOM     34  C   UNL A   1      38.447  31.075  28.604  1.00  0.00     0.010 A 
ATOM     35  C   UNL A   1      38.658  29.907  29.328  1.00  0.00    -0.014 A 
BRANCH  35  36
ATOM     36  C   UNL A   1      40.011  29.454  29.515  1.00  0.00     0.031 A 
ATOM     37  C   UNL A   1      40.385  29.313  30.928  1.00  0.00     0.074 A 
ATOM     38  C   UNL A   1      40.763  29.108  28.455  1.00  0.00     0.049 A 
ATOM     39  N   UNL A   1      41.204  30.044  31.603  1.00  0.00    -0.248 NA
ATOM     40  C   UNL A   1      39.597  28.368  31.736  1.00  0.00     0.031 C 
ATOM     41  C   UNL A   1      40.342  28.932  27.059  1.00  0.00     0.029 A 
ATOM     42  N   UNL A   1      42.055  28.704  28.436  1.00  0.00    -0.354 N 
ATOM     43  C   UNL A   1      41.198  29.501  32.878  1.00  0.00     0.074 A 
ATOM     44  C   UNL A   1      40.036  28.656  32.959  1.00  0.00     0.031 C 
ATOM     45  C   UNL A   1      41.287  28.223  26.401  1.00  0.00     0.029 A 
ATOM     46  C   UNL A   1      42.418  28.013  27.289  1.00  0.00     0.049 A 
ATOM     47  H   UNL A   1      42.682  28.885  29.172  1.00  0.00     0.167 HD
ATOM     48  C   UNL A   1      42.298  29.543  33.677  1.00  0.00     0.031 A 
ATOM     49  C   UNL A   1      43.525  27.241  27.146  1.00  0.00     0.031 A 
ATOM     50  C   UNL A   1      43.265  30.499  33.206  1.00  0.00     0.049 A 
ATOM     51  C   UNL A   1      44.465  27.620  28.236  1.00  0.00     0.074 A 
ATOM     52  C   UNL A   1      43.250  31.864  33.006  1.00  0.00     0.029 A 
ATOM     53  N   UNL A   1      44.323  30.012  32.471  1.00  0.00    -0.354 N 
ATOM     54  N   UNL A   1      45.039  28.789  28.318  1.00  0.00    -0.248 NA
ATOM     55  C   UNL A   1      44.402  26.876  29.486  1.00  0.00     0.031 C 
ATOM     56  C   UNL A   1      44.011  32.075  31.820  1.00  0.00     0.029 A 
ATOM     57  C   UNL A   1      44.503  30.840  31.390  1.00  0.00     0.049 A 
ATOM     58  H   UNL A   1      44.856  29.213  32.683  1.00  0.00     0.167 HD
ATOM     59  C   UNL A   1      45.027  29.106  29.670  1.00  0.00     0.074 A 
ATOM     60  C   UNL A   1      44.714  27.850  30.348  1.00  0.00     0.031 C 
ATOM     61  C   UNL A   1      44.988  30.405  30.094  1.00  0.00     0.031 A 
BRANCH  48  62
ATOM     62  C   UNL A   1      42.640  28.432  34.630  1.00  0.00    -0.014 A 
ATOM     63  C   UNL A   1      43.466  28.704  35.734  1.00  0.00     0.010 A 
ATOM     64  C   UNL A   1      42.377  27.073  34.348  1.00  0.00     0.010 A 
ATOM     65  C   UNL A   1      44.029  27.667  36.489  1.00  0.00     0.020 A 
ATOM     66  C   UNL A   1      42.888  26.034  35.120  1.00  0.00     0.020 A 
ATOM     67  C   UNL A   1      43.739  26.338  36.169  1.00  0.00     0.054 A 
BRANCH  67  68
ATOM     68  S   UNL A   1      44.539  25.003  37.088  1.00  0.00     0.124 S 
ATOM     69  O   UNL A   1      43.936  23.820  36.482  1.00  0.00    -0.237 OA
ATOM     70  O   UNL A   1      45.951  25.224  36.786  1.00  0.00    -0.237 OA
ATOM     71  O   UNL A   1      44.155  25.263  38.473  1.00  0.00    -0.744 OA
ENDBRANCH  67  68
ENDBRANCH  48  62
BRANCH  49  72
ATOM     72  C   UNL A   1      43.646  25.971  26.385  1.00  0.00    -0.014 A 
ATOM     73  C   UNL A   1      44.603  25.829  25.363  1.00  0.00     0.010 A 
ATOM     74  C   UNL A   1      43.002  24.802  26.844  1.00  0.00     0.010 A 
ATOM     75  C   UNL A   1      44.947  24.559  24.866  1.00  0.00     0.020 A 
ATOM     76  C   UNL A   1      43.332  23.536  26.347  1.00  0.00     0.020 A 
ATOM     77  C   UNL A   1      44.322  23.418  25.377  1.00  0.00     0.054 A 
BRANCH  77  78
ATOM     78  S   UNL A   1      44.899  21.772  24.863  1.00  0.00     0.124 S 
ATOM     79  O   UNL A   1      44.763  21.834  23.412  1.00  0.00    -0.237 OA
ATOM     80  O   UNL A   1      46.268  21.745  25.370  1.00  0.00    -0.237 OA
ATOM     81  O   UNL A   1      43.976  20.859  25.536  1.00  0.00    -0.744 OA
ENDBRANCH  77  78
ENDBRANCH  49  72
BRANCH  61  82
ATOM     82  C   UNL A   1      45.243  31.497  29.076  1.00  0.00    -0.014 A 
ATOM     83  C   UNL A   1      46.519  32.026  28.797  1.00  0.00     0.010 A 
ATOM     84  C   UNL A   1      44.167  31.885  28.259  1.00  0.00     0.010 A 
ATOM     85  C   UNL A   1      46.705  32.937  27.743  1.00  0.00     0.020 A 
ATOM     86  C   UNL A   1      44.348  32.775  27.197  1.00  0.00     0.020 A 
ATOM     87  C   UNL A   1      45.614  33.304  26.949  1.00  0.00     0.054 A 
BRANCH  87  88
ATOM     88  S   UNL A   1      45.865  34.439  25.554  1.00  0.00     0.124 S 
ATOM     89  O   UNL A   1      44.964  33.899  24.540  1.00  0.00    -0.237 OA
ATOM     90  O   UNL A   1      45.480  35.733  26.113  1.00  0.00    -0.237 OA
ATOM     91  O   UNL A   1      47.289  34.306  25.248  1.00  0.00    -0.744 OA
ENDBRANCH  87  88
ENDBRANCH  61  82
ENDBRANCH  35  36
ENDBRANCH  28  30
ENDBRANCH  27  28
ENDBRANCH  26  27
ENDBRANCH  25  26
ENDBRANCH  24  25
ENDBRANCH   1  24
TORSDOF 23
ENDMDL
