MODEL 1
REMARK VINA RESULT:      -9.5      0.000      0.000
REMARK SMILES NS(=O)(=O)c1ccc(-n2nc(C(F)F)cc2-c2ccc(C(=O)OCCOCCOCCOC(=O)c3ccc(-c4c5nc(c(-c6ccc(S(=O)(=O)[O-])cc6)c6ccc([nH]6)c(-c6ccc(S(=O)(=O)[O-])cc6)c6nc(c(-c7ccc(S(=O)(=O)[O-])cc7)c7ccc4[nH]7)C=C6)C=C5)cc3)cc2)cc1
REMARK SMILES IDX 27 1 26 2 25 3 24 4 23 5 21 6 22 7 20 8 17 9 18 10 96 11
REMARK SMILES IDX 19 12 95 13 16 14 9 15 10 16 11 17 15 18 8 19 5 20 6 21
REMARK SMILES IDX 98 22 7 23 97 24 2 25 3 26 4 27 1 28 12 31 13 32 14 33 28 34
REMARK SMILES IDX 29 35 30 36 31 37 32 38 33 39 34 40 35 41 36 42 94 43 37 44
REMARK SMILES IDX 93 45 38 46 39 47 40 48 87 49 41 50 92 51 86 52 88 53 42 54
REMARK SMILES IDX 91 55 85 56 84 57 43 59 73 60 54 61 72 62 55 63 58 64 71 65
REMARK SMILES IDX 89 66 56 67 57 68 70 70 90 71 59 72 44 73 45 74 53 75 46 76
REMARK SMILES IDX 52 77 47 78 48 79 49 80 50 81 51 82 74 83 75 84 83 85 76 86
REMARK SMILES IDX 82 87 77 88 78 89 79 90 80 91 81 92 60 93 61 94 69 95 62 96
REMARK SMILES IDX 68 97 63 98 64 99 65 100 66 101 67 102
REMARK H PARENT 1 29 1 30 88 58 58 69
REMARK Flexibility Score: inf
ROOT
ATOM      1  C   UNL A   1      37.805  28.809  28.510  1.00  0.00     0.188 C 
ENDROOT
BRANCH   1   2
ATOM      2  O   UNL A   1      38.910  28.053  28.077  1.00  0.00    -0.376 OA
BRANCH   2   3
ATOM      3  C   UNL A   1      39.215  26.792  28.641  1.00  0.00     0.202 C 
BRANCH   3   4
ATOM      4  C   UNL A   1      39.783  25.575  27.880  1.00  0.00     0.261 C 
BRANCH   4   5
ATOM      5  O   UNL A   1      38.873  24.535  27.517  1.00  0.00    -0.460 OA
BRANCH   5   6
ATOM      6  C   UNL A   1      39.375  23.578  26.701  1.00  0.00     0.338 C 
ATOM      7  O   UNL A   1      40.544  23.248  26.592  1.00  0.00    -0.246 OA
BRANCH   6   8
ATOM      8  C   UNL A   1      38.270  22.829  26.061  1.00  0.00     0.060 A 
ATOM      9  C   UNL A   1      36.069  21.440  25.021  1.00  0.00     0.000 A 
ATOM     10  C   UNL A   1      35.906  22.726  25.556  1.00  0.00     0.011 A 
ATOM     11  C   UNL A   1      37.356  20.886  24.950  1.00  0.00     0.011 A 
ATOM     12  C   UNL A   1      36.998  23.412  26.085  1.00  0.00     0.016 A 
ATOM     13  C   UNL A   1      38.460  21.584  25.456  1.00  0.00     0.016 A 
BRANCH   9  14
ATOM     14  C   UNL A   1      34.888  20.629  24.724  1.00  0.00     0.075 A 
ATOM     15  N   UNL A   1      33.632  21.096  24.351  1.00  0.00    -0.233 N 
ATOM     16  N   UNL A   1      32.663  20.174  24.597  1.00  0.00    -0.166 NA
ATOM     17  C   UNL A   1      33.322  19.048  24.914  1.00  0.00     0.129 A 
ATOM     18  C   UNL A   1      34.710  19.289  25.012  1.00  0.00     0.060 A 
BRANCH  15  19
ATOM     19  C   UNL A   1      33.287  22.350  23.786  1.00  0.00     0.065 A 
ATOM     20  C   UNL A   1      32.606  24.826  22.707  1.00  0.00     0.082 A 
ATOM     21  C   UNL A   1      33.514  24.008  22.030  1.00  0.00     0.024 A 
ATOM     22  C   UNL A   1      32.023  24.408  23.908  1.00  0.00     0.024 A 
ATOM     23  C   UNL A   1      33.871  22.773  22.582  1.00  0.00     0.030 A 
ATOM     24  C   UNL A   1      32.338  23.154  24.431  1.00  0.00     0.030 A 
BRANCH  20  25
ATOM     25  S   UNL A   1      32.185  26.432  22.092  1.00  0.00     0.238 S 
ATOM     26  O   UNL A   1      33.422  27.137  21.829  1.00  0.00    -0.207 OA
ATOM     27  O   UNL A   1      31.135  26.963  22.920  1.00  0.00    -0.207 OA
BRANCH  25  28
ATOM     28  N   UNL A   1      31.516  26.140  20.579  1.00  0.00    -0.225 NA
ATOM     29  H   UNL A   1      31.402  27.023  20.082  1.00  0.00     0.137 HD
ATOM     30  H   UNL A   1      30.606  25.692  20.690  1.00  0.00     0.137 HD
ENDBRANCH  25  28
ENDBRANCH  20  25
ENDBRANCH  15  19
BRANCH  17  31
ATOM     31  C   UNL A   1      32.628  17.747  25.176  1.00  0.00     0.393 C 
ATOM     32  F   UNL A   1      32.409  17.025  24.043  1.00  0.00    -0.203 F 
ATOM     33  F   UNL A   1      33.349  16.951  26.013  1.00  0.00    -0.203 F 
ENDBRANCH  17  31
ENDBRANCH   9  14
ENDBRANCH   6   8
ENDBRANCH   5   6
ENDBRANCH   4   5
ENDBRANCH   3   4
ENDBRANCH   2   3
ENDBRANCH   1   2
BRANCH   1  34
ATOM     34  C   UNL A   1      37.836  30.348  28.396  1.00  0.00     0.188 C 
BRANCH  34  35
ATOM     35  O   UNL A   1      38.633  31.152  29.242  1.00  0.00    -0.376 OA
BRANCH  35  36
ATOM     36  C   UNL A   1      38.212  32.391  29.789  1.00  0.00     0.202 C 
BRANCH  36  37
ATOM     37  C   UNL A   1      37.143  32.574  30.864  1.00  0.00     0.261 C 
BRANCH  37  38
ATOM     38  O   UNL A   1      37.409  31.938  32.093  1.00  0.00    -0.460 OA
BRANCH  38  39
ATOM     39  C   UNL A   1      37.030  30.645  32.087  1.00  0.00     0.338 C 
ATOM     40  O   UNL A   1      36.018  30.174  31.595  1.00  0.00    -0.246 OA
BRANCH  39  41
ATOM     41  C   UNL A   1      37.997  29.852  32.838  1.00  0.00     0.060 A 
ATOM     42  C   UNL A   1      39.066  30.571  33.373  1.00  0.00     0.016 A 
ATOM     43  C   UNL A   1      38.033  28.468  32.630  1.00  0.00     0.016 A 
ATOM     44  C   UNL A   1      40.286  29.949  33.424  1.00  0.00     0.010 A 
ATOM     45  C   UNL A   1      39.255  27.850  32.675  1.00  0.00     0.010 A 
ATOM     46  C   UNL A   1      40.371  28.634  32.957  1.00  0.00    -0.014 A 
BRANCH  46  47
ATOM     47  C   UNL A   1      41.695  28.095  32.764  1.00  0.00     0.031 A 
ATOM     48  C   UNL A   1      42.231  27.439  33.970  1.00  0.00     0.074 A 
ATOM     49  C   UNL A   1      42.305  28.138  31.567  1.00  0.00     0.049 A 
ATOM     50  N   UNL A   1      43.240  27.800  34.687  1.00  0.00    -0.248 NA
ATOM     51  C   UNL A   1      41.424  26.352  34.549  1.00  0.00     0.031 C 
ATOM     52  C   UNL A   1      41.732  28.518  30.271  1.00  0.00     0.029 A 
ATOM     53  N   UNL A   1      43.545  27.700  31.235  1.00  0.00    -0.354 N 
ATOM     54  C   UNL A   1      43.325  26.849  35.694  1.00  0.00     0.074 A 
ATOM     55  C   UNL A   1      42.080  26.124  35.684  1.00  0.00     0.031 C 
ATOM     56  C   UNL A   1      42.519  28.028  29.287  1.00  0.00     0.029 A 
ATOM     57  C   UNL A   1      43.695  27.415  29.886  1.00  0.00     0.049 A 
ATOM     58  H   UNL A   1      44.271  27.593  31.892  1.00  0.00     0.167 HD
ATOM     59  C   UNL A   1      44.507  26.531  36.284  1.00  0.00     0.031 A 
ATOM     60  C   UNL A   1      44.649  26.616  29.341  1.00  0.00     0.031 A 
ATOM     61  C   UNL A   1      45.514  27.533  36.064  1.00  0.00     0.049 A 
ATOM     62  C   UNL A   1      45.744  26.496  30.343  1.00  0.00     0.074 A 
ATOM     63  C   UNL A   1      45.597  28.884  36.343  1.00  0.00     0.029 A 
ATOM     64  N   UNL A   1      46.462  27.286  35.099  1.00  0.00    -0.354 N 
ATOM     65  N   UNL A   1      46.493  27.500  30.713  1.00  0.00    -0.248 NA
ATOM     66  C   UNL A   1      45.690  25.387  31.288  1.00  0.00     0.031 C 
ATOM     67  C   UNL A   1      46.230  29.456  35.203  1.00  0.00     0.029 A 
ATOM     68  C   UNL A   1      46.562  28.419  34.329  1.00  0.00     0.049 A 
ATOM     69  H   UNL A   1      46.974  26.453  34.982  1.00  0.00     0.167 HD
ATOM     70  C   UNL A   1      46.653  27.346  32.085  1.00  0.00     0.074 A 
ATOM     71  C   UNL A   1      46.210  25.981  32.366  1.00  0.00     0.031 C 
ATOM     72  C   UNL A   1      46.852  28.420  32.908  1.00  0.00     0.031 A 
BRANCH  59  73
ATOM     73  C   UNL A   1      44.818  25.126  36.716  1.00  0.00    -0.014 A 
ATOM     74  C   UNL A   1      44.982  24.836  38.081  1.00  0.00     0.010 A 
ATOM     75  C   UNL A   1      45.195  24.124  35.793  1.00  0.00     0.010 A 
ATOM     76  C   UNL A   1      45.518  23.609  38.494  1.00  0.00     0.020 A 
ATOM     77  C   UNL A   1      45.679  22.883  36.193  1.00  0.00     0.020 A 
ATOM     78  C   UNL A   1      45.865  22.643  37.545  1.00  0.00     0.054 A 
BRANCH  78  79
ATOM     79  S   UNL A   1      46.621  21.091  38.080  1.00  0.00     0.124 S 
ATOM     80  O   UNL A   1      47.909  21.134  37.396  1.00  0.00    -0.237 OA
ATOM     81  O   UNL A   1      46.665  21.254  39.532  1.00  0.00    -0.237 OA
ATOM     82  O   UNL A   1      45.688  20.072  37.601  1.00  0.00    -0.744 OA
ENDBRANCH  78  79
ENDBRANCH  59  73
BRANCH  60  83
ATOM     83  C   UNL A   1      44.459  25.659  28.217  1.00  0.00    -0.014 A 
ATOM     84  C   UNL A   1      44.944  25.939  26.926  1.00  0.00     0.010 A 
ATOM     85  C   UNL A   1      44.018  24.341  28.470  1.00  0.00     0.010 A 
ATOM     86  C   UNL A   1      45.031  24.930  25.948  1.00  0.00     0.020 A 
ATOM     87  C   UNL A   1      44.089  23.335  27.501  1.00  0.00     0.020 A 
ATOM     88  C   UNL A   1      44.618  23.628  26.249  1.00  0.00     0.054 A 
BRANCH  88  89
ATOM     89  S   UNL A   1      44.888  22.291  25.047  1.00  0.00     0.124 S 
ATOM     90  O   UNL A   1      45.253  23.028  23.840  1.00  0.00    -0.237 OA
ATOM     91  O   UNL A   1      45.960  21.518  25.667  1.00  0.00    -0.237 OA
ATOM     92  O   UNL A   1      43.593  21.614  24.990  1.00  0.00    -0.744 OA
ENDBRANCH  88  89
ENDBRANCH  60  83
BRANCH  72  93
ATOM     93  C   UNL A   1      47.152  29.769  32.289  1.00  0.00    -0.014 A 
ATOM     94  C   UNL A   1      48.453  30.220  31.985  1.00  0.00     0.010 A 
ATOM     95  C   UNL A   1      46.062  30.537  31.842  1.00  0.00     0.010 A 
ATOM     96  C   UNL A   1      48.653  31.415  31.276  1.00  0.00     0.020 A 
ATOM     97  C   UNL A   1      46.253  31.717  31.119  1.00  0.00     0.020 A 
ATOM     98  C   UNL A   1      47.548  32.158  30.848  1.00  0.00     0.054 A 
BRANCH  98  99
ATOM     99  S   UNL A   1      47.812  33.678  29.891  1.00  0.00     0.124 S 
ATOM    100  O   UNL A   1      49.076  34.175  30.427  1.00  0.00    -0.237 OA
ATOM    101  O   UNL A   1      47.859  33.192  28.515  1.00  0.00    -0.237 OA
ATOM    102  O   UNL A   1      46.642  34.497  30.211  1.00  0.00    -0.744 OA
ENDBRANCH  98  99
ENDBRANCH  72  93
ENDBRANCH  46  47
ENDBRANCH  39  41
ENDBRANCH  38  39
ENDBRANCH  37  38
ENDBRANCH  36  37
ENDBRANCH  35  36
ENDBRANCH  34  35
ENDBRANCH   1  34
TORSDOF 25
ENDMDL
MODEL 2
REMARK VINA RESULT:      -9.0      4.810     10.666
REMARK SMILES NS(=O)(=O)c1ccc(-n2nc(C(F)F)cc2-c2ccc(C(=O)OCCOCCOCCOC(=O)c3ccc(-c4c5nc(c(-c6ccc(S(=O)(=O)[O-])cc6)c6ccc([nH]6)c(-c6ccc(S(=O)(=O)[O-])cc6)c6nc(c(-c7ccc(S(=O)(=O)[O-])cc7)c7ccc4[nH]7)C=C6)C=C5)cc3)cc2)cc1
REMARK SMILES IDX 27 1 26 2 25 3 24 4 23 5 21 6 22 7 20 8 17 9 18 10 96 11
REMARK SMILES IDX 19 12 95 13 16 14 9 15 10 16 11 17 15 18 8 19 5 20 6 21
REMARK SMILES IDX 98 22 7 23 97 24 2 25 3 26 4 27 1 28 12 31 13 32 14 33 28 34
REMARK SMILES IDX 29 35 30 36 31 37 32 38 33 39 34 40 35 41 36 42 94 43 37 44
REMARK SMILES IDX 93 45 38 46 39 47 40 48 87 49 41 50 92 51 86 52 88 53 42 54
REMARK SMILES IDX 91 55 85 56 84 57 43 59 73 60 54 61 72 62 55 63 58 64 71 65
REMARK SMILES IDX 89 66 56 67 57 68 70 70 90 71 59 72 44 73 45 74 53 75 46 76
REMARK SMILES IDX 52 77 47 78 48 79 49 80 50 81 51 82 74 83 75 84 83 85 76 86
REMARK SMILES IDX 82 87 77 88 78 89 79 90 80 91 81 92 60 93 61 94 69 95 62 96
REMARK SMILES IDX 68 97 63 98 64 99 65 100 66 101 67 102
REMARK H PARENT 1 29 1 30 88 58 58 69
REMARK Flexibility Score: inf
ROOT
ATOM      1  C   UNL A   1      33.568  27.491  23.557  1.00  0.00     0.188 C 
ENDROOT
BRANCH   1   2
ATOM      2  O   UNL A   1      33.958  26.540  24.518  1.00  0.00    -0.376 OA
BRANCH   2   3
ATOM      3  C   UNL A   1      33.024  25.662  25.116  1.00  0.00     0.202 C 
BRANCH   3   4
ATOM      4  C   UNL A   1      32.735  24.212  24.674  1.00  0.00     0.261 C 
BRANCH   4   5
ATOM      5  O   UNL A   1      33.843  23.412  24.255  1.00  0.00    -0.460 OA
BRANCH   5   6
ATOM      6  C   UNL A   1      34.124  22.345  25.042  1.00  0.00     0.338 C 
ATOM      7  O   UNL A   1      33.339  21.500  25.438  1.00  0.00    -0.246 OA
BRANCH   6   8
ATOM      8  C   UNL A   1      35.587  22.225  25.226  1.00  0.00     0.060 A 
ATOM      9  C   UNL A   1      38.326  21.816  25.662  1.00  0.00     0.000 A 
ATOM     10  C   UNL A   1      37.559  20.839  25.011  1.00  0.00     0.011 A 
ATOM     11  C   UNL A   1      37.722  23.027  26.030  1.00  0.00     0.011 A 
ATOM     12  C   UNL A   1      36.194  21.037  24.805  1.00  0.00     0.016 A 
ATOM     13  C   UNL A   1      36.357  23.241  25.801  1.00  0.00     0.016 A 
BRANCH   9  14
ATOM     14  C   UNL A   1      39.679  21.487  26.112  1.00  0.00     0.075 A 
ATOM     15  N   UNL A   1      40.698  22.386  26.410  1.00  0.00    -0.233 N 
ATOM     16  N   UNL A   1      41.921  21.794  26.341  1.00  0.00    -0.166 NA
ATOM     17  C   UNL A   1      41.670  20.482  26.222  1.00  0.00     0.129 A 
ATOM     18  C   UNL A   1      40.287  20.246  26.067  1.00  0.00     0.060 A 
BRANCH  15  19
ATOM     19  C   UNL A   1      40.594  23.759  26.748  1.00  0.00     0.065 A 
ATOM     20  C   UNL A   1      40.382  26.463  27.380  1.00  0.00     0.082 A 
ATOM     21  C   UNL A   1      39.986  25.505  28.317  1.00  0.00     0.024 A 
ATOM     22  C   UNL A   1      40.900  26.078  26.138  1.00  0.00     0.024 A 
ATOM     23  C   UNL A   1      40.073  24.148  27.992  1.00  0.00     0.030 A 
ATOM     24  C   UNL A   1      41.038  24.724  25.835  1.00  0.00     0.030 A 
BRANCH  20  25
ATOM     25  S   UNL A   1      40.215  28.194  27.711  1.00  0.00     0.238 S 
ATOM     26  O   UNL A   1      39.008  28.374  28.490  1.00  0.00    -0.207 OA
ATOM     27  O   UNL A   1      40.479  28.907  26.490  1.00  0.00    -0.207 OA
BRANCH  25  28
ATOM     28  N   UNL A   1      41.475  28.543  28.766  1.00  0.00    -0.225 NA
ATOM     29  H   UNL A   1      41.131  28.520  29.726  1.00  0.00     0.137 HD
ATOM     30  H   UNL A   1      41.844  29.472  28.559  1.00  0.00     0.137 HD
ENDBRANCH  25  28
ENDBRANCH  20  25
ENDBRANCH  15  19
BRANCH  17  31
ATOM     31  C   UNL A   1      42.753  19.446  26.202  1.00  0.00     0.393 C 
ATOM     32  F   UNL A   1      42.278  18.185  26.008  1.00  0.00    -0.203 F 
ATOM     33  F   UNL A   1      43.656  19.680  25.209  1.00  0.00    -0.203 F 
ENDBRANCH  17  31
ENDBRANCH   9  14
ENDBRANCH   6   8
ENDBRANCH   5   6
ENDBRANCH   4   5
ENDBRANCH   3   4
ENDBRANCH   2   3
ENDBRANCH   1   2
BRANCH   1  34
ATOM     34  C   UNL A   1      33.266  28.940  23.991  1.00  0.00     0.188 C 
BRANCH  34  35
ATOM     35  O   UNL A   1      32.912  29.273  25.319  1.00  0.00    -0.376 OA
BRANCH  35  36
ATOM     36  C   UNL A   1      33.691  30.104  26.164  1.00  0.00     0.202 C 
BRANCH  36  37
ATOM     37  C   UNL A   1      33.817  29.967  27.679  1.00  0.00     0.261 C 
BRANCH  37  38
ATOM     38  O   UNL A   1      35.050  30.380  28.223  1.00  0.00    -0.460 OA
BRANCH  38  39
ATOM     39  C   UNL A   1      35.038  31.681  28.573  1.00  0.00     0.338 C 
ATOM     40  O   UNL A   1      34.062  32.374  28.811  1.00  0.00    -0.246 OA
BRANCH  39  41
ATOM     41  C   UNL A   1      36.402  32.198  28.566  1.00  0.00     0.060 A 
ATOM     42  C   UNL A   1      37.404  31.229  28.603  1.00  0.00     0.016 A 
ATOM     43  C   UNL A   1      36.614  33.533  28.931  1.00  0.00     0.016 A 
ATOM     44  C   UNL A   1      38.550  31.528  29.293  1.00  0.00     0.010 A 
ATOM     45  C   UNL A   1      37.757  33.828  29.628  1.00  0.00     0.010 A 
ATOM     46  C   UNL A   1      38.644  32.787  29.893  1.00  0.00    -0.014 A 
BRANCH  46  47
ATOM     47  C   UNL A   1      39.720  32.983  30.833  1.00  0.00     0.031 A 
ATOM     48  C   UNL A   1      40.923  33.571  30.216  1.00  0.00     0.074 A 
ATOM     49  C   UNL A   1      39.569  32.719  32.142  1.00  0.00     0.049 A 
ATOM     50  N   UNL A   1      42.083  33.028  30.066  1.00  0.00    -0.248 NA
ATOM     51  C   UNL A   1      40.749  34.854  29.514  1.00  0.00     0.031 C 
ATOM     52  C   UNL A   1      38.333  32.402  32.866  1.00  0.00     0.029 A 
ATOM     53  N   UNL A   1      40.485  32.828  33.136  1.00  0.00    -0.354 N 
ATOM     54  C   UNL A   1      42.854  33.996  29.438  1.00  0.00     0.074 A 
ATOM     55  C   UNL A   1      41.941  34.994  28.940  1.00  0.00     0.031 C 
ATOM     56  C   UNL A   1      38.532  32.626  34.184  1.00  0.00     0.029 A 
ATOM     57  C   UNL A   1      39.927  32.980  34.396  1.00  0.00     0.049 A 
ATOM     58  H   UNL A   1      41.456  32.802  32.978  1.00  0.00     0.167 HD
ATOM     59  C   UNL A   1      44.201  34.063  29.608  1.00  0.00     0.031 A 
ATOM     60  C   UNL A   1      40.551  33.493  35.489  1.00  0.00     0.031 A 
ATOM     61  C   UNL A   1      44.747  32.839  30.127  1.00  0.00     0.049 A 
ATOM     62  C   UNL A   1      42.016  33.415  35.232  1.00  0.00     0.074 A 
ATOM     63  C   UNL A   1      44.744  31.528  29.689  1.00  0.00     0.029 A 
ATOM     64  N   UNL A   1      45.049  32.791  31.468  1.00  0.00    -0.354 N 
ATOM     65  N   UNL A   1      42.668  32.289  35.124  1.00  0.00    -0.248 NA
ATOM     66  C   UNL A   1      42.665  34.565  34.613  1.00  0.00     0.031 C 
ATOM     67  C   UNL A   1      44.555  30.749  30.867  1.00  0.00     0.029 A 
ATOM     68  C   UNL A   1      44.528  31.618  31.959  1.00  0.00     0.049 A 
ATOM     69  H   UNL A   1      45.545  33.469  31.981  1.00  0.00     0.167 HD
ATOM     70  C   UNL A   1      43.566  32.490  34.083  1.00  0.00     0.074 A 
ATOM     71  C   UNL A   1      43.579  33.937  33.868  1.00  0.00     0.031 C 
ATOM     72  C   UNL A   1      43.999  31.456  33.299  1.00  0.00     0.031 A 
BRANCH  59  73
ATOM     73  C   UNL A   1      44.923  35.379  29.661  1.00  0.00    -0.014 A 
ATOM     74  C   UNL A   1      44.787  36.204  30.790  1.00  0.00     0.010 A 
ATOM     75  C   UNL A   1      45.544  35.941  28.523  1.00  0.00     0.010 A 
ATOM     76  C   UNL A   1      45.234  37.532  30.767  1.00  0.00     0.020 A 
ATOM     77  C   UNL A   1      46.038  37.241  28.505  1.00  0.00     0.020 A 
ATOM     78  C   UNL A   1      45.853  38.040  29.622  1.00  0.00     0.054 A 
BRANCH  78  79
ATOM     79  S   UNL A   1      46.363  39.774  29.573  1.00  0.00     0.124 S 
ATOM     80  O   UNL A   1      45.307  40.374  28.764  1.00  0.00    -0.237 OA
ATOM     81  O   UNL A   1      46.364  40.136  30.988  1.00  0.00    -0.237 OA
ATOM     82  O   UNL A   1      47.683  39.725  28.947  1.00  0.00    -0.744 OA
ENDBRANCH  78  79
ENDBRANCH  59  73
BRANCH  60  83
ATOM     83  C   UNL A   1      39.945  34.392  36.509  1.00  0.00    -0.014 A 
ATOM     84  C   UNL A   1      39.368  33.881  37.687  1.00  0.00     0.010 A 
ATOM     85  C   UNL A   1      40.159  35.787  36.446  1.00  0.00     0.010 A 
ATOM     86  C   UNL A   1      39.068  34.725  38.773  1.00  0.00     0.020 A 
ATOM     87  C   UNL A   1      39.851  36.634  37.515  1.00  0.00     0.020 A 
ATOM     88  C   UNL A   1      39.328  36.096  38.685  1.00  0.00     0.054 A 
BRANCH  88  89
ATOM     89  S   UNL A   1      39.100  37.157  40.144  1.00  0.00     0.124 S 
ATOM     90  O   UNL A   1      40.476  37.409  40.562  1.00  0.00    -0.237 OA
ATOM     91  O   UNL A   1      38.383  38.303  39.595  1.00  0.00    -0.237 OA
ATOM     92  O   UNL A   1      38.319  36.322  41.056  1.00  0.00    -0.744 OA
ENDBRANCH  88  89
ENDBRANCH  60  83
BRANCH  72  93
ATOM     93  C   UNL A   1      43.688  30.036  33.726  1.00  0.00    -0.014 A 
ATOM     94  C   UNL A   1      44.517  29.275  34.577  1.00  0.00     0.010 A 
ATOM     95  C   UNL A   1      42.425  29.517  33.392  1.00  0.00     0.010 A 
ATOM     96  C   UNL A   1      44.101  28.022  35.054  1.00  0.00     0.020 A 
ATOM     97  C   UNL A   1      41.996  28.280  33.880  1.00  0.00     0.020 A 
ATOM     98  C   UNL A   1      42.840  27.532  34.701  1.00  0.00     0.054 A 
BRANCH  98  99
ATOM     99  S   UNL A   1      42.287  25.933  35.360  1.00  0.00     0.124 S 
ATOM    100  O   UNL A   1      40.839  26.003  35.186  1.00  0.00    -0.237 OA
ATOM    101  O   UNL A   1      42.979  24.973  34.505  1.00  0.00    -0.237 OA
ATOM    102  O   UNL A   1      42.743  25.954  36.750  1.00  0.00    -0.744 OA
ENDBRANCH  98  99
ENDBRANCH  72  93
ENDBRANCH  46  47
ENDBRANCH  39  41
ENDBRANCH  38  39
ENDBRANCH  37  38
ENDBRANCH  36  37
ENDBRANCH  35  36
ENDBRANCH  34  35
ENDBRANCH   1  34
TORSDOF 25
ENDMDL
MODEL 3
REMARK VINA RESULT:      -9.0      4.911     10.743
REMARK SMILES NS(=O)(=O)c1ccc(-n2nc(C(F)F)cc2-c2ccc(C(=O)OCCOCCOCCOC(=O)c3ccc(-c4c5nc(c(-c6ccc(S(=O)(=O)[O-])cc6)c6ccc([nH]6)c(-c6ccc(S(=O)(=O)[O-])cc6)c6nc(c(-c7ccc(S(=O)(=O)[O-])cc7)c7ccc4[nH]7)C=C6)C=C5)cc3)cc2)cc1
REMARK SMILES IDX 27 1 26 2 25 3 24 4 23 5 21 6 22 7 20 8 17 9 18 10 96 11
REMARK SMILES IDX 19 12 95 13 16 14 9 15 10 16 11 17 15 18 8 19 5 20 6 21
REMARK SMILES IDX 98 22 7 23 97 24 2 25 3 26 4 27 1 28 12 31 13 32 14 33 28 34
REMARK SMILES IDX 29 35 30 36 31 37 32 38 33 39 34 40 35 41 36 42 94 43 37 44
REMARK SMILES IDX 93 45 38 46 39 47 40 48 87 49 41 50 92 51 86 52 88 53 42 54
REMARK SMILES IDX 91 55 85 56 84 57 43 59 73 60 54 61 72 62 55 63 58 64 71 65
REMARK SMILES IDX 89 66 56 67 57 68 70 70 90 71 59 72 44 73 45 74 53 75 46 76
REMARK SMILES IDX 52 77 47 78 48 79 49 80 50 81 51 82 74 83 75 84 83 85 76 86
REMARK SMILES IDX 82 87 77 88 78 89 79 90 80 91 81 92 60 93 61 94 69 95 62 96
REMARK SMILES IDX 68 97 63 98 64 99 65 100 66 101 67 102
REMARK H PARENT 1 29 1 30 88 58 58 69
REMARK Flexibility Score: inf
ROOT
ATOM      1  C   UNL A   1      33.504  26.675  22.852  1.00  0.00     0.188 C 
ENDROOT
BRANCH   1   2
ATOM      2  O   UNL A   1      33.979  25.610  23.640  1.00  0.00    -0.376 OA
BRANCH   2   3
ATOM      3  C   UNL A   1      33.196  24.455  23.878  1.00  0.00     0.202 C 
BRANCH   3   4
ATOM      4  C   UNL A   1      33.521  23.028  23.388  1.00  0.00     0.261 C 
BRANCH   4   5
ATOM      5  O   UNL A   1      34.889  22.615  23.403  1.00  0.00    -0.460 OA
BRANCH   5   6
ATOM      6  C   UNL A   1      35.231  21.765  24.401  1.00  0.00     0.338 C 
ATOM      7  O   UNL A   1      34.788  20.645  24.592  1.00  0.00    -0.246 OA
BRANCH   6   8
ATOM      8  C   UNL A   1      36.381  22.309  25.156  1.00  0.00     0.060 A 
ATOM      9  C   UNL A   1      38.502  23.528  26.526  1.00  0.00     0.000 A 
ATOM     10  C   UNL A   1      37.185  23.963  26.729  1.00  0.00     0.011 A 
ATOM     11  C   UNL A   1      38.738  22.432  25.683  1.00  0.00     0.011 A 
ATOM     12  C   UNL A   1      36.131  23.366  26.039  1.00  0.00     0.016 A 
ATOM     13  C   UNL A   1      37.679  21.812  25.007  1.00  0.00     0.016 A 
BRANCH   9  14
ATOM     14  C   UNL A   1      39.612  24.331  27.039  1.00  0.00     0.075 A 
ATOM     15  N   UNL A   1      40.891  23.880  27.347  1.00  0.00    -0.233 N 
ATOM     16  N   UNL A   1      41.522  24.720  28.211  1.00  0.00    -0.166 NA
ATOM     17  C   UNL A   1      40.740  25.809  28.276  1.00  0.00     0.129 A 
ATOM     18  C   UNL A   1      39.536  25.606  27.567  1.00  0.00     0.060 A 
BRANCH  15  19
ATOM     19  C   UNL A   1      41.551  22.712  26.888  1.00  0.00     0.065 A 
ATOM     20  C   UNL A   1      42.819  20.401  25.990  1.00  0.00     0.082 A 
ATOM     21  C   UNL A   1      43.154  21.633  25.422  1.00  0.00     0.024 A 
ATOM     22  C   UNL A   1      41.870  20.319  27.014  1.00  0.00     0.024 A 
ATOM     23  C   UNL A   1      42.502  22.791  25.859  1.00  0.00     0.030 A 
ATOM     24  C   UNL A   1      41.260  21.480  27.488  1.00  0.00     0.030 A 
BRANCH  20  25
ATOM     25  S   UNL A   1      43.555  18.897  25.415  1.00  0.00     0.238 S 
ATOM     26  O   UNL A   1      43.589  18.953  23.968  1.00  0.00    -0.207 OA
ATOM     27  O   UNL A   1      42.968  17.807  26.148  1.00  0.00    -0.207 OA
BRANCH  25  28
ATOM     28  N   UNL A   1      45.160  19.004  25.897  1.00  0.00    -0.225 NA
ATOM     29  H   UNL A   1      45.584  18.076  25.879  1.00  0.00     0.137 HD
ATOM     30  H   UNL A   1      45.208  19.381  26.844  1.00  0.00     0.137 HD
ENDBRANCH  25  28
ENDBRANCH  20  25
ENDBRANCH  15  19
BRANCH  17  31
ATOM     31  C   UNL A   1      41.113  27.032  29.058  1.00  0.00     0.393 C 
ATOM     32  F   UNL A   1      40.202  27.343  30.020  1.00  0.00    -0.203 F 
ATOM     33  F   UNL A   1      42.311  26.881  29.687  1.00  0.00    -0.203 F 
ENDBRANCH  17  31
ENDBRANCH   9  14
ENDBRANCH   6   8
ENDBRANCH   5   6
ENDBRANCH   4   5
ENDBRANCH   3   4
ENDBRANCH   2   3
ENDBRANCH   1   2
BRANCH   1  34
ATOM     34  C   UNL A   1      33.293  28.065  23.488  1.00  0.00     0.188 C 
BRANCH  34  35
ATOM     35  O   UNL A   1      33.040  28.233  24.869  1.00  0.00    -0.376 OA
BRANCH  35  36
ATOM     36  C   UNL A   1      33.781  29.101  25.712  1.00  0.00     0.202 C 
BRANCH  36  37
ATOM     37  C   UNL A   1      34.181  28.812  27.157  1.00  0.00     0.261 C 
BRANCH  37  38
ATOM     38  O   UNL A   1      35.414  29.359  27.563  1.00  0.00    -0.460 OA
BRANCH  38  39
ATOM     39  C   UNL A   1      35.287  30.629  27.996  1.00  0.00     0.338 C 
ATOM     40  O   UNL A   1      34.256  31.273  28.104  1.00  0.00    -0.246 OA
BRANCH  39  41
ATOM     41  C   UNL A   1      36.608  31.184  28.268  1.00  0.00     0.060 A 
ATOM     42  C   UNL A   1      37.618  30.242  28.466  1.00  0.00     0.016 A 
ATOM     43  C   UNL A   1      36.699  32.509  28.711  1.00  0.00     0.016 A 
ATOM     44  C   UNL A   1      38.599  30.546  29.373  1.00  0.00     0.010 A 
ATOM     45  C   UNL A   1      37.676  32.808  29.624  1.00  0.00     0.010 A 
ATOM     46  C   UNL A   1      38.532  31.783  30.021  1.00  0.00    -0.014 A 
BRANCH  46  47
ATOM     47  C   UNL A   1      39.402  31.973  31.156  1.00  0.00     0.031 A 
ATOM     48  C   UNL A   1      40.443  32.989  30.921  1.00  0.00     0.074 A 
ATOM     49  C   UNL A   1      39.195  31.327  32.317  1.00  0.00     0.049 A 
ATOM     50  N   UNL A   1      41.719  32.816  30.855  1.00  0.00    -0.248 NA
ATOM     51  C   UNL A   1      39.984  34.331  30.525  1.00  0.00     0.031 C 
ATOM     52  C   UNL A   1      38.033  30.524  32.713  1.00  0.00     0.029 A 
ATOM     53  N   UNL A   1      39.931  31.380  33.455  1.00  0.00    -0.354 N 
ATOM     54  C   UNL A   1      42.242  34.080  30.622  1.00  0.00     0.074 A 
ATOM     55  C   UNL A   1      41.139  34.917  30.222  1.00  0.00     0.031 C 
ATOM     56  C   UNL A   1      38.018  30.416  34.061  1.00  0.00     0.029 A 
ATOM     57  C   UNL A   1      39.222  31.033  34.595  1.00  0.00     0.049 A 
ATOM     58  H   UNL A   1      40.880  31.642  33.470  1.00  0.00     0.167 HD
ATOM     59  C   UNL A   1      43.487  34.430  31.039  1.00  0.00     0.031 A 
ATOM     60  C   UNL A   1      39.554  31.361  35.871  1.00  0.00     0.031 A 
ATOM     61  C   UNL A   1      44.303  33.286  31.341  1.00  0.00     0.049 A 
ATOM     62  C   UNL A   1      40.998  31.725  35.868  1.00  0.00     0.074 A 
ATOM     63  C   UNL A   1      44.722  32.191  30.611  1.00  0.00     0.029 A 
ATOM     64  N   UNL A   1      44.463  32.945  32.664  1.00  0.00    -0.354 N 
ATOM     65  N   UNL A   1      41.954  30.873  35.613  1.00  0.00    -0.248 NA
ATOM     66  C   UNL A   1      41.352  33.125  35.666  1.00  0.00     0.031 C 
ATOM     67  C   UNL A   1      44.642  31.094  31.516  1.00  0.00     0.029 A 
ATOM     68  C   UNL A   1      44.251  31.591  32.761  1.00  0.00     0.049 A 
ATOM     69  H   UNL A   1      44.686  33.556  33.403  1.00  0.00     0.167 HD
ATOM     70  C   UNL A   1      42.861  31.571  34.826  1.00  0.00     0.074 A 
ATOM     71  C   UNL A   1      42.481  32.977  34.967  1.00  0.00     0.031 C 
ATOM     72  C   UNL A   1      43.652  30.937  33.909  1.00  0.00     0.031 A 
BRANCH  59  73
ATOM     73  C   UNL A   1      43.791  35.817  31.532  1.00  0.00    -0.014 A 
ATOM     74  C   UNL A   1      43.378  36.207  32.817  1.00  0.00     0.010 A 
ATOM     75  C   UNL A   1      44.263  36.832  30.669  1.00  0.00     0.010 A 
ATOM     76  C   UNL A   1      43.418  37.553  33.206  1.00  0.00     0.020 A 
ATOM     77  C   UNL A   1      44.356  38.163  31.062  1.00  0.00     0.020 A 
ATOM     78  C   UNL A   1      43.904  38.520  32.322  1.00  0.00     0.054 A 
BRANCH  78  79
ATOM     79  S   UNL A   1      43.888  40.263  32.804  1.00  0.00     0.124 S 
ATOM     80  O   UNL A   1      44.867  40.836  31.887  1.00  0.00    -0.237 OA
ATOM     81  O   UNL A   1      42.496  40.636  32.563  1.00  0.00    -0.237 OA
ATOM     82  O   UNL A   1      44.285  40.234  34.210  1.00  0.00    -0.744 OA
ENDBRANCH  78  79
ENDBRANCH  59  73
BRANCH  60  83
ATOM     83  C   UNL A   1      38.611  31.762  36.952  1.00  0.00    -0.014 A 
ATOM     84  C   UNL A   1      37.615  30.885  37.418  1.00  0.00     0.010 A 
ATOM     85  C   UNL A   1      38.851  32.929  37.710  1.00  0.00     0.010 A 
ATOM     86  C   UNL A   1      36.927  31.141  38.619  1.00  0.00     0.020 A 
ATOM     87  C   UNL A   1      38.164  33.198  38.897  1.00  0.00     0.020 A 
ATOM     88  C   UNL A   1      37.219  32.289  39.360  1.00  0.00     0.054 A 
BRANCH  88  89
ATOM     89  S   UNL A   1      36.455  32.533  40.993  1.00  0.00     0.124 S 
ATOM     90  O   UNL A   1      35.268  31.687  40.909  1.00  0.00    -0.237 OA
ATOM     91  O   UNL A   1      37.500  32.073  41.903  1.00  0.00    -0.237 OA
ATOM     92  O   UNL A   1      36.189  33.970  41.036  1.00  0.00    -0.744 OA
ENDBRANCH  88  89
ENDBRANCH  60  83
BRANCH  72  93
ATOM     93  C   UNL A   1      43.720  29.424  33.924  1.00  0.00    -0.014 A 
ATOM     94  C   UNL A   1      42.863  28.594  33.171  1.00  0.00     0.010 A 
ATOM     95  C   UNL A   1      44.803  28.827  34.592  1.00  0.00     0.010 A 
ATOM     96  C   UNL A   1      43.073  27.207  33.112  1.00  0.00     0.020 A 
ATOM     97  C   UNL A   1      45.030  27.450  34.522  1.00  0.00     0.020 A 
ATOM     98  C   UNL A   1      44.158  26.644  33.790  1.00  0.00     0.054 A 
BRANCH  98  99
ATOM     99  S   UNL A   1      44.452  24.856  33.672  1.00  0.00     0.124 S 
ATOM    100  O   UNL A   1      45.762  24.709  34.302  1.00  0.00    -0.237 OA
ATOM    101  O   UNL A   1      43.329  24.292  34.416  1.00  0.00    -0.237 OA
ATOM    102  O   UNL A   1      44.426  24.593  32.234  1.00  0.00    -0.744 OA
ENDBRANCH  98  99
ENDBRANCH  72  93
ENDBRANCH  46  47
ENDBRANCH  39  41
ENDBRANCH  38  39
ENDBRANCH  37  38
ENDBRANCH  36  37
ENDBRANCH  35  36
ENDBRANCH  34  35
ENDBRANCH   1  34
TORSDOF 25
ENDMDL
