MODEL 1
REMARK VINA RESULT:     -10.1      0.000      0.000
REMARK SMILES CC(C)(C)c1cc2c(cc1Cl)C=C(C(=O)OCCOCCOCCOC(=O)c1ccc(-c3c4nc(c(-c5ccc(S(=O)(=O)[O-])cc5)c5ccc([nH]5)c(-c5ccc(S(=O)(=O)[O-])cc5)c5nc(c(-c6ccc(S(=O)(=O)[O-])cc6)c6ccc3[nH]6)C=C5)C=C4)cc1)[C@@H](C(F)(F)F)O2
REMARK SMILES IDX 21 1 20 2 19 3 18 4 17 5 16 6 14 7 15 8 13 9 5 10 6 11 10 12
REMARK SMILES IDX 7 13 9 14 11 15 8 16 93 17 12 18 88 19 2 20 1 21 3 22 4 23
REMARK SMILES IDX 89 24 90 25 91 26 92 27 22 28 23 29 24 30 25 31 26 32 27 33
REMARK SMILES IDX 28 34 29 35 87 36 30 37 86 38 31 39 32 40 33 41 80 42 34 43
REMARK SMILES IDX 85 44 79 45 81 46 35 47 84 48 78 49 77 50 36 52 66 53 47 54
REMARK SMILES IDX 65 55 48 56 51 57 64 58 82 59 49 60 50 61 63 63 83 64 52 65
REMARK SMILES IDX 37 66 38 67 46 68 39 69 45 70 40 71 41 72 42 73 43 74 44 75
REMARK SMILES IDX 67 76 68 77 76 78 69 79 75 80 70 81 71 82 72 83 73 84 74 85
REMARK SMILES IDX 53 86 54 87 62 88 55 89 61 90 56 91 57 92 58 93 59 94 60 95
REMARK H PARENT 81 51 51 62
REMARK Flexibility Score: inf
ROOT
ATOM      1  C   UNL A   1      38.253  23.548  26.316  1.00  0.00     0.188 C 
ENDROOT
BRANCH   1   2
ATOM      2  C   UNL A   1      36.794  23.755  25.852  1.00  0.00     0.188 C 
BRANCH   2   3
ATOM      3  O   UNL A   1      36.205  22.573  25.344  1.00  0.00    -0.376 OA
BRANCH   3   4
ATOM      4  C   UNL A   1      34.954  22.178  25.875  1.00  0.00     0.202 C 
BRANCH   4   5
ATOM      5  C   UNL A   1      33.736  22.117  24.937  1.00  0.00     0.261 C 
BRANCH   5   6
ATOM      6  O   UNL A   1      32.890  23.276  24.930  1.00  0.00    -0.460 OA
BRANCH   6   7
ATOM      7  C   UNL A   1      32.046  23.414  23.885  1.00  0.00     0.338 C 
ATOM      8  O   UNL A   1      31.635  22.522  23.162  1.00  0.00    -0.246 OA
BRANCH   7   9
ATOM      9  C   UNL A   1      31.596  24.821  23.822  1.00  0.00     0.087 C 
ATOM     10  C   UNL A   1      28.897  29.067  23.259  1.00  0.00    -0.020 A 
ATOM     11  C   UNL A   1      30.273  28.747  23.365  1.00  0.00     0.053 A 
ATOM     12  C   UNL A   1      27.997  28.011  23.535  1.00  0.00     0.045 A 
ATOM     13  C   UNL A   1      30.727  27.445  23.620  1.00  0.00     0.128 A 
ATOM     14  C   UNL A   1      28.456  26.711  23.811  1.00  0.00     0.032 A 
ATOM     15  Cl  UNL A   1      26.275  28.163  23.509  1.00  0.00    -0.084 Cl
ATOM     16  C   UNL A   1      29.817  26.415  23.805  1.00  0.00     0.019 A 
ATOM     17  O   UNL A   1      32.081  27.273  23.640  1.00  0.00    -0.475 OA
ATOM     18  C   UNL A   1      30.280  25.042  23.917  1.00  0.00     0.027 C 
ATOM     19  C   UNL A   1      32.620  25.921  23.686  1.00  0.00     0.316 C 
BRANCH  10  20
ATOM     20  C   UNL A   1      28.471  30.467  22.743  1.00  0.00    -0.012 C 
ATOM     21  C   UNL A   1      29.650  31.476  22.637  1.00  0.00     0.016 C 
ATOM     22  C   UNL A   1      27.423  31.166  23.636  1.00  0.00     0.016 C 
ATOM     23  C   UNL A   1      27.920  30.308  21.307  1.00  0.00     0.016 C 
ENDBRANCH  10  20
BRANCH  19  24
ATOM     24  C   UNL A   1      33.533  25.725  22.468  1.00  0.00     0.430 C 
ATOM     25  F   UNL A   1      34.547  24.869  22.746  1.00  0.00    -0.167 F 
ATOM     26  F   UNL A   1      32.866  25.198  21.414  1.00  0.00    -0.167 F 
ATOM     27  F   UNL A   1      34.088  26.887  22.055  1.00  0.00    -0.167 F 
ENDBRANCH  19  24
ENDBRANCH   7   9
ENDBRANCH   6   7
ENDBRANCH   5   6
ENDBRANCH   4   5
ENDBRANCH   3   4
ENDBRANCH   2   3
ENDBRANCH   1   2
BRANCH   1  28
ATOM     28  O   UNL A   1      38.955  22.365  25.949  1.00  0.00    -0.376 OA
BRANCH  28  29
ATOM     29  C   UNL A   1      40.041  21.920  26.756  1.00  0.00     0.202 C 
BRANCH  29  30
ATOM     30  C   UNL A   1      41.475  22.299  26.362  1.00  0.00     0.261 C 
BRANCH  30  31
ATOM     31  O   UNL A   1      42.055  23.367  27.127  1.00  0.00    -0.460 OA
BRANCH  31  32
ATOM     32  C   UNL A   1      42.126  24.565  26.493  1.00  0.00     0.338 C 
ATOM     33  O   UNL A   1      42.257  24.757  25.296  1.00  0.00    -0.246 OA
BRANCH  32  34
ATOM     34  C   UNL A   1      41.816  25.646  27.454  1.00  0.00     0.060 A 
ATOM     35  C   UNL A   1      40.787  25.515  28.385  1.00  0.00     0.016 A 
ATOM     36  C   UNL A   1      42.597  26.811  27.421  1.00  0.00     0.016 A 
ATOM     37  C   UNL A   1      40.560  26.541  29.306  1.00  0.00     0.010 A 
ATOM     38  C   UNL A   1      42.362  27.841  28.335  1.00  0.00     0.010 A 
ATOM     39  C   UNL A   1      41.355  27.703  29.299  1.00  0.00    -0.014 A 
BRANCH  39  40
ATOM     40  C   UNL A   1      41.232  28.682  30.408  1.00  0.00     0.031 A 
ATOM     41  C   UNL A   1      40.172  29.740  30.418  1.00  0.00     0.074 A 
ATOM     42  C   UNL A   1      42.098  28.583  31.435  1.00  0.00     0.049 A 
ATOM     43  N   UNL A   1      39.838  30.546  31.392  1.00  0.00    -0.248 NA
ATOM     44  C   UNL A   1      39.391  29.924  29.186  1.00  0.00     0.031 C 
ATOM     45  C   UNL A   1      43.193  27.614  31.510  1.00  0.00     0.029 A 
ATOM     46  N   UNL A   1      42.181  29.276  32.616  1.00  0.00    -0.354 N 
ATOM     47  C   UNL A   1      38.784  31.312  30.909  1.00  0.00     0.074 A 
ATOM     48  C   UNL A   1      38.573  30.912  29.533  1.00  0.00     0.031 C 
ATOM     49  C   UNL A   1      43.808  27.743  32.695  1.00  0.00     0.029 A 
ATOM     50  C   UNL A   1      43.166  28.812  33.455  1.00  0.00     0.049 A 
ATOM     51  H   UNL A   1      41.592  30.033  32.840  1.00  0.00     0.167 HD
ATOM     52  C   UNL A   1      38.052  32.243  31.566  1.00  0.00     0.031 A 
ATOM     53  C   UNL A   1      43.502  29.179  34.708  1.00  0.00     0.031 A 
ATOM     54  C   UNL A   1      38.294  32.648  32.929  1.00  0.00     0.049 A 
ATOM     55  C   UNL A   1      42.688  30.230  35.410  1.00  0.00     0.074 A 
ATOM     56  C   UNL A   1      37.581  33.561  33.689  1.00  0.00     0.029 A 
ATOM     57  N   UNL A   1      39.324  32.182  33.733  1.00  0.00    -0.354 N 
ATOM     58  N   UNL A   1      41.636  30.879  34.971  1.00  0.00    -0.248 NA
ATOM     59  C   UNL A   1      43.084  30.579  36.780  1.00  0.00     0.031 C 
ATOM     60  C   UNL A   1      38.217  33.696  34.925  1.00  0.00     0.029 A 
ATOM     61  C   UNL A   1      39.281  32.809  34.969  1.00  0.00     0.049 A 
ATOM     62  H   UNL A   1      39.988  31.506  33.466  1.00  0.00     0.167 HD
ATOM     63  C   UNL A   1      41.228  31.692  36.021  1.00  0.00     0.074 A 
ATOM     64  C   UNL A   1      42.138  31.446  37.120  1.00  0.00     0.031 C 
ATOM     65  C   UNL A   1      40.186  32.560  36.065  1.00  0.00     0.031 A 
BRANCH  52  66
ATOM     66  C   UNL A   1      36.888  32.879  30.849  1.00  0.00    -0.014 A 
ATOM     67  C   UNL A   1      37.107  33.935  29.944  1.00  0.00     0.010 A 
ATOM     68  C   UNL A   1      35.568  32.532  31.186  1.00  0.00     0.010 A 
ATOM     69  C   UNL A   1      36.029  34.653  29.418  1.00  0.00     0.020 A 
ATOM     70  C   UNL A   1      34.486  33.230  30.640  1.00  0.00     0.020 A 
ATOM     71  C   UNL A   1      34.725  34.303  29.779  1.00  0.00     0.054 A 
BRANCH  71  72
ATOM     72  S   UNL A   1      33.341  35.270  29.115  1.00  0.00     0.124 S 
ATOM     73  O   UNL A   1      32.597  34.267  28.361  1.00  0.00    -0.237 OA
ATOM     74  O   UNL A   1      32.688  35.764  30.326  1.00  0.00    -0.237 OA
ATOM     75  O   UNL A   1      33.998  36.298  28.311  1.00  0.00    -0.744 OA
ENDBRANCH  71  72
ENDBRANCH  52  66
BRANCH  53  76
ATOM     76  C   UNL A   1      44.618  28.468  35.390  1.00  0.00    -0.014 A 
ATOM     77  C   UNL A   1      44.348  27.419  36.290  1.00  0.00     0.010 A 
ATOM     78  C   UNL A   1      45.944  28.902  35.223  1.00  0.00     0.010 A 
ATOM     79  C   UNL A   1      45.375  26.856  37.051  1.00  0.00     0.020 A 
ATOM     80  C   UNL A   1      46.980  28.319  35.961  1.00  0.00     0.020 A 
ATOM     81  C   UNL A   1      46.684  27.321  36.891  1.00  0.00     0.054 A 
BRANCH  81  82
ATOM     82  S   UNL A   1      47.992  26.614  37.931  1.00  0.00     0.124 S 
ATOM     83  O   UNL A   1      48.648  25.698  37.003  1.00  0.00    -0.237 OA
ATOM     84  O   UNL A   1      48.769  27.792  38.309  1.00  0.00    -0.237 OA
ATOM     85  O   UNL A   1      47.255  25.980  39.021  1.00  0.00    -0.744 OA
ENDBRANCH  81  82
ENDBRANCH  53  76
BRANCH  65  86
ATOM     86  C   UNL A   1      39.941  33.322  37.343  1.00  0.00    -0.014 A 
ATOM     87  C   UNL A   1      38.893  32.924  38.197  1.00  0.00     0.010 A 
ATOM     88  C   UNL A   1      40.643  34.505  37.628  1.00  0.00     0.010 A 
ATOM     89  C   UNL A   1      38.524  33.717  39.286  1.00  0.00     0.020 A 
ATOM     90  C   UNL A   1      40.296  35.285  38.736  1.00  0.00     0.020 A 
ATOM     91  C   UNL A   1      39.220  34.901  39.541  1.00  0.00     0.054 A 
BRANCH  91  92
ATOM     92  S   UNL A   1      38.696  35.942  40.932  1.00  0.00     0.124 S 
ATOM     93  O   UNL A   1      38.404  37.211  40.273  1.00  0.00    -0.237 OA
ATOM     94  O   UNL A   1      37.537  35.222  41.454  1.00  0.00    -0.237 OA
ATOM     95  O   UNL A   1      39.863  35.949  41.812  1.00  0.00    -0.744 OA
ENDBRANCH  91  92
ENDBRANCH  65  86
ENDBRANCH  39  40
ENDBRANCH  32  34
ENDBRANCH  31  32
ENDBRANCH  30  31
ENDBRANCH  29  30
ENDBRANCH  28  29
ENDBRANCH   1  28
TORSDOF 22
ENDMDL
MODEL 2
REMARK VINA RESULT:     -10.0      6.324      8.733
REMARK SMILES CC(C)(C)c1cc2c(cc1Cl)C=C(C(=O)OCCOCCOCCOC(=O)c1ccc(-c3c4nc(c(-c5ccc(S(=O)(=O)[O-])cc5)c5ccc([nH]5)c(-c5ccc(S(=O)(=O)[O-])cc5)c5nc(c(-c6ccc(S(=O)(=O)[O-])cc6)c6ccc3[nH]6)C=C5)C=C4)cc1)[C@@H](C(F)(F)F)O2
REMARK SMILES IDX 21 1 20 2 19 3 18 4 17 5 16 6 14 7 15 8 13 9 5 10 6 11 10 12
REMARK SMILES IDX 7 13 9 14 11 15 8 16 93 17 12 18 88 19 2 20 1 21 3 22 4 23
REMARK SMILES IDX 89 24 90 25 91 26 92 27 22 28 23 29 24 30 25 31 26 32 27 33
REMARK SMILES IDX 28 34 29 35 87 36 30 37 86 38 31 39 32 40 33 41 80 42 34 43
REMARK SMILES IDX 85 44 79 45 81 46 35 47 84 48 78 49 77 50 36 52 66 53 47 54
REMARK SMILES IDX 65 55 48 56 51 57 64 58 82 59 49 60 50 61 63 63 83 64 52 65
REMARK SMILES IDX 37 66 38 67 46 68 39 69 45 70 40 71 41 72 42 73 43 74 44 75
REMARK SMILES IDX 67 76 68 77 76 78 69 79 75 80 70 81 71 82 72 83 73 84 74 85
REMARK SMILES IDX 53 86 54 87 62 88 55 89 61 90 56 91 57 92 58 93 59 94 60 95
REMARK H PARENT 81 51 51 62
REMARK Flexibility Score: inf
ROOT
ATOM      1  C   UNL A   1      40.342  22.125  26.550  1.00  0.00     0.188 C 
ENDROOT
BRANCH   1   2
ATOM      2  C   UNL A   1      39.045  22.937  26.756  1.00  0.00     0.188 C 
BRANCH   2   3
ATOM      3  O   UNL A   1      37.905  22.300  26.211  1.00  0.00    -0.376 OA
BRANCH   3   4
ATOM      4  C   UNL A   1      37.808  22.213  24.802  1.00  0.00     0.202 C 
BRANCH   4   5
ATOM      5  C   UNL A   1      36.446  21.870  24.172  1.00  0.00     0.261 C 
BRANCH   5   6
ATOM      6  O   UNL A   1      35.527  21.156  25.011  1.00  0.00    -0.460 OA
BRANCH   6   7
ATOM      7  C   UNL A   1      34.226  21.174  24.651  1.00  0.00     0.338 C 
ATOM      8  O   UNL A   1      33.589  20.242  24.190  1.00  0.00    -0.246 OA
BRANCH   7   9
ATOM      9  C   UNL A   1      33.651  22.486  25.017  1.00  0.00     0.087 C 
ATOM     10  C   UNL A   1      32.671  27.430  25.489  1.00  0.00    -0.020 A 
ATOM     11  C   UNL A   1      32.283  26.250  26.169  1.00  0.00     0.053 A 
ATOM     12  C   UNL A   1      33.370  27.238  24.274  1.00  0.00     0.045 A 
ATOM     13  C   UNL A   1      32.653  24.971  25.731  1.00  0.00     0.128 A 
ATOM     14  C   UNL A   1      33.722  25.952  23.827  1.00  0.00     0.032 A 
ATOM     15  Cl  UNL A   1      33.916  28.517  23.247  1.00  0.00    -0.084 Cl
ATOM     16  C   UNL A   1      33.409  24.821  24.578  1.00  0.00     0.019 A 
ATOM     17  O   UNL A   1      32.254  23.927  26.516  1.00  0.00    -0.475 OA
ATOM     18  C   UNL A   1      33.924  23.515  24.205  1.00  0.00     0.027 C 
ATOM     19  C   UNL A   1      32.779  22.597  26.243  1.00  0.00     0.316 C 
BRANCH  10  20
ATOM     20  C   UNL A   1      32.433  28.814  26.151  1.00  0.00    -0.012 C 
ATOM     21  C   UNL A   1      31.481  29.737  25.337  1.00  0.00     0.016 C 
ATOM     22  C   UNL A   1      33.723  29.639  26.346  1.00  0.00     0.016 C 
ATOM     23  C   UNL A   1      31.739  28.586  27.514  1.00  0.00     0.016 C 
ENDBRANCH  10  20
BRANCH  19  24
ATOM     24  C   UNL A   1      33.480  22.088  27.509  1.00  0.00     0.430 C 
ATOM     25  F   UNL A   1      32.781  22.417  28.624  1.00  0.00    -0.167 F 
ATOM     26  F   UNL A   1      33.598  20.738  27.516  1.00  0.00    -0.167 F 
ATOM     27  F   UNL A   1      34.723  22.602  27.647  1.00  0.00    -0.167 F 
ENDBRANCH  19  24
ENDBRANCH   7   9
ENDBRANCH   6   7
ENDBRANCH   5   6
ENDBRANCH   4   5
ENDBRANCH   3   4
ENDBRANCH   2   3
ENDBRANCH   1   2
BRANCH   1  28
ATOM     28  O   UNL A   1      40.364  20.732  26.843  1.00  0.00    -0.376 OA
BRANCH  28  29
ATOM     29  C   UNL A   1      41.579  20.130  27.280  1.00  0.00     0.202 C 
BRANCH  29  30
ATOM     30  C   UNL A   1      42.281  19.108  26.375  1.00  0.00     0.261 C 
BRANCH  30  31
ATOM     31  O   UNL A   1      42.656  19.598  25.079  1.00  0.00    -0.460 OA
BRANCH  31  32
ATOM     32  C   UNL A   1      43.991  19.688  24.853  1.00  0.00     0.338 C 
ATOM     33  O   UNL A   1      44.718  18.826  24.390  1.00  0.00    -0.246 OA
BRANCH  32  34
ATOM     34  C   UNL A   1      44.430  21.084  25.068  1.00  0.00     0.060 A 
ATOM     35  C   UNL A   1      44.263  22.056  24.082  1.00  0.00     0.016 A 
ATOM     36  C   UNL A   1      45.008  21.418  26.302  1.00  0.00     0.016 A 
ATOM     37  C   UNL A   1      44.648  23.373  24.346  1.00  0.00     0.010 A 
ATOM     38  C   UNL A   1      45.403  22.733  26.559  1.00  0.00     0.010 A 
ATOM     39  C   UNL A   1      45.205  23.725  25.590  1.00  0.00    -0.014 A 
BRANCH  39  40
ATOM     40  C   UNL A   1      45.415  25.156  25.920  1.00  0.00     0.031 A 
ATOM     41  C   UNL A   1      44.315  26.013  26.467  1.00  0.00     0.074 A 
ATOM     42  C   UNL A   1      46.645  25.673  25.734  1.00  0.00     0.049 A 
ATOM     43  N   UNL A   1      44.395  27.222  26.960  1.00  0.00    -0.248 NA
ATOM     44  C   UNL A   1      42.956  25.452  26.460  1.00  0.00     0.031 C 
ATOM     45  C   UNL A   1      47.780  24.939  25.170  1.00  0.00     0.029 A 
ATOM     46  N   UNL A   1      47.156  26.914  26.018  1.00  0.00    -0.354 N 
ATOM     47  C   UNL A   1      43.107  27.560  27.355  1.00  0.00     0.074 A 
ATOM     48  C   UNL A   1      42.254  26.447  26.993  1.00  0.00     0.031 C 
ATOM     49  C   UNL A   1      48.864  25.727  25.194  1.00  0.00     0.029 A 
ATOM     50  C   UNL A   1      48.501  27.026  25.756  1.00  0.00     0.049 A 
ATOM     51  H   UNL A   1      46.611  27.653  26.374  1.00  0.00     0.167 HD
ATOM     52  C   UNL A   1      42.689  28.684  27.984  1.00  0.00     0.031 A 
ATOM     53  C   UNL A   1      49.358  28.044  25.968  1.00  0.00     0.031 A 
ATOM     54  C   UNL A   1      43.549  29.794  28.314  1.00  0.00     0.049 A 
ATOM     55  C   UNL A   1      48.867  29.291  26.648  1.00  0.00     0.074 A 
ATOM     56  C   UNL A   1      43.219  30.962  28.981  1.00  0.00     0.029 A 
ATOM     57  N   UNL A   1      44.897  29.885  28.000  1.00  0.00    -0.354 N 
ATOM     58  N   UNL A   1      47.665  29.557  27.099  1.00  0.00    -0.248 NA
ATOM     59  C   UNL A   1      49.846  30.362  26.873  1.00  0.00     0.031 C 
ATOM     60  C   UNL A   1      44.347  31.785  29.011  1.00  0.00     0.029 A 
ATOM     61  C   UNL A   1      45.404  31.099  28.434  1.00  0.00     0.049 A 
ATOM     62  H   UNL A   1      45.417  29.190  27.536  1.00  0.00     0.167 HD
ATOM     63  C   UNL A   1      47.750  30.813  27.687  1.00  0.00     0.074 A 
ATOM     64  C   UNL A   1      49.123  31.250  27.544  1.00  0.00     0.031 C 
ATOM     65  C   UNL A   1      46.773  31.532  28.295  1.00  0.00     0.031 A 
BRANCH  52  66
ATOM     66  C   UNL A   1      41.243  28.780  28.398  1.00  0.00    -0.014 A 
ATOM     67  C   UNL A   1      40.279  29.268  27.494  1.00  0.00     0.010 A 
ATOM     68  C   UNL A   1      40.864  28.529  29.729  1.00  0.00     0.010 A 
ATOM     69  C   UNL A   1      38.976  29.536  27.923  1.00  0.00     0.020 A 
ATOM     70  C   UNL A   1      39.554  28.769  30.154  1.00  0.00     0.020 A 
ATOM     71  C   UNL A   1      38.625  29.296  29.254  1.00  0.00     0.054 A 
BRANCH  71  72
ATOM     72  S   UNL A   1      36.939  29.685  29.802  1.00  0.00     0.124 S 
ATOM     73  O   UNL A   1      36.133  29.206  28.684  1.00  0.00    -0.237 OA
ATOM     74  O   UNL A   1      36.821  28.919  31.040  1.00  0.00    -0.237 OA
ATOM     75  O   UNL A   1      36.965  31.136  29.979  1.00  0.00    -0.744 OA
ENDBRANCH  71  72
ENDBRANCH  52  66
BRANCH  53  76
ATOM     76  C   UNL A   1      50.790  27.866  25.600  1.00  0.00    -0.014 A 
ATOM     77  C   UNL A   1      51.220  28.101  24.280  1.00  0.00     0.010 A 
ATOM     78  C   UNL A   1      51.707  27.363  26.539  1.00  0.00     0.010 A 
ATOM     79  C   UNL A   1      52.524  27.784  23.892  1.00  0.00     0.020 A 
ATOM     80  C   UNL A   1      53.023  27.074  26.162  1.00  0.00     0.020 A 
ATOM     81  C   UNL A   1      53.413  27.258  24.834  1.00  0.00     0.054 A 
BRANCH  81  82
ATOM     82  S   UNL A   1      55.083  26.801  24.294  1.00  0.00     0.124 S 
ATOM     83  O   UNL A   1      54.972  26.922  22.844  1.00  0.00    -0.237 OA
ATOM     84  O   UNL A   1      55.917  27.807  24.948  1.00  0.00    -0.237 OA
ATOM     85  O   UNL A   1      55.244  25.439  24.798  1.00  0.00    -0.744 OA
ENDBRANCH  81  82
ENDBRANCH  53  76
BRANCH  65  86
ATOM     86  C   UNL A   1      47.129  32.878  28.874  1.00  0.00    -0.014 A 
ATOM     87  C   UNL A   1      47.075  34.022  28.054  1.00  0.00     0.010 A 
ATOM     88  C   UNL A   1      47.651  32.993  30.173  1.00  0.00     0.010 A 
ATOM     89  C   UNL A   1      47.575  35.246  28.507  1.00  0.00     0.020 A 
ATOM     90  C   UNL A   1      48.125  34.224  30.641  1.00  0.00     0.020 A 
ATOM     91  C   UNL A   1      48.110  35.335  29.794  1.00  0.00     0.054 A 
BRANCH  91  92
ATOM     92  S   UNL A   1      48.798  36.921  30.347  1.00  0.00     0.124 S 
ATOM     93  O   UNL A   1      50.209  36.596  30.533  1.00  0.00    -0.237 OA
ATOM     94  O   UNL A   1      48.498  37.810  29.228  1.00  0.00    -0.237 OA
ATOM     95  O   UNL A   1      48.056  37.205  31.574  1.00  0.00    -0.744 OA
ENDBRANCH  91  92
ENDBRANCH  65  86
ENDBRANCH  39  40
ENDBRANCH  32  34
ENDBRANCH  31  32
ENDBRANCH  30  31
ENDBRANCH  29  30
ENDBRANCH  28  29
ENDBRANCH   1  28
TORSDOF 22
ENDMDL
MODEL 3
REMARK VINA RESULT:      -9.8      3.737      5.795
REMARK SMILES CC(C)(C)c1cc2c(cc1Cl)C=C(C(=O)OCCOCCOCCOC(=O)c1ccc(-c3c4nc(c(-c5ccc(S(=O)(=O)[O-])cc5)c5ccc([nH]5)c(-c5ccc(S(=O)(=O)[O-])cc5)c5nc(c(-c6ccc(S(=O)(=O)[O-])cc6)c6ccc3[nH]6)C=C5)C=C4)cc1)[C@@H](C(F)(F)F)O2
REMARK SMILES IDX 21 1 20 2 19 3 18 4 17 5 16 6 14 7 15 8 13 9 5 10 6 11 10 12
REMARK SMILES IDX 7 13 9 14 11 15 8 16 93 17 12 18 88 19 2 20 1 21 3 22 4 23
REMARK SMILES IDX 89 24 90 25 91 26 92 27 22 28 23 29 24 30 25 31 26 32 27 33
REMARK SMILES IDX 28 34 29 35 87 36 30 37 86 38 31 39 32 40 33 41 80 42 34 43
REMARK SMILES IDX 85 44 79 45 81 46 35 47 84 48 78 49 77 50 36 52 66 53 47 54
REMARK SMILES IDX 65 55 48 56 51 57 64 58 82 59 49 60 50 61 63 63 83 64 52 65
REMARK SMILES IDX 37 66 38 67 46 68 39 69 45 70 40 71 41 72 42 73 43 74 44 75
REMARK SMILES IDX 67 76 68 77 76 78 69 79 75 80 70 81 71 82 72 83 73 84 74 85
REMARK SMILES IDX 53 86 54 87 62 88 55 89 61 90 56 91 57 92 58 93 59 94 60 95
REMARK H PARENT 81 51 51 62
REMARK Flexibility Score: inf
ROOT
ATOM      1  C   UNL A   1      34.380  25.912  25.073  1.00  0.00     0.188 C 
ENDROOT
BRANCH   1   2
ATOM      2  C   UNL A   1      33.973  27.223  25.779  1.00  0.00     0.188 C 
BRANCH   2   3
ATOM      3  O   UNL A   1      33.601  28.244  24.873  1.00  0.00    -0.376 OA
BRANCH   3   4
ATOM      4  C   UNL A   1      33.151  27.855  23.589  1.00  0.00     0.202 C 
BRANCH   4   5
ATOM      5  C   UNL A   1      31.674  27.461  23.409  1.00  0.00     0.261 C 
BRANCH   5   6
ATOM      6  O   UNL A   1      31.434  26.135  22.916  1.00  0.00    -0.460 OA
BRANCH   6   7
ATOM      7  C   UNL A   1      30.665  25.327  23.678  1.00  0.00     0.338 C 
ATOM      8  O   UNL A   1      29.515  25.536  24.025  1.00  0.00    -0.246 OA
BRANCH   7   9
ATOM      9  C   UNL A   1      31.405  24.073  23.934  1.00  0.00     0.087 C 
ATOM     10  C   UNL A   1      33.077  19.295  23.910  1.00  0.00    -0.020 A 
ATOM     11  C   UNL A   1      33.243  20.423  24.750  1.00  0.00     0.053 A 
ATOM     12  C   UNL A   1      32.435  19.538  22.673  1.00  0.00     0.045 A 
ATOM     13  C   UNL A   1      32.715  21.682  24.435  1.00  0.00     0.128 A 
ATOM     14  C   UNL A   1      31.923  20.808  22.352  1.00  0.00     0.032 A 
ATOM     15  Cl  UNL A   1      32.149  18.334  21.466  1.00  0.00    -0.084 Cl
ATOM     16  C   UNL A   1      32.018  21.868  23.250  1.00  0.00     0.019 A 
ATOM     17  O   UNL A   1      32.905  22.664  25.364  1.00  0.00    -0.475 OA
ATOM     18  C   UNL A   1      31.338  23.126  22.991  1.00  0.00     0.027 C 
ATOM     19  C   UNL A   1      32.206  23.932  25.205  1.00  0.00     0.316 C 
BRANCH  10  20
ATOM     20  C   UNL A   1      33.477  17.886  24.425  1.00  0.00    -0.012 C 
ATOM     21  C   UNL A   1      33.190  16.747  23.406  1.00  0.00     0.016 C 
ATOM     22  C   UNL A   1      32.743  17.466  25.716  1.00  0.00     0.016 C 
ATOM     23  C   UNL A   1      35.006  17.870  24.657  1.00  0.00     0.016 C 
ENDBRANCH  10  20
BRANCH  19  24
ATOM     24  C   UNL A   1      31.360  24.175  26.462  1.00  0.00     0.430 C 
ATOM     25  F   UNL A   1      31.941  23.626  27.558  1.00  0.00    -0.167 F 
ATOM     26  F   UNL A   1      31.214  25.495  26.727  1.00  0.00    -0.167 F 
ATOM     27  F   UNL A   1      30.121  23.644  26.354  1.00  0.00    -0.167 F 
ENDBRANCH  19  24
ENDBRANCH   7   9
ENDBRANCH   6   7
ENDBRANCH   5   6
ENDBRANCH   4   5
ENDBRANCH   3   4
ENDBRANCH   2   3
ENDBRANCH   1   2
BRANCH   1  28
ATOM     28  O   UNL A   1      35.203  24.966  25.748  1.00  0.00    -0.376 OA
BRANCH  28  29
ATOM     29  C   UNL A   1      36.061  24.120  24.988  1.00  0.00     0.202 C 
BRANCH  29  30
ATOM     30  C   UNL A   1      36.823  22.991  25.695  1.00  0.00     0.261 C 
BRANCH  30  31
ATOM     31  O   UNL A   1      38.194  22.837  25.296  1.00  0.00    -0.460 OA
BRANCH  31  32
ATOM     32  C   UNL A   1      39.086  22.721  26.312  1.00  0.00     0.338 C 
ATOM     33  O   UNL A   1      39.706  21.722  26.635  1.00  0.00    -0.246 OA
BRANCH  32  34
ATOM     34  C   UNL A   1      39.366  24.060  26.874  1.00  0.00     0.060 A 
ATOM     35  C   UNL A   1      38.941  24.412  28.154  1.00  0.00     0.016 A 
ATOM     36  C   UNL A   1      40.090  24.973  26.092  1.00  0.00     0.016 A 
ATOM     37  C   UNL A   1      39.269  25.671  28.664  1.00  0.00     0.010 A 
ATOM     38  C   UNL A   1      40.407  26.235  26.599  1.00  0.00     0.010 A 
ATOM     39  C   UNL A   1      40.017  26.585  27.898  1.00  0.00    -0.014 A 
BRANCH  39  40
ATOM     40  C   UNL A   1      40.527  27.827  28.531  1.00  0.00     0.031 A 
ATOM     41  C   UNL A   1      39.650  29.021  28.753  1.00  0.00     0.074 A 
ATOM     42  C   UNL A   1      41.814  27.850  28.928  1.00  0.00     0.049 A 
ATOM     43  N   UNL A   1      39.909  30.101  29.443  1.00  0.00    -0.248 NA
ATOM     44  C   UNL A   1      38.323  29.009  28.123  1.00  0.00     0.031 C 
ATOM     45  C   UNL A   1      42.767  26.757  28.726  1.00  0.00     0.029 A 
ATOM     46  N   UNL A   1      42.534  28.804  29.602  1.00  0.00    -0.354 N 
ATOM     47  C   UNL A   1      38.766  30.887  29.364  1.00  0.00     0.074 A 
ATOM     48  C   UNL A   1      37.833  30.182  28.509  1.00  0.00     0.031 C 
ATOM     49  C   UNL A   1      43.932  27.082  29.306  1.00  0.00     0.029 A 
ATOM     50  C   UNL A   1      43.817  28.410  29.903  1.00  0.00     0.049 A 
ATOM     51  H   UNL A   1      42.168  29.685  29.845  1.00  0.00     0.167 HD
ATOM     52  C   UNL A   1      38.518  32.073  29.970  1.00  0.00     0.031 A 
ATOM     53  C   UNL A   1      44.786  29.029  30.606  1.00  0.00     0.031 A 
ATOM     54  C   UNL A   1      39.470  32.773  30.797  1.00  0.00     0.049 A 
ATOM     55  C   UNL A   1      44.495  30.354  31.252  1.00  0.00     0.074 A 
ATOM     56  C   UNL A   1      39.295  33.966  31.480  1.00  0.00     0.029 A 
ATOM     57  N   UNL A   1      40.770  32.360  31.049  1.00  0.00    -0.354 N 
ATOM     58  N   UNL A   1      43.378  31.041  31.244  1.00  0.00    -0.248 NA
ATOM     59  C   UNL A   1      45.579  30.976  32.023  1.00  0.00     0.031 C 
ATOM     60  C   UNL A   1      40.505  34.306  32.088  1.00  0.00     0.029 A 
ATOM     61  C   UNL A   1      41.415  33.288  31.852  1.00  0.00     0.049 A 
ATOM     62  H   UNL A   1      41.176  31.531  30.706  1.00  0.00     0.167 HD
ATOM     63  C   UNL A   1      43.615  32.161  32.031  1.00  0.00     0.074 A 
ATOM     64  C   UNL A   1      44.978  32.056  32.508  1.00  0.00     0.031 C 
ATOM     65  C   UNL A   1      42.772  33.180  32.331  1.00  0.00     0.031 A 
BRANCH  52  66
ATOM     66  C   UNL A   1      37.155  32.693  29.803  1.00  0.00    -0.014 A 
ATOM     67  C   UNL A   1      36.864  33.465  28.662  1.00  0.00     0.010 A 
ATOM     68  C   UNL A   1      36.213  32.638  30.847  1.00  0.00     0.010 A 
ATOM     69  C   UNL A   1      35.674  34.196  28.584  1.00  0.00     0.020 A 
ATOM     70  C   UNL A   1      35.011  33.345  30.760  1.00  0.00     0.020 A 
ATOM     71  C   UNL A   1      34.760  34.140  29.640  1.00  0.00     0.054 A 
BRANCH  71  72
ATOM     72  S   UNL A   1      33.239  35.125  29.538  1.00  0.00     0.124 S 
ATOM     73  O   UNL A   1      32.666  34.947  30.868  1.00  0.00    -0.237 OA
ATOM     74  O   UNL A   1      33.746  36.463  29.242  1.00  0.00    -0.237 OA
ATOM     75  O   UNL A   1      32.498  34.495  28.447  1.00  0.00    -0.744 OA
ENDBRANCH  71  72
ENDBRANCH  52  66
BRANCH  53  76
ATOM     76  C   UNL A   1      46.090  28.336  30.794  1.00  0.00    -0.014 A 
ATOM     77  C   UNL A   1      47.157  28.574  29.906  1.00  0.00     0.010 A 
ATOM     78  C   UNL A   1      46.239  27.362  31.796  1.00  0.00     0.010 A 
ATOM     79  C   UNL A   1      48.326  27.813  29.982  1.00  0.00     0.020 A 
ATOM     80  C   UNL A   1      47.420  26.619  31.894  1.00  0.00     0.020 A 
ATOM     81  C   UNL A   1      48.443  26.829  30.967  1.00  0.00     0.054 A 
BRANCH  81  82
ATOM     82  S   UNL A   1      49.946  25.814  31.010  1.00  0.00     0.124 S 
ATOM     83  O   UNL A   1      49.853  25.089  29.747  1.00  0.00    -0.237 OA
ATOM     84  O   UNL A   1      51.006  26.816  31.084  1.00  0.00    -0.237 OA
ATOM     85  O   UNL A   1      49.775  25.002  32.212  1.00  0.00    -0.744 OA
ENDBRANCH  81  82
ENDBRANCH  53  76
BRANCH  65  86
ATOM     86  C   UNL A   1      43.271  34.282  33.230  1.00  0.00    -0.014 A 
ATOM     87  C   UNL A   1      42.866  34.313  34.579  1.00  0.00     0.010 A 
ATOM     88  C   UNL A   1      44.015  35.358  32.716  1.00  0.00     0.010 A 
ATOM     89  C   UNL A   1      43.158  35.417  35.385  1.00  0.00     0.020 A 
ATOM     90  C   UNL A   1      44.335  36.451  33.528  1.00  0.00     0.020 A 
ATOM     91  C   UNL A   1      43.880  36.486  34.848  1.00  0.00     0.054 A 
BRANCH  91  92
ATOM     92  S   UNL A   1      44.208  37.932  35.895  1.00  0.00     0.124 S 
ATOM     93  O   UNL A   1      43.307  37.708  37.021  1.00  0.00    -0.237 OA
ATOM     94  O   UNL A   1      45.633  37.798  36.191  1.00  0.00    -0.237 OA
ATOM     95  O   UNL A   1      43.863  39.062  35.034  1.00  0.00    -0.744 OA
ENDBRANCH  91  92
ENDBRANCH  65  86
ENDBRANCH  39  40
ENDBRANCH  32  34
ENDBRANCH  31  32
ENDBRANCH  30  31
ENDBRANCH  29  30
ENDBRANCH  28  29
ENDBRANCH   1  28
TORSDOF 22
ENDMDL
