MODEL 1
REMARK VINA RESULT:     -10.1      0.000      0.000
REMARK SMILES C[C@@](CC(=O)N[C@@H]1CCS(=O)(=O)C1)(C(=O)OCCOCCOCCOC(=O)c1ccc(-c2c3nc(c(-c4ccc(S(=O)(=O)[O-])cc4)c4ccc([nH]4)c(-c4ccc(S(=O)(=O)[O-])cc4)c4nc(c(-c5ccc(S(=O)(=O)[O-])cc5)c5ccc2[nH]5)C=C4)C=C3)cc1)c1ccccc1
REMARK SMILES IDX 20 1 19 2 18 3 17 4 16 5 14 6 15 7 2 8 1 9 3 10 4 11 5 12
REMARK SMILES IDX 6 13 7 15 8 16 13 17 9 18 10 19 11 20 12 21 88 22 89 23
REMARK SMILES IDX 93 24 90 25 92 26 91 27 21 28 22 29 23 30 24 31 25 32 26 33
REMARK SMILES IDX 27 34 28 35 29 36 87 37 30 38 86 39 31 40 32 41 33 42 80 43
REMARK SMILES IDX 34 44 85 45 79 46 81 47 35 48 84 49 78 50 77 51 36 53 66 54
REMARK SMILES IDX 47 55 65 56 48 57 51 58 64 59 82 60 49 61 50 62 63 64 83 65
REMARK SMILES IDX 52 66 37 67 38 68 46 69 39 70 45 71 40 72 41 73 42 74 43 75
REMARK SMILES IDX 44 76 67 77 68 78 76 79 69 80 75 81 70 82 71 83 72 84 73 85
REMARK SMILES IDX 74 86 53 87 54 88 62 89 55 90 61 91 56 92 57 93 58 94 59 95
REMARK SMILES IDX 60 96
REMARK H PARENT 6 14 81 52 51 63
REMARK Flexibility Score: inf
ROOT
ATOM      1  C   UNL A   1      39.584  22.279  26.560  1.00  0.00     0.188 C 
ENDROOT
BRANCH   1   2
ATOM      2  O   UNL A   1      38.353  22.312  25.863  1.00  0.00    -0.376 OA
BRANCH   2   3
ATOM      3  C   UNL A   1      37.683  23.569  25.820  1.00  0.00     0.202 C 
BRANCH   3   4
ATOM      4  C   UNL A   1      36.146  23.548  25.772  1.00  0.00     0.261 C 
BRANCH   4   5
ATOM      5  O   UNL A   1      35.569  22.230  25.685  1.00  0.00    -0.463 OA
BRANCH   5   6
ATOM      6  C   UNL A   1      34.674  22.020  24.668  1.00  0.00     0.316 C 
ATOM      7  O   UNL A   1      34.828  22.423  23.522  1.00  0.00    -0.251 OA
BRANCH   6   8
ATOM      8  C   UNL A   1      33.416  21.248  25.152  1.00  0.00     0.099 C 
ATOM      9  C   UNL A   1      33.427  20.984  26.674  1.00  0.00     0.029 C 
BRANCH   8  10
ATOM     10  C   UNL A   1      32.250  22.167  24.721  1.00  0.00     0.123 C 
BRANCH  10  11
ATOM     11  C   UNL A   1      32.238  23.505  25.425  1.00  0.00     0.221 C 
ATOM     12  O   UNL A   1      31.944  23.578  26.622  1.00  0.00    -0.275 OA
ATOM     13  N   UNL A   1      32.569  24.668  24.807  1.00  0.00    -0.352 N 
ATOM     14  H   UNL A   1      32.690  25.405  25.449  1.00  0.00     0.163 HD
BRANCH  13  15
ATOM     15  C   UNL A   1      32.792  25.104  23.419  1.00  0.00     0.098 C 
ATOM     16  C   UNL A   1      33.487  26.455  23.215  1.00  0.00     0.042 C 
ATOM     17  C   UNL A   1      31.443  25.284  22.709  1.00  0.00     0.161 C 
ATOM     18  C   UNL A   1      32.515  27.509  23.722  1.00  0.00     0.139 C 
ATOM     19  S   UNL A   1      30.924  26.940  23.140  1.00  0.00     0.152 S 
ATOM     20  O   UNL A   1      30.010  26.869  24.255  1.00  0.00    -0.229 OA
ATOM     21  O   UNL A   1      30.597  27.649  21.917  1.00  0.00    -0.229 OA
ENDBRANCH  13  15
ENDBRANCH  10  11
ENDBRANCH   8  10
BRANCH   8  22
ATOM     22  C   UNL A   1      33.323  19.804  24.572  1.00  0.00    -0.030 A 
ATOM     23  C   UNL A   1      34.347  18.858  24.774  1.00  0.00     0.005 A 
ATOM     24  C   UNL A   1      32.341  19.481  23.614  1.00  0.00     0.005 A 
ATOM     25  C   UNL A   1      34.431  17.694  24.000  1.00  0.00     0.000 A 
ATOM     26  C   UNL A   1      32.431  18.322  22.837  1.00  0.00     0.000 A 
ATOM     27  C   UNL A   1      33.489  17.440  23.011  1.00  0.00     0.000 A 
ENDBRANCH   8  22
ENDBRANCH   6   8
ENDBRANCH   5   6
ENDBRANCH   4   5
ENDBRANCH   3   4
ENDBRANCH   2   3
ENDBRANCH   1   2
BRANCH   1  28
ATOM     28  C   UNL A   1      40.555  21.166  26.198  1.00  0.00     0.188 C 
BRANCH  28  29
ATOM     29  O   UNL A   1      41.773  21.084  26.913  1.00  0.00    -0.376 OA
BRANCH  29  30
ATOM     30  C   UNL A   1      42.938  21.434  26.153  1.00  0.00     0.202 C 
BRANCH  30  31
ATOM     31  C   UNL A   1      43.054  22.897  25.653  1.00  0.00     0.261 C 
BRANCH  31  32
ATOM     32  O   UNL A   1      42.711  23.970  26.572  1.00  0.00    -0.460 OA
BRANCH  32  33
ATOM     33  C   UNL A   1      42.437  25.208  26.089  1.00  0.00     0.338 C 
ATOM     34  O   UNL A   1      42.355  25.503  24.909  1.00  0.00    -0.246 OA
BRANCH  33  35
ATOM     35  C   UNL A   1      41.969  26.096  27.209  1.00  0.00     0.060 A 
ATOM     36  C   UNL A   1      42.524  27.384  27.320  1.00  0.00     0.016 A 
ATOM     37  C   UNL A   1      40.961  25.722  28.106  1.00  0.00     0.016 A 
ATOM     38  C   UNL A   1      42.132  28.257  28.350  1.00  0.00     0.010 A 
ATOM     39  C   UNL A   1      40.580  26.591  29.147  1.00  0.00     0.010 A 
ATOM     40  C   UNL A   1      41.193  27.848  29.307  1.00  0.00    -0.014 A 
BRANCH  40  41
ATOM     41  C   UNL A   1      41.034  28.596  30.593  1.00  0.00     0.031 A 
ATOM     42  C   UNL A   1      39.930  29.622  30.677  1.00  0.00     0.074 A 
ATOM     43  C   UNL A   1      41.825  28.408  31.669  1.00  0.00     0.049 A 
ATOM     44  N   UNL A   1      39.654  30.477  31.630  1.00  0.00    -0.248 NA
ATOM     45  C   UNL A   1      39.030  29.702  29.517  1.00  0.00     0.031 C 
ATOM     46  C   UNL A   1      42.906  27.435  31.763  1.00  0.00     0.029 A 
ATOM     47  N   UNL A   1      41.837  29.041  32.894  1.00  0.00    -0.354 N 
ATOM     48  C   UNL A   1      38.573  31.220  31.168  1.00  0.00     0.074 A 
ATOM     49  C   UNL A   1      38.250  30.719  29.848  1.00  0.00     0.031 C 
ATOM     50  C   UNL A   1      43.465  27.517  32.986  1.00  0.00     0.029 A 
ATOM     51  C   UNL A   1      42.830  28.600  33.741  1.00  0.00     0.049 A 
ATOM     52  H   UNL A   1      41.194  29.744  33.141  1.00  0.00     0.167 HD
ATOM     53  C   UNL A   1      37.912  32.237  31.772  1.00  0.00     0.031 A 
ATOM     54  C   UNL A   1      43.211  29.037  34.962  1.00  0.00     0.031 A 
ATOM     55  C   UNL A   1      38.238  32.760  33.072  1.00  0.00     0.049 A 
ATOM     56  C   UNL A   1      42.506  30.217  35.593  1.00  0.00     0.074 A 
ATOM     57  C   UNL A   1      37.622  33.792  33.760  1.00  0.00     0.029 A 
ATOM     58  N   UNL A   1      39.270  32.305  33.877  1.00  0.00    -0.354 N 
ATOM     59  N   UNL A   1      41.490  30.912  35.141  1.00  0.00    -0.248 NA
ATOM     60  C   UNL A   1      43.011  30.681  36.897  1.00  0.00     0.031 C 
ATOM     61  C   UNL A   1      38.323  34.004  34.951  1.00  0.00     0.029 A 
ATOM     62  C   UNL A   1      39.325  33.051  35.043  1.00  0.00     0.049 A 
ATOM     63  H   UNL A   1      39.876  31.562  33.653  1.00  0.00     0.167 HD
ATOM     64  C   UNL A   1      41.219  31.873  36.113  1.00  0.00     0.074 A 
ATOM     65  C   UNL A   1      42.168  31.664  37.185  1.00  0.00     0.031 C 
ATOM     66  C   UNL A   1      40.265  32.838  36.116  1.00  0.00     0.031 A 
BRANCH  53  67
ATOM     67  C   UNL A   1      36.803  32.896  30.993  1.00  0.00    -0.014 A 
ATOM     68  C   UNL A   1      37.073  33.826  29.972  1.00  0.00     0.010 A 
ATOM     69  C   UNL A   1      35.466  32.570  31.285  1.00  0.00     0.010 A 
ATOM     70  C   UNL A   1      36.024  34.460  29.300  1.00  0.00     0.020 A 
ATOM     71  C   UNL A   1      34.416  33.174  30.591  1.00  0.00     0.020 A 
ATOM     72  C   UNL A   1      34.703  34.134  29.619  1.00  0.00     0.054 A 
BRANCH  72  73
ATOM     73  S   UNL A   1      33.363  34.977  28.734  1.00  0.00     0.124 S 
ATOM     74  O   UNL A   1      32.549  35.484  29.838  1.00  0.00    -0.237 OA
ATOM     75  O   UNL A   1      34.077  35.992  27.964  1.00  0.00    -0.237 OA
ATOM     76  O   UNL A   1      32.746  33.916  27.943  1.00  0.00    -0.744 OA
ENDBRANCH  72  73
ENDBRANCH  53  67
BRANCH  54  77
ATOM     77  C   UNL A   1      44.357  28.388  35.669  1.00  0.00    -0.014 A 
ATOM     78  C   UNL A   1      44.142  27.319  36.560  1.00  0.00     0.010 A 
ATOM     79  C   UNL A   1      45.672  28.844  35.465  1.00  0.00     0.010 A 
ATOM     80  C   UNL A   1      45.218  26.723  37.231  1.00  0.00     0.020 A 
ATOM     81  C   UNL A   1      46.752  28.230  36.107  1.00  0.00     0.020 A 
ATOM     82  C   UNL A   1      46.518  27.176  36.991  1.00  0.00     0.054 A 
BRANCH  82  83
ATOM     83  S   UNL A   1      47.903  26.339  37.812  1.00  0.00     0.124 S 
ATOM     84  O   UNL A   1      47.388  26.151  39.164  1.00  0.00    -0.237 OA
ATOM     85  O   UNL A   1      48.051  25.124  37.015  1.00  0.00    -0.237 OA
ATOM     86  O   UNL A   1      49.002  27.295  37.688  1.00  0.00    -0.744 OA
ENDBRANCH  82  83
ENDBRANCH  54  77
BRANCH  66  87
ATOM     87  C   UNL A   1      40.142  33.719  37.335  1.00  0.00    -0.014 A 
ATOM     88  C   UNL A   1      40.917  34.883  37.492  1.00  0.00     0.010 A 
ATOM     89  C   UNL A   1      39.165  33.418  38.304  1.00  0.00     0.010 A 
ATOM     90  C   UNL A   1      40.732  35.713  38.605  1.00  0.00     0.020 A 
ATOM     91  C   UNL A   1      38.957  34.259  39.400  1.00  0.00     0.020 A 
ATOM     92  C   UNL A   1      39.749  35.398  39.550  1.00  0.00     0.054 A 
BRANCH  92  93
ATOM     93  S   UNL A   1      39.489  36.521  40.952  1.00  0.00     0.124 S 
ATOM     94  O   UNL A   1      38.505  37.456  40.417  1.00  0.00    -0.237 OA
ATOM     95  O   UNL A   1      39.002  35.621  41.995  1.00  0.00    -0.237 OA
ATOM     96  O   UNL A   1      40.815  37.084  41.196  1.00  0.00    -0.744 OA
ENDBRANCH  92  93
ENDBRANCH  66  87
ENDBRANCH  40  41
ENDBRANCH  33  35
ENDBRANCH  32  33
ENDBRANCH  31  32
ENDBRANCH  30  31
ENDBRANCH  29  30
ENDBRANCH  28  29
ENDBRANCH   1  28
TORSDOF 24
ENDMDL
MODEL 2
REMARK VINA RESULT:      -9.6      5.704     11.200
REMARK SMILES C[C@@](CC(=O)N[C@@H]1CCS(=O)(=O)C1)(C(=O)OCCOCCOCCOC(=O)c1ccc(-c2c3nc(c(-c4ccc(S(=O)(=O)[O-])cc4)c4ccc([nH]4)c(-c4ccc(S(=O)(=O)[O-])cc4)c4nc(c(-c5ccc(S(=O)(=O)[O-])cc5)c5ccc2[nH]5)C=C4)C=C3)cc1)c1ccccc1
REMARK SMILES IDX 20 1 19 2 18 3 17 4 16 5 14 6 15 7 2 8 1 9 3 10 4 11 5 12
REMARK SMILES IDX 6 13 7 15 8 16 13 17 9 18 10 19 11 20 12 21 88 22 89 23
REMARK SMILES IDX 93 24 90 25 92 26 91 27 21 28 22 29 23 30 24 31 25 32 26 33
REMARK SMILES IDX 27 34 28 35 29 36 87 37 30 38 86 39 31 40 32 41 33 42 80 43
REMARK SMILES IDX 34 44 85 45 79 46 81 47 35 48 84 49 78 50 77 51 36 53 66 54
REMARK SMILES IDX 47 55 65 56 48 57 51 58 64 59 82 60 49 61 50 62 63 64 83 65
REMARK SMILES IDX 52 66 37 67 38 68 46 69 39 70 45 71 40 72 41 73 42 74 43 75
REMARK SMILES IDX 44 76 67 77 68 78 76 79 69 80 75 81 70 82 71 83 72 84 73 85
REMARK SMILES IDX 74 86 53 87 54 88 62 89 55 90 61 91 56 92 57 93 58 94 59 95
REMARK SMILES IDX 60 96
REMARK H PARENT 6 14 81 52 51 63
REMARK Flexibility Score: inf
ROOT
ATOM      1  C   UNL A   1      34.440  31.485  27.779  1.00  0.00     0.188 C 
ENDROOT
BRANCH   1   2
ATOM      2  O   UNL A   1      33.438  30.751  27.099  1.00  0.00    -0.376 OA
BRANCH   2   3
ATOM      3  C   UNL A   1      33.687  29.359  26.916  1.00  0.00     0.202 C 
BRANCH   3   4
ATOM      4  C   UNL A   1      33.550  28.800  25.491  1.00  0.00     0.261 C 
BRANCH   4   5
ATOM      5  O   UNL A   1      32.264  28.221  25.197  1.00  0.00    -0.463 OA
BRANCH   5   6
ATOM      6  C   UNL A   1      32.245  27.208  24.272  1.00  0.00     0.316 C 
ATOM      7  O   UNL A   1      32.960  27.171  23.279  1.00  0.00    -0.251 OA
BRANCH   6   8
ATOM      8  C   UNL A   1      31.176  26.133  24.611  1.00  0.00     0.099 C 
ATOM      9  C   UNL A   1      30.432  26.426  25.933  1.00  0.00     0.029 C 
BRANCH   8  10
ATOM     10  C   UNL A   1      30.236  26.172  23.384  1.00  0.00     0.123 C 
BRANCH  10  11
ATOM     11  C   UNL A   1      28.922  26.873  23.648  1.00  0.00     0.221 C 
ATOM     12  O   UNL A   1      28.023  26.302  24.271  1.00  0.00    -0.275 OA
ATOM     13  N   UNL A   1      28.672  28.147  23.250  1.00  0.00    -0.352 N 
ATOM     14  H   UNL A   1      27.854  28.508  23.662  1.00  0.00     0.163 HD
BRANCH  13  15
ATOM     15  C   UNL A   1      29.318  29.125  22.359  1.00  0.00     0.098 C 
ATOM     16  C   UNL A   1      30.337  30.079  22.992  1.00  0.00     0.042 C 
ATOM     17  C   UNL A   1      28.259  30.069  21.772  1.00  0.00     0.161 C 
ATOM     18  C   UNL A   1      29.546  30.981  23.926  1.00  0.00     0.139 C 
ATOM     19  S   UNL A   1      28.054  31.342  23.010  1.00  0.00     0.152 S 
ATOM     20  O   UNL A   1      26.908  31.020  23.827  1.00  0.00    -0.229 OA
ATOM     21  O   UNL A   1      28.206  32.634  22.367  1.00  0.00    -0.229 OA
ENDBRANCH  13  15
ENDBRANCH  10  11
ENDBRANCH   8  10
BRANCH   8  22
ATOM     22  C   UNL A   1      31.788  24.726  24.887  1.00  0.00    -0.030 A 
ATOM     23  C   UNL A   1      31.111  23.543  24.532  1.00  0.00     0.005 A 
ATOM     24  C   UNL A   1      32.908  24.587  25.731  1.00  0.00     0.005 A 
ATOM     25  C   UNL A   1      31.483  22.300  25.060  1.00  0.00     0.000 A 
ATOM     26  C   UNL A   1      33.273  23.347  26.263  1.00  0.00     0.000 A 
ATOM     27  C   UNL A   1      32.547  22.206  25.949  1.00  0.00     0.000 A 
ENDBRANCH   8  22
ENDBRANCH   6   8
ENDBRANCH   5   6
ENDBRANCH   4   5
ENDBRANCH   3   4
ENDBRANCH   2   3
ENDBRANCH   1   2
BRANCH   1  28
ATOM     28  C   UNL A   1      34.096  32.907  28.191  1.00  0.00     0.188 C 
BRANCH  28  29
ATOM     29  O   UNL A   1      35.158  33.824  28.378  1.00  0.00    -0.376 OA
BRANCH  29  30
ATOM     30  C   UNL A   1      35.297  34.314  29.718  1.00  0.00     0.202 C 
BRANCH  30  31
ATOM     31  C   UNL A   1      36.688  34.178  30.389  1.00  0.00     0.261 C 
BRANCH  31  32
ATOM     32  O   UNL A   1      36.855  33.184  31.437  1.00  0.00    -0.460 OA
BRANCH  32  33
ATOM     33  C   UNL A   1      36.493  31.897  31.206  1.00  0.00     0.338 C 
ATOM     34  O   UNL A   1      35.350  31.474  31.212  1.00  0.00    -0.246 OA
BRANCH  33  35
ATOM     35  C   UNL A   1      37.668  31.131  30.661  1.00  0.00     0.060 A 
ATOM     36  C   UNL A   1      38.470  30.406  31.560  1.00  0.00     0.016 A 
ATOM     37  C   UNL A   1      37.960  31.057  29.294  1.00  0.00     0.016 A 
ATOM     38  C   UNL A   1      39.586  29.677  31.113  1.00  0.00     0.010 A 
ATOM     39  C   UNL A   1      39.087  30.340  28.848  1.00  0.00     0.010 A 
ATOM     40  C   UNL A   1      39.936  29.681  29.756  1.00  0.00    -0.014 A 
BRANCH  40  41
ATOM     41  C   UNL A   1      41.293  29.230  29.314  1.00  0.00     0.031 A 
ATOM     42  C   UNL A   1      42.406  30.249  29.311  1.00  0.00     0.074 A 
ATOM     43  C   UNL A   1      41.567  27.973  28.912  1.00  0.00     0.049 A 
ATOM     44  N   UNL A   1      43.634  30.145  28.871  1.00  0.00    -0.248 NA
ATOM     45  C   UNL A   1      42.076  31.570  29.868  1.00  0.00     0.031 C 
ATOM     46  C   UNL A   1      40.618  26.866  28.890  1.00  0.00     0.029 A 
ATOM     47  N   UNL A   1      42.737  27.418  28.437  1.00  0.00    -0.354 N 
ATOM     48  C   UNL A   1      44.211  31.395  29.062  1.00  0.00     0.074 A 
ATOM     49  C   UNL A   1      43.196  32.242  29.651  1.00  0.00     0.031 C 
ATOM     50  C   UNL A   1      41.244  25.759  28.447  1.00  0.00     0.029 A 
ATOM     51  C   UNL A   1      42.624  26.092  28.083  1.00  0.00     0.049 A 
ATOM     52  H   UNL A   1      43.578  27.925  28.358  1.00  0.00     0.167 HD
ATOM     53  C   UNL A   1      45.465  31.814  28.765  1.00  0.00     0.031 A 
ATOM     54  C   UNL A   1      43.509  25.252  27.501  1.00  0.00     0.031 A 
ATOM     55  C   UNL A   1      46.476  30.990  28.156  1.00  0.00     0.049 A 
ATOM     56  C   UNL A   1      44.882  25.755  27.114  1.00  0.00     0.074 A 
ATOM     57  C   UNL A   1      47.774  31.335  27.817  1.00  0.00     0.029 A 
ATOM     58  N   UNL A   1      46.306  29.666  27.787  1.00  0.00    -0.354 N 
ATOM     59  N   UNL A   1      45.409  26.942  27.296  1.00  0.00    -0.248 NA
ATOM     60  C   UNL A   1      45.776  24.805  26.429  1.00  0.00     0.031 C 
ATOM     61  C   UNL A   1      48.366  30.240  27.183  1.00  0.00     0.029 A 
ATOM     62  C   UNL A   1      47.465  29.186  27.200  1.00  0.00     0.049 A 
ATOM     63  H   UNL A   1      45.483  29.143  27.920  1.00  0.00     0.167 HD
ATOM     64  C   UNL A   1      46.700  26.873  26.774  1.00  0.00     0.074 A 
ATOM     65  C   UNL A   1      46.880  25.525  26.279  1.00  0.00     0.031 C 
ATOM     66  C   UNL A   1      47.649  27.840  26.715  1.00  0.00     0.031 A 
BRANCH  53  67
ATOM     67  C   UNL A   1      45.789  33.261  29.037  1.00  0.00    -0.014 A 
ATOM     68  C   UNL A   1      46.332  33.676  30.267  1.00  0.00     0.010 A 
ATOM     69  C   UNL A   1      45.551  34.221  28.036  1.00  0.00     0.010 A 
ATOM     70  C   UNL A   1      46.575  35.030  30.510  1.00  0.00     0.020 A 
ATOM     71  C   UNL A   1      45.826  35.572  28.262  1.00  0.00     0.020 A 
ATOM     72  C   UNL A   1      46.314  35.970  29.508  1.00  0.00     0.054 A 
BRANCH  72  73
ATOM     73  S   UNL A   1      46.634  37.721  29.855  1.00  0.00     0.124 S 
ATOM     74  O   UNL A   1      47.343  38.139  28.648  1.00  0.00    -0.237 OA
ATOM     75  O   UNL A   1      45.288  38.266  30.012  1.00  0.00    -0.237 OA
ATOM     76  O   UNL A   1      47.440  37.693  31.072  1.00  0.00    -0.744 OA
ENDBRANCH  72  73
ENDBRANCH  53  67
BRANCH  54  77
ATOM     77  C   UNL A   1      43.119  23.841  27.197  1.00  0.00    -0.014 A 
ATOM     78  C   UNL A   1      42.705  23.469  25.905  1.00  0.00     0.010 A 
ATOM     79  C   UNL A   1      43.147  22.861  28.207  1.00  0.00     0.010 A 
ATOM     80  C   UNL A   1      42.328  22.149  25.628  1.00  0.00     0.020 A 
ATOM     81  C   UNL A   1      42.802  21.534  27.928  1.00  0.00     0.020 A 
ATOM     82  C   UNL A   1      42.389  21.187  26.641  1.00  0.00     0.054 A 
BRANCH  82  83
ATOM     83  S   UNL A   1      41.969  19.467  26.242  1.00  0.00     0.124 S 
ATOM     84  O   UNL A   1      42.412  18.759  27.439  1.00  0.00    -0.237 OA
ATOM     85  O   UNL A   1      40.523  19.536  26.045  1.00  0.00    -0.237 OA
ATOM     86  O   UNL A   1      42.743  19.198  25.033  1.00  0.00    -0.744 OA
ENDBRANCH  82  83
ENDBRANCH  54  77
BRANCH  66  87
ATOM     87  C   UNL A   1      49.002  27.482  26.150  1.00  0.00    -0.014 A 
ATOM     88  C   UNL A   1      50.125  27.294  26.976  1.00  0.00     0.010 A 
ATOM     89  C   UNL A   1      49.129  27.247  24.768  1.00  0.00     0.010 A 
ATOM     90  C   UNL A   1      51.351  26.899  26.426  1.00  0.00     0.020 A 
ATOM     91  C   UNL A   1      50.343  26.824  24.219  1.00  0.00     0.020 A 
ATOM     92  C   UNL A   1      51.451  26.662  25.051  1.00  0.00     0.054 A 
BRANCH  92  93
ATOM     93  S   UNL A   1      53.036  26.095  24.371  1.00  0.00     0.124 S 
ATOM     94  O   UNL A   1      52.884  26.395  22.951  1.00  0.00    -0.237 OA
ATOM     95  O   UNL A   1      54.004  26.920  25.089  1.00  0.00    -0.237 OA
ATOM     96  O   UNL A   1      53.069  24.673  24.707  1.00  0.00    -0.744 OA
ENDBRANCH  92  93
ENDBRANCH  66  87
ENDBRANCH  40  41
ENDBRANCH  33  35
ENDBRANCH  32  33
ENDBRANCH  31  32
ENDBRANCH  30  31
ENDBRANCH  29  30
ENDBRANCH  28  29
ENDBRANCH   1  28
TORSDOF 24
ENDMDL
MODEL 3
REMARK VINA RESULT:      -9.6      5.959     11.786
REMARK SMILES C[C@@](CC(=O)N[C@@H]1CCS(=O)(=O)C1)(C(=O)OCCOCCOCCOC(=O)c1ccc(-c2c3nc(c(-c4ccc(S(=O)(=O)[O-])cc4)c4ccc([nH]4)c(-c4ccc(S(=O)(=O)[O-])cc4)c4nc(c(-c5ccc(S(=O)(=O)[O-])cc5)c5ccc2[nH]5)C=C4)C=C3)cc1)c1ccccc1
REMARK SMILES IDX 20 1 19 2 18 3 17 4 16 5 14 6 15 7 2 8 1 9 3 10 4 11 5 12
REMARK SMILES IDX 6 13 7 15 8 16 13 17 9 18 10 19 11 20 12 21 88 22 89 23
REMARK SMILES IDX 93 24 90 25 92 26 91 27 21 28 22 29 23 30 24 31 25 32 26 33
REMARK SMILES IDX 27 34 28 35 29 36 87 37 30 38 86 39 31 40 32 41 33 42 80 43
REMARK SMILES IDX 34 44 85 45 79 46 81 47 35 48 84 49 78 50 77 51 36 53 66 54
REMARK SMILES IDX 47 55 65 56 48 57 51 58 64 59 82 60 49 61 50 62 63 64 83 65
REMARK SMILES IDX 52 66 37 67 38 68 46 69 39 70 45 71 40 72 41 73 42 74 43 75
REMARK SMILES IDX 44 76 67 77 68 78 76 79 69 80 75 81 70 82 71 83 72 84 73 85
REMARK SMILES IDX 74 86 53 87 54 88 62 89 55 90 61 91 56 92 57 93 58 94 59 95
REMARK SMILES IDX 60 96
REMARK H PARENT 6 14 81 52 51 63
REMARK Flexibility Score: inf
ROOT
ATOM      1  C   UNL A   1      33.773  30.591  26.596  1.00  0.00     0.188 C 
ENDROOT
BRANCH   1   2
ATOM      2  O   UNL A   1      32.495  30.203  26.124  1.00  0.00    -0.376 OA
BRANCH   2   3
ATOM      3  C   UNL A   1      31.785  29.260  26.923  1.00  0.00     0.202 C 
BRANCH   3   4
ATOM      4  C   UNL A   1      32.391  27.853  27.059  1.00  0.00     0.261 C 
BRANCH   4   5
ATOM      5  O   UNL A   1      32.512  27.132  25.817  1.00  0.00    -0.463 OA
BRANCH   5   6
ATOM      6  C   UNL A   1      31.344  26.686  25.252  1.00  0.00     0.316 C 
ATOM      7  O   UNL A   1      30.559  25.928  25.807  1.00  0.00    -0.251 OA
BRANCH   6   8
ATOM      8  C   UNL A   1      31.157  27.220  23.807  1.00  0.00     0.099 C 
ATOM      9  C   UNL A   1      32.347  28.083  23.330  1.00  0.00     0.029 C 
BRANCH   8  10
ATOM     10  C   UNL A   1      30.994  25.929  22.971  1.00  0.00     0.123 C 
BRANCH  10  11
ATOM     11  C   UNL A   1      32.262  25.493  22.273  1.00  0.00     0.221 C 
ATOM     12  O   UNL A   1      32.546  25.937  21.157  1.00  0.00    -0.275 OA
ATOM     13  N   UNL A   1      33.154  24.633  22.830  1.00  0.00    -0.352 N 
ATOM     14  H   UNL A   1      34.001  24.606  22.330  1.00  0.00     0.163 HD
BRANCH  13  15
ATOM     15  C   UNL A   1      33.172  23.733  23.995  1.00  0.00     0.098 C 
ATOM     16  C   UNL A   1      33.938  24.210  25.234  1.00  0.00     0.042 C 
ATOM     17  C   UNL A   1      33.874  22.419  23.623  1.00  0.00     0.161 C 
ATOM     18  C   UNL A   1      35.405  24.239  24.838  1.00  0.00     0.139 C 
ATOM     19  S   UNL A   1      35.614  22.755  23.864  1.00  0.00     0.152 S 
ATOM     20  O   UNL A   1      36.203  23.103  22.592  1.00  0.00    -0.229 OA
ATOM     21  O   UNL A   1      36.167  21.716  24.713  1.00  0.00    -0.229 OA
ENDBRANCH  13  15
ENDBRANCH  10  11
ENDBRANCH   8  10
BRANCH   8  22
ATOM     22  C   UNL A   1      29.961  28.211  23.668  1.00  0.00    -0.030 A 
ATOM     23  C   UNL A   1      28.652  27.758  23.414  1.00  0.00     0.005 A 
ATOM     24  C   UNL A   1      30.193  29.594  23.532  1.00  0.00     0.005 A 
ATOM     25  C   UNL A   1      27.651  28.630  22.966  1.00  0.00     0.000 A 
ATOM     26  C   UNL A   1      29.194  30.460  23.078  1.00  0.00     0.000 A 
ATOM     27  C   UNL A   1      27.930  29.976  22.770  1.00  0.00     0.000 A 
ENDBRANCH   8  22
ENDBRANCH   6   8
ENDBRANCH   5   6
ENDBRANCH   4   5
ENDBRANCH   3   4
ENDBRANCH   2   3
ENDBRANCH   1   2
BRANCH   1  28
ATOM     28  C   UNL A   1      33.817  31.403  27.881  1.00  0.00     0.188 C 
BRANCH  28  29
ATOM     29  O   UNL A   1      34.551  32.612  27.880  1.00  0.00    -0.376 OA
BRANCH  29  30
ATOM     30  C   UNL A   1      34.962  33.064  29.177  1.00  0.00     0.202 C 
BRANCH  30  31
ATOM     31  C   UNL A   1      36.331  32.567  29.709  1.00  0.00     0.261 C 
BRANCH  31  32
ATOM     32  O   UNL A   1      36.341  31.524  30.722  1.00  0.00    -0.460 OA
BRANCH  32  33
ATOM     33  C   UNL A   1      36.553  30.235  30.357  1.00  0.00     0.338 C 
ATOM     34  O   UNL A   1      35.681  29.413  30.130  1.00  0.00    -0.246 OA
BRANCH  33  35
ATOM     35  C   UNL A   1      38.000  30.043  29.994  1.00  0.00     0.060 A 
ATOM     36  C   UNL A   1      38.336  29.892  28.636  1.00  0.00     0.016 A 
ATOM     37  C   UNL A   1      39.032  30.071  30.939  1.00  0.00     0.016 A 
ATOM     38  C   UNL A   1      39.670  29.701  28.235  1.00  0.00     0.010 A 
ATOM     39  C   UNL A   1      40.367  29.865  30.539  1.00  0.00     0.010 A 
ATOM     40  C   UNL A   1      40.694  29.633  29.190  1.00  0.00    -0.014 A 
BRANCH  40  41
ATOM     41  C   UNL A   1      42.037  29.078  28.834  1.00  0.00     0.031 A 
ATOM     42  C   UNL A   1      43.217  30.020  28.862  1.00  0.00     0.074 A 
ATOM     43  C   UNL A   1      42.245  27.792  28.485  1.00  0.00     0.049 A 
ATOM     44  N   UNL A   1      44.456  29.818  28.492  1.00  0.00    -0.248 NA
ATOM     45  C   UNL A   1      42.950  31.377  29.361  1.00  0.00     0.031 C 
ATOM     46  C   UNL A   1      41.224  26.752  28.444  1.00  0.00     0.029 A 
ATOM     47  N   UNL A   1      43.397  27.145  28.090  1.00  0.00    -0.354 N 
ATOM     48  C   UNL A   1      45.107  31.033  28.678  1.00  0.00     0.074 A 
ATOM     49  C   UNL A   1      44.123  31.965  29.186  1.00  0.00     0.031 C 
ATOM     50  C   UNL A   1      41.795  25.592  28.068  1.00  0.00     0.029 A 
ATOM     51  C   UNL A   1      43.211  25.819  27.769  1.00  0.00     0.049 A 
ATOM     52  H   UNL A   1      44.273  27.592  28.042  1.00  0.00     0.167 HD
ATOM     53  C   UNL A   1      46.401  31.357  28.436  1.00  0.00     0.031 A 
ATOM     54  C   UNL A   1      44.065  24.903  27.261  1.00  0.00     0.031 A 
ATOM     55  C   UNL A   1      47.382  30.447  27.908  1.00  0.00     0.049 A 
ATOM     56  C   UNL A   1      45.488  25.300  26.934  1.00  0.00     0.074 A 
ATOM     57  C   UNL A   1      48.717  30.693  27.629  1.00  0.00     0.029 A 
ATOM     58  N   UNL A   1      47.141  29.126  27.569  1.00  0.00    -0.354 N 
ATOM     59  N   UNL A   1      46.086  26.454  27.110  1.00  0.00    -0.248 NA
ATOM     60  C   UNL A   1      46.349  24.270  26.326  1.00  0.00     0.031 C 
ATOM     61  C   UNL A   1      49.264  29.540  27.060  1.00  0.00     0.029 A 
ATOM     62  C   UNL A   1      48.293  28.550  27.060  1.00  0.00     0.049 A 
ATOM     63  H   UNL A   1      46.278  28.664  27.672  1.00  0.00     0.167 HD
ATOM     64  C   UNL A   1      47.394  26.281  26.660  1.00  0.00     0.074 A 
ATOM     65  C   UNL A   1      47.506  24.909  26.215  1.00  0.00     0.031 C 
ATOM     66  C   UNL A   1      48.409  27.180  26.624  1.00  0.00     0.031 A 
BRANCH  53  67
ATOM     67  C   UNL A   1      46.809  32.787  28.683  1.00  0.00    -0.014 A 
ATOM     68  C   UNL A   1      47.175  33.237  29.965  1.00  0.00     0.010 A 
ATOM     69  C   UNL A   1      46.832  33.693  27.607  1.00  0.00     0.010 A 
ATOM     70  C   UNL A   1      47.500  34.580  30.174  1.00  0.00     0.020 A 
ATOM     71  C   UNL A   1      47.191  35.028  27.806  1.00  0.00     0.020 A 
ATOM     72  C   UNL A   1      47.499  35.468  29.095  1.00  0.00     0.054 A 
BRANCH  72  73
ATOM     73  S   UNL A   1      47.919  37.205  29.398  1.00  0.00     0.124 S 
ATOM     74  O   UNL A   1      46.898  37.900  28.616  1.00  0.00    -0.237 OA
ATOM     75  O   UNL A   1      47.785  37.318  30.848  1.00  0.00    -0.237 OA
ATOM     76  O   UNL A   1      49.282  37.328  28.888  1.00  0.00    -0.744 OA
ENDBRANCH  72  73
ENDBRANCH  53  67
BRANCH  54  77
ATOM     77  C   UNL A   1      43.595  23.512  26.977  1.00  0.00    -0.014 A 
ATOM     78  C   UNL A   1      43.808  22.921  25.718  1.00  0.00     0.010 A 
ATOM     79  C   UNL A   1      42.918  22.774  27.966  1.00  0.00     0.010 A 
ATOM     80  C   UNL A   1      43.354  21.623  25.453  1.00  0.00     0.020 A 
ATOM     81  C   UNL A   1      42.492  21.465  27.717  1.00  0.00     0.020 A 
ATOM     82  C   UNL A   1      42.707  20.899  26.459  1.00  0.00     0.054 A 
BRANCH  82  83
ATOM     83  S   UNL A   1      42.195  19.192  26.119  1.00  0.00     0.124 S 
ATOM     84  O   UNL A   1      42.780  18.953  24.804  1.00  0.00    -0.237 OA
ATOM     85  O   UNL A   1      42.803  18.456  27.226  1.00  0.00    -0.237 OA
ATOM     86  O   UNL A   1      40.736  19.260  26.153  1.00  0.00    -0.744 OA
ENDBRANCH  82  83
ENDBRANCH  54  77
BRANCH  66  87
ATOM     87  C   UNL A   1      49.762  26.713  26.144  1.00  0.00    -0.014 A 
ATOM     88  C   UNL A   1      50.290  27.117  24.905  1.00  0.00     0.010 A 
ATOM     89  C   UNL A   1      50.556  25.920  26.995  1.00  0.00     0.010 A 
ATOM     90  C   UNL A   1      51.576  26.719  24.518  1.00  0.00     0.020 A 
ATOM     91  C   UNL A   1      51.851  25.545  26.625  1.00  0.00     0.020 A 
ATOM     92  C   UNL A   1      52.350  25.938  25.383  1.00  0.00     0.054 A 
BRANCH  92  93
ATOM     93  S   UNL A   1      54.034  25.483  24.883  1.00  0.00     0.124 S 
ATOM     94  O   UNL A   1      54.849  26.235  25.833  1.00  0.00    -0.237 OA
ATOM     95  O   UNL A   1      54.039  24.033  25.061  1.00  0.00    -0.237 OA
ATOM     96  O   UNL A   1      54.119  25.934  23.496  1.00  0.00    -0.744 OA
ENDBRANCH  92  93
ENDBRANCH  66  87
ENDBRANCH  40  41
ENDBRANCH  33  35
ENDBRANCH  32  33
ENDBRANCH  31  32
ENDBRANCH  30  31
ENDBRANCH  29  30
ENDBRANCH  28  29
ENDBRANCH   1  28
TORSDOF 24
ENDMDL
