MODEL 1
REMARK VINA RESULT:     -10.8      0.000      0.000
REMARK SMILES COc1ccc2c(c1)c(CC(=O)OCCOCCOCCOC(=O)c1ccc(-c3c4nc(c(-c5ccc(S(=O)(=O)[O-])cc5)c5ccc([nH]5)c(-c5ccc(S(=O)(=O)[O-])cc5)c5nc(c(-c6ccc(S(=O)(=O)[O-])cc6)c6ccc3[nH]6)C=C5)C=C4)cc1)c(C)n2C(=O)c1ccc(Cl)cc1
REMARK SMILES IDX 17 1 16 2 15 3 14 4 13 5 11 6 12 7 10 8 9 9 3 10 4 11 8 12
REMARK SMILES IDX 5 13 7 14 6 15 87 16 85 17 86 18 2 19 1 20 88 21 89 22 90 23
REMARK SMILES IDX 91 24 96 25 92 26 95 27 93 28 94 29 18 30 19 31 20 32 21 33
REMARK SMILES IDX 22 34 23 35 24 36 25 37 26 38 84 39 27 40 83 41 28 42 29 43
REMARK SMILES IDX 30 44 77 45 31 46 82 47 76 48 78 49 32 50 81 51 75 52 74 53
REMARK SMILES IDX 33 55 63 56 44 57 62 58 45 59 48 60 61 61 79 62 46 63 47 64
REMARK SMILES IDX 60 66 80 67 49 68 34 69 35 70 43 71 36 72 42 73 37 74 38 75
REMARK SMILES IDX 39 76 40 77 41 78 64 79 65 80 73 81 66 82 72 83 67 84 68 85
REMARK SMILES IDX 69 86 70 87 71 88 50 89 51 90 59 91 52 92 58 93 53 94 54 95
REMARK SMILES IDX 55 96 56 97 57 98
REMARK H PARENT 78 54 48 65
REMARK Flexibility Score: inf
ROOT
ATOM      1  C   UNL A   1      40.668  21.585  27.369  1.00  0.00     0.188 C 
ENDROOT
BRANCH   1   2
ATOM      2  O   UNL A   1      39.633  21.984  26.502  1.00  0.00    -0.376 OA
BRANCH   2   3
ATOM      3  C   UNL A   1      39.035  20.955  25.729  1.00  0.00     0.202 C 
BRANCH   3   4
ATOM      4  C   UNL A   1      37.760  21.328  24.946  1.00  0.00     0.261 C 
BRANCH   4   5
ATOM      5  O   UNL A   1      37.281  22.663  25.290  1.00  0.00    -0.463 OA
BRANCH   5   6
ATOM      6  C   UNL A   1      36.044  22.734  25.857  1.00  0.00     0.310 C 
ATOM      7  O   UNL A   1      35.608  21.842  26.580  1.00  0.00    -0.252 OA
BRANCH   6   8
ATOM      8  C   UNL A   1      35.357  24.104  25.767  1.00  0.00     0.160 C 
BRANCH   8   9
ATOM      9  C   UNL A   1      33.881  24.322  25.516  1.00  0.00    -0.008 A 
ATOM     10  C   UNL A   1      32.106  21.601  23.390  1.00  0.00     0.119 A 
ATOM     11  C   UNL A   1      31.060  22.368  22.962  1.00  0.00     0.048 A 
ATOM     12  C   UNL A   1      33.004  22.160  24.312  1.00  0.00     0.057 A 
ATOM     13  C   UNL A   1      30.919  23.667  23.481  1.00  0.00     0.031 A 
ATOM     14  C   UNL A   1      32.969  23.476  24.791  1.00  0.00     0.008 A 
ATOM     15  C   UNL A   1      31.863  24.217  24.405  1.00  0.00     0.057 A 
ATOM     16  N   UNL A   1      31.944  25.419  25.123  1.00  0.00    -0.280 N 
ATOM     17  C   UNL A   1      33.260  25.563  25.568  1.00  0.00     0.028 A 
ATOM     18  C   UNL A   1      33.921  26.845  25.956  1.00  0.00     0.065 C 
BRANCH  10  19
ATOM     19  O   UNL A   1      32.424  20.348  22.984  1.00  0.00    -0.497 OA
ATOM     20  C   UNL A   1      32.609  19.267  23.872  1.00  0.00     0.278 C 
ENDBRANCH  10  19
BRANCH  16  21
ATOM     21  C   UNL A   1      30.854  26.295  25.385  1.00  0.00     0.262 C 
ATOM     22  O   UNL A   1      30.324  26.324  26.462  1.00  0.00    -0.268 OA
BRANCH  21  23
ATOM     23  C   UNL A   1      30.290  27.124  24.299  1.00  0.00     0.040 A 
ATOM     24  C   UNL A   1      30.992  28.268  23.897  1.00  0.00     0.015 A 
ATOM     25  C   UNL A   1      28.977  26.886  23.894  1.00  0.00     0.015 A 
ATOM     26  C   UNL A   1      30.339  29.224  23.122  1.00  0.00     0.021 A 
ATOM     27  C   UNL A   1      28.328  27.852  23.125  1.00  0.00     0.021 A 
ATOM     28  C   UNL A   1      29.006  29.020  22.756  1.00  0.00     0.041 A 
ATOM     29  Cl  UNL A   1      28.166  30.256  21.905  1.00  0.00    -0.084 Cl
ENDBRANCH  21  23
ENDBRANCH  16  21
ENDBRANCH   8   9
ENDBRANCH   6   8
ENDBRANCH   5   6
ENDBRANCH   4   5
ENDBRANCH   3   4
ENDBRANCH   2   3
ENDBRANCH   1   2
BRANCH   1  30
ATOM     30  C   UNL A   1      41.151  20.131  27.282  1.00  0.00     0.188 C 
BRANCH  30  31
ATOM     31  O   UNL A   1      42.484  19.848  26.943  1.00  0.00    -0.376 OA
BRANCH  31  32
ATOM     32  C   UNL A   1      42.697  18.667  26.193  1.00  0.00     0.202 C 
BRANCH  32  33
ATOM     33  C   UNL A   1      44.003  18.479  25.366  1.00  0.00     0.261 C 
BRANCH  33  34
ATOM     34  O   UNL A   1      44.366  19.599  24.502  1.00  0.00    -0.460 OA
BRANCH  34  35
ATOM     35  C   UNL A   1      45.245  20.519  25.017  1.00  0.00     0.338 C 
ATOM     36  O   UNL A   1      46.455  20.484  24.837  1.00  0.00    -0.246 OA
BRANCH  35  37
ATOM     37  C   UNL A   1      44.527  21.786  25.435  1.00  0.00     0.060 A 
ATOM     38  C   UNL A   1      43.508  22.484  24.801  1.00  0.00     0.016 A 
ATOM     39  C   UNL A   1      45.086  22.401  26.547  1.00  0.00     0.016 A 
ATOM     40  C   UNL A   1      43.204  23.823  25.213  1.00  0.00     0.010 A 
ATOM     41  C   UNL A   1      44.794  23.693  26.980  1.00  0.00     0.010 A 
ATOM     42  C   UNL A   1      43.903  24.468  26.262  1.00  0.00    -0.014 A 
BRANCH  42  43
ATOM     43  C   UNL A   1      43.536  25.760  26.897  1.00  0.00     0.031 A 
ATOM     44  C   UNL A   1      44.474  26.804  26.487  1.00  0.00     0.074 A 
ATOM     45  C   UNL A   1      42.492  26.158  27.668  1.00  0.00     0.049 A 
ATOM     46  N   UNL A   1      45.607  26.961  27.081  1.00  0.00    -0.248 NA
ATOM     47  C   UNL A   1      44.310  27.560  25.245  1.00  0.00     0.031 C 
ATOM     48  C   UNL A   1      41.474  25.323  28.271  1.00  0.00     0.029 A 
ATOM     49  N   UNL A   1      42.114  27.419  28.101  1.00  0.00    -0.354 N 
ATOM     50  C   UNL A   1      46.159  28.063  26.481  1.00  0.00     0.074 A 
ATOM     51  C   UNL A   1      45.493  28.182  25.205  1.00  0.00     0.031 C 
ATOM     52  C   UNL A   1      40.486  26.073  28.818  1.00  0.00     0.029 A 
ATOM     53  C   UNL A   1      40.862  27.482  28.739  1.00  0.00     0.049 A 
ATOM     54  H   UNL A   1      42.680  28.213  27.970  1.00  0.00     0.167 HD
ATOM     55  C   UNL A   1      46.836  28.962  27.242  1.00  0.00     0.031 A 
ATOM     56  C   UNL A   1      40.375  28.383  29.644  1.00  0.00     0.031 A 
ATOM     57  C   UNL A   1      47.062  28.463  28.589  1.00  0.00     0.049 A 
ATOM     58  C   UNL A   1      41.553  28.943  30.340  1.00  0.00     0.074 A 
ATOM     59  C   UNL A   1      47.674  27.343  29.124  1.00  0.00     0.029 A 
ATOM     60  N   UNL A   1      46.219  28.944  29.567  1.00  0.00    -0.354 N 
ATOM     61  N   UNL A   1      42.268  28.263  31.188  1.00  0.00    -0.248 NA
ATOM     62  C   UNL A   1      42.173  30.148  29.815  1.00  0.00     0.031 C 
ATOM     63  C   UNL A   1      46.897  26.984  30.265  1.00  0.00     0.029 A 
ATOM     64  C   UNL A   1      45.880  27.926  30.426  1.00  0.00     0.049 A 
ATOM     65  H   UNL A   1      45.909  29.876  29.640  1.00  0.00     0.167 HD
ATOM     66  C   UNL A   1      43.565  28.684  30.953  1.00  0.00     0.074 A 
ATOM     67  C   UNL A   1      43.431  29.927  30.200  1.00  0.00     0.031 C 
ATOM     68  C   UNL A   1      44.621  27.846  31.153  1.00  0.00     0.031 A 
BRANCH  55  69
ATOM     69  C   UNL A   1      46.908  30.418  26.894  1.00  0.00    -0.014 A 
ATOM     70  C   UNL A   1      45.773  31.213  26.629  1.00  0.00     0.010 A 
ATOM     71  C   UNL A   1      48.141  31.081  27.019  1.00  0.00     0.010 A 
ATOM     72  C   UNL A   1      45.860  32.586  26.432  1.00  0.00     0.020 A 
ATOM     73  C   UNL A   1      48.233  32.470  26.876  1.00  0.00     0.020 A 
ATOM     74  C   UNL A   1      47.092  33.209  26.564  1.00  0.00     0.054 A 
BRANCH  74  75
ATOM     75  S   UNL A   1      47.146  35.001  26.376  1.00  0.00     0.124 S 
ATOM     76  O   UNL A   1      47.560  35.140  24.982  1.00  0.00    -0.237 OA
ATOM     77  O   UNL A   1      45.768  35.385  26.666  1.00  0.00    -0.237 OA
ATOM     78  O   UNL A   1      48.133  35.417  27.368  1.00  0.00    -0.744 OA
ENDBRANCH  74  75
ENDBRANCH  55  69
BRANCH  56  79
ATOM     79  C   UNL A   1      39.109  29.177  29.527  1.00  0.00    -0.014 A 
ATOM     80  C   UNL A   1      39.095  30.445  28.921  1.00  0.00     0.010 A 
ATOM     81  C   UNL A   1      37.933  28.766  30.199  1.00  0.00     0.010 A 
ATOM     82  C   UNL A   1      38.000  31.313  29.073  1.00  0.00     0.020 A 
ATOM     83  C   UNL A   1      36.830  29.631  30.353  1.00  0.00     0.020 A 
ATOM     84  C   UNL A   1      36.891  30.918  29.824  1.00  0.00     0.054 A 
BRANCH  84  85
ATOM     85  S   UNL A   1      35.585  32.142  30.158  1.00  0.00     0.124 S 
ATOM     86  O   UNL A   1      36.294  33.404  29.967  1.00  0.00    -0.237 OA
ATOM     87  O   UNL A   1      34.584  31.826  29.143  1.00  0.00    -0.237 OA
ATOM     88  O   UNL A   1      35.181  31.857  31.533  1.00  0.00    -0.744 OA
ENDBRANCH  84  85
ENDBRANCH  56  79
BRANCH  68  89
ATOM     89  C   UNL A   1      44.415  26.613  32.018  1.00  0.00    -0.014 A 
ATOM     90  C   UNL A   1      44.596  26.766  33.405  1.00  0.00     0.010 A 
ATOM     91  C   UNL A   1      44.230  25.311  31.511  1.00  0.00     0.010 A 
ATOM     92  C   UNL A   1      44.670  25.657  34.251  1.00  0.00     0.020 A 
ATOM     93  C   UNL A   1      44.281  24.190  32.361  1.00  0.00     0.020 A 
ATOM     94  C   UNL A   1      44.538  24.373  33.721  1.00  0.00     0.054 A 
BRANCH  94  95
ATOM     95  S   UNL A   1      44.763  22.962  34.841  1.00  0.00     0.124 S 
ATOM     96  O   UNL A   1      45.557  22.045  34.025  1.00  0.00    -0.237 OA
ATOM     97  O   UNL A   1      45.471  23.556  35.973  1.00  0.00    -0.237 OA
ATOM     98  O   UNL A   1      43.402  22.513  35.130  1.00  0.00    -0.744 OA
ENDBRANCH  94  95
ENDBRANCH  68  89
ENDBRANCH  42  43
ENDBRANCH  35  37
ENDBRANCH  34  35
ENDBRANCH  33  34
ENDBRANCH  32  33
ENDBRANCH  31  32
ENDBRANCH  30  31
ENDBRANCH   1  30
TORSDOF 24
ENDMDL
MODEL 2
REMARK VINA RESULT:     -10.5      2.808      3.982
REMARK SMILES COc1ccc2c(c1)c(CC(=O)OCCOCCOCCOC(=O)c1ccc(-c3c4nc(c(-c5ccc(S(=O)(=O)[O-])cc5)c5ccc([nH]5)c(-c5ccc(S(=O)(=O)[O-])cc5)c5nc(c(-c6ccc(S(=O)(=O)[O-])cc6)c6ccc3[nH]6)C=C5)C=C4)cc1)c(C)n2C(=O)c1ccc(Cl)cc1
REMARK SMILES IDX 17 1 16 2 15 3 14 4 13 5 11 6 12 7 10 8 9 9 3 10 4 11 8 12
REMARK SMILES IDX 5 13 7 14 6 15 87 16 85 17 86 18 2 19 1 20 88 21 89 22 90 23
REMARK SMILES IDX 91 24 96 25 92 26 95 27 93 28 94 29 18 30 19 31 20 32 21 33
REMARK SMILES IDX 22 34 23 35 24 36 25 37 26 38 84 39 27 40 83 41 28 42 29 43
REMARK SMILES IDX 30 44 77 45 31 46 82 47 76 48 78 49 32 50 81 51 75 52 74 53
REMARK SMILES IDX 33 55 63 56 44 57 62 58 45 59 48 60 61 61 79 62 46 63 47 64
REMARK SMILES IDX 60 66 80 67 49 68 34 69 35 70 43 71 36 72 42 73 37 74 38 75
REMARK SMILES IDX 39 76 40 77 41 78 64 79 65 80 73 81 66 82 72 83 67 84 68 85
REMARK SMILES IDX 69 86 70 87 71 88 50 89 51 90 59 91 52 92 58 93 53 94 54 95
REMARK SMILES IDX 55 96 56 97 57 98
REMARK H PARENT 78 54 48 65
REMARK Flexibility Score: inf
ROOT
ATOM      1  C   UNL A   1      42.179  22.287  27.739  1.00  0.00     0.188 C 
ENDROOT
BRANCH   1   2
ATOM      2  O   UNL A   1      40.807  22.398  28.041  1.00  0.00    -0.376 OA
BRANCH   2   3
ATOM      3  C   UNL A   1      40.058  23.281  27.221  1.00  0.00     0.202 C 
BRANCH   3   4
ATOM      4  C   UNL A   1      39.317  22.652  26.023  1.00  0.00     0.261 C 
BRANCH   4   5
ATOM      5  O   UNL A   1      37.869  22.775  26.154  1.00  0.00    -0.463 OA
BRANCH   5   6
ATOM      6  C   UNL A   1      37.125  21.780  25.597  1.00  0.00     0.310 C 
ATOM      7  O   UNL A   1      37.638  20.859  24.966  1.00  0.00    -0.252 OA
BRANCH   6   8
ATOM      8  C   UNL A   1      35.655  21.729  26.040  1.00  0.00     0.160 C 
BRANCH   8   9
ATOM      9  C   UNL A   1      34.474  22.129  25.184  1.00  0.00    -0.008 A 
ATOM     10  C   UNL A   1      32.549  19.215  23.486  1.00  0.00     0.119 A 
ATOM     11  C   UNL A   1      31.990  19.942  22.474  1.00  0.00     0.048 A 
ATOM     12  C   UNL A   1      33.288  19.900  24.462  1.00  0.00     0.057 A 
ATOM     13  C   UNL A   1      32.159  21.337  22.471  1.00  0.00     0.031 A 
ATOM     14  C   UNL A   1      33.570  21.272  24.461  1.00  0.00     0.008 A 
ATOM     15  C   UNL A   1      32.936  22.006  23.471  1.00  0.00     0.057 A 
ATOM     16  N   UNL A   1      33.216  23.350  23.756  1.00  0.00    -0.280 N 
ATOM     17  C   UNL A   1      34.323  23.383  24.607  1.00  0.00     0.028 A 
ATOM     18  C   UNL A   1      35.244  24.543  24.806  1.00  0.00     0.065 C 
BRANCH  10  19
ATOM     19  O   UNL A   1      32.523  17.870  23.642  1.00  0.00    -0.497 OA
ATOM     20  C   UNL A   1      32.613  17.231  24.896  1.00  0.00     0.278 C 
ENDBRANCH  10  19
BRANCH  16  21
ATOM     21  C   UNL A   1      32.462  24.463  23.294  1.00  0.00     0.262 C 
ATOM     22  O   UNL A   1      32.307  24.666  22.120  1.00  0.00    -0.268 OA
BRANCH  21  23
ATOM     23  C   UNL A   1      31.927  25.450  24.256  1.00  0.00     0.040 A 
ATOM     24  C   UNL A   1      32.178  26.809  24.030  1.00  0.00     0.015 A 
ATOM     25  C   UNL A   1      31.419  24.986  25.470  1.00  0.00     0.015 A 
ATOM     26  C   UNL A   1      31.972  27.716  25.067  1.00  0.00     0.021 A 
ATOM     27  C   UNL A   1      31.223  25.901  26.505  1.00  0.00     0.021 A 
ATOM     28  C   UNL A   1      31.515  27.255  26.304  1.00  0.00     0.041 A 
ATOM     29  Cl  UNL A   1      31.380  28.357  27.618  1.00  0.00    -0.084 Cl
ENDBRANCH  21  23
ENDBRANCH  16  21
ENDBRANCH   8   9
ENDBRANCH   6   8
ENDBRANCH   5   6
ENDBRANCH   4   5
ENDBRANCH   3   4
ENDBRANCH   2   3
ENDBRANCH   1   2
BRANCH   1  30
ATOM     30  C   UNL A   1      42.621  21.114  26.853  1.00  0.00     0.188 C 
BRANCH  30  31
ATOM     31  O   UNL A   1      42.973  21.335  25.512  1.00  0.00    -0.376 OA
BRANCH  31  32
ATOM     32  C   UNL A   1      43.016  22.687  25.096  1.00  0.00     0.202 C 
BRANCH  32  33
ATOM     33  C   UNL A   1      44.310  23.279  24.464  1.00  0.00     0.261 C 
BRANCH  33  34
ATOM     34  O   UNL A   1      44.952  24.345  25.228  1.00  0.00    -0.460 OA
BRANCH  34  35
ATOM     35  C   UNL A   1      45.067  24.153  26.582  1.00  0.00     0.338 C 
ATOM     36  O   UNL A   1      45.752  23.276  27.093  1.00  0.00    -0.246 OA
BRANCH  35  37
ATOM     37  C   UNL A   1      44.629  25.384  27.348  1.00  0.00     0.060 A 
ATOM     38  C   UNL A   1      44.818  25.717  28.684  1.00  0.00     0.016 A 
ATOM     39  C   UNL A   1      43.795  26.224  26.624  1.00  0.00     0.016 A 
ATOM     40  C   UNL A   1      44.045  26.774  29.265  1.00  0.00     0.010 A 
ATOM     41  C   UNL A   1      43.049  27.271  27.161  1.00  0.00     0.010 A 
ATOM     42  C   UNL A   1      43.093  27.514  28.521  1.00  0.00    -0.014 A 
BRANCH  42  43
ATOM     43  C   UNL A   1      42.397  28.748  28.965  1.00  0.00     0.031 A 
ATOM     44  C   UNL A   1      43.263  29.909  28.770  1.00  0.00     0.074 A 
ATOM     45  C   UNL A   1      41.138  29.003  29.404  1.00  0.00     0.049 A 
ATOM     46  N   UNL A   1      44.158  30.234  29.639  1.00  0.00    -0.248 NA
ATOM     47  C   UNL A   1      43.347  30.618  27.492  1.00  0.00     0.031 C 
ATOM     48  C   UNL A   1      40.115  28.039  29.752  1.00  0.00     0.029 A 
ATOM     49  N   UNL A   1      40.491  30.203  29.653  1.00  0.00    -0.354 N 
ATOM     50  C   UNL A   1      44.701  31.395  29.154  1.00  0.00     0.074 A 
ATOM     51  C   UNL A   1      44.402  31.402  27.741  1.00  0.00     0.031 C 
ATOM     52  C   UNL A   1      38.924  28.648  29.973  1.00  0.00     0.029 A 
ATOM     53  C   UNL A   1      39.116  30.095  29.925  1.00  0.00     0.049 A 
ATOM     54  H   UNL A   1      40.960  31.068  29.639  1.00  0.00     0.167 HD
ATOM     55  C   UNL A   1      45.017  32.392  30.022  1.00  0.00     0.031 A 
ATOM     56  C   UNL A   1      38.283  30.930  30.617  1.00  0.00     0.031 A 
ATOM     57  C   UNL A   1      44.930  31.948  31.403  1.00  0.00     0.049 A 
ATOM     58  C   UNL A   1      39.138  31.661  31.575  1.00  0.00     0.074 A 
ATOM     59  C   UNL A   1      45.514  30.935  32.141  1.00  0.00     0.029 A 
ATOM     60  N   UNL A   1      43.794  32.317  32.092  1.00  0.00    -0.354 N 
ATOM     61  N   UNL A   1      39.677  31.102  32.619  1.00  0.00    -0.248 NA
ATOM     62  C   UNL A   1      39.712  32.935  31.176  1.00  0.00     0.031 C 
ATOM     63  C   UNL A   1      44.510  30.484  33.047  1.00  0.00     0.029 A 
ATOM     64  C   UNL A   1      43.371  31.273  32.878  1.00  0.00     0.049 A 
ATOM     65  H   UNL A   1      43.354  33.196  32.030  1.00  0.00     0.167 HD
ATOM     66  C   UNL A   1      40.921  31.700  32.721  1.00  0.00     0.074 A 
ATOM     67  C   UNL A   1      40.834  32.901  31.897  1.00  0.00     0.031 C 
ATOM     68  C   UNL A   1      41.983  31.024  33.242  1.00  0.00     0.031 A 
BRANCH  55  69
ATOM     69  C   UNL A   1      44.987  33.839  29.631  1.00  0.00    -0.014 A 
ATOM     70  C   UNL A   1      46.117  34.683  29.680  1.00  0.00     0.010 A 
ATOM     71  C   UNL A   1      43.835  34.346  29.006  1.00  0.00     0.010 A 
ATOM     72  C   UNL A   1      46.091  35.985  29.194  1.00  0.00     0.020 A 
ATOM     73  C   UNL A   1      43.814  35.636  28.465  1.00  0.00     0.020 A 
ATOM     74  C   UNL A   1      44.938  36.452  28.582  1.00  0.00     0.054 A 
BRANCH  74  75
ATOM     75  S   UNL A   1      44.973  38.120  27.897  1.00  0.00     0.124 S 
ATOM     76  O   UNL A   1      43.581  38.533  28.057  1.00  0.00    -0.237 OA
ATOM     77  O   UNL A   1      45.934  38.791  28.767  1.00  0.00    -0.237 OA
ATOM     78  O   UNL A   1      45.413  37.913  26.521  1.00  0.00    -0.744 OA
ENDBRANCH  74  75
ENDBRANCH  55  69
BRANCH  56  79
ATOM     79  C   UNL A   1      37.004  31.533  30.122  1.00  0.00    -0.014 A 
ATOM     80  C   UNL A   1      36.818  31.839  28.763  1.00  0.00     0.010 A 
ATOM     81  C   UNL A   1      36.023  31.998  31.031  1.00  0.00     0.010 A 
ATOM     82  C   UNL A   1      35.764  32.668  28.340  1.00  0.00     0.020 A 
ATOM     83  C   UNL A   1      34.963  32.828  30.613  1.00  0.00     0.020 A 
ATOM     84  C   UNL A   1      34.867  33.193  29.272  1.00  0.00     0.054 A 
BRANCH  84  85
ATOM     85  S   UNL A   1      33.641  34.415  28.708  1.00  0.00     0.124 S 
ATOM     86  O   UNL A   1      32.966  34.766  29.956  1.00  0.00    -0.237 OA
ATOM     87  O   UNL A   1      34.477  35.464  28.132  1.00  0.00    -0.237 OA
ATOM     88  O   UNL A   1      32.826  33.676  27.746  1.00  0.00    -0.744 OA
ENDBRANCH  84  85
ENDBRANCH  56  79
BRANCH  68  89
ATOM     89  C   UNL A   1      41.714  29.786  34.082  1.00  0.00    -0.014 A 
ATOM     90  C   UNL A   1      41.748  29.940  35.480  1.00  0.00     0.010 A 
ATOM     91  C   UNL A   1      41.610  28.481  33.560  1.00  0.00     0.010 A 
ATOM     92  C   UNL A   1      41.757  28.832  36.330  1.00  0.00     0.020 A 
ATOM     93  C   UNL A   1      41.595  27.360  34.410  1.00  0.00     0.020 A 
ATOM     94  C   UNL A   1      41.706  27.546  35.790  1.00  0.00     0.054 A 
BRANCH  94  95
ATOM     95  S   UNL A   1      41.844  26.138  36.928  1.00  0.00     0.124 S 
ATOM     96  O   UNL A   1      40.507  26.086  37.516  1.00  0.00    -0.237 OA
ATOM     97  O   UNL A   1      42.172  25.029  36.035  1.00  0.00    -0.237 OA
ATOM     98  O   UNL A   1      42.911  26.526  37.849  1.00  0.00    -0.744 OA
ENDBRANCH  94  95
ENDBRANCH  68  89
ENDBRANCH  42  43
ENDBRANCH  35  37
ENDBRANCH  34  35
ENDBRANCH  33  34
ENDBRANCH  32  33
ENDBRANCH  31  32
ENDBRANCH  30  31
ENDBRANCH   1  30
TORSDOF 24
ENDMDL
MODEL 3
REMARK VINA RESULT:     -10.0      4.652     10.398
REMARK SMILES COc1ccc2c(c1)c(CC(=O)OCCOCCOCCOC(=O)c1ccc(-c3c4nc(c(-c5ccc(S(=O)(=O)[O-])cc5)c5ccc([nH]5)c(-c5ccc(S(=O)(=O)[O-])cc5)c5nc(c(-c6ccc(S(=O)(=O)[O-])cc6)c6ccc3[nH]6)C=C5)C=C4)cc1)c(C)n2C(=O)c1ccc(Cl)cc1
REMARK SMILES IDX 17 1 16 2 15 3 14 4 13 5 11 6 12 7 10 8 9 9 3 10 4 11 8 12
REMARK SMILES IDX 5 13 7 14 6 15 87 16 85 17 86 18 2 19 1 20 88 21 89 22 90 23
REMARK SMILES IDX 91 24 96 25 92 26 95 27 93 28 94 29 18 30 19 31 20 32 21 33
REMARK SMILES IDX 22 34 23 35 24 36 25 37 26 38 84 39 27 40 83 41 28 42 29 43
REMARK SMILES IDX 30 44 77 45 31 46 82 47 76 48 78 49 32 50 81 51 75 52 74 53
REMARK SMILES IDX 33 55 63 56 44 57 62 58 45 59 48 60 61 61 79 62 46 63 47 64
REMARK SMILES IDX 60 66 80 67 49 68 34 69 35 70 43 71 36 72 42 73 37 74 38 75
REMARK SMILES IDX 39 76 40 77 41 78 64 79 65 80 73 81 66 82 72 83 67 84 68 85
REMARK SMILES IDX 69 86 70 87 71 88 50 89 51 90 59 91 52 92 58 93 53 94 54 95
REMARK SMILES IDX 55 96 56 97 57 98
REMARK H PARENT 78 54 48 65
REMARK Flexibility Score: inf
ROOT
ATOM      1  C   UNL A   1      30.641  27.352  25.449  1.00  0.00     0.188 C 
ENDROOT
BRANCH   1   2
ATOM      2  O   UNL A   1      31.020  26.945  24.155  1.00  0.00    -0.376 OA
BRANCH   2   3
ATOM      3  C   UNL A   1      31.994  27.749  23.507  1.00  0.00     0.202 C 
BRANCH   3   4
ATOM      4  C   UNL A   1      33.382  27.113  23.289  1.00  0.00     0.261 C 
BRANCH   4   5
ATOM      5  O   UNL A   1      33.351  25.665  23.460  1.00  0.00    -0.463 OA
BRANCH   5   6
ATOM      6  C   UNL A   1      33.313  24.922  22.319  1.00  0.00     0.310 C 
ATOM      7  O   UNL A   1      33.358  25.438  21.205  1.00  0.00    -0.252 OA
BRANCH   6   8
ATOM      8  C   UNL A   1      33.495  23.409  22.511  1.00  0.00     0.160 C 
BRANCH   8   9
ATOM      9  C   UNL A   1      34.225  22.761  23.667  1.00  0.00    -0.008 A 
ATOM     10  C   UNL A   1      32.309  22.671  27.043  1.00  0.00     0.119 A 
ATOM     11  C   UNL A   1      33.398  22.545  27.858  1.00  0.00     0.048 A 
ATOM     12  C   UNL A   1      32.514  22.642  25.655  1.00  0.00     0.057 A 
ATOM     13  C   UNL A   1      34.663  22.369  27.272  1.00  0.00     0.031 A 
ATOM     14  C   UNL A   1      33.758  22.564  25.015  1.00  0.00     0.008 A 
ATOM     15  C   UNL A   1      34.843  22.364  25.852  1.00  0.00     0.057 A 
ATOM     16  N   UNL A   1      35.940  22.147  25.006  1.00  0.00    -0.280 N 
ATOM     17  C   UNL A   1      35.606  22.637  23.741  1.00  0.00     0.028 A 
ATOM     18  C   UNL A   1      36.569  23.040  22.673  1.00  0.00     0.065 C 
BRANCH  10  19
ATOM     19  O   UNL A   1      31.024  22.879  27.417  1.00  0.00    -0.497 OA
ATOM     20  C   UNL A   1      30.099  23.616  26.646  1.00  0.00     0.278 C 
ENDBRANCH  10  19
BRANCH  16  21
ATOM     21  C   UNL A   1      37.148  21.495  25.376  1.00  0.00     0.262 C 
ATOM     22  O   UNL A   1      37.235  20.297  25.373  1.00  0.00    -0.268 OA
BRANCH  21  23
ATOM     23  C   UNL A   1      38.299  22.283  25.865  1.00  0.00     0.040 A 
ATOM     24  C   UNL A   1      39.473  21.606  26.217  1.00  0.00     0.015 A 
ATOM     25  C   UNL A   1      38.094  23.623  26.195  1.00  0.00     0.015 A 
ATOM     26  C   UNL A   1      40.437  22.272  26.970  1.00  0.00     0.021 A 
ATOM     27  C   UNL A   1      39.061  24.279  26.957  1.00  0.00     0.021 A 
ATOM     28  C   UNL A   1      40.218  23.598  27.353  1.00  0.00     0.041 A 
ATOM     29  Cl  UNL A   1      41.352  24.377  28.385  1.00  0.00    -0.084 Cl
ENDBRANCH  21  23
ENDBRANCH  16  21
ENDBRANCH   8   9
ENDBRANCH   6   8
ENDBRANCH   5   6
ENDBRANCH   4   5
ENDBRANCH   3   4
ENDBRANCH   2   3
ENDBRANCH   1   2
BRANCH   1  30
ATOM     30  C   UNL A   1      31.620  27.077  26.598  1.00  0.00     0.188 C 
BRANCH  30  31
ATOM     31  O   UNL A   1      32.592  28.030  26.943  1.00  0.00    -0.376 OA
BRANCH  31  32
ATOM     32  C   UNL A   1      32.162  29.378  26.957  1.00  0.00     0.202 C 
BRANCH  32  33
ATOM     33  C   UNL A   1      33.199  30.539  26.939  1.00  0.00     0.261 C 
BRANCH  33  34
ATOM     34  O   UNL A   1      34.572  30.160  27.260  1.00  0.00    -0.460 OA
BRANCH  34  35
ATOM     35  C   UNL A   1      35.403  31.158  27.703  1.00  0.00     0.338 C 
ATOM     36  O   UNL A   1      35.158  32.352  27.592  1.00  0.00    -0.246 OA
BRANCH  35  37
ATOM     37  C   UNL A   1      36.404  30.630  28.711  1.00  0.00     0.060 A 
ATOM     38  C   UNL A   1      36.361  29.481  29.490  1.00  0.00     0.016 A 
ATOM     39  C   UNL A   1      37.438  31.514  28.985  1.00  0.00     0.016 A 
ATOM     40  C   UNL A   1      37.257  29.346  30.601  1.00  0.00     0.010 A 
ATOM     41  C   UNL A   1      38.333  31.395  30.046  1.00  0.00     0.010 A 
ATOM     42  C   UNL A   1      38.204  30.345  30.935  1.00  0.00    -0.014 A 
BRANCH  42  43
ATOM     43  C   UNL A   1      39.303  30.217  31.926  1.00  0.00     0.031 A 
ATOM     44  C   UNL A   1      38.983  30.978  33.131  1.00  0.00     0.074 A 
ATOM     45  C   UNL A   1      40.446  29.484  31.962  1.00  0.00     0.049 A 
ATOM     46  N   UNL A   1      39.211  32.245  33.207  1.00  0.00    -0.248 NA
ATOM     47  C   UNL A   1      38.167  30.425  34.214  1.00  0.00     0.031 C 
ATOM     48  C   UNL A   1      41.031  28.711  30.887  1.00  0.00     0.029 A 
ATOM     49  N   UNL A   1      41.358  29.279  32.986  1.00  0.00    -0.354 N 
ATOM     50  C   UNL A   1      38.860  32.580  34.488  1.00  0.00     0.074 A 
ATOM     51  C   UNL A   1      37.965  31.536  34.930  1.00  0.00     0.031 C 
ATOM     52  C   UNL A   1      42.070  27.962  31.332  1.00  0.00     0.029 A 
ATOM     53  C   UNL A   1      42.338  28.305  32.726  1.00  0.00     0.049 A 
ATOM     54  H   UNL A   1      41.322  29.779  33.833  1.00  0.00     0.167 HD
ATOM     55  C   UNL A   1      39.620  33.477  35.170  1.00  0.00     0.031 A 
ATOM     56  C   UNL A   1      43.590  28.147  33.252  1.00  0.00     0.031 A 
ATOM     57  C   UNL A   1      40.591  34.125  34.305  1.00  0.00     0.049 A 
ATOM     58  C   UNL A   1      44.026  29.492  33.682  1.00  0.00     0.074 A 
ATOM     59  C   UNL A   1      40.517  34.868  33.140  1.00  0.00     0.029 A 
ATOM     60  N   UNL A   1      41.883  33.652  34.376  1.00  0.00    -0.354 N 
ATOM     61  N   UNL A   1      44.342  30.439  32.848  1.00  0.00    -0.248 NA
ATOM     62  C   UNL A   1      43.754  29.918  35.045  1.00  0.00     0.031 C 
ATOM     63  C   UNL A   1      41.662  34.503  32.373  1.00  0.00     0.029 A 
ATOM     64  C   UNL A   1      42.427  33.602  33.116  1.00  0.00     0.049 A 
ATOM     65  H   UNL A   1      42.346  33.390  35.205  1.00  0.00     0.167 HD
ATOM     66  C   UNL A   1      43.864  31.592  33.444  1.00  0.00     0.074 A 
ATOM     67  C   UNL A   1      43.635  31.231  34.840  1.00  0.00     0.031 C 
ATOM     68  C   UNL A   1      43.443  32.648  32.692  1.00  0.00     0.031 A 
BRANCH  55  69
ATOM     69  C   UNL A   1      39.757  33.445  36.663  1.00  0.00    -0.014 A 
ATOM     70  C   UNL A   1      40.941  33.065  37.329  1.00  0.00     0.010 A 
ATOM     71  C   UNL A   1      38.728  33.996  37.447  1.00  0.00     0.010 A 
ATOM     72  C   UNL A   1      41.080  33.165  38.708  1.00  0.00     0.020 A 
ATOM     73  C   UNL A   1      38.878  34.151  38.830  1.00  0.00     0.020 A 
ATOM     74  C   UNL A   1      40.047  33.714  39.451  1.00  0.00     0.054 A 
BRANCH  74  75
ATOM     75  S   UNL A   1      40.300  33.895  41.227  1.00  0.00     0.124 S 
ATOM     76  O   UNL A   1      39.343  32.929  41.761  1.00  0.00    -0.237 OA
ATOM     77  O   UNL A   1      41.707  33.537  41.378  1.00  0.00    -0.237 OA
ATOM     78  O   UNL A   1      39.981  35.298  41.475  1.00  0.00    -0.744 OA
ENDBRANCH  74  75
ENDBRANCH  55  69
BRANCH  56  79
ATOM     79  C   UNL A   1      44.136  26.920  33.916  1.00  0.00    -0.014 A 
ATOM     80  C   UNL A   1      45.352  26.346  33.505  1.00  0.00     0.010 A 
ATOM     81  C   UNL A   1      43.351  26.185  34.837  1.00  0.00     0.010 A 
ATOM     82  C   UNL A   1      45.717  25.049  33.905  1.00  0.00     0.020 A 
ATOM     83  C   UNL A   1      43.713  24.885  35.244  1.00  0.00     0.020 A 
ATOM     84  C   UNL A   1      44.877  24.309  34.737  1.00  0.00     0.054 A 
BRANCH  84  85
ATOM     85  S   UNL A   1      45.293  22.567  35.070  1.00  0.00     0.124 S 
ATOM     86  O   UNL A   1      44.229  21.860  34.362  1.00  0.00    -0.237 OA
ATOM     87  O   UNL A   1      46.625  22.440  34.484  1.00  0.00    -0.237 OA
ATOM     88  O   UNL A   1      45.246  22.467  36.527  1.00  0.00    -0.744 OA
ENDBRANCH  84  85
ENDBRANCH  56  79
BRANCH  68  89
ATOM     89  C   UNL A   1      43.882  32.724  31.239  1.00  0.00    -0.014 A 
ATOM     90  C   UNL A   1      43.095  32.037  30.297  1.00  0.00     0.010 A 
ATOM     91  C   UNL A   1      45.102  33.280  30.807  1.00  0.00     0.010 A 
ATOM     92  C   UNL A   1      43.540  31.842  28.988  1.00  0.00     0.020 A 
ATOM     93  C   UNL A   1      45.548  33.107  29.484  1.00  0.00     0.020 A 
ATOM     94  C   UNL A   1      44.777  32.356  28.594  1.00  0.00     0.054 A 
BRANCH  94  95
ATOM     95  S   UNL A   1      45.366  31.971  26.921  1.00  0.00     0.124 S 
ATOM     96  O   UNL A   1      46.328  30.899  27.172  1.00  0.00    -0.237 OA
ATOM     97  O   UNL A   1      44.144  31.559  26.233  1.00  0.00    -0.237 OA
ATOM     98  O   UNL A   1      45.947  33.226  26.448  1.00  0.00    -0.744 OA
ENDBRANCH  94  95
ENDBRANCH  68  89
ENDBRANCH  42  43
ENDBRANCH  35  37
ENDBRANCH  34  35
ENDBRANCH  33  34
ENDBRANCH  32  33
ENDBRANCH  31  32
ENDBRANCH  30  31
ENDBRANCH   1  30
TORSDOF 24
ENDMDL
