MODEL 1
REMARK VINA RESULT:      -9.1      0.000      0.000
REMARK SMILES CC(C)C[NH+]1CC[NH+]([C@@H]2CC[C@]([NH3+])(C(=O)OCCOCCOCCOC(=O)c3ccc(-c4c5nc(c(-c6ccc(S(=O)(=O)[O-])cc6)c6ccc([nH]6)c(-c6ccc(S(=O)(=O)[O-])cc6)c6nc(c(-c7ccc(S(=O)(=O)[O-])cc7)c7ccc4[nH]7)C=C6)C=C5)cc3)C2)CC1
REMARK SMILES IDX 20 1 19 2 18 3 17 4 16 5 14 6 15 7 12 8 9 9 10 10 88 11
REMARK SMILES IDX 11 12 8 13 5 14 6 15 90 16 7 18 89 19 4 21 2 22 1 23 3 24
REMARK SMILES IDX 13 25 21 29 22 30 23 31 24 32 25 33 26 34 27 35 28 36 29 37
REMARK SMILES IDX 87 38 30 39 86 40 31 41 32 42 33 43 80 44 34 45 85 46 79 47
REMARK SMILES IDX 81 48 35 49 84 50 78 51 77 52 36 54 66 55 47 56 65 57 48 58
REMARK SMILES IDX 51 59 64 60 82 61 49 62 50 63 63 65 83 66 52 67 37 68 38 69
REMARK SMILES IDX 46 70 39 71 45 72 40 73 41 74 42 75 43 76 44 77 67 78 68 79
REMARK SMILES IDX 76 80 69 81 75 82 70 83 71 84 72 85 73 86 74 87 53 88 54 89
REMARK SMILES IDX 62 90 55 91 61 92 56 93 57 94 58 95 59 96 60 97
REMARK H PARENT 5 17 8 20 13 26 13 27 13 28 81 53 51 64
REMARK Flexibility Score: inf
ROOT
ATOM      1  C   UNL A   1      33.676  34.422  29.610  1.00  0.00     0.188 C 
ENDROOT
BRANCH   1   2
ATOM      2  O   UNL A   1      34.281  33.530  28.682  1.00  0.00    -0.376 OA
BRANCH   2   3
ATOM      3  C   UNL A   1      33.483  32.959  27.651  1.00  0.00     0.202 C 
BRANCH   3   4
ATOM      4  C   UNL A   1      33.233  31.448  27.658  1.00  0.00     0.261 C 
BRANCH   4   5
ATOM      5  O   UNL A   1      33.403  30.835  26.368  1.00  0.00    -0.459 OA
BRANCH   5   6
ATOM      6  C   UNL A   1      32.443  29.935  26.013  1.00  0.00     0.368 C 
ATOM      7  O   UNL A   1      31.435  30.223  25.374  1.00  0.00    -0.245 OA
BRANCH   6   8
ATOM      8  C   UNL A   1      32.771  28.484  26.446  1.00  0.00     0.198 C 
ATOM      9  C   UNL A   1      32.576  26.216  25.565  1.00  0.00     0.191 C 
ATOM     10  C   UNL A   1      31.419  26.432  26.548  1.00  0.00     0.072 C 
ATOM     11  C   UNL A   1      32.996  27.636  25.180  1.00  0.00     0.145 C 
ATOM     12  C   UNL A   1      31.541  27.851  27.105  1.00  0.00     0.087 C 
BRANCH   9  13
ATOM     13  N   UNL A   1      32.431  25.263  24.452  1.00  0.00    -0.323 N 
ATOM     14  N   UNL A   1      33.285  22.436  25.085  1.00  0.00    -0.325 N 
ATOM     15  C   UNL A   1      34.264  23.486  24.728  1.00  0.00     0.324 C 
ATOM     16  C   UNL A   1      31.998  22.999  25.500  1.00  0.00     0.324 C 
ATOM     17  H   UNL A   1      33.569  21.953  25.937  1.00  0.00     0.348 HD
ATOM     18  C   UNL A   1      33.699  24.705  23.947  1.00  0.00     0.324 C 
ATOM     19  C   UNL A   1      31.479  24.152  24.618  1.00  0.00     0.324 C 
ATOM     20  H   UNL A   1      32.023  25.898  23.765  1.00  0.00     0.348 HD
BRANCH  14  21
ATOM     21  C   UNL A   1      33.291  21.361  24.084  1.00  0.00     0.265 C 
BRANCH  21  22
ATOM     22  C   UNL A   1      33.747  19.922  24.427  1.00  0.00     0.038 C 
ATOM     23  C   UNL A   1      35.211  19.852  24.876  1.00  0.00     0.013 C 
ATOM     24  C   UNL A   1      32.866  19.398  25.570  1.00  0.00     0.013 C 
ENDBRANCH  21  22
ENDBRANCH  14  21
ENDBRANCH   9  13
BRANCH   8  25
ATOM     25  N   UNL A   1      33.931  28.373  27.356  1.00  0.00    -0.343 N 
ATOM     26  H   UNL A   1      33.928  27.455  27.800  1.00  0.00     0.345 HD
ATOM     27  H   UNL A   1      33.873  29.097  28.071  1.00  0.00     0.345 HD
ATOM     28  H   UNL A   1      34.793  28.489  26.824  1.00  0.00     0.345 HD
ENDBRANCH   8  25
ENDBRANCH   6   8
ENDBRANCH   5   6
ENDBRANCH   4   5
ENDBRANCH   3   4
ENDBRANCH   2   3
ENDBRANCH   1   2
BRANCH   1  29
ATOM     29  C   UNL A   1      34.332  34.632  30.990  1.00  0.00     0.188 C 
BRANCH  29  30
ATOM     30  O   UNL A   1      34.007  33.681  31.973  1.00  0.00    -0.376 OA
BRANCH  30  31
ATOM     31  C   UNL A   1      34.764  32.496  32.110  1.00  0.00     0.202 C 
BRANCH  31  32
ATOM     32  C   UNL A   1      36.088  32.175  31.390  1.00  0.00     0.261 C 
BRANCH  32  33
ATOM     33  O   UNL A   1      36.960  31.198  31.958  1.00  0.00    -0.460 OA
BRANCH  33  34
ATOM     34  C   UNL A   1      37.115  30.058  31.239  1.00  0.00     0.338 C 
ATOM     35  O   UNL A   1      36.270  29.215  31.004  1.00  0.00    -0.246 OA
BRANCH  34  36
ATOM     36  C   UNL A   1      38.462  30.068  30.639  1.00  0.00     0.060 A 
ATOM     37  C   UNL A   1      38.592  30.193  29.250  1.00  0.00     0.016 A 
ATOM     38  C   UNL A   1      39.588  29.916  31.449  1.00  0.00     0.016 A 
ATOM     39  C   UNL A   1      39.857  30.138  28.661  1.00  0.00     0.010 A 
ATOM     40  C   UNL A   1      40.849  29.842  30.858  1.00  0.00     0.010 A 
ATOM     41  C   UNL A   1      40.989  29.923  29.459  1.00  0.00    -0.014 A 
BRANCH  41  42
ATOM     42  C   UNL A   1      42.300  29.597  28.850  1.00  0.00     0.031 A 
ATOM     43  C   UNL A   1      42.543  28.184  28.395  1.00  0.00     0.074 A 
ATOM     44  C   UNL A   1      43.273  30.519  28.745  1.00  0.00     0.049 A 
ATOM     45  N   UNL A   1      43.649  27.625  27.978  1.00  0.00    -0.248 NA
ATOM     46  C   UNL A   1      41.381  27.278  28.426  1.00  0.00     0.031 C 
ATOM     47  C   UNL A   1      43.149  31.931  29.101  1.00  0.00     0.029 A 
ATOM     48  N   UNL A   1      44.575  30.390  28.326  1.00  0.00    -0.354 N 
ATOM     49  C   UNL A   1      43.323  26.300  27.714  1.00  0.00     0.074 A 
ATOM     50  C   UNL A   1      41.922  26.134  28.034  1.00  0.00     0.031 C 
ATOM     51  C   UNL A   1      44.335  32.534  28.909  1.00  0.00     0.029 A 
ATOM     52  C   UNL A   1      45.312  31.542  28.460  1.00  0.00     0.049 A 
ATOM     53  H   UNL A   1      44.945  29.552  27.964  1.00  0.00     0.167 HD
ATOM     54  C   UNL A   1      44.120  25.309  27.251  1.00  0.00     0.031 A 
ATOM     55  C   UNL A   1      46.631  31.761  28.278  1.00  0.00     0.031 A 
ATOM     56  C   UNL A   1      45.517  25.472  26.952  1.00  0.00     0.049 A 
ATOM     57  C   UNL A   1      47.519  30.623  27.844  1.00  0.00     0.074 A 
ATOM     58  C   UNL A   1      46.408  24.530  26.470  1.00  0.00     0.029 A 
ATOM     59  N   UNL A   1      46.229  26.650  27.117  1.00  0.00    -0.354 N 
ATOM     60  N   UNL A   1      47.198  29.378  27.583  1.00  0.00    -0.248 NA
ATOM     61  C   UNL A   1      48.951  30.919  27.678  1.00  0.00     0.031 C 
ATOM     62  C   UNL A   1      47.671  25.124  26.394  1.00  0.00     0.029 A 
ATOM     63  C   UNL A   1      47.553  26.454  26.769  1.00  0.00     0.049 A 
ATOM     64  H   UNL A   1      45.848  27.501  27.435  1.00  0.00     0.167 HD
ATOM     65  C   UNL A   1      48.378  28.753  27.190  1.00  0.00     0.074 A 
ATOM     66  C   UNL A   1      49.420  29.757  27.243  1.00  0.00     0.031 C 
ATOM     67  C   UNL A   1      48.578  27.466  26.813  1.00  0.00     0.031 A 
BRANCH  54  68
ATOM     68  C   UNL A   1      43.505  23.946  27.081  1.00  0.00    -0.014 A 
ATOM     69  C   UNL A   1      43.189  23.144  28.194  1.00  0.00     0.010 A 
ATOM     70  C   UNL A   1      43.209  23.474  25.789  1.00  0.00     0.010 A 
ATOM     71  C   UNL A   1      42.624  21.879  28.013  1.00  0.00     0.020 A 
ATOM     72  C   UNL A   1      42.618  22.220  25.607  1.00  0.00     0.020 A 
ATOM     73  C   UNL A   1      42.345  21.424  26.721  1.00  0.00     0.054 A 
BRANCH  73  74
ATOM     74  S   UNL A   1      41.594  19.785  26.517  1.00  0.00     0.124 S 
ATOM     75  O   UNL A   1      42.232  19.312  25.291  1.00  0.00    -0.237 OA
ATOM     76  O   UNL A   1      41.995  19.095  27.740  1.00  0.00    -0.237 OA
ATOM     77  O   UNL A   1      40.166  20.069  26.405  1.00  0.00    -0.744 OA
ENDBRANCH  73  74
ENDBRANCH  54  68
BRANCH  55  78
ATOM     78  C   UNL A   1      47.202  33.111  28.537  1.00  0.00    -0.014 A 
ATOM     79  C   UNL A   1      47.277  34.066  27.507  1.00  0.00     0.010 A 
ATOM     80  C   UNL A   1      47.684  33.448  29.816  1.00  0.00     0.010 A 
ATOM     81  C   UNL A   1      47.835  35.325  27.748  1.00  0.00     0.020 A 
ATOM     82  C   UNL A   1      48.217  34.715  30.067  1.00  0.00     0.020 A 
ATOM     83  C   UNL A   1      48.299  35.643  29.027  1.00  0.00     0.054 A 
BRANCH  83  84
ATOM     84  S   UNL A   1      48.975  37.301  29.327  1.00  0.00     0.124 S 
ATOM     85  O   UNL A   1      48.592  38.009  28.110  1.00  0.00    -0.237 OA
ATOM     86  O   UNL A   1      48.277  37.709  30.543  1.00  0.00    -0.237 OA
ATOM     87  O   UNL A   1      50.407  37.062  29.489  1.00  0.00    -0.744 OA
ENDBRANCH  83  84
ENDBRANCH  55  78
BRANCH  67  88
ATOM     88  C   UNL A   1      49.962  27.066  26.372  1.00  0.00    -0.014 A 
ATOM     89  C   UNL A   1      50.912  26.578  27.286  1.00  0.00     0.010 A 
ATOM     90  C   UNL A   1      50.281  27.092  25.001  1.00  0.00     0.010 A 
ATOM     91  C   UNL A   1      52.160  26.135  26.838  1.00  0.00     0.020 A 
ATOM     92  C   UNL A   1      51.518  26.627  24.547  1.00  0.00     0.020 A 
ATOM     93  C   UNL A   1      52.454  26.158  25.471  1.00  0.00     0.054 A 
BRANCH  93  94
ATOM     94  S   UNL A   1      54.053  25.510  24.907  1.00  0.00     0.124 S 
ATOM     95  O   UNL A   1      54.913  25.780  26.056  1.00  0.00    -0.237 OA
ATOM     96  O   UNL A   1      53.758  24.101  24.659  1.00  0.00    -0.237 OA
ATOM     97  O   UNL A   1      54.345  26.298  23.711  1.00  0.00    -0.744 OA
ENDBRANCH  93  94
ENDBRANCH  67  88
ENDBRANCH  41  42
ENDBRANCH  34  36
ENDBRANCH  33  34
ENDBRANCH  32  33
ENDBRANCH  31  32
ENDBRANCH  30  31
ENDBRANCH  29  30
ENDBRANCH   1  29
TORSDOF 24
ENDMDL
MODEL 2
REMARK VINA RESULT:      -9.0      5.870     10.156
REMARK SMILES CC(C)C[NH+]1CC[NH+]([C@@H]2CC[C@]([NH3+])(C(=O)OCCOCCOCCOC(=O)c3ccc(-c4c5nc(c(-c6ccc(S(=O)(=O)[O-])cc6)c6ccc([nH]6)c(-c6ccc(S(=O)(=O)[O-])cc6)c6nc(c(-c7ccc(S(=O)(=O)[O-])cc7)c7ccc4[nH]7)C=C6)C=C5)cc3)C2)CC1
REMARK SMILES IDX 20 1 19 2 18 3 17 4 16 5 14 6 15 7 12 8 9 9 10 10 88 11
REMARK SMILES IDX 11 12 8 13 5 14 6 15 90 16 7 18 89 19 4 21 2 22 1 23 3 24
REMARK SMILES IDX 13 25 21 29 22 30 23 31 24 32 25 33 26 34 27 35 28 36 29 37
REMARK SMILES IDX 87 38 30 39 86 40 31 41 32 42 33 43 80 44 34 45 85 46 79 47
REMARK SMILES IDX 81 48 35 49 84 50 78 51 77 52 36 54 66 55 47 56 65 57 48 58
REMARK SMILES IDX 51 59 64 60 82 61 49 62 50 63 63 65 83 66 52 67 37 68 38 69
REMARK SMILES IDX 46 70 39 71 45 72 40 73 41 74 42 75 43 76 44 77 67 78 68 79
REMARK SMILES IDX 76 80 69 81 75 82 70 83 71 84 72 85 73 86 74 87 53 88 54 89
REMARK SMILES IDX 62 90 55 91 61 92 56 93 57 94 58 95 59 96 60 97
REMARK H PARENT 5 17 8 20 13 26 13 27 13 28 81 53 51 64
REMARK Flexibility Score: inf
ROOT
ATOM      1  C   UNL A   1      34.385  32.301  28.275  1.00  0.00     0.188 C 
ENDROOT
BRANCH   1   2
ATOM      2  O   UNL A   1      34.595  30.901  28.404  1.00  0.00    -0.376 OA
BRANCH   2   3
ATOM      3  C   UNL A   1      34.554  30.085  27.238  1.00  0.00     0.202 C 
BRANCH   3   4
ATOM      4  C   UNL A   1      33.391  29.104  27.062  1.00  0.00     0.261 C 
BRANCH   4   5
ATOM      5  O   UNL A   1      33.586  28.176  25.979  1.00  0.00    -0.459 OA
BRANCH   5   6
ATOM      6  C   UNL A   1      32.466  27.851  25.274  1.00  0.00     0.368 C 
ATOM      7  O   UNL A   1      31.925  28.598  24.464  1.00  0.00    -0.245 OA
BRANCH   6   8
ATOM      8  C   UNL A   1      31.963  26.412  25.549  1.00  0.00     0.198 C 
ATOM      9  C   UNL A   1      32.581  24.114  25.000  1.00  0.00     0.191 C 
ATOM     10  C   UNL A   1      31.434  24.522  24.066  1.00  0.00     0.072 C 
ATOM     11  C   UNL A   1      33.164  25.450  25.464  1.00  0.00     0.145 C 
ATOM     12  C   UNL A   1      31.043  25.959  24.411  1.00  0.00     0.087 C 
BRANCH   9  13
ATOM     13  N   UNL A   1      33.556  23.100  24.571  1.00  0.00    -0.323 N 
ATOM     14  N   UNL A   1      32.778  20.249  25.194  1.00  0.00    -0.325 N 
ATOM     15  C   UNL A   1      33.382  21.134  26.214  1.00  0.00     0.324 C 
ATOM     16  C   UNL A   1      32.231  21.002  24.062  1.00  0.00     0.324 C 
ATOM     17  H   UNL A   1      31.933  19.805  25.557  1.00  0.00     0.348 HD
ATOM     18  C   UNL A   1      34.189  22.346  25.670  1.00  0.00     0.324 C 
ATOM     19  C   UNL A   1      33.137  22.135  23.540  1.00  0.00     0.324 C 
ATOM     20  H   UNL A   1      34.235  23.722  24.131  1.00  0.00     0.348 HD
BRANCH  14  21
ATOM     21  C   UNL A   1      33.653  19.103  24.918  1.00  0.00     0.265 C 
BRANCH  21  22
ATOM     22  C   UNL A   1      33.101  17.751  24.406  1.00  0.00     0.038 C 
ATOM     23  C   UNL A   1      33.747  17.303  23.089  1.00  0.00     0.013 C 
ATOM     24  C   UNL A   1      33.387  16.681  25.471  1.00  0.00     0.013 C 
ENDBRANCH  21  22
ENDBRANCH  14  21
ENDBRANCH   9  13
BRANCH   8  25
ATOM     25  N   UNL A   1      31.265  26.252  26.842  1.00  0.00    -0.343 N 
ATOM     26  H   UNL A   1      31.398  27.091  27.407  1.00  0.00     0.345 HD
ATOM     27  H   UNL A   1      31.645  25.446  27.337  1.00  0.00     0.345 HD
ATOM     28  H   UNL A   1      30.269  26.109  26.676  1.00  0.00     0.345 HD
ENDBRANCH   8  25
ENDBRANCH   6   8
ENDBRANCH   5   6
ENDBRANCH   4   5
ENDBRANCH   3   4
ENDBRANCH   2   3
ENDBRANCH   1   2
BRANCH   1  29
ATOM     29  C   UNL A   1      33.000  32.817  27.836  1.00  0.00     0.188 C 
BRANCH  29  30
ATOM     30  O   UNL A   1      32.770  34.191  28.026  1.00  0.00    -0.376 OA
BRANCH  30  31
ATOM     31  C   UNL A   1      33.464  34.908  29.026  1.00  0.00     0.202 C 
BRANCH  31  32
ATOM     32  C   UNL A   1      32.828  35.748  30.150  1.00  0.00     0.261 C 
BRANCH  32  33
ATOM     33  O   UNL A   1      32.555  35.124  31.404  1.00  0.00    -0.460 OA
BRANCH  33  34
ATOM     34  C   UNL A   1      33.304  35.553  32.451  1.00  0.00     0.338 C 
ATOM     35  O   UNL A   1      33.005  36.401  33.272  1.00  0.00    -0.246 OA
BRANCH  34  36
ATOM     36  C   UNL A   1      34.508  34.706  32.538  1.00  0.00     0.060 A 
ATOM     37  C   UNL A   1      34.384  33.385  32.985  1.00  0.00     0.016 A 
ATOM     38  C   UNL A   1      35.757  35.235  32.212  1.00  0.00     0.016 A 
ATOM     39  C   UNL A   1      35.524  32.591  33.135  1.00  0.00     0.010 A 
ATOM     40  C   UNL A   1      36.896  34.447  32.381  1.00  0.00     0.010 A 
ATOM     41  C   UNL A   1      36.789  33.132  32.870  1.00  0.00    -0.014 A 
BRANCH  41  42
ATOM     42  C   UNL A   1      38.023  32.413  33.268  1.00  0.00     0.031 A 
ATOM     43  C   UNL A   1      38.590  32.674  34.637  1.00  0.00     0.074 A 
ATOM     44  C   UNL A   1      38.656  31.584  32.420  1.00  0.00     0.049 A 
ATOM     45  N   UNL A   1      39.728  32.288  35.151  1.00  0.00    -0.248 NA
ATOM     46  C   UNL A   1      37.762  33.489  35.543  1.00  0.00     0.031 C 
ATOM     47  C   UNL A   1      38.185  31.208  31.088  1.00  0.00     0.029 A 
ATOM     48  N   UNL A   1      39.854  30.925  32.553  1.00  0.00    -0.354 N 
ATOM     49  C   UNL A   1      39.764  32.828  36.432  1.00  0.00     0.074 A 
ATOM     50  C   UNL A   1      38.542  33.581  36.610  1.00  0.00     0.031 C 
ATOM     51  C   UNL A   1      39.098  30.405  30.515  1.00  0.00     0.029 A 
ATOM     52  C   UNL A   1      40.236  30.246  31.421  1.00  0.00     0.049 A 
ATOM     53  H   UNL A   1      40.389  30.939  33.380  1.00  0.00     0.167 HD
ATOM     54  C   UNL A   1      40.729  32.710  37.373  1.00  0.00     0.031 A 
ATOM     55  C   UNL A   1      41.387  29.602  31.135  1.00  0.00     0.031 A 
ATOM     56  C   UNL A   1      41.951  31.976  37.185  1.00  0.00     0.049 A 
ATOM     57  C   UNL A   1      42.486  29.555  32.167  1.00  0.00     0.074 A 
ATOM     58  C   UNL A   1      42.989  31.790  38.082  1.00  0.00     0.029 A 
ATOM     59  N   UNL A   1      42.307  31.316  36.019  1.00  0.00    -0.354 N 
ATOM     60  N   UNL A   1      42.503  30.055  33.379  1.00  0.00    -0.248 NA
ATOM     61  C   UNL A   1      43.724  28.854  31.791  1.00  0.00     0.031 C 
ATOM     62  C   UNL A   1      43.995  31.063  37.440  1.00  0.00     0.029 A 
ATOM     63  C   UNL A   1      43.557  30.742  36.164  1.00  0.00     0.049 A 
ATOM     64  H   UNL A   1      41.751  31.264  35.207  1.00  0.00     0.167 HD
ATOM     65  C   UNL A   1      43.735  29.700  33.922  1.00  0.00     0.074 A 
ATOM     66  C   UNL A   1      44.435  28.939  32.908  1.00  0.00     0.031 C 
ATOM     67  C   UNL A   1      44.237  29.974  35.151  1.00  0.00     0.031 A 
BRANCH  54  68
ATOM     68  C   UNL A   1      40.518  33.429  38.677  1.00  0.00    -0.014 A 
ATOM     69  C   UNL A   1      41.085  34.695  38.913  1.00  0.00     0.010 A 
ATOM     70  C   UNL A   1      39.712  32.843  39.671  1.00  0.00     0.010 A 
ATOM     71  C   UNL A   1      40.882  35.343  40.134  1.00  0.00     0.020 A 
ATOM     72  C   UNL A   1      39.484  33.502  40.882  1.00  0.00     0.020 A 
ATOM     73  C   UNL A   1      40.085  34.741  41.113  1.00  0.00     0.054 A 
BRANCH  73  74
ATOM     74  S   UNL A   1      39.822  35.613  42.680  1.00  0.00     0.124 S 
ATOM     75  O   UNL A   1      38.874  36.655  42.289  1.00  0.00    -0.237 OA
ATOM     76  O   UNL A   1      39.283  34.565  43.543  1.00  0.00    -0.237 OA
ATOM     77  O   UNL A   1      41.154  36.090  43.041  1.00  0.00    -0.744 OA
ENDBRANCH  73  74
ENDBRANCH  54  68
BRANCH  55  78
ATOM     78  C   UNL A   1      41.575  28.974  29.799  1.00  0.00    -0.014 A 
ATOM     79  C   UNL A   1      41.999  29.742  28.700  1.00  0.00     0.010 A 
ATOM     80  C   UNL A   1      41.323  27.602  29.615  1.00  0.00     0.010 A 
ATOM     81  C   UNL A   1      42.153  29.154  27.441  1.00  0.00     0.020 A 
ATOM     82  C   UNL A   1      41.503  27.004  28.364  1.00  0.00     0.020 A 
ATOM     83  C   UNL A   1      41.907  27.788  27.282  1.00  0.00     0.054 A 
BRANCH  83  84
ATOM     84  S   UNL A   1      42.161  27.037  25.649  1.00  0.00     0.124 S 
ATOM     85  O   UNL A   1      40.925  26.283  25.466  1.00  0.00    -0.237 OA
ATOM     86  O   UNL A   1      42.324  28.205  24.787  1.00  0.00    -0.237 OA
ATOM     87  O   UNL A   1      43.366  26.230  25.828  1.00  0.00    -0.744 OA
ENDBRANCH  83  84
ENDBRANCH  55  78
BRANCH  67  88
ATOM     88  C   UNL A   1      45.588  29.408  35.505  1.00  0.00    -0.014 A 
ATOM     89  C   UNL A   1      45.725  28.115  36.038  1.00  0.00     0.010 A 
ATOM     90  C   UNL A   1      46.744  30.152  35.205  1.00  0.00     0.010 A 
ATOM     91  C   UNL A   1      46.996  27.582  36.279  1.00  0.00     0.020 A 
ATOM     92  C   UNL A   1      48.015  29.614  35.421  1.00  0.00     0.020 A 
ATOM     93  C   UNL A   1      48.133  28.333  35.964  1.00  0.00     0.054 A 
BRANCH  93  94
ATOM     94  S   UNL A   1      49.770  27.591  36.217  1.00  0.00     0.124 S 
ATOM     95  O   UNL A   1      50.647  28.556  35.558  1.00  0.00    -0.237 OA
ATOM     96  O   UNL A   1      49.875  27.537  37.673  1.00  0.00    -0.237 OA
ATOM     97  O   UNL A   1      49.668  26.291  35.558  1.00  0.00    -0.744 OA
ENDBRANCH  93  94
ENDBRANCH  67  88
ENDBRANCH  41  42
ENDBRANCH  34  36
ENDBRANCH  33  34
ENDBRANCH  32  33
ENDBRANCH  31  32
ENDBRANCH  30  31
ENDBRANCH  29  30
ENDBRANCH   1  29
TORSDOF 24
ENDMDL
MODEL 3
REMARK VINA RESULT:      -8.9      2.524      9.857
REMARK SMILES CC(C)C[NH+]1CC[NH+]([C@@H]2CC[C@]([NH3+])(C(=O)OCCOCCOCCOC(=O)c3ccc(-c4c5nc(c(-c6ccc(S(=O)(=O)[O-])cc6)c6ccc([nH]6)c(-c6ccc(S(=O)(=O)[O-])cc6)c6nc(c(-c7ccc(S(=O)(=O)[O-])cc7)c7ccc4[nH]7)C=C6)C=C5)cc3)C2)CC1
REMARK SMILES IDX 20 1 19 2 18 3 17 4 16 5 14 6 15 7 12 8 9 9 10 10 88 11
REMARK SMILES IDX 11 12 8 13 5 14 6 15 90 16 7 18 89 19 4 21 2 22 1 23 3 24
REMARK SMILES IDX 13 25 21 29 22 30 23 31 24 32 25 33 26 34 27 35 28 36 29 37
REMARK SMILES IDX 87 38 30 39 86 40 31 41 32 42 33 43 80 44 34 45 85 46 79 47
REMARK SMILES IDX 81 48 35 49 84 50 78 51 77 52 36 54 66 55 47 56 65 57 48 58
REMARK SMILES IDX 51 59 64 60 82 61 49 62 50 63 63 65 83 66 52 67 37 68 38 69
REMARK SMILES IDX 46 70 39 71 45 72 40 73 41 74 42 75 43 76 44 77 67 78 68 79
REMARK SMILES IDX 76 80 69 81 75 82 70 83 71 84 72 85 73 86 74 87 53 88 54 89
REMARK SMILES IDX 62 90 55 91 61 92 56 93 57 94 58 95 59 96 60 97
REMARK H PARENT 5 17 8 20 13 26 13 27 13 28 81 53 51 64
REMARK Flexibility Score: inf
ROOT
ATOM      1  C   UNL A   1      39.802  23.869  26.697  1.00  0.00     0.188 C 
ENDROOT
BRANCH   1   2
ATOM      2  O   UNL A   1      38.410  23.696  26.928  1.00  0.00    -0.376 OA
BRANCH   2   3
ATOM      3  C   UNL A   1      37.543  23.510  25.815  1.00  0.00     0.202 C 
BRANCH   3   4
ATOM      4  C   UNL A   1      37.211  22.084  25.364  1.00  0.00     0.261 C 
BRANCH   4   5
ATOM      5  O   UNL A   1      35.858  21.933  24.898  1.00  0.00    -0.459 OA
BRANCH   5   6
ATOM      6  C   UNL A   1      35.272  20.732  25.169  1.00  0.00     0.368 C 
ATOM      7  O   UNL A   1      35.826  19.649  25.009  1.00  0.00    -0.245 OA
BRANCH   6   8
ATOM      8  C   UNL A   1      33.846  20.864  25.759  1.00  0.00     0.198 C 
ATOM      9  C   UNL A   1      31.956  22.406  25.667  1.00  0.00     0.191 C 
ATOM     10  C   UNL A   1      32.710  22.674  26.976  1.00  0.00     0.072 C 
ATOM     11  C   UNL A   1      32.992  21.702  24.789  1.00  0.00     0.145 C 
ATOM     12  C   UNL A   1      33.891  21.706  27.038  1.00  0.00     0.087 C 
BRANCH   9  13
ATOM     13  N   UNL A   1      31.191  23.485  25.022  1.00  0.00    -0.323 N 
ATOM     14  N   UNL A   1      32.385  26.243  25.329  1.00  0.00    -0.325 N 
ATOM     15  C   UNL A   1      31.577  25.618  26.400  1.00  0.00     0.324 C 
ATOM     16  C   UNL A   1      32.874  25.258  24.360  1.00  0.00     0.324 C 
ATOM     17  H   UNL A   1      33.265  26.599  25.703  1.00  0.00     0.348 HD
ATOM     18  C   UNL A   1      30.620  24.478  25.952  1.00  0.00     0.324 C 
ATOM     19  C   UNL A   1      31.830  24.215  23.915  1.00  0.00     0.324 C 
ATOM     20  H   UNL A   1      30.450  22.918  24.611  1.00  0.00     0.348 HD
BRANCH  14  21
ATOM     21  C   UNL A   1      31.730  27.457  24.827  1.00  0.00     0.265 C 
BRANCH  21  22
ATOM     22  C   UNL A   1      31.851  27.906  23.352  1.00  0.00     0.038 C 
ATOM     23  C   UNL A   1      30.618  28.672  22.858  1.00  0.00     0.013 C 
ATOM     24  C   UNL A   1      33.073  28.829  23.229  1.00  0.00     0.013 C 
ENDBRANCH  21  22
ENDBRANCH  14  21
ENDBRANCH   9  13
BRANCH   8  25
ATOM     25  N   UNL A   1      33.188  19.571  26.042  1.00  0.00    -0.343 N 
ATOM     26  H   UNL A   1      32.272  19.739  26.457  1.00  0.00     0.345 HD
ATOM     27  H   UNL A   1      33.761  19.032  26.691  1.00  0.00     0.345 HD
ATOM     28  H   UNL A   1      33.076  19.048  25.173  1.00  0.00     0.345 HD
ENDBRANCH   8  25
ENDBRANCH   6   8
ENDBRANCH   5   6
ENDBRANCH   4   5
ENDBRANCH   3   4
ENDBRANCH   2   3
ENDBRANCH   1   2
BRANCH   1  29
ATOM     29  C   UNL A   1      40.709  22.626  26.593  1.00  0.00     0.188 C 
BRANCH  29  30
ATOM     30  O   UNL A   1      40.237  21.468  27.235  1.00  0.00    -0.376 OA
BRANCH  30  31
ATOM     31  C   UNL A   1      41.123  20.422  27.579  1.00  0.00     0.202 C 
BRANCH  31  32
ATOM     32  C   UNL A   1      41.844  19.480  26.595  1.00  0.00     0.261 C 
BRANCH  32  33
ATOM     33  O   UNL A   1      42.357  20.020  25.378  1.00  0.00    -0.460 OA
BRANCH  33  34
ATOM     34  C   UNL A   1      43.708  20.005  25.251  1.00  0.00     0.338 C 
ATOM     35  O   UNL A   1      44.406  19.063  24.920  1.00  0.00    -0.246 OA
BRANCH  34  36
ATOM     36  C   UNL A   1      44.208  21.380  25.433  1.00  0.00     0.060 A 
ATOM     37  C   UNL A   1      44.753  21.752  26.669  1.00  0.00     0.016 A 
ATOM     38  C   UNL A   1      44.099  22.304  24.394  1.00  0.00     0.016 A 
ATOM     39  C   UNL A   1      45.169  23.069  26.877  1.00  0.00     0.010 A 
ATOM     40  C   UNL A   1      44.498  23.624  24.611  1.00  0.00     0.010 A 
ATOM     41  C   UNL A   1      45.007  24.020  25.861  1.00  0.00    -0.014 A 
BRANCH  41  42
ATOM     42  C   UNL A   1      45.189  25.466  26.136  1.00  0.00     0.031 A 
ATOM     43  C   UNL A   1      46.572  26.046  26.015  1.00  0.00     0.074 A 
ATOM     44  C   UNL A   1      44.162  26.240  26.531  1.00  0.00     0.049 A 
ATOM     45  N   UNL A   1      47.005  27.234  26.348  1.00  0.00    -0.248 NA
ATOM     46  C   UNL A   1      47.605  25.161  25.451  1.00  0.00     0.031 C 
ATOM     47  C   UNL A   1      42.769  25.812  26.638  1.00  0.00     0.029 A 
ATOM     48  N   UNL A   1      44.146  27.551  26.940  1.00  0.00    -0.354 N 
ATOM     49  C   UNL A   1      48.364  27.233  26.052  1.00  0.00     0.074 A 
ATOM     50  C   UNL A   1      48.685  25.923  25.529  1.00  0.00     0.031 C 
ATOM     51  C   UNL A   1      42.036  26.836  27.109  1.00  0.00     0.029 A 
ATOM     52  C   UNL A   1      42.915  27.975  27.377  1.00  0.00     0.049 A 
ATOM     53  H   UNL A   1      44.942  28.131  26.921  1.00  0.00     0.167 HD
ATOM     54  C   UNL A   1      49.263  28.233  26.207  1.00  0.00     0.031 A 
ATOM     55  C   UNL A   1      42.547  29.134  27.962  1.00  0.00     0.031 A 
ATOM     56  C   UNL A   1      48.944  29.528  26.744  1.00  0.00     0.049 A 
ATOM     57  C   UNL A   1      43.582  30.203  28.203  1.00  0.00     0.074 A 
ATOM     58  C   UNL A   1      49.784  30.611  26.933  1.00  0.00     0.029 A 
ATOM     59  N   UNL A   1      47.688  29.911  27.191  1.00  0.00    -0.354 N 
ATOM     60  N   UNL A   1      44.860  30.198  27.906  1.00  0.00    -0.248 NA
ATOM     61  C   UNL A   1      43.125  31.438  28.860  1.00  0.00     0.031 C 
ATOM     62  C   UNL A   1      49.048  31.631  27.542  1.00  0.00     0.029 A 
ATOM     63  C   UNL A   1      47.735  31.206  27.676  1.00  0.00     0.049 A 
ATOM     64  H   UNL A   1      46.883  29.345  27.166  1.00  0.00     0.167 HD
ATOM     65  C   UNL A   1      45.350  31.438  28.307  1.00  0.00     0.074 A 
ATOM     66  C   UNL A   1      44.231  32.170  28.864  1.00  0.00     0.031 C 
ATOM     67  C   UNL A   1      46.611  31.928  28.215  1.00  0.00     0.031 A 
BRANCH  54  68
ATOM     68  C   UNL A   1      50.690  27.947  25.826  1.00  0.00    -0.014 A 
ATOM     69  C   UNL A   1      51.163  28.199  24.525  1.00  0.00     0.010 A 
ATOM     70  C   UNL A   1      51.581  27.448  26.795  1.00  0.00     0.010 A 
ATOM     71  C   UNL A   1      52.491  27.920  24.191  1.00  0.00     0.020 A 
ATOM     72  C   UNL A   1      52.917  27.194  26.470  1.00  0.00     0.020 A 
ATOM     73  C   UNL A   1      53.359  27.417  25.165  1.00  0.00     0.054 A 
BRANCH  73  74
ATOM     74  S   UNL A   1      55.082  27.083  24.708  1.00  0.00     0.124 S 
ATOM     75  O   UNL A   1      55.309  28.067  23.652  1.00  0.00    -0.237 OA
ATOM     76  O   UNL A   1      55.797  27.326  25.958  1.00  0.00    -0.237 OA
ATOM     77  O   UNL A   1      55.061  25.691  24.265  1.00  0.00    -0.744 OA
ENDBRANCH  73  74
ENDBRANCH  54  68
BRANCH  55  78
ATOM     78  C   UNL A   1      41.136  29.335  28.391  1.00  0.00    -0.014 A 
ATOM     79  C   UNL A   1      40.833  29.659  29.725  1.00  0.00     0.010 A 
ATOM     80  C   UNL A   1      40.083  29.195  27.467  1.00  0.00     0.010 A 
ATOM     81  C   UNL A   1      39.505  29.824  30.130  1.00  0.00     0.020 A 
ATOM     82  C   UNL A   1      38.757  29.388  27.861  1.00  0.00     0.020 A 
ATOM     83  C   UNL A   1      38.475  29.690  29.195  1.00  0.00     0.054 A 
BRANCH  83  84
ATOM     84  S   UNL A   1      36.762  29.959  29.734  1.00  0.00     0.124 S 
ATOM     85  O   UNL A   1      36.624  28.977  30.805  1.00  0.00    -0.237 OA
ATOM     86  O   UNL A   1      36.781  31.357  30.155  1.00  0.00    -0.237 OA
ATOM     87  O   UNL A   1      35.980  29.688  28.530  1.00  0.00    -0.744 OA
ENDBRANCH  83  84
ENDBRANCH  55  78
BRANCH  67  88
ATOM     88  C   UNL A   1      46.855  33.343  28.674  1.00  0.00    -0.014 A 
ATOM     89  C   UNL A   1      47.289  33.625  29.981  1.00  0.00     0.010 A 
ATOM     90  C   UNL A   1      46.738  34.396  27.748  1.00  0.00     0.010 A 
ATOM     91  C   UNL A   1      47.589  34.938  30.356  1.00  0.00     0.020 A 
ATOM     92  C   UNL A   1      47.059  35.706  28.112  1.00  0.00     0.020 A 
ATOM     93  C   UNL A   1      47.477  35.970  29.418  1.00  0.00     0.054 A 
BRANCH  93  94
ATOM     94  S   UNL A   1      47.941  37.655  29.909  1.00  0.00     0.124 S 
ATOM     95  O   UNL A   1      46.641  38.257  30.196  1.00  0.00    -0.237 OA
ATOM     96  O   UNL A   1      48.798  37.425  31.069  1.00  0.00    -0.237 OA
ATOM     97  O   UNL A   1      48.626  38.184  28.731  1.00  0.00    -0.744 OA
ENDBRANCH  93  94
ENDBRANCH  67  88
ENDBRANCH  41  42
ENDBRANCH  34  36
ENDBRANCH  33  34
ENDBRANCH  32  33
ENDBRANCH  31  32
ENDBRANCH  30  31
ENDBRANCH  29  30
ENDBRANCH   1  29
TORSDOF 24
ENDMDL
