MODEL 1
REMARK VINA RESULT:     -11.2      0.000      0.000
REMARK SMILES O=C(OCCOCCOCCOC(=O)c1ccc(-c2c3nc(c(-c4ccc(S(=O)(=O)[O-])cc4)c4ccc([nH]4)c(-c4ccc(S(=O)(=O)[O-])cc4)c4nc(c(-c5ccc(S(=O)(=O)[O-])cc5)c5ccc2[nH]5)C=C4)C=C3)cc1)C1=Cc2c(Cl)ccc(Cl)c2O[C@@H]1C(F)(F)F
REMARK SMILES IDX 8 1 7 2 6 3 5 4 4 5 3 6 2 7 1 8 75 9 76 10 86 11 77 12 85 13
REMARK SMILES IDX 78 14 84 15 79 16 80 17 82 18 81 19 83 20 87 21 88 22 89 23
REMARK SMILES IDX 90 24 9 25 10 26 11 27 12 28 13 29 14 30 15 31 16 32 74 33
REMARK SMILES IDX 17 34 73 35 18 36 19 37 20 38 67 39 21 40 72 41 66 42 68 43
REMARK SMILES IDX 22 44 71 45 65 46 64 47 23 49 53 50 34 51 52 52 35 53 38 54
REMARK SMILES IDX 51 55 69 56 36 57 37 58 50 60 70 61 39 62 24 63 25 64 33 65
REMARK SMILES IDX 26 66 32 67 27 68 28 69 29 70 30 71 31 72 54 73 55 74 63 75
REMARK SMILES IDX 56 76 62 77 57 78 58 79 59 80 60 81 61 82 40 83 41 84 49 85
REMARK SMILES IDX 42 86 48 87 43 88 44 89 45 90 46 91 47 92
REMARK H PARENT 68 48 38 59
REMARK Flexibility Score: inf
ROOT
ATOM      1  C   UNL A   1      35.004  20.514  24.881  1.00  0.00     0.188 C 
ENDROOT
BRANCH   1   2
ATOM      2  C   UNL A   1      34.752  21.674  23.900  1.00  0.00     0.188 C 
BRANCH   2   3
ATOM      3  O   UNL A   1      33.459  22.328  23.635  1.00  0.00    -0.376 OA
BRANCH   3   4
ATOM      4  C   UNL A   1      32.964  23.230  22.305  1.00  0.00     0.202 C 
BRANCH   4   5
ATOM      5  C   UNL A   1      31.739  25.019  22.324  1.00  0.00     0.261 C 
BRANCH   5   6
ATOM      6  O   UNL A   1      30.664  25.373  23.328  1.00  0.00    -0.460 OA
BRANCH   6   7
ATOM      7  C   UNL A   1      30.429  26.691  23.358  1.00  0.00     0.338 C 
ATOM      8  O   UNL A   1      30.455  27.469  22.437  1.00  0.00    -0.246 OA
BRANCH   7   9
ATOM      9  C   UNL A   1      30.626  26.886  24.788  1.00  0.00     0.087 C 
ATOM     10  C   UNL A   1      30.394  25.691  25.606  1.00  0.00     0.029 C 
ATOM     11  C   UNL A   1      32.340  27.707  24.535  1.00  0.00     0.316 C 
ATOM     12  C   UNL A   1      31.700  24.632  26.284  1.00  0.00     0.037 A 
ATOM     13  O   UNL A   1      33.781  26.536  25.115  1.00  0.00    -0.474 OA
ATOM     14  C   UNL A   1      31.396  23.454  26.925  1.00  0.00     0.052 A 
ATOM     15  C   UNL A   1      33.384  24.980  26.004  1.00  0.00     0.148 A 
ATOM     16  Cl  UNL A   1      29.797  22.906  27.197  1.00  0.00    -0.084 Cl
ATOM     17  C   UNL A   1      32.494  22.660  27.310  1.00  0.00     0.023 A 
ATOM     18  C   UNL A   1      34.385  24.127  26.392  1.00  0.00     0.083 A 
ATOM     19  C   UNL A   1      33.895  22.979  27.061  1.00  0.00     0.026 A 
ATOM     20  Cl  UNL A   1      36.038  24.294  26.053  1.00  0.00    -0.080 Cl
BRANCH  11  21
ATOM     21  C   UNL A   1      31.804  29.185  25.076  1.00  0.00     0.430 C 
ATOM     22  F   UNL A   1      30.738  29.755  24.513  1.00  0.00    -0.167 F 
ATOM     23  F   UNL A   1      31.444  29.015  26.383  1.00  0.00    -0.167 F 
ATOM     24  F   UNL A   1      32.777  30.137  25.116  1.00  0.00    -0.167 F 
ENDBRANCH  11  21
ENDBRANCH   7   9
ENDBRANCH   6   7
ENDBRANCH   5   6
ENDBRANCH   4   5
ENDBRANCH   3   4
ENDBRANCH   2   3
ENDBRANCH   1   2
BRANCH   1  25
ATOM     25  O   UNL A   1      36.284  19.966  25.036  1.00  0.00    -0.376 OA
BRANCH  25  26
ATOM     26  C   UNL A   1      37.372  20.752  24.583  1.00  0.00     0.202 C 
BRANCH  26  27
ATOM     27  C   UNL A   1      38.571  20.921  25.523  1.00  0.00     0.261 C 
BRANCH  27  28
ATOM     28  O   UNL A   1      38.679  22.232  26.112  1.00  0.00    -0.460 OA
BRANCH  28  29
ATOM     29  C   UNL A   1      39.931  22.675  26.390  1.00  0.00     0.338 C 
ATOM     30  O   UNL A   1      40.982  22.108  26.143  1.00  0.00    -0.246 OA
BRANCH  29  31
ATOM     31  C   UNL A   1      39.867  24.058  26.909  1.00  0.00     0.060 A 
ATOM     32  C   UNL A   1      40.514  25.080  26.193  1.00  0.00     0.016 A 
ATOM     33  C   UNL A   1      39.216  24.339  28.110  1.00  0.00     0.016 A 
ATOM     34  C   UNL A   1      40.525  26.382  26.687  1.00  0.00     0.010 A 
ATOM     35  C   UNL A   1      39.269  25.635  28.630  1.00  0.00     0.010 A 
ATOM     36  C   UNL A   1      39.962  26.648  27.940  1.00  0.00    -0.014 A 
BRANCH  36  37
ATOM     37  C   UNL A   1      40.384  27.875  28.654  1.00  0.00     0.031 A 
ATOM     38  C   UNL A   1      41.805  27.919  29.154  1.00  0.00     0.074 A 
ATOM     39  C   UNL A   1      39.566  28.931  28.813  1.00  0.00     0.049 A 
ATOM     40  N   UNL A   1      42.444  28.881  29.764  1.00  0.00    -0.248 NA
ATOM     41  C   UNL A   1      42.615  26.709  28.928  1.00  0.00     0.031 C 
ATOM     42  C   UNL A   1      38.192  29.021  28.325  1.00  0.00     0.029 A 
ATOM     43  N   UNL A   1      39.788  30.137  29.429  1.00  0.00    -0.354 N 
ATOM     44  C   UNL A   1      43.723  28.388  30.002  1.00  0.00     0.074 A 
ATOM     45  C   UNL A   1      43.761  27.034  29.503  1.00  0.00     0.031 C 
ATOM     46  C   UNL A   1      37.693  30.226  28.657  1.00  0.00     0.029 A 
ATOM     47  C   UNL A   1      38.701  30.978  29.405  1.00  0.00     0.049 A 
ATOM     48  H   UNL A   1      40.645  30.378  29.849  1.00  0.00     0.167 HD
ATOM     49  C   UNL A   1      44.775  29.011  30.581  1.00  0.00     0.031 A 
ATOM     50  C   UNL A   1      38.543  32.209  29.932  1.00  0.00     0.031 A 
ATOM     51  C   UNL A   1      44.717  30.348  31.105  1.00  0.00     0.049 A 
ATOM     52  C   UNL A   1      39.707  32.850  30.650  1.00  0.00     0.074 A 
ATOM     53  C   UNL A   1      45.726  31.083  31.699  1.00  0.00     0.029 A 
ATOM     54  N   UNL A   1      43.580  31.144  31.115  1.00  0.00    -0.354 N 
ATOM     55  N   UNL A   1      40.925  32.391  30.832  1.00  0.00    -0.248 NA
ATOM     56  C   UNL A   1      39.479  34.185  31.220  1.00  0.00     0.031 C 
ATOM     57  C   UNL A   1      45.178  32.287  32.146  1.00  0.00     0.029 A 
ATOM     58  C   UNL A   1      43.852  32.347  31.742  1.00  0.00     0.049 A 
ATOM     59  H   UNL A   1      42.710  30.890  30.732  1.00  0.00     0.167 HD
ATOM     60  C   UNL A   1      41.619  33.401  31.495  1.00  0.00     0.074 A 
ATOM     61  C   UNL A   1      40.687  34.497  31.670  1.00  0.00     0.031 C 
ATOM     62  C   UNL A   1      42.910  33.426  31.912  1.00  0.00     0.031 A 
BRANCH  49  63
ATOM     63  C   UNL A   1      46.052  28.224  30.733  1.00  0.00    -0.014 A 
ATOM     64  C   UNL A   1      47.031  28.196  29.722  1.00  0.00     0.010 A 
ATOM     65  C   UNL A   1      46.280  27.508  31.922  1.00  0.00     0.010 A 
ATOM     66  C   UNL A   1      48.192  27.435  29.882  1.00  0.00     0.020 A 
ATOM     67  C   UNL A   1      47.456  26.778  32.102  1.00  0.00     0.020 A 
ATOM     68  C   UNL A   1      48.398  26.732  31.073  1.00  0.00     0.054 A 
BRANCH  68  69
ATOM     69  S   UNL A   1      49.928  25.777  31.265  1.00  0.00     0.124 S 
ATOM     70  O   UNL A   1      50.881  26.809  31.667  1.00  0.00    -0.237 OA
ATOM     71  O   UNL A   1      49.571  24.813  32.303  1.00  0.00    -0.237 OA
ATOM     72  O   UNL A   1      50.151  25.207  29.939  1.00  0.00    -0.744 OA
ENDBRANCH  68  69
ENDBRANCH  49  63
BRANCH  50  73
ATOM     73  C   UNL A   1      37.242  32.926  29.802  1.00  0.00    -0.014 A 
ATOM     74  C   UNL A   1      36.240  32.785  30.780  1.00  0.00     0.010 A 
ATOM     75  C   UNL A   1      36.989  33.744  28.685  1.00  0.00     0.010 A 
ATOM     76  C   UNL A   1      35.007  33.429  30.633  1.00  0.00     0.020 A 
ATOM     77  C   UNL A   1      35.770  34.416  28.552  1.00  0.00     0.020 A 
ATOM     78  C   UNL A   1      34.782  34.245  29.522  1.00  0.00     0.054 A 
BRANCH  78  79
ATOM     79  S   UNL A   1      33.191  35.107  29.379  1.00  0.00     0.124 S 
ATOM     80  O   UNL A   1      32.668  35.012  30.737  1.00  0.00    -0.237 OA
ATOM     81  O   UNL A   1      33.597  36.443  28.948  1.00  0.00    -0.237 OA
ATOM     82  O   UNL A   1      32.468  34.329  28.374  1.00  0.00    -0.744 OA
ENDBRANCH  78  79
ENDBRANCH  50  73
BRANCH  62  83
ATOM     83  C   UNL A   1      43.415  34.699  32.547  1.00  0.00    -0.014 A 
ATOM     84  C   UNL A   1      43.348  34.916  33.935  1.00  0.00     0.010 A 
ATOM     85  C   UNL A   1      44.007  35.682  31.732  1.00  0.00     0.010 A 
ATOM     86  C   UNL A   1      43.812  36.114  34.486  1.00  0.00     0.020 A 
ATOM     87  C   UNL A   1      44.512  36.861  32.282  1.00  0.00     0.020 A 
ATOM     88  C   UNL A   1      44.391  37.079  33.655  1.00  0.00     0.054 A 
BRANCH  88  89
ATOM     89  S   UNL A   1      45.001  38.616  34.398  1.00  0.00     0.124 S 
ATOM     90  O   UNL A   1      45.517  39.333  33.236  1.00  0.00    -0.237 OA
ATOM     91  O   UNL A   1      43.796  39.179  35.002  1.00  0.00    -0.237 OA
ATOM     92  O   UNL A   1      46.015  38.163  35.349  1.00  0.00    -0.744 OA
ENDBRANCH  88  89
ENDBRANCH  62  83
ENDBRANCH  36  37
ENDBRANCH  29  31
ENDBRANCH  28  29
ENDBRANCH  27  28
ENDBRANCH  26  27
ENDBRANCH  25  26
ENDBRANCH   1  25
TORSDOF 21
ENDMDL
MODEL 2
REMARK VINA RESULT:     -10.9      4.134     10.285
REMARK SMILES O=C(OCCOCCOCCOC(=O)c1ccc(-c2c3nc(c(-c4ccc(S(=O)(=O)[O-])cc4)c4ccc([nH]4)c(-c4ccc(S(=O)(=O)[O-])cc4)c4nc(c(-c5ccc(S(=O)(=O)[O-])cc5)c5ccc2[nH]5)C=C4)C=C3)cc1)C1=Cc2c(Cl)ccc(Cl)c2O[C@@H]1C(F)(F)F
REMARK SMILES IDX 8 1 7 2 6 3 5 4 4 5 3 6 2 7 1 8 75 9 76 10 86 11 77 12 85 13
REMARK SMILES IDX 78 14 84 15 79 16 80 17 82 18 81 19 83 20 87 21 88 22 89 23
REMARK SMILES IDX 90 24 9 25 10 26 11 27 12 28 13 29 14 30 15 31 16 32 74 33
REMARK SMILES IDX 17 34 73 35 18 36 19 37 20 38 67 39 21 40 72 41 66 42 68 43
REMARK SMILES IDX 22 44 71 45 65 46 64 47 23 49 53 50 34 51 52 52 35 53 38 54
REMARK SMILES IDX 51 55 69 56 36 57 37 58 50 60 70 61 39 62 24 63 25 64 33 65
REMARK SMILES IDX 26 66 32 67 27 68 28 69 29 70 30 71 31 72 54 73 55 74 63 75
REMARK SMILES IDX 56 76 62 77 57 78 58 79 59 80 60 81 61 82 40 83 41 84 49 85
REMARK SMILES IDX 42 86 48 87 43 88 44 89 45 90 46 91 47 92
REMARK H PARENT 68 48 38 59
REMARK Flexibility Score: inf
ROOT
ATOM      1  C   UNL A   1      33.991  31.990  27.987  1.00  0.00     0.188 C 
ENDROOT
BRANCH   1   2
ATOM      2  C   UNL A   1      33.464  30.726  27.285  1.00  0.00     0.188 C 
BRANCH   2   3
ATOM      3  O   UNL A   1      32.433  30.675  26.235  1.00  0.00    -0.376 OA
BRANCH   3   4
ATOM      4  C   UNL A   1      31.546  29.365  25.662  1.00  0.00     0.202 C 
BRANCH   4   5
ATOM      5  C   UNL A   1      31.479  27.367  26.502  1.00  0.00     0.261 C 
BRANCH   5   6
ATOM      6  O   UNL A   1      32.597  26.349  26.514  1.00  0.00    -0.460 OA
BRANCH   6   7
ATOM      7  C   UNL A   1      32.130  25.098  26.418  1.00  0.00     0.338 C 
ATOM      8  O   UNL A   1      31.762  24.374  27.309  1.00  0.00    -0.246 OA
BRANCH   7   9
ATOM      9  C   UNL A   1      32.655  24.801  25.092  1.00  0.00     0.087 C 
ATOM     10  C   UNL A   1      34.084  24.470  25.061  1.00  0.00     0.029 C 
ATOM     11  C   UNL A   1      31.249  23.555  24.711  1.00  0.00     0.316 C 
ATOM     12  C   UNL A   1      34.755  22.790  24.935  1.00  0.00     0.037 A 
ATOM     13  O   UNL A   1      31.903  21.723  24.714  1.00  0.00    -0.474 OA
ATOM     14  C   UNL A   1      36.104  22.555  25.050  1.00  0.00     0.052 A 
ATOM     15  C   UNL A   1      33.706  21.403  24.831  1.00  0.00     0.148 A 
ATOM     16  Cl  UNL A   1      37.269  23.792  25.260  1.00  0.00    -0.084 Cl
ATOM     17  C   UNL A   1      36.497  21.202  25.049  1.00  0.00     0.023 A 
ATOM     18  C   UNL A   1      34.182  20.118  24.867  1.00  0.00     0.083 A 
ATOM     19  C   UNL A   1      35.594  20.061  24.960  1.00  0.00     0.026 A 
ATOM     20  Cl  UNL A   1      33.252  18.700  24.912  1.00  0.00    -0.080 Cl
BRANCH  11  21
ATOM     21  C   UNL A   1      30.607  24.519  23.518  1.00  0.00     0.430 C 
ATOM     22  F   UNL A   1      31.415  25.149  22.663  1.00  0.00    -0.167 F 
ATOM     23  F   UNL A   1      29.846  23.706  22.726  1.00  0.00    -0.167 F 
ATOM     24  F   UNL A   1      29.730  25.452  23.983  1.00  0.00    -0.167 F 
ENDBRANCH  11  21
ENDBRANCH   7   9
ENDBRANCH   6   7
ENDBRANCH   5   6
ENDBRANCH   4   5
ENDBRANCH   3   4
ENDBRANCH   2   3
ENDBRANCH   1   2
BRANCH   1  25
ATOM     25  O   UNL A   1      35.176  32.608  27.568  1.00  0.00    -0.376 OA
BRANCH  25  26
ATOM     26  C   UNL A   1      36.053  33.059  28.585  1.00  0.00     0.202 C 
BRANCH  26  27
ATOM     27  C   UNL A   1      36.101  32.262  29.893  1.00  0.00     0.261 C 
BRANCH  27  28
ATOM     28  O   UNL A   1      37.331  31.538  30.097  1.00  0.00    -0.460 OA
BRANCH  28  29
ATOM     29  C   UNL A   1      37.237  30.187  30.186  1.00  0.00     0.338 C 
ATOM     30  O   UNL A   1      36.272  29.542  30.562  1.00  0.00    -0.246 OA
BRANCH  29  31
ATOM     31  C   UNL A   1      38.440  29.562  29.597  1.00  0.00     0.060 A 
ATOM     32  C   UNL A   1      39.360  28.929  30.450  1.00  0.00     0.016 A 
ATOM     33  C   UNL A   1      38.683  29.639  28.226  1.00  0.00     0.016 A 
ATOM     34  C   UNL A   1      40.534  28.385  29.933  1.00  0.00     0.010 A 
ATOM     35  C   UNL A   1      39.883  29.136  27.714  1.00  0.00     0.010 A 
ATOM     36  C   UNL A   1      40.829  28.548  28.575  1.00  0.00    -0.014 A 
BRANCH  36  37
ATOM     37  C   UNL A   1      42.238  28.405  28.140  1.00  0.00     0.031 A 
ATOM     38  C   UNL A   1      43.146  29.584  28.373  1.00  0.00     0.074 A 
ATOM     39  C   UNL A   1      42.713  27.266  27.608  1.00  0.00     0.049 A 
ATOM     40  N   UNL A   1      44.424  29.712  28.133  1.00  0.00    -0.248 NA
ATOM     41  C   UNL A   1      42.523  30.784  28.961  1.00  0.00     0.031 C 
ATOM     42  C   UNL A   1      41.940  26.045  27.386  1.00  0.00     0.029 A 
ATOM     43  N   UNL A   1      43.974  26.954  27.165  1.00  0.00    -0.354 N 
ATOM     44  C   UNL A   1      44.753  31.003  28.532  1.00  0.00     0.074 A 
ATOM     45  C   UNL A   1      43.538  31.631  28.997  1.00  0.00     0.031 C 
ATOM     46  C   UNL A   1      42.749  25.112  26.851  1.00  0.00     0.029 A 
ATOM     47  C   UNL A   1      44.086  25.677  26.667  1.00  0.00     0.049 A 
ATOM     48  H   UNL A   1      44.728  27.586  27.200  1.00  0.00     0.167 HD
ATOM     49  C   UNL A   1      45.961  31.611  28.518  1.00  0.00     0.031 A 
ATOM     50  C   UNL A   1      45.146  25.048  26.122  1.00  0.00     0.031 A 
ATOM     51  C   UNL A   1      47.158  30.988  28.023  1.00  0.00     0.049 A 
ATOM     52  C   UNL A   1      46.465  25.778  26.038  1.00  0.00     0.074 A 
ATOM     53  C   UNL A   1      48.439  31.506  27.974  1.00  0.00     0.029 A 
ATOM     54  N   UNL A   1      47.216  29.716  27.472  1.00  0.00    -0.354 N 
ATOM     55  N   UNL A   1      46.774  26.985  26.457  1.00  0.00    -0.248 NA
ATOM     56  C   UNL A   1      47.585  25.054  25.421  1.00  0.00     0.031 C 
ATOM     57  C   UNL A   1      49.253  30.582  27.315  1.00  0.00     0.029 A 
ATOM     58  C   UNL A   1      48.504  29.447  27.043  1.00  0.00     0.049 A 
ATOM     59  H   UNL A   1      46.455  29.097  27.398  1.00  0.00     0.167 HD
ATOM     60  C   UNL A   1      48.133  27.143  26.197  1.00  0.00     0.074 A 
ATOM     61  C   UNL A   1      48.586  25.905  25.596  1.00  0.00     0.031 C 
ATOM     62  C   UNL A   1      48.937  28.209  26.441  1.00  0.00     0.031 A 
BRANCH  49  63
ATOM     63  C   UNL A   1      46.027  33.041  28.992  1.00  0.00    -0.014 A 
ATOM     64  C   UNL A   1      46.632  33.389  30.214  1.00  0.00     0.010 A 
ATOM     65  C   UNL A   1      45.481  34.057  28.188  1.00  0.00     0.010 A 
ATOM     66  C   UNL A   1      46.653  34.720  30.640  1.00  0.00     0.020 A 
ATOM     67  C   UNL A   1      45.534  35.393  28.591  1.00  0.00     0.020 A 
ATOM     68  C   UNL A   1      46.106  35.714  29.823  1.00  0.00     0.054 A 
BRANCH  68  69
ATOM     69  S   UNL A   1      46.173  37.437  30.386  1.00  0.00     0.124 S 
ATOM     70  O   UNL A   1      45.036  38.029  29.684  1.00  0.00    -0.237 OA
ATOM     71  O   UNL A   1      46.019  37.304  31.832  1.00  0.00    -0.237 OA
ATOM     72  O   UNL A   1      47.486  37.897  29.941  1.00  0.00    -0.744 OA
ENDBRANCH  68  69
ENDBRANCH  49  63
BRANCH  50  73
ATOM     73  C   UNL A   1      45.017  23.651  25.617  1.00  0.00    -0.014 A 
ATOM     74  C   UNL A   1      45.485  22.562  26.376  1.00  0.00     0.010 A 
ATOM     75  C   UNL A   1      44.438  23.400  24.359  1.00  0.00     0.010 A 
ATOM     76  C   UNL A   1      45.397  21.257  25.880  1.00  0.00     0.020 A 
ATOM     77  C   UNL A   1      44.317  22.093  23.875  1.00  0.00     0.020 A 
ATOM     78  C   UNL A   1      44.808  21.031  24.634  1.00  0.00     0.054 A 
BRANCH  78  79
ATOM     79  S   UNL A   1      44.662  19.325  24.034  1.00  0.00     0.124 S 
ATOM     80  O   UNL A   1      44.582  19.514  22.590  1.00  0.00    -0.237 OA
ATOM     81  O   UNL A   1      45.894  18.714  24.526  1.00  0.00    -0.237 OA
ATOM     82  O   UNL A   1      43.438  18.840  24.669  1.00  0.00    -0.744 OA
ENDBRANCH  78  79
ENDBRANCH  50  73
BRANCH  62  83
ATOM     83  C   UNL A   1      50.404  28.068  26.115  1.00  0.00    -0.014 A 
ATOM     84  C   UNL A   1      51.317  27.504  27.023  1.00  0.00     0.010 A 
ATOM     85  C   UNL A   1      50.866  28.475  24.849  1.00  0.00     0.010 A 
ATOM     86  C   UNL A   1      52.672  27.403  26.692  1.00  0.00     0.020 A 
ATOM     87  C   UNL A   1      52.209  28.336  24.497  1.00  0.00     0.020 A 
ATOM     88  C   UNL A   1      53.108  27.820  25.430  1.00  0.00     0.054 A 
BRANCH  88  89
ATOM     89  S   UNL A   1      54.867  27.660  25.020  1.00  0.00     0.124 S 
ATOM     90  O   UNL A   1      55.378  28.988  25.347  1.00  0.00    -0.237 OA
ATOM     91  O   UNL A   1      55.304  26.582  25.903  1.00  0.00    -0.237 OA
ATOM     92  O   UNL A   1      54.863  27.329  23.596  1.00  0.00    -0.744 OA
ENDBRANCH  88  89
ENDBRANCH  62  83
ENDBRANCH  36  37
ENDBRANCH  29  31
ENDBRANCH  28  29
ENDBRANCH  27  28
ENDBRANCH  26  27
ENDBRANCH  25  26
ENDBRANCH   1  25
TORSDOF 21
ENDMDL
MODEL 3
REMARK VINA RESULT:     -10.7      4.327      9.562
REMARK SMILES O=C(OCCOCCOCCOC(=O)c1ccc(-c2c3nc(c(-c4ccc(S(=O)(=O)[O-])cc4)c4ccc([nH]4)c(-c4ccc(S(=O)(=O)[O-])cc4)c4nc(c(-c5ccc(S(=O)(=O)[O-])cc5)c5ccc2[nH]5)C=C4)C=C3)cc1)C1=Cc2c(Cl)ccc(Cl)c2O[C@@H]1C(F)(F)F
REMARK SMILES IDX 8 1 7 2 6 3 5 4 4 5 3 6 2 7 1 8 75 9 76 10 86 11 77 12 85 13
REMARK SMILES IDX 78 14 84 15 79 16 80 17 82 18 81 19 83 20 87 21 88 22 89 23
REMARK SMILES IDX 90 24 9 25 10 26 11 27 12 28 13 29 14 30 15 31 16 32 74 33
REMARK SMILES IDX 17 34 73 35 18 36 19 37 20 38 67 39 21 40 72 41 66 42 68 43
REMARK SMILES IDX 22 44 71 45 65 46 64 47 23 49 53 50 34 51 52 52 35 53 38 54
REMARK SMILES IDX 51 55 69 56 36 57 37 58 50 60 70 61 39 62 24 63 25 64 33 65
REMARK SMILES IDX 26 66 32 67 27 68 28 69 29 70 30 71 31 72 54 73 55 74 63 75
REMARK SMILES IDX 56 76 62 77 57 78 58 79 59 80 60 81 61 82 40 83 41 84 49 85
REMARK SMILES IDX 42 86 48 87 43 88 44 89 45 90 46 91 47 92
REMARK H PARENT 68 48 38 59
REMARK Flexibility Score: inf
ROOT
ATOM      1  C   UNL A   1      36.640  21.740  25.523  1.00  0.00     0.188 C 
ENDROOT
BRANCH   1   2
ATOM      2  C   UNL A   1      36.458  20.294  25.027  1.00  0.00     0.188 C 
BRANCH   2   3
ATOM      3  O   UNL A   1      35.182  19.642  24.686  1.00  0.00    -0.376 OA
BRANCH   3   4
ATOM      4  C   UNL A   1      33.716  19.651  25.510  1.00  0.00     0.202 C 
BRANCH   4   5
ATOM      5  C   UNL A   1      32.726  21.367  26.393  1.00  0.00     0.261 C 
BRANCH   5   6
ATOM      6  O   UNL A   1      31.672  22.239  25.748  1.00  0.00    -0.460 OA
BRANCH   6   7
ATOM      7  C   UNL A   1      32.052  23.522  25.700  1.00  0.00     0.338 C 
ATOM      8  O   UNL A   1      32.205  24.284  26.622  1.00  0.00    -0.246 OA
BRANCH   7   9
ATOM      9  C   UNL A   1      31.740  23.760  24.297  1.00  0.00     0.087 C 
ATOM     10  C   UNL A   1      30.584  24.633  24.067  1.00  0.00     0.029 C 
ATOM     11  C   UNL A   1      33.551  24.231  23.877  1.00  0.00     0.316 C 
ATOM     12  C   UNL A   1      30.685  26.386  23.616  1.00  0.00     0.037 A 
ATOM     13  O   UNL A   1      33.726  26.137  23.531  1.00  0.00    -0.474 OA
ATOM     14  C   UNL A   1      29.556  27.168  23.553  1.00  0.00     0.052 A 
ATOM     15  C   UNL A   1      32.221  27.180  23.409  1.00  0.00     0.148 A 
ATOM     16  Cl  UNL A   1      27.973  26.574  23.827  1.00  0.00    -0.084 Cl
ATOM     17  C   UNL A   1      29.767  28.537  23.302  1.00  0.00     0.023 A 
ATOM     18  C   UNL A   1      32.328  28.530  23.198  1.00  0.00     0.083 A 
ATOM     19  C   UNL A   1      31.068  29.174  23.134  1.00  0.00     0.026 A 
ATOM     20  Cl  UNL A   1      33.765  29.427  23.121  1.00  0.00    -0.080 Cl
BRANCH  11  21
ATOM     21  C   UNL A   1      33.764  22.889  22.920  1.00  0.00     0.430 C 
ATOM     22  F   UNL A   1      33.116  21.758  23.202  1.00  0.00    -0.167 F 
ATOM     23  F   UNL A   1      33.326  23.227  21.671  1.00  0.00    -0.167 F 
ATOM     24  F   UNL A   1      35.071  22.551  22.738  1.00  0.00    -0.167 F 
ENDBRANCH  11  21
ENDBRANCH   7   9
ENDBRANCH   6   7
ENDBRANCH   5   6
ENDBRANCH   4   5
ENDBRANCH   3   4
ENDBRANCH   2   3
ENDBRANCH   1   2
BRANCH   1  25
ATOM     25  O   UNL A   1      37.749  22.503  25.132  1.00  0.00    -0.376 OA
BRANCH  25  26
ATOM     26  C   UNL A   1      38.104  23.587  25.972  1.00  0.00     0.202 C 
BRANCH  26  27
ATOM     27  C   UNL A   1      39.477  23.544  26.652  1.00  0.00     0.261 C 
BRANCH  27  28
ATOM     28  O   UNL A   1      39.665  24.552  27.665  1.00  0.00    -0.460 OA
BRANCH  28  29
ATOM     29  C   UNL A   1      40.100  25.766  27.243  1.00  0.00     0.338 C 
ATOM     30  O   UNL A   1      40.464  26.066  26.119  1.00  0.00    -0.246 OA
BRANCH  29  31
ATOM     31  C   UNL A   1      39.921  26.762  28.321  1.00  0.00     0.060 A 
ATOM     32  C   UNL A   1      40.675  27.947  28.280  1.00  0.00     0.016 A 
ATOM     33  C   UNL A   1      39.052  26.513  29.384  1.00  0.00     0.016 A 
ATOM     34  C   UNL A   1      40.575  28.877  29.312  1.00  0.00     0.010 A 
ATOM     35  C   UNL A   1      38.988  27.423  30.443  1.00  0.00     0.010 A 
ATOM     36  C   UNL A   1      39.783  28.585  30.428  1.00  0.00    -0.014 A 
BRANCH  36  37
ATOM     37  C   UNL A   1      40.046  29.318  31.688  1.00  0.00     0.031 A 
ATOM     38  C   UNL A   1      39.051  30.378  32.082  1.00  0.00     0.074 A 
ATOM     39  C   UNL A   1      41.092  29.027  32.481  1.00  0.00     0.049 A 
ATOM     40  N   UNL A   1      39.015  31.132  33.149  1.00  0.00    -0.248 NA
ATOM     41  C   UNL A   1      37.943  30.617  31.140  1.00  0.00     0.031 C 
ATOM     42  C   UNL A   1      42.087  27.987  32.229  1.00  0.00     0.029 A 
ATOM     43  N   UNL A   1      41.481  29.586  33.673  1.00  0.00    -0.354 N 
ATOM     44  C   UNL A   1      37.890  31.936  33.000  1.00  0.00     0.074 A 
ATOM     45  C   UNL A   1      37.290  31.605  31.729  1.00  0.00     0.031 C 
ATOM     46  C   UNL A   1      42.973  27.980  33.242  1.00  0.00     0.029 A 
ATOM     47  C   UNL A   1      42.624  29.031  34.198  1.00  0.00     0.049 A 
ATOM     48  H   UNL A   1      40.988  30.317  34.112  1.00  0.00     0.167 HD
ATOM     49  C   UNL A   1      37.397  32.865  33.850  1.00  0.00     0.031 A 
ATOM     50  C   UNL A   1      43.308  29.345  35.317  1.00  0.00     0.031 A 
ATOM     51  C   UNL A   1      38.020  33.210  35.099  1.00  0.00     0.049 A 
ATOM     52  C   UNL A   1      42.783  30.446  36.208  1.00  0.00     0.074 A 
ATOM     53  C   UNL A   1      37.598  34.126  36.045  1.00  0.00     0.029 A 
ATOM     54  N   UNL A   1      39.209  32.668  35.565  1.00  0.00    -0.354 N 
ATOM     55  N   UNL A   1      41.695  31.171  36.078  1.00  0.00    -0.248 NA
ATOM     56  C   UNL A   1      43.573  30.760  37.407  1.00  0.00     0.031 C 
ATOM     57  C   UNL A   1      38.577  34.200  37.040  1.00  0.00     0.029 A 
ATOM     58  C   UNL A   1      39.558  33.259  36.766  1.00  0.00     0.049 A 
ATOM     59  H   UNL A   1      39.726  31.966  35.108  1.00  0.00     0.167 HD
ATOM     60  C   UNL A   1      41.647  31.991  37.203  1.00  0.00     0.074 A 
ATOM     61  C   UNL A   1      42.809  31.663  38.005  1.00  0.00     0.031 C 
ATOM     62  C   UNL A   1      40.722  32.923  37.549  1.00  0.00     0.031 A 
BRANCH  49  63
ATOM     63  C   UNL A   1      36.160  33.613  33.422  1.00  0.00    -0.014 A 
ATOM     64  C   UNL A   1      34.879  33.033  33.494  1.00  0.00     0.010 A 
ATOM     65  C   UNL A   1      36.284  34.933  32.950  1.00  0.00     0.010 A 
ATOM     66  C   UNL A   1      33.755  33.743  33.064  1.00  0.00     0.020 A 
ATOM     67  C   UNL A   1      35.159  35.660  32.556  1.00  0.00     0.020 A 
ATOM     68  C   UNL A   1      33.902  35.053  32.600  1.00  0.00     0.054 A 
BRANCH  68  69
ATOM     69  S   UNL A   1      32.423  35.962  32.076  1.00  0.00     0.124 S 
ATOM     70  O   UNL A   1      32.649  37.278  32.671  1.00  0.00    -0.237 OA
ATOM     71  O   UNL A   1      32.515  35.906  30.620  1.00  0.00    -0.237 OA
ATOM     72  O   UNL A   1      31.321  35.198  32.658  1.00  0.00    -0.744 OA
ENDBRANCH  68  69
ENDBRANCH  49  63
BRANCH  50  73
ATOM     73  C   UNL A   1      44.557  28.611  35.670  1.00  0.00    -0.014 A 
ATOM     74  C   UNL A   1      44.504  27.398  36.382  1.00  0.00     0.010 A 
ATOM     75  C   UNL A   1      45.813  29.132  35.311  1.00  0.00     0.010 A 
ATOM     76  C   UNL A   1      45.681  26.734  36.744  1.00  0.00     0.020 A 
ATOM     77  C   UNL A   1      46.991  28.454  35.641  1.00  0.00     0.020 A 
ATOM     78  C   UNL A   1      46.917  27.264  36.366  1.00  0.00     0.054 A 
BRANCH  78  79
ATOM     79  S   UNL A   1      48.427  26.359  36.808  1.00  0.00     0.124 S 
ATOM     80  O   UNL A   1      48.476  26.533  38.255  1.00  0.00    -0.237 OA
ATOM     81  O   UNL A   1      48.129  25.007  36.341  1.00  0.00    -0.237 OA
ATOM     82  O   UNL A   1      49.475  27.052  36.059  1.00  0.00    -0.744 OA
ENDBRANCH  78  79
ENDBRANCH  50  73
BRANCH  62  83
ATOM     83  C   UNL A   1      40.892  33.617  38.878  1.00  0.00    -0.014 A 
ATOM     84  C   UNL A   1      40.338  33.102  40.063  1.00  0.00     0.010 A 
ATOM     85  C   UNL A   1      41.662  34.794  38.943  1.00  0.00     0.010 A 
ATOM     86  C   UNL A   1      40.504  33.780  41.275  1.00  0.00     0.020 A 
ATOM     87  C   UNL A   1      41.868  35.451  40.157  1.00  0.00     0.020 A 
ATOM     88  C   UNL A   1      41.268  34.951  41.312  1.00  0.00     0.054 A 
BRANCH  88  89
ATOM     89  S   UNL A   1      41.483  35.800  42.900  1.00  0.00     0.124 S 
ATOM     90  O   UNL A   1      42.821  36.368  42.763  1.00  0.00    -0.237 OA
ATOM     91  O   UNL A   1      40.387  36.765  42.896  1.00  0.00    -0.237 OA
ATOM     92  O   UNL A   1      41.360  34.729  43.887  1.00  0.00    -0.744 OA
ENDBRANCH  88  89
ENDBRANCH  62  83
ENDBRANCH  36  37
ENDBRANCH  29  31
ENDBRANCH  28  29
ENDBRANCH  27  28
ENDBRANCH  26  27
ENDBRANCH  25  26
ENDBRANCH   1  25
TORSDOF 21
ENDMDL
