MODEL 1
REMARK VINA RESULT:      -8.6      0.000      0.000
REMARK SMILES CO[C@@H]1C[NH2+][C@@H](O[C@@H]2C[C@@H](C(=O)OCCOCCOCCOC(=O)c3ccc(-c4c5nc(c(-c6ccc(S(=O)(=O)[O-])cc6)c6ccc([nH]6)c(-c6ccc(S(=O)(=O)[O-])cc6)c6nc(c(-c7ccc(S(=O)(=O)[O-])cc7)c7ccc4[nH]7)C=C6)C=C5)cc3)N(C(=O)OC(C)(C)C)C2)c2cc(Cl)ccc21
REMARK SMILES IDX 17 1 16 2 15 3 14 4 13 5 11 6 12 7 10 8 8 9 9 10 93 11 85 12
REMARK SMILES IDX 7 13 6 14 3 15 4 16 100 17 5 18 94 19 99 20 95 23 98 24
REMARK SMILES IDX 96 25 97 26 2 27 1 28 86 29 87 30 88 31 89 32 90 33 91 34
REMARK SMILES IDX 92 35 18 36 19 37 20 38 21 39 22 40 23 41 24 42 25 43 26 44
REMARK SMILES IDX 84 45 27 46 83 47 28 48 29 49 30 50 77 51 31 52 82 53 76 54
REMARK SMILES IDX 78 55 32 56 81 57 75 58 74 59 33 61 63 62 44 63 62 64 45 65
REMARK SMILES IDX 48 66 61 67 79 68 46 69 47 70 60 72 80 73 49 74 34 75 35 76
REMARK SMILES IDX 43 77 36 78 42 79 37 80 38 81 39 82 40 83 41 84 64 85 65 86
REMARK SMILES IDX 73 87 66 88 72 89 67 90 68 91 69 92 70 93 71 94 50 95 51 96
REMARK SMILES IDX 59 97 52 98 58 99 53 100 54 101 55 102 56 103 57 104
REMARK H PARENT 5 21 5 22 78 60 48 71
REMARK Flexibility Score: inf
ROOT
ATOM      1  C   UNL A   1      36.368  31.520  29.063  1.00  0.00     0.188 C 
ENDROOT
BRANCH   1   2
ATOM      2  O   UNL A   1      36.452  30.628  27.960  1.00  0.00    -0.376 OA
BRANCH   2   3
ATOM      3  C   UNL A   1      35.352  29.717  27.862  1.00  0.00     0.202 C 
BRANCH   3   4
ATOM      4  C   UNL A   1      34.154  30.265  27.060  1.00  0.00     0.261 C 
BRANCH   4   5
ATOM      5  O   UNL A   1      33.639  29.274  26.137  1.00  0.00    -0.462 OA
BRANCH   5   6
ATOM      6  C   UNL A   1      32.287  29.068  26.123  1.00  0.00     0.329 C 
ATOM      7  O   UNL A   1      31.469  29.920  26.446  1.00  0.00    -0.250 OA
BRANCH   6   8
ATOM      8  C   UNL A   1      31.925  27.763  25.369  1.00  0.00     0.201 C 
ATOM      9  C   UNL A   1      33.011  26.068  23.923  1.00  0.00     0.147 C 
ATOM     10  C   UNL A   1      33.153  26.826  25.246  1.00  0.00     0.071 C 
ATOM     11  C   UNL A   1      32.106  26.969  23.088  1.00  0.00     0.156 C 
ATOM     12  N   UNL A   1      31.345  27.797  24.017  1.00  0.00    -0.292 N 
BRANCH   9  13
ATOM     13  O   UNL A   1      32.779  24.669  23.802  1.00  0.00    -0.320 OA
BRANCH  13  14
ATOM     14  C   UNL A   1      33.566  23.649  23.207  1.00  0.00     0.354 C 
ATOM     15  C   UNL A   1      32.934  20.979  24.234  1.00  0.00     0.203 C 
ATOM     16  C   UNL A   1      32.138  21.687  23.098  1.00  0.00     0.300 C 
ATOM     17  C   UNL A   1      34.207  21.711  24.664  1.00  0.00    -0.002 A 
ATOM     18  N   UNL A   1      32.809  22.748  22.367  1.00  0.00    -0.315 N 
ATOM     19  C   UNL A   1      34.543  22.948  24.098  1.00  0.00     0.046 A 
ATOM     20  C   UNL A   1      35.011  21.263  25.715  1.00  0.00     0.009 A 
ATOM     21  H   UNL A   1      32.103  23.290  21.867  1.00  0.00     0.349 HD
ATOM     22  H   UNL A   1      33.474  22.300  21.737  1.00  0.00     0.349 HD
ATOM     23  C   UNL A   1      35.751  23.596  24.436  1.00  0.00     0.033 A 
ATOM     24  C   UNL A   1      36.132  21.977  26.150  1.00  0.00     0.021 A 
ATOM     25  C   UNL A   1      36.539  23.109  25.466  1.00  0.00     0.041 A 
ATOM     26  Cl  UNL A   1      37.965  23.941  25.930  1.00  0.00    -0.084 Cl
BRANCH  15  27
ATOM     27  O   UNL A   1      33.193  19.612  23.895  1.00  0.00    -0.371 OA
ATOM     28  C   UNL A   1      32.334  19.160  22.842  1.00  0.00     0.196 C 
ENDBRANCH  15  27
ENDBRANCH  13  14
ENDBRANCH   9  13
BRANCH  12  29
ATOM     29  C   UNL A   1      30.151  28.328  23.572  1.00  0.00     0.411 C 
ATOM     30  O   UNL A   1      29.344  27.642  22.953  1.00  0.00    -0.224 OA
BRANCH  29  31
ATOM     31  O   UNL A   1      29.951  29.642  23.865  1.00  0.00    -0.444 OA
BRANCH  31  32
ATOM     32  C   UNL A   1      28.991  30.394  23.059  1.00  0.00     0.106 C 
ATOM     33  C   UNL A   1      29.508  30.551  21.621  1.00  0.00     0.056 C 
ATOM     34  C   UNL A   1      27.574  29.806  23.110  1.00  0.00     0.056 C 
ATOM     35  C   UNL A   1      28.903  31.807  23.652  1.00  0.00     0.056 C 
ENDBRANCH  31  32
ENDBRANCH  29  31
ENDBRANCH  12  29
ENDBRANCH   6   8
ENDBRANCH   5   6
ENDBRANCH   4   5
ENDBRANCH   3   4
ENDBRANCH   2   3
ENDBRANCH   1   2
BRANCH   1  36
ATOM     36  C   UNL A   1      36.804  30.923  30.400  1.00  0.00     0.188 C 
BRANCH  36  37
ATOM     37  O   UNL A   1      36.287  31.583  31.547  1.00  0.00    -0.376 OA
BRANCH  37  38
ATOM     38  C   UNL A   1      35.710  32.855  31.239  1.00  0.00     0.202 C 
BRANCH  38  39
ATOM     39  C   UNL A   1      36.501  34.051  31.793  1.00  0.00     0.261 C 
BRANCH  39  40
ATOM     40  O   UNL A   1      37.836  34.075  31.247  1.00  0.00    -0.460 OA
BRANCH  40  41
ATOM     41  C   UNL A   1      38.838  34.436  32.089  1.00  0.00     0.338 C 
ATOM     42  O   UNL A   1      38.742  34.600  33.294  1.00  0.00    -0.246 OA
BRANCH  41  43
ATOM     43  C   UNL A   1      40.123  34.417  31.342  1.00  0.00     0.060 A 
ATOM     44  C   UNL A   1      40.154  34.383  29.945  1.00  0.00     0.016 A 
ATOM     45  C   UNL A   1      41.326  34.386  32.058  1.00  0.00     0.016 A 
ATOM     46  C   UNL A   1      41.379  34.313  29.273  1.00  0.00     0.010 A 
ATOM     47  C   UNL A   1      42.552  34.300  31.385  1.00  0.00     0.010 A 
ATOM     48  C   UNL A   1      42.588  34.271  29.985  1.00  0.00    -0.014 A 
BRANCH  48  49
ATOM     49  C   UNL A   1      43.873  34.452  29.262  1.00  0.00     0.031 A 
ATOM     50  C   UNL A   1      44.398  35.795  28.850  1.00  0.00     0.074 A 
ATOM     51  C   UNL A   1      44.585  33.339  29.006  1.00  0.00     0.049 A 
ATOM     52  N   UNL A   1      45.519  36.086  28.241  1.00  0.00    -0.248 NA
ATOM     53  C   UNL A   1      43.561  36.961  29.150  1.00  0.00     0.031 C 
ATOM     54  C   UNL A   1      44.168  31.987  29.383  1.00  0.00     0.029 A 
ATOM     55  N   UNL A   1      45.805  33.162  28.408  1.00  0.00    -0.354 N 
ATOM     56  C   UNL A   1      45.512  37.465  28.056  1.00  0.00     0.074 A 
ATOM     57  C   UNL A   1      44.257  37.949  28.594  1.00  0.00     0.031 C 
ATOM     58  C   UNL A   1      45.136  31.124  29.047  1.00  0.00     0.029 A 
ATOM     59  C   UNL A   1      46.222  31.853  28.398  1.00  0.00     0.049 A 
ATOM     60  H   UNL A   1      46.331  33.901  28.024  1.00  0.00     0.167 HD
ATOM     61  C   UNL A   1      46.477  38.245  27.509  1.00  0.00     0.031 A 
ATOM     62  C   UNL A   1      47.354  31.293  27.930  1.00  0.00     0.031 A 
ATOM     63  C   UNL A   1      47.743  37.737  27.034  1.00  0.00     0.049 A 
ATOM     64  C   UNL A   1      48.416  32.177  27.344  1.00  0.00     0.074 A 
ATOM     65  C   UNL A   1      48.818  38.455  26.536  1.00  0.00     0.029 A 
ATOM     66  N   UNL A   1      48.116  36.400  27.008  1.00  0.00    -0.354 N 
ATOM     67  N   UNL A   1      48.418  33.483  27.227  1.00  0.00    -0.248 NA
ATOM     68  C   UNL A   1      49.631  31.524  26.840  1.00  0.00     0.031 C 
ATOM     69  C   UNL A   1      49.804  37.551  26.139  1.00  0.00     0.029 A 
ATOM     70  C   UNL A   1      49.387  36.272  26.471  1.00  0.00     0.049 A 
ATOM     71  H   UNL A   1      47.557  35.652  27.325  1.00  0.00     0.167 HD
ATOM     72  C   UNL A   1      49.636  33.810  26.645  1.00  0.00     0.074 A 
ATOM     73  C   UNL A   1      50.357  32.568  26.457  1.00  0.00     0.031 C 
ATOM     74  C   UNL A   1      50.104  35.031  26.290  1.00  0.00     0.031 A 
BRANCH  61  75
ATOM     75  C   UNL A   1      46.254  39.739  27.406  1.00  0.00    -0.014 A 
ATOM     76  C   UNL A   1      45.877  40.304  26.170  1.00  0.00     0.010 A 
ATOM     77  C   UNL A   1      46.588  40.601  28.466  1.00  0.00     0.010 A 
ATOM     78  C   UNL A   1      45.883  41.691  25.983  1.00  0.00     0.020 A 
ATOM     79  C   UNL A   1      46.558  41.990  28.294  1.00  0.00     0.020 A 
ATOM     80  C   UNL A   1      46.235  42.526  27.045  1.00  0.00     0.054 A 
BRANCH  80  81
ATOM     81  S   UNL A   1      46.287  44.320  26.774  1.00  0.00     0.124 S 
ATOM     82  O   UNL A   1      47.366  44.457  25.802  1.00  0.00    -0.237 OA
ATOM     83  O   UNL A   1      44.945  44.607  26.273  1.00  0.00    -0.237 OA
ATOM     84  O   UNL A   1      46.573  44.859  28.102  1.00  0.00    -0.744 OA
ENDBRANCH  80  81
ENDBRANCH  61  75
BRANCH  62  85
ATOM     85  C   UNL A   1      47.534  29.822  28.075  1.00  0.00    -0.014 A 
ATOM     86  C   UNL A   1      48.249  29.298  29.171  1.00  0.00     0.010 A 
ATOM     87  C   UNL A   1      47.113  28.953  27.055  1.00  0.00     0.010 A 
ATOM     88  C   UNL A   1      48.605  27.949  29.204  1.00  0.00     0.020 A 
ATOM     89  C   UNL A   1      47.436  27.594  27.104  1.00  0.00     0.020 A 
ATOM     90  C   UNL A   1      48.211  27.109  28.160  1.00  0.00     0.054 A 
BRANCH  90  91
ATOM     91  S   UNL A   1      48.757  25.379  28.185  1.00  0.00     0.124 S 
ATOM     92  O   UNL A   1      47.515  24.669  27.891  1.00  0.00    -0.237 OA
ATOM     93  O   UNL A   1      49.765  25.349  27.129  1.00  0.00    -0.237 OA
ATOM     94  O   UNL A   1      49.271  25.202  29.541  1.00  0.00    -0.744 OA
ENDBRANCH  90  91
ENDBRANCH  62  85
BRANCH  74  95
ATOM     95  C   UNL A   1      51.460  35.121  25.635  1.00  0.00    -0.014 A 
ATOM     96  C   UNL A   1      51.555  35.290  24.241  1.00  0.00     0.010 A 
ATOM     97  C   UNL A   1      52.624  34.846  26.372  1.00  0.00     0.010 A 
ATOM     98  C   UNL A   1      52.777  35.112  23.587  1.00  0.00     0.020 A 
ATOM     99  C   UNL A   1      53.855  34.699  25.725  1.00  0.00     0.020 A 
ATOM    100  C   UNL A   1      53.916  34.796  24.333  1.00  0.00     0.054 A 
BRANCH 100 101
ATOM    101  S   UNL A   1      55.467  34.459  23.455  1.00  0.00     0.124 S 
ATOM    102  O   UNL A   1      56.460  35.054  24.343  1.00  0.00    -0.237 OA
ATOM    103  O   UNL A   1      55.481  33.000  23.383  1.00  0.00    -0.237 OA
ATOM    104  O   UNL A   1      55.292  35.137  22.172  1.00  0.00    -0.744 OA
ENDBRANCH 100 101
ENDBRANCH  74  95
ENDBRANCH  48  49
ENDBRANCH  41  43
ENDBRANCH  40  41
ENDBRANCH  39  40
ENDBRANCH  38  39
ENDBRANCH  37  38
ENDBRANCH  36  37
ENDBRANCH   1  36
TORSDOF 26
ENDMDL
MODEL 2
REMARK VINA RESULT:      -8.6      6.733     15.294
REMARK SMILES CO[C@@H]1C[NH2+][C@@H](O[C@@H]2C[C@@H](C(=O)OCCOCCOCCOC(=O)c3ccc(-c4c5nc(c(-c6ccc(S(=O)(=O)[O-])cc6)c6ccc([nH]6)c(-c6ccc(S(=O)(=O)[O-])cc6)c6nc(c(-c7ccc(S(=O)(=O)[O-])cc7)c7ccc4[nH]7)C=C6)C=C5)cc3)N(C(=O)OC(C)(C)C)C2)c2cc(Cl)ccc21
REMARK SMILES IDX 17 1 16 2 15 3 14 4 13 5 11 6 12 7 10 8 8 9 9 10 93 11 85 12
REMARK SMILES IDX 7 13 6 14 3 15 4 16 100 17 5 18 94 19 99 20 95 23 98 24
REMARK SMILES IDX 96 25 97 26 2 27 1 28 86 29 87 30 88 31 89 32 90 33 91 34
REMARK SMILES IDX 92 35 18 36 19 37 20 38 21 39 22 40 23 41 24 42 25 43 26 44
REMARK SMILES IDX 84 45 27 46 83 47 28 48 29 49 30 50 77 51 31 52 82 53 76 54
REMARK SMILES IDX 78 55 32 56 81 57 75 58 74 59 33 61 63 62 44 63 62 64 45 65
REMARK SMILES IDX 48 66 61 67 79 68 46 69 47 70 60 72 80 73 49 74 34 75 35 76
REMARK SMILES IDX 43 77 36 78 42 79 37 80 38 81 39 82 40 83 41 84 64 85 65 86
REMARK SMILES IDX 73 87 66 88 72 89 67 90 68 91 69 92 70 93 71 94 50 95 51 96
REMARK SMILES IDX 59 97 52 98 58 99 53 100 54 101 55 102 56 103 57 104
REMARK H PARENT 5 21 5 22 78 60 48 71
REMARK Flexibility Score: inf
ROOT
ATOM      1  C   UNL A   1      43.492  38.147  33.674  1.00  0.00     0.188 C 
ENDROOT
BRANCH   1   2
ATOM      2  O   UNL A   1      42.829  39.352  34.034  1.00  0.00    -0.376 OA
BRANCH   2   3
ATOM      3  C   UNL A   1      43.624  40.529  33.862  1.00  0.00     0.202 C 
BRANCH   3   4
ATOM      4  C   UNL A   1      43.107  41.482  32.766  1.00  0.00     0.261 C 
BRANCH   4   5
ATOM      5  O   UNL A   1      42.021  40.883  32.015  1.00  0.00    -0.462 OA
BRANCH   5   6
ATOM      6  C   UNL A   1      42.049  41.013  30.654  1.00  0.00     0.329 C 
ATOM      7  O   UNL A   1      41.079  41.347  29.986  1.00  0.00    -0.250 OA
BRANCH   6   8
ATOM      8  C   UNL A   1      43.503  40.991  30.117  1.00  0.00     0.201 C 
ATOM      9  C   UNL A   1      44.823  41.909  28.232  1.00  0.00     0.147 C 
ATOM     10  C   UNL A   1      43.836  42.289  29.339  1.00  0.00     0.071 C 
ATOM     11  C   UNL A   1      44.571  40.420  28.020  1.00  0.00     0.156 C 
ATOM     12  N   UNL A   1      43.981  39.902  29.249  1.00  0.00    -0.292 N 
BRANCH   9  13
ATOM     13  O   UNL A   1      46.182  42.326  28.169  1.00  0.00    -0.320 OA
BRANCH  13  14
ATOM     14  C   UNL A   1      47.081  42.389  27.073  1.00  0.00     0.354 C 
ATOM     15  C   UNL A   1      45.778  41.886  24.499  1.00  0.00     0.203 C 
ATOM     16  C   UNL A   1      45.797  43.271  25.210  1.00  0.00     0.300 C 
ATOM     17  C   UNL A   1      46.659  40.824  25.161  1.00  0.00    -0.002 A 
ATOM     18  N   UNL A   1      46.842  43.510  26.191  1.00  0.00    -0.315 N 
ATOM     19  C   UNL A   1      47.348  41.109  26.347  1.00  0.00     0.046 A 
ATOM     20  C   UNL A   1      46.713  39.505  24.705  1.00  0.00     0.009 A 
ATOM     21  H   UNL A   1      46.573  44.314  26.757  1.00  0.00     0.349 HD
ATOM     22  H   UNL A   1      47.706  43.669  25.672  1.00  0.00     0.349 HD
ATOM     23  C   UNL A   1      48.218  40.160  26.925  1.00  0.00     0.033 A 
ATOM     24  C   UNL A   1      47.464  38.522  25.359  1.00  0.00     0.021 A 
ATOM     25  C   UNL A   1      48.269  38.867  26.431  1.00  0.00     0.041 A 
ATOM     26  Cl  UNL A   1      49.266  37.692  27.183  1.00  0.00    -0.084 Cl
BRANCH  15  27
ATOM     27  O   UNL A   1      46.070  42.028  23.104  1.00  0.00    -0.371 OA
ATOM     28  C   UNL A   1      47.459  42.302  22.884  1.00  0.00     0.196 C 
ENDBRANCH  15  27
ENDBRANCH  13  14
ENDBRANCH   9  13
BRANCH  12  29
ATOM     29  C   UNL A   1      44.103  38.550  29.500  1.00  0.00     0.411 C 
ATOM     30  O   UNL A   1      45.115  38.091  30.020  1.00  0.00    -0.224 OA
BRANCH  29  31
ATOM     31  O   UNL A   1      43.039  37.789  29.127  1.00  0.00    -0.444 OA
BRANCH  31  32
ATOM     32  C   UNL A   1      43.254  36.733  28.138  1.00  0.00     0.106 C 
ATOM     33  C   UNL A   1      42.042  36.626  27.199  1.00  0.00     0.056 C 
ATOM     34  C   UNL A   1      44.575  36.889  27.372  1.00  0.00     0.056 C 
ATOM     35  C   UNL A   1      43.339  35.403  28.899  1.00  0.00     0.056 C 
ENDBRANCH  31  32
ENDBRANCH  29  31
ENDBRANCH  12  29
ENDBRANCH   6   8
ENDBRANCH   5   6
ENDBRANCH   4   5
ENDBRANCH   3   4
ENDBRANCH   2   3
ENDBRANCH   1   2
BRANCH   1  36
ATOM     36  C   UNL A   1      44.971  38.314  33.328  1.00  0.00     0.188 C 
BRANCH  36  37
ATOM     37  O   UNL A   1      45.856  38.238  34.437  1.00  0.00    -0.376 OA
BRANCH  37  38
ATOM     38  C   UNL A   1      47.206  37.970  34.047  1.00  0.00     0.202 C 
BRANCH  38  39
ATOM     39  C   UNL A   1      47.389  37.754  32.535  1.00  0.00     0.261 C 
BRANCH  39  40
ATOM     40  O   UNL A   1      48.066  36.507  32.279  1.00  0.00    -0.460 OA
BRANCH  40  41
ATOM     41  C   UNL A   1      48.599  36.340  31.040  1.00  0.00     0.338 C 
ATOM     42  O   UNL A   1      49.417  37.069  30.505  1.00  0.00    -0.246 OA
BRANCH  41  43
ATOM     43  C   UNL A   1      48.173  35.019  30.508  1.00  0.00     0.060 A 
ATOM     44  C   UNL A   1      48.515  33.828  31.154  1.00  0.00     0.016 A 
ATOM     45  C   UNL A   1      47.452  34.969  29.309  1.00  0.00     0.016 A 
ATOM     46  C   UNL A   1      48.142  32.598  30.600  1.00  0.00     0.010 A 
ATOM     47  C   UNL A   1      47.094  33.737  28.746  1.00  0.00     0.010 A 
ATOM     48  C   UNL A   1      47.429  32.541  29.392  1.00  0.00    -0.014 A 
BRANCH  48  49
ATOM     49  C   UNL A   1      46.827  31.255  28.955  1.00  0.00     0.031 A 
ATOM     50  C   UNL A   1      47.573  30.234  28.150  1.00  0.00     0.074 A 
ATOM     51  C   UNL A   1      45.560  31.019  29.342  1.00  0.00     0.049 A 
ATOM     52  N   UNL A   1      47.167  29.061  27.733  1.00  0.00    -0.248 NA
ATOM     53  C   UNL A   1      48.945  30.566  27.753  1.00  0.00     0.031 C 
ATOM     54  C   UNL A   1      44.755  31.943  30.143  1.00  0.00     0.029 A 
ATOM     55  N   UNL A   1      44.742  29.938  29.150  1.00  0.00    -0.354 N 
ATOM     56  C   UNL A   1      48.221  28.526  26.999  1.00  0.00     0.074 A 
ATOM     57  C   UNL A   1      49.276  29.518  27.005  1.00  0.00     0.031 C 
ATOM     58  C   UNL A   1      43.574  31.371  30.412  1.00  0.00     0.029 A 
ATOM     59  C   UNL A   1      43.522  30.060  29.771  1.00  0.00     0.049 A 
ATOM     60  H   UNL A   1      45.002  29.149  28.619  1.00  0.00     0.167 HD
ATOM     61  C   UNL A   1      48.297  27.311  26.402  1.00  0.00     0.031 A 
ATOM     62  C   UNL A   1      42.476  29.213  29.833  1.00  0.00     0.031 A 
ATOM     63  C   UNL A   1      47.248  26.320  26.465  1.00  0.00     0.049 A 
ATOM     64  C   UNL A   1      42.589  27.867  29.179  1.00  0.00     0.074 A 
ATOM     65  C   UNL A   1      47.261  25.030  25.960  1.00  0.00     0.029 A 
ATOM     66  N   UNL A   1      46.012  26.494  27.074  1.00  0.00    -0.354 N 
ATOM     67  N   UNL A   1      43.611  27.354  28.537  1.00  0.00    -0.248 NA
ATOM     68  C   UNL A   1      41.423  26.978  29.266  1.00  0.00     0.031 C 
ATOM     69  C   UNL A   1      46.011  24.455  26.195  1.00  0.00     0.029 A 
ATOM     70  C   UNL A   1      45.246  25.348  26.927  1.00  0.00     0.049 A 
ATOM     71  H   UNL A   1      45.724  27.311  27.542  1.00  0.00     0.167 HD
ATOM     72  C   UNL A   1      43.216  26.080  28.150  1.00  0.00     0.074 A 
ATOM     73  C   UNL A   1      41.871  25.889  28.653  1.00  0.00     0.031 C 
ATOM     74  C   UNL A   1      43.907  25.161  27.433  1.00  0.00     0.031 A 
BRANCH  61  75
ATOM     75  C   UNL A   1      49.553  26.934  25.646  1.00  0.00    -0.014 A 
ATOM     76  C   UNL A   1      50.654  26.396  26.345  1.00  0.00     0.010 A 
ATOM     77  C   UNL A   1      49.717  27.272  24.290  1.00  0.00     0.010 A 
ATOM     78  C   UNL A   1      51.899  26.250  25.721  1.00  0.00     0.020 A 
ATOM     79  C   UNL A   1      50.950  27.091  23.652  1.00  0.00     0.020 A 
ATOM     80  C   UNL A   1      52.041  26.609  24.380  1.00  0.00     0.054 A 
BRANCH  80  81
ATOM     81  S   UNL A   1      53.673  26.461  23.598  1.00  0.00     0.124 S 
ATOM     82  O   UNL A   1      54.290  25.386  24.368  1.00  0.00    -0.237 OA
ATOM     83  O   UNL A   1      53.337  26.135  22.214  1.00  0.00    -0.237 OA
ATOM     84  O   UNL A   1      54.266  27.784  23.789  1.00  0.00    -0.744 OA
ENDBRANCH  80  81
ENDBRANCH  61  75
BRANCH  62  85
ATOM     85  C   UNL A   1      41.273  29.623  30.607  1.00  0.00    -0.014 A 
ATOM     86  C   UNL A   1      41.231  29.444  32.004  1.00  0.00     0.010 A 
ATOM     87  C   UNL A   1      40.118  30.066  29.940  1.00  0.00     0.010 A 
ATOM     88  C   UNL A   1      40.038  29.623  32.706  1.00  0.00     0.020 A 
ATOM     89  C   UNL A   1      38.931  30.282  30.646  1.00  0.00     0.020 A 
ATOM     90  C   UNL A   1      38.890  30.025  32.019  1.00  0.00     0.054 A 
BRANCH  90  91
ATOM     91  S   UNL A   1      37.334  30.171  32.938  1.00  0.00     0.124 S 
ATOM     92  O   UNL A   1      37.009  28.771  33.201  1.00  0.00    -0.237 OA
ATOM     93  O   UNL A   1      37.727  30.956  34.105  1.00  0.00    -0.237 OA
ATOM     94  O   UNL A   1      36.444  30.852  32.001  1.00  0.00    -0.744 OA
ENDBRANCH  90  91
ENDBRANCH  62  85
BRANCH  74  95
ATOM     95  C   UNL A   1      43.237  23.848  27.111  1.00  0.00    -0.014 A 
ATOM     96  C   UNL A   1      43.079  22.877  28.118  1.00  0.00     0.010 A 
ATOM     97  C   UNL A   1      42.944  23.508  25.779  1.00  0.00     0.010 A 
ATOM     98  C   UNL A   1      42.708  21.570  27.789  1.00  0.00     0.020 A 
ATOM     99  C   UNL A   1      42.542  22.209  25.451  1.00  0.00     0.020 A 
ATOM    100  C   UNL A   1      42.464  21.240  26.454  1.00  0.00     0.054 A 
BRANCH 100 101
ATOM    101  S   UNL A   1      42.094  19.514  26.036  1.00  0.00     0.124 S 
ATOM    102  O   UNL A   1      40.663  19.563  25.755  1.00  0.00    -0.237 OA
ATOM    103  O   UNL A   1      42.955  19.275  24.879  1.00  0.00    -0.237 OA
ATOM    104  O   UNL A   1      42.468  18.778  27.243  1.00  0.00    -0.744 OA
ENDBRANCH 100 101
ENDBRANCH  74  95
ENDBRANCH  48  49
ENDBRANCH  41  43
ENDBRANCH  40  41
ENDBRANCH  39  40
ENDBRANCH  38  39
ENDBRANCH  37  38
ENDBRANCH  36  37
ENDBRANCH   1  36
TORSDOF 26
ENDMDL
MODEL 3
REMARK VINA RESULT:      -8.6      1.524      2.040
REMARK SMILES CO[C@@H]1C[NH2+][C@@H](O[C@@H]2C[C@@H](C(=O)OCCOCCOCCOC(=O)c3ccc(-c4c5nc(c(-c6ccc(S(=O)(=O)[O-])cc6)c6ccc([nH]6)c(-c6ccc(S(=O)(=O)[O-])cc6)c6nc(c(-c7ccc(S(=O)(=O)[O-])cc7)c7ccc4[nH]7)C=C6)C=C5)cc3)N(C(=O)OC(C)(C)C)C2)c2cc(Cl)ccc21
REMARK SMILES IDX 17 1 16 2 15 3 14 4 13 5 11 6 12 7 10 8 8 9 9 10 93 11 85 12
REMARK SMILES IDX 7 13 6 14 3 15 4 16 100 17 5 18 94 19 99 20 95 23 98 24
REMARK SMILES IDX 96 25 97 26 2 27 1 28 86 29 87 30 88 31 89 32 90 33 91 34
REMARK SMILES IDX 92 35 18 36 19 37 20 38 21 39 22 40 23 41 24 42 25 43 26 44
REMARK SMILES IDX 84 45 27 46 83 47 28 48 29 49 30 50 77 51 31 52 82 53 76 54
REMARK SMILES IDX 78 55 32 56 81 57 75 58 74 59 33 61 63 62 44 63 62 64 45 65
REMARK SMILES IDX 48 66 61 67 79 68 46 69 47 70 60 72 80 73 49 74 34 75 35 76
REMARK SMILES IDX 43 77 36 78 42 79 37 80 38 81 39 82 40 83 41 84 64 85 65 86
REMARK SMILES IDX 73 87 66 88 72 89 67 90 68 91 69 92 70 93 71 94 50 95 51 96
REMARK SMILES IDX 59 97 52 98 58 99 53 100 54 101 55 102 56 103 57 104
REMARK H PARENT 5 21 5 22 78 60 48 71
REMARK Flexibility Score: inf
ROOT
ATOM      1  C   UNL A   1      36.240  31.470  29.441  1.00  0.00     0.188 C 
ENDROOT
BRANCH   1   2
ATOM      2  O   UNL A   1      36.305  30.505  28.401  1.00  0.00    -0.376 OA
BRANCH   2   3
ATOM      3  C   UNL A   1      35.122  29.709  28.269  1.00  0.00     0.202 C 
BRANCH   3   4
ATOM      4  C   UNL A   1      34.340  29.959  26.964  1.00  0.00     0.261 C 
BRANCH   4   5
ATOM      5  O   UNL A   1      33.691  28.750  26.498  1.00  0.00    -0.462 OA
BRANCH   5   6
ATOM      6  C   UNL A   1      32.419  28.866  26.010  1.00  0.00     0.329 C 
ATOM      7  O   UNL A   1      31.817  29.929  25.933  1.00  0.00    -0.250 OA
BRANCH   6   8
ATOM      8  C   UNL A   1      31.970  27.564  25.296  1.00  0.00     0.201 C 
ATOM      9  C   UNL A   1      32.865  25.897  23.696  1.00  0.00     0.147 C 
ATOM     10  C   UNL A   1      33.180  26.642  24.996  1.00  0.00     0.071 C 
ATOM     11  C   UNL A   1      31.846  26.796  23.003  1.00  0.00     0.156 C 
ATOM     12  N   UNL A   1      31.210  27.605  24.037  1.00  0.00    -0.292 N 
BRANCH   9  13
ATOM     13  O   UNL A   1      32.633  24.497  23.591  1.00  0.00    -0.320 OA
BRANCH  13  14
ATOM     14  C   UNL A   1      33.431  23.466  23.030  1.00  0.00     0.354 C 
ATOM     15  C   UNL A   1      32.786  20.816  24.099  1.00  0.00     0.203 C 
ATOM     16  C   UNL A   1      32.008  21.500  22.937  1.00  0.00     0.300 C 
ATOM     17  C   UNL A   1      34.051  21.559  24.535  1.00  0.00    -0.002 A 
ATOM     18  N   UNL A   1      32.689  22.547  22.195  1.00  0.00    -0.315 N 
ATOM     19  C   UNL A   1      34.394  22.785  23.950  1.00  0.00     0.046 A 
ATOM     20  C   UNL A   1      34.839  21.133  25.608  1.00  0.00     0.009 A 
ATOM     21  H   UNL A   1      31.991  23.078  21.674  1.00  0.00     0.349 HD
ATOM     22  H   UNL A   1      33.365  22.088  21.585  1.00  0.00     0.349 HD
ATOM     23  C   UNL A   1      35.596  23.441  24.295  1.00  0.00     0.033 A 
ATOM     24  C   UNL A   1      35.952  21.858  26.047  1.00  0.00     0.021 A 
ATOM     25  C   UNL A   1      36.368  22.977  25.347  1.00  0.00     0.041 A 
ATOM     26  Cl  UNL A   1      37.785  23.820  25.817  1.00  0.00    -0.084 Cl
BRANCH  15  27
ATOM     27  O   UNL A   1      33.053  19.444  23.793  1.00  0.00    -0.371 OA
ATOM     28  C   UNL A   1      32.224  18.973  22.723  1.00  0.00     0.196 C 
ENDBRANCH  15  27
ENDBRANCH  13  14
ENDBRANCH   9  13
BRANCH  12  29
ATOM     29  C   UNL A   1      29.961  28.126  23.767  1.00  0.00     0.411 C 
ATOM     30  O   UNL A   1      29.021  27.397  23.467  1.00  0.00    -0.224 OA
BRANCH  29  31
ATOM     31  O   UNL A   1      29.862  29.481  23.852  1.00  0.00    -0.444 OA
BRANCH  31  32
ATOM     32  C   UNL A   1      28.913  30.165  22.975  1.00  0.00     0.106 C 
ATOM     33  C   UNL A   1      29.491  30.290  21.557  1.00  0.00     0.056 C 
ATOM     34  C   UNL A   1      27.519  29.522  22.983  1.00  0.00     0.056 C 
ATOM     35  C   UNL A   1      28.744  31.593  23.509  1.00  0.00     0.056 C 
ENDBRANCH  31  32
ENDBRANCH  29  31
ENDBRANCH  12  29
ENDBRANCH   6   8
ENDBRANCH   5   6
ENDBRANCH   4   5
ENDBRANCH   3   4
ENDBRANCH   2   3
ENDBRANCH   1   2
BRANCH   1  36
ATOM     36  C   UNL A   1      36.448  30.907  30.846  1.00  0.00     0.188 C 
BRANCH  36  37
ATOM     37  O   UNL A   1      35.624  31.484  31.850  1.00  0.00    -0.376 OA
BRANCH  37  38
ATOM     38  C   UNL A   1      34.786  32.527  31.344  1.00  0.00     0.202 C 
BRANCH  38  39
ATOM     39  C   UNL A   1      35.152  33.929  31.860  1.00  0.00     0.261 C 
BRANCH  39  40
ATOM     40  O   UNL A   1      36.431  34.344  31.338  1.00  0.00    -0.460 OA
BRANCH  40  41
ATOM     41  C   UNL A   1      37.412  34.595  32.243  1.00  0.00     0.338 C 
ATOM     42  O   UNL A   1      37.256  34.799  33.435  1.00  0.00    -0.246 OA
BRANCH  41  43
ATOM     43  C   UNL A   1      38.732  34.392  31.590  1.00  0.00     0.060 A 
ATOM     44  C   UNL A   1      38.888  34.524  30.207  1.00  0.00     0.016 A 
ATOM     45  C   UNL A   1      39.829  34.016  32.373  1.00  0.00     0.016 A 
ATOM     46  C   UNL A   1      40.132  34.277  29.616  1.00  0.00     0.010 A 
ATOM     47  C   UNL A   1      41.070  33.752  31.779  1.00  0.00     0.010 A 
ATOM     48  C   UNL A   1      41.234  33.888  30.395  1.00  0.00    -0.014 A 
BRANCH  48  49
ATOM     49  C   UNL A   1      42.592  33.878  29.793  1.00  0.00     0.031 A 
ATOM     50  C   UNL A   1      43.459  35.098  29.709  1.00  0.00     0.074 A 
ATOM     51  C   UNL A   1      43.042  32.694  29.338  1.00  0.00     0.049 A 
ATOM     52  N   UNL A   1      44.674  35.210  29.234  1.00  0.00    -0.248 NA
ATOM     53  C   UNL A   1      42.897  36.355  30.212  1.00  0.00     0.031 C 
ATOM     54  C   UNL A   1      42.280  31.444  29.391  1.00  0.00     0.029 A 
ATOM     55  N   UNL A   1      44.239  32.336  28.777  1.00  0.00    -0.354 N 
ATOM     56  C   UNL A   1      45.013  36.554  29.352  1.00  0.00     0.074 A 
ATOM     57  C   UNL A   1      43.861  37.223  29.920  1.00  0.00     0.031 C 
ATOM     58  C   UNL A   1      43.044  30.448  28.925  1.00  0.00     0.029 A 
ATOM     59  C   UNL A   1      44.332  30.992  28.504  1.00  0.00     0.049 A 
ATOM     60  H   UNL A   1      44.962  32.978  28.589  1.00  0.00     0.167 HD
ATOM     61  C   UNL A   1      46.186  37.156  29.036  1.00  0.00     0.031 A 
ATOM     62  C   UNL A   1      45.341  30.267  27.983  1.00  0.00     0.031 A 
ATOM     63  C   UNL A   1      47.337  36.448  28.526  1.00  0.00     0.049 A 
ATOM     64  C   UNL A   1      46.636  30.951  27.656  1.00  0.00     0.074 A 
ATOM     65  C   UNL A   1      48.597  36.954  28.249  1.00  0.00     0.029 A 
ATOM     66  N   UNL A   1      47.382  35.093  28.229  1.00  0.00    -0.354 N 
ATOM     67  N   UNL A   1      46.960  32.210  27.825  1.00  0.00    -0.248 NA
ATOM     68  C   UNL A   1      47.707  30.124  27.083  1.00  0.00     0.031 C 
ATOM     69  C   UNL A   1      49.375  35.926  27.715  1.00  0.00     0.029 A 
ATOM     70  C   UNL A   1      48.635  34.756  27.741  1.00  0.00     0.049 A 
ATOM     71  H   UNL A   1      46.633  34.463  28.348  1.00  0.00     0.167 HD
ATOM     72  C   UNL A   1      48.274  32.327  27.389  1.00  0.00     0.074 A 
ATOM     73  C   UNL A   1      48.694  31.004  26.972  1.00  0.00     0.031 C 
ATOM     74  C   UNL A   1      49.052  33.435  27.331  1.00  0.00     0.031 A 
BRANCH  61  75
ATOM     75  C   UNL A   1      46.336  38.647  29.248  1.00  0.00    -0.014 A 
ATOM     76  C   UNL A   1      45.938  39.540  28.231  1.00  0.00     0.010 A 
ATOM     77  C   UNL A   1      47.027  39.160  30.360  1.00  0.00     0.010 A 
ATOM     78  C   UNL A   1      46.267  40.898  28.299  1.00  0.00     0.020 A 
ATOM     79  C   UNL A   1      47.326  40.525  30.450  1.00  0.00     0.020 A 
ATOM     80  C   UNL A   1      46.970  41.380  29.405  1.00  0.00     0.054 A 
BRANCH  80  81
ATOM     81  S   UNL A   1      47.434  43.135  29.455  1.00  0.00     0.124 S 
ATOM     82  O   UNL A   1      48.320  43.256  28.302  1.00  0.00    -0.237 OA
ATOM     83  O   UNL A   1      46.144  43.811  29.336  1.00  0.00    -0.237 OA
ATOM     84  O   UNL A   1      48.083  43.280  30.758  1.00  0.00    -0.744 OA
ENDBRANCH  80  81
ENDBRANCH  61  75
BRANCH  62  85
ATOM     85  C   UNL A   1      45.151  28.800  27.814  1.00  0.00    -0.014 A 
ATOM     86  C   UNL A   1      45.922  27.892  28.567  1.00  0.00     0.010 A 
ATOM     87  C   UNL A   1      44.302  28.307  26.809  1.00  0.00     0.010 A 
ATOM     88  C   UNL A   1      45.905  26.530  28.266  1.00  0.00     0.020 A 
ATOM     89  C   UNL A   1      44.255  26.938  26.530  1.00  0.00     0.020 A 
ATOM     90  C   UNL A   1      45.084  26.063  27.237  1.00  0.00     0.054 A 
BRANCH  90  91
ATOM     91  S   UNL A   1      45.143  24.302  26.810  1.00  0.00     0.124 S 
ATOM     92  O   UNL A   1      43.732  23.928  26.882  1.00  0.00    -0.237 OA
ATOM     93  O   UNL A   1      45.723  24.318  25.470  1.00  0.00    -0.237 OA
ATOM     94  O   UNL A   1      45.994  23.725  27.849  1.00  0.00    -0.744 OA
ENDBRANCH  90  91
ENDBRANCH  62  85
BRANCH  74  95
ATOM     95  C   UNL A   1      50.450  33.305  26.779  1.00  0.00    -0.014 A 
ATOM     96  C   UNL A   1      51.538  33.155  27.660  1.00  0.00     0.010 A 
ATOM     97  C   UNL A   1      50.699  33.524  25.414  1.00  0.00     0.010 A 
ATOM     98  C   UNL A   1      52.849  33.297  27.196  1.00  0.00     0.020 A 
ATOM     99  C   UNL A   1      52.010  33.635  24.941  1.00  0.00     0.020 A 
ATOM    100  C   UNL A   1      53.075  33.558  25.842  1.00  0.00     0.054 A 
BRANCH 100 101
ATOM    101  S   UNL A   1      54.775  33.851  25.282  1.00  0.00     0.124 S 
ATOM    102  O   UNL A   1      54.626  33.850  23.831  1.00  0.00    -0.237 OA
ATOM    103  O   UNL A   1      55.089  35.146  25.882  1.00  0.00    -0.237 OA
ATOM    104  O   UNL A   1      55.520  32.720  25.833  1.00  0.00    -0.744 OA
ENDBRANCH 100 101
ENDBRANCH  74  95
ENDBRANCH  48  49
ENDBRANCH  41  43
ENDBRANCH  40  41
ENDBRANCH  39  40
ENDBRANCH  38  39
ENDBRANCH  37  38
ENDBRANCH  36  37
ENDBRANCH   1  36
TORSDOF 26
ENDMDL
