MODEL 1
REMARK VINA RESULT:      -9.7      0.000      0.000
REMARK SMILES Cc1cc(N2CC[NH+]([C@@H](C(=O)OCCOCCOCCOC(=O)c3ccc(-c4c5nc(c(-c6ccc(S(=O)(=O)[O-])cc6)c6ccc([nH]6)c(-c6ccc(S(=O)(=O)[O-])cc6)c6nc(c(-c7ccc(S(=O)(=O)[O-])cc7)c7ccc4[nH]7)C=C6)C=C5)cc3)c3c[nH]c4ccccc34)CC2)nc2ccccc12
REMARK SMILES IDX 17 1 16 2 15 3 14 4 13 5 12 6 10 7 11 8 9 9 8 10 5 11 6 12
REMARK SMILES IDX 94 13 7 14 93 15 4 17 1 18 2 19 3 20 101 21 96 22 100 23
REMARK SMILES IDX 95 24 97 25 99 26 98 27 84 28 85 29 92 30 86 31 87 32 91 33
REMARK SMILES IDX 88 35 90 36 89 37 18 38 19 39 20 40 21 41 22 42 23 43 24 44
REMARK SMILES IDX 25 45 83 46 26 47 82 48 27 49 28 50 29 51 76 52 30 53 81 54
REMARK SMILES IDX 75 55 77 56 31 57 80 58 74 59 73 60 32 62 62 63 43 64 61 65
REMARK SMILES IDX 44 66 47 67 60 68 78 69 45 70 46 71 59 73 79 74 48 75 33 76
REMARK SMILES IDX 34 77 42 78 35 79 41 80 36 81 37 82 38 83 39 84 40 85 63 86
REMARK SMILES IDX 64 87 72 88 65 89 71 90 66 91 67 92 68 93 69 94 70 95 49 96
REMARK SMILES IDX 50 97 58 98 51 99 57 100 52 101 53 102 54 103 55 104 56 105
REMARK H PARENT 8 16 86 34 77 61 47 72
REMARK Flexibility Score: inf
ROOT
ATOM      1  C   UNL A   1      49.427  40.444  27.897  1.00  0.00     0.188 C 
ENDROOT
BRANCH   1   2
ATOM      2  C   UNL A   1      49.384  41.877  28.428  1.00  0.00     0.188 C 
BRANCH   2   3
ATOM      3  O   UNL A   1      50.452  42.724  28.032  1.00  0.00    -0.376 OA
BRANCH   3   4
ATOM      4  C   UNL A   1      50.414  44.071  28.494  1.00  0.00     0.202 C 
BRANCH   4   5
ATOM      5  C   UNL A   1      49.427  45.026  27.809  1.00  0.00     0.261 C 
BRANCH   5   6
ATOM      6  O   UNL A   1      49.197  44.676  26.436  1.00  0.00    -0.459 OA
BRANCH   6   7
ATOM      7  C   UNL A   1      48.720  45.620  25.588  1.00  0.00     0.370 C 
ATOM      8  O   UNL A   1      49.062  46.799  25.634  1.00  0.00    -0.245 OA
BRANCH   7   9
ATOM      9  C   UNL A   1      47.669  45.060  24.615  1.00  0.00     0.328 C 
BRANCH   9  10
ATOM     10  N   UNL A   1      48.164  44.744  23.189  1.00  0.00    -0.316 N 
ATOM     11  N   UNL A   1      46.763  45.281  20.524  1.00  0.00    -0.345 N 
ATOM     12  C   UNL A   1      46.547  44.065  21.340  1.00  0.00     0.179 C 
ATOM     13  C   UNL A   1      47.434  46.371  21.253  1.00  0.00     0.179 C 
ATOM     14  C   UNL A   1      47.680  43.683  22.319  1.00  0.00     0.285 C 
ATOM     15  C   UNL A   1      48.521  45.871  22.289  1.00  0.00     0.285 C 
ATOM     16  H   UNL A   1      48.930  44.311  23.705  1.00  0.00     0.349 HD
BRANCH  11  17
ATOM     17  C   UNL A   1      45.637  45.633  19.712  1.00  0.00     0.129 A 
ATOM     18  C   UNL A   1      44.921  47.784  16.671  1.00  0.00     0.045 C 
ATOM     19  C   UNL A   1      44.776  46.712  17.711  1.00  0.00    -0.038 A 
ATOM     20  C   UNL A   1      45.825  46.476  18.628  1.00  0.00     0.051 A 
ATOM     21  C   UNL A   1      43.595  45.940  17.769  1.00  0.00     0.003 A 
ATOM     22  C   UNL A   1      43.438  45.148  18.905  1.00  0.00     0.073 A 
ATOM     23  C   UNL A   1      42.601  45.913  16.741  1.00  0.00     0.010 A 
ATOM     24  N   UNL A   1      44.390  45.120  19.898  1.00  0.00    -0.231 NA
ATOM     25  C   UNL A   1      42.284  44.336  18.935  1.00  0.00     0.029 A 
ATOM     26  C   UNL A   1      41.522  45.030  16.774  1.00  0.00     0.001 A 
ATOM     27  C   UNL A   1      41.375  44.212  17.873  1.00  0.00     0.002 A 
ENDBRANCH  11  17
ENDBRANCH   9  10
BRANCH   9  28
ATOM     28  C   UNL A   1      46.099  45.047  25.065  1.00  0.00     0.046 A 
ATOM     29  C   UNL A   1      45.828  45.096  26.436  1.00  0.00     0.094 A 
ATOM     30  C   UNL A   1      44.767  44.508  24.676  1.00  0.00     0.009 A 
ATOM     31  N   UNL A   1      45.711  43.723  26.692  1.00  0.00    -0.361 N 
ATOM     32  C   UNL A   1      44.691  43.171  25.845  1.00  0.00     0.046 A 
ATOM     33  C   UNL A   1      43.474  44.502  23.425  1.00  0.00     0.011 A 
ATOM     34  H   UNL A   1      46.244  43.218  27.348  1.00  0.00     0.166 HD
ATOM     35  C   UNL A   1      43.349  41.696  25.575  1.00  0.00     0.026 A 
ATOM     36  C   UNL A   1      42.262  43.201  23.182  1.00  0.00     0.001 A 
ATOM     37  C   UNL A   1      42.188  41.802  24.204  1.00  0.00     0.002 A 
ENDBRANCH   9  28
ENDBRANCH   7   9
ENDBRANCH   6   7
ENDBRANCH   5   6
ENDBRANCH   4   5
ENDBRANCH   3   4
ENDBRANCH   2   3
ENDBRANCH   1   2
BRANCH   1  38
ATOM     38  O   UNL A   1      48.198  39.791  27.837  1.00  0.00    -0.376 OA
BRANCH  38  39
ATOM     39  C   UNL A   1      47.362  40.113  26.754  1.00  0.00     0.202 C 
BRANCH  39  40
ATOM     40  C   UNL A   1      46.768  39.088  25.791  1.00  0.00     0.261 C 
BRANCH  40  41
ATOM     41  O   UNL A   1      45.607  38.504  26.368  1.00  0.00    -0.460 OA
BRANCH  41  42
ATOM     42  C   UNL A   1      45.365  37.968  27.570  1.00  0.00     0.338 C 
ATOM     43  O   UNL A   1      44.929  38.481  28.575  1.00  0.00    -0.246 OA
BRANCH  42  44
ATOM     44  C   UNL A   1      45.701  36.549  27.311  1.00  0.00     0.060 A 
ATOM     45  C   UNL A   1      45.505  35.625  25.812  1.00  0.00     0.016 A 
ATOM     46  C   UNL A   1      46.053  35.634  28.808  1.00  0.00     0.016 A 
ATOM     47  C   UNL A   1      45.569  33.821  25.755  1.00  0.00     0.010 A 
ATOM     48  C   UNL A   1      46.151  33.628  28.735  1.00  0.00     0.010 A 
ATOM     49  C   UNL A   1      45.870  32.806  27.181  1.00  0.00    -0.014 A 
BRANCH  49  50
ATOM     50  C   UNL A   1      45.552  31.381  27.351  1.00  0.00     0.031 A 
ATOM     51  C   UNL A   1      44.287  30.996  28.053  1.00  0.00     0.074 A 
ATOM     52  C   UNL A   1      46.529  30.461  27.233  1.00  0.00     0.049 A 
ATOM     53  N   UNL A   1      43.688  29.839  28.100  1.00  0.00    -0.248 NA
ATOM     54  C   UNL A   1      43.627  32.026  28.867  1.00  0.00     0.031 C 
ATOM     55  C   UNL A   1      47.939  30.738  26.943  1.00  0.00     0.029 A 
ATOM     56  N   UNL A   1      46.495  29.101  27.374  1.00  0.00    -0.354 N 
ATOM     57  C   UNL A   1      42.539  30.049  28.856  1.00  0.00     0.074 A 
ATOM     58  C   UNL A   1      42.583  31.390  29.363  1.00  0.00     0.031 C 
ATOM     59  C   UNL A   1      48.618  29.587  26.860  1.00  0.00     0.029 A 
ATOM     60  C   UNL A   1      47.685  28.491  27.053  1.00  0.00     0.049 A 
ATOM     61  H   UNL A   1      45.698  28.607  27.676  1.00  0.00     0.167 HD
ATOM     62  C   UNL A   1      41.517  29.195  29.065  1.00  0.00     0.031 A 
ATOM     63  C   UNL A   1      47.962  27.190  26.861  1.00  0.00     0.031 A 
ATOM     64  C   UNL A   1      41.616  27.816  28.689  1.00  0.00     0.049 A 
ATOM     65  C   UNL A   1      46.813  26.234  26.971  1.00  0.00     0.074 A 
ATOM     66  C   UNL A   1      40.661  26.824  28.728  1.00  0.00     0.029 A 
ATOM     67  N   UNL A   1      42.799  27.231  28.249  1.00  0.00    -0.354 N 
ATOM     68  N   UNL A   1      45.585  26.469  27.377  1.00  0.00    -0.248 NA
ATOM     69  C   UNL A   1      47.064  24.856  26.546  1.00  0.00     0.031 C 
ATOM     70  C   UNL A   1      41.288  25.622  28.378  1.00  0.00     0.029 A 
ATOM     71  C   UNL A   1      42.610  25.884  28.033  1.00  0.00     0.049 A 
ATOM     72  H   UNL A   1      43.648  27.710  28.112  1.00  0.00     0.167 HD
ATOM     73  C   UNL A   1      44.900  25.271  27.230  1.00  0.00     0.074 A 
ATOM     74  C   UNL A   1      45.855  24.326  26.674  1.00  0.00     0.031 C 
ATOM     75  C   UNL A   1      43.607  24.975  27.518  1.00  0.00     0.031 A 
BRANCH  62  76
ATOM     76  C   UNL A   1      40.267  29.756  29.695  1.00  0.00    -0.014 A 
ATOM     77  C   UNL A   1      39.185  30.168  28.885  1.00  0.00     0.010 A 
ATOM     78  C   UNL A   1      40.154  29.895  31.086  1.00  0.00     0.010 A 
ATOM     79  C   UNL A   1      38.050  30.758  29.445  1.00  0.00     0.020 A 
ATOM     80  C   UNL A   1      39.002  30.451  31.657  1.00  0.00     0.020 A 
ATOM     81  C   UNL A   1      37.967  30.896  30.830  1.00  0.00     0.054 A 
BRANCH  81  82
ATOM     82  S   UNL A   1      36.477  31.655  31.531  1.00  0.00     0.124 S 
ATOM     83  O   UNL A   1      35.781  32.120  30.333  1.00  0.00    -0.237 OA
ATOM     84  O   UNL A   1      35.847  30.534  32.226  1.00  0.00    -0.237 OA
ATOM     85  O   UNL A   1      36.997  32.709  32.398  1.00  0.00    -0.744 OA
ENDBRANCH  81  82
ENDBRANCH  62  76
BRANCH  63  86
ATOM     86  C   UNL A   1      49.322  26.788  26.403  1.00  0.00    -0.014 A 
ATOM     87  C   UNL A   1      49.636  26.730  25.032  1.00  0.00     0.010 A 
ATOM     88  C   UNL A   1      50.341  26.557  27.342  1.00  0.00     0.010 A 
ATOM     89  C   UNL A   1      50.937  26.429  24.611  1.00  0.00     0.020 A 
ATOM     90  C   UNL A   1      51.649  26.285  26.927  1.00  0.00     0.020 A 
ATOM     91  C   UNL A   1      51.938  26.217  25.563  1.00  0.00     0.054 A 
BRANCH  91  92
ATOM     92  S   UNL A   1      53.632  25.893  24.996  1.00  0.00     0.124 S 
ATOM     93  O   UNL A   1      54.399  26.889  25.737  1.00  0.00    -0.237 OA
ATOM     94  O   UNL A   1      53.838  24.505  25.402  1.00  0.00    -0.237 OA
ATOM     95  O   UNL A   1      53.558  26.109  23.553  1.00  0.00    -0.744 OA
ENDBRANCH  91  92
ENDBRANCH  63  86
BRANCH  75  96
ATOM     96  C   UNL A   1      43.156  23.578  27.206  1.00  0.00    -0.014 A 
ATOM     97  C   UNL A   1      42.670  23.227  25.935  1.00  0.00     0.010 A 
ATOM     98  C   UNL A   1      43.246  22.597  28.209  1.00  0.00     0.010 A 
ATOM     99  C   UNL A   1      42.210  21.933  25.697  1.00  0.00     0.020 A 
ATOM    100  C   UNL A   1      42.838  21.290  27.959  1.00  0.00     0.020 A 
ATOM    101  C   UNL A   1      42.296  20.975  26.713  1.00  0.00     0.054 A 
BRANCH 101 102
ATOM    102  S   UNL A   1      41.691  19.303  26.379  1.00  0.00     0.124 S 
ATOM    103  O   UNL A   1      40.403  19.570  25.745  1.00  0.00    -0.237 OA
ATOM    104  O   UNL A   1      42.725  18.762  25.500  1.00  0.00    -0.237 OA
ATOM    105  O   UNL A   1      41.620  18.688  27.702  1.00  0.00    -0.744 OA
ENDBRANCH 101 102
ENDBRANCH  75  96
ENDBRANCH  49  50
ENDBRANCH  42  44
ENDBRANCH  41  42
ENDBRANCH  40  41
ENDBRANCH  39  40
ENDBRANCH  38  39
ENDBRANCH   1  38
TORSDOF 23
ENDMDL
MODEL 2
REMARK VINA RESULT:      -9.6      2.450      5.356
REMARK SMILES Cc1cc(N2CC[NH+]([C@@H](C(=O)OCCOCCOCCOC(=O)c3ccc(-c4c5nc(c(-c6ccc(S(=O)(=O)[O-])cc6)c6ccc([nH]6)c(-c6ccc(S(=O)(=O)[O-])cc6)c6nc(c(-c7ccc(S(=O)(=O)[O-])cc7)c7ccc4[nH]7)C=C6)C=C5)cc3)c3c[nH]c4ccccc34)CC2)nc2ccccc12
REMARK SMILES IDX 17 1 16 2 15 3 14 4 13 5 12 6 10 7 11 8 9 9 8 10 5 11 6 12
REMARK SMILES IDX 94 13 7 14 93 15 4 17 1 18 2 19 3 20 101 21 96 22 100 23
REMARK SMILES IDX 95 24 97 25 99 26 98 27 84 28 85 29 92 30 86 31 87 32 91 33
REMARK SMILES IDX 88 35 90 36 89 37 18 38 19 39 20 40 21 41 22 42 23 43 24 44
REMARK SMILES IDX 25 45 83 46 26 47 82 48 27 49 28 50 29 51 76 52 30 53 81 54
REMARK SMILES IDX 75 55 77 56 31 57 80 58 74 59 73 60 32 62 62 63 43 64 61 65
REMARK SMILES IDX 44 66 47 67 60 68 78 69 45 70 46 71 59 73 79 74 48 75 33 76
REMARK SMILES IDX 34 77 42 78 35 79 41 80 36 81 37 82 38 83 39 84 40 85 63 86
REMARK SMILES IDX 64 87 72 88 65 89 71 90 66 91 67 92 68 93 69 94 70 95 49 96
REMARK SMILES IDX 50 97 58 98 51 99 57 100 52 101 53 102 54 103 55 104 56 105
REMARK H PARENT 8 16 86 34 77 61 47 72
REMARK Flexibility Score: inf
ROOT
ATOM      1  C   UNL A   1      43.315  41.554  25.132  1.00  0.00     0.188 C 
ENDROOT
BRANCH   1   2
ATOM      2  C   UNL A   1      42.128  41.814  24.203  1.00  0.00     0.188 C 
BRANCH   2   3
ATOM      3  O   UNL A   1      42.444  42.246  22.888  1.00  0.00    -0.376 OA
BRANCH   3   4
ATOM      4  C   UNL A   1      42.973  43.562  22.752  1.00  0.00     0.202 C 
BRANCH   4   5
ATOM      5  C   UNL A   1      44.457  43.693  22.382  1.00  0.00     0.261 C 
BRANCH   5   6
ATOM      6  O   UNL A   1      44.642  44.166  21.039  1.00  0.00    -0.459 OA
BRANCH   6   7
ATOM      7  C   UNL A   1      45.368  45.291  20.834  1.00  0.00     0.370 C 
ATOM      8  O   UNL A   1      45.193  46.330  21.467  1.00  0.00    -0.245 OA
BRANCH   7   9
ATOM      9  C   UNL A   1      46.383  45.136  19.690  1.00  0.00     0.328 C 
BRANCH   9  10
ATOM     10  N   UNL A   1      47.854  44.936  20.108  1.00  0.00    -0.316 N 
ATOM     11  N   UNL A   1      49.421  46.370  22.307  1.00  0.00    -0.345 N 
ATOM     12  C   UNL A   1      49.281  46.883  20.925  1.00  0.00     0.179 C 
ATOM     13  C   UNL A   1      48.466  45.301  22.641  1.00  0.00     0.179 C 
ATOM     14  C   UNL A   1      48.963  45.837  19.833  1.00  0.00     0.285 C 
ATOM     15  C   UNL A   1      48.146  44.331  21.433  1.00  0.00     0.285 C 
ATOM     16  H   UNL A   1      47.845  44.304  19.307  1.00  0.00     0.349 HD
BRANCH  11  17
ATOM     17  C   UNL A   1      49.618  47.401  23.282  1.00  0.00     0.129 A 
ATOM     18  C   UNL A   1      50.624  47.671  26.929  1.00  0.00     0.045 C 
ATOM     19  C   UNL A   1      50.390  48.046  25.495  1.00  0.00    -0.038 A 
ATOM     20  C   UNL A   1      50.028  47.051  24.559  1.00  0.00     0.051 A 
ATOM     21  C   UNL A   1      50.536  49.389  25.084  1.00  0.00     0.003 A 
ATOM     22  C   UNL A   1      50.061  49.691  23.809  1.00  0.00     0.073 A 
ATOM     23  C   UNL A   1      51.149  50.410  25.875  1.00  0.00     0.010 A 
ATOM     24  N   UNL A   1      49.499  48.728  23.004  1.00  0.00    -0.231 NA
ATOM     25  C   UNL A   1      50.258  51.022  23.379  1.00  0.00     0.029 A 
ATOM     26  C   UNL A   1      51.399  51.687  25.375  1.00  0.00     0.001 A 
ATOM     27  C   UNL A   1      50.972  51.990  24.101  1.00  0.00     0.002 A 
ENDBRANCH  11  17
ENDBRANCH   9  10
BRANCH   9  28
ATOM     28  C   UNL A   1      45.895  45.409  18.154  1.00  0.00     0.046 A 
ATOM     29  C   UNL A   1      46.761  46.132  17.329  1.00  0.00     0.094 A 
ATOM     30  C   UNL A   1      44.679  45.650  17.331  1.00  0.00     0.009 A 
ATOM     31  N   UNL A   1      46.233  47.416  17.519  1.00  0.00    -0.361 N 
ATOM     32  C   UNL A   1      44.842  47.412  17.160  1.00  0.00     0.046 A 
ATOM     33  C   UNL A   1      43.118  44.970  16.750  1.00  0.00     0.011 A 
ATOM     34  H   UNL A   1      46.736  48.197  17.846  1.00  0.00     0.166 HD
ATOM     35  C   UNL A   1      43.262  48.497  16.549  1.00  0.00     0.026 A 
ATOM     36  C   UNL A   1      41.706  45.924  16.189  1.00  0.00     0.001 A 
ATOM     37  C   UNL A   1      41.736  47.656  16.099  1.00  0.00     0.002 A 
ENDBRANCH   9  28
ENDBRANCH   7   9
ENDBRANCH   6   7
ENDBRANCH   5   6
ENDBRANCH   4   5
ENDBRANCH   3   4
ENDBRANCH   2   3
ENDBRANCH   1   2
BRANCH   1  38
ATOM     38  O   UNL A   1      42.987  41.239  26.448  1.00  0.00    -0.376 OA
BRANCH  38  39
ATOM     39  C   UNL A   1      43.233  39.918  26.863  1.00  0.00     0.202 C 
BRANCH  39  40
ATOM     40  C   UNL A   1      44.497  39.130  26.526  1.00  0.00     0.261 C 
BRANCH  40  41
ATOM     41  O   UNL A   1      45.201  38.819  27.721  1.00  0.00    -0.460 OA
BRANCH  41  42
ATOM     42  C   UNL A   1      44.948  37.974  28.727  1.00  0.00     0.338 C 
ATOM     43  O   UNL A   1      44.414  38.173  29.794  1.00  0.00    -0.246 OA
BRANCH  42  44
ATOM     44  C   UNL A   1      45.432  36.701  28.145  1.00  0.00     0.060 A 
ATOM     45  C   UNL A   1      45.106  36.028  26.539  1.00  0.00     0.016 A 
ATOM     46  C   UNL A   1      46.173  35.617  29.362  1.00  0.00     0.016 A 
ATOM     47  C   UNL A   1      45.416  34.300  26.116  1.00  0.00     0.010 A 
ATOM     48  C   UNL A   1      46.542  33.701  28.878  1.00  0.00     0.010 A 
ATOM     49  C   UNL A   1      46.109  33.122  27.251  1.00  0.00    -0.014 A 
BRANCH  49  50
ATOM     50  C   UNL A   1      46.033  31.657  27.181  1.00  0.00     0.031 A 
ATOM     51  C   UNL A   1      44.766  30.972  27.591  1.00  0.00     0.074 A 
ATOM     52  C   UNL A   1      47.167  30.933  27.124  1.00  0.00     0.049 A 
ATOM     53  N   UNL A   1      44.388  29.742  27.383  1.00  0.00    -0.248 NA
ATOM     54  C   UNL A   1      43.812  31.745  28.397  1.00  0.00     0.031 C 
ATOM     55  C   UNL A   1      48.530  31.471  27.128  1.00  0.00     0.029 A 
ATOM     56  N   UNL A   1      47.360  29.579  27.084  1.00  0.00    -0.354 N 
ATOM     57  C   UNL A   1      43.117  29.648  27.942  1.00  0.00     0.074 A 
ATOM     58  C   UNL A   1      42.837  30.883  28.614  1.00  0.00     0.031 C 
ATOM     59  C   UNL A   1      49.413  30.468  27.023  1.00  0.00     0.029 A 
ATOM     60  C   UNL A   1      48.676  29.222  26.906  1.00  0.00     0.049 A 
ATOM     61  H   UNL A   1      46.630  28.924  27.174  1.00  0.00     0.167 HD
ATOM     62  C   UNL A   1      42.248  28.620  27.855  1.00  0.00     0.031 A 
ATOM     63  C   UNL A   1      49.212  28.027  26.604  1.00  0.00     0.031 A 
ATOM     64  C   UNL A   1      42.653  27.350  27.332  1.00  0.00     0.049 A 
ATOM     65  C   UNL A   1      48.254  26.896  26.386  1.00  0.00     0.074 A 
ATOM     66  C   UNL A   1      41.901  26.226  27.075  1.00  0.00     0.029 A 
ATOM     67  N   UNL A   1      43.976  27.034  27.041  1.00  0.00    -0.354 N 
ATOM     68  N   UNL A   1      46.955  26.868  26.592  1.00  0.00    -0.248 NA
ATOM     69  C   UNL A   1      48.814  25.658  25.843  1.00  0.00     0.031 C 
ATOM     70  C   UNL A   1      42.782  25.207  26.693  1.00  0.00     0.029 A 
ATOM     71  C   UNL A   1      44.071  25.725  26.626  1.00  0.00     0.049 A 
ATOM     72  H   UNL A   1      44.735  27.657  27.119  1.00  0.00     0.167 HD
ATOM     73  C   UNL A   1      46.531  25.614  26.175  1.00  0.00     0.074 A 
ATOM     74  C   UNL A   1      47.717  24.930  25.684  1.00  0.00     0.031 C 
ATOM     75  C   UNL A   1      45.284  25.076  26.187  1.00  0.00     0.031 A 
BRANCH  62  76
ATOM     76  C   UNL A   1      40.835  28.872  28.317  1.00  0.00    -0.014 A 
ATOM     77  C   UNL A   1      39.844  29.270  27.392  1.00  0.00     0.010 A 
ATOM     78  C   UNL A   1      40.476  28.733  29.666  1.00  0.00     0.010 A 
ATOM     79  C   UNL A   1      38.548  29.578  27.812  1.00  0.00     0.020 A 
ATOM     80  C   UNL A   1      39.168  29.005  30.088  1.00  0.00     0.020 A 
ATOM     81  C   UNL A   1      38.219  29.445  29.161  1.00  0.00     0.054 A 
BRANCH  81  82
ATOM     82  S   UNL A   1      36.527  29.842  29.677  1.00  0.00     0.124 S 
ATOM     83  O   UNL A   1      35.733  29.219  28.620  1.00  0.00    -0.237 OA
ATOM     84  O   UNL A   1      36.437  29.201  30.988  1.00  0.00    -0.237 OA
ATOM     85  O   UNL A   1      36.502  31.302  29.698  1.00  0.00    -0.744 OA
ENDBRANCH  81  82
ENDBRANCH  62  76
BRANCH  63  86
ATOM     86  C   UNL A   1      50.676  27.921  26.351  1.00  0.00    -0.014 A 
ATOM     87  C   UNL A   1      51.558  27.505  27.366  1.00  0.00     0.010 A 
ATOM     88  C   UNL A   1      51.185  28.141  25.059  1.00  0.00     0.010 A 
ATOM     89  C   UNL A   1      52.921  27.330  27.099  1.00  0.00     0.020 A 
ATOM     90  C   UNL A   1      52.541  27.938  24.780  1.00  0.00     0.020 A 
ATOM     91  C   UNL A   1      53.402  27.541  25.803  1.00  0.00     0.054 A 
BRANCH  91  92
ATOM     92  S   UNL A   1      55.161  27.245  25.463  1.00  0.00     0.124 S 
ATOM     93  O   UNL A   1      55.612  28.559  25.014  1.00  0.00    -0.237 OA
ATOM     94  O   UNL A   1      55.664  26.815  26.765  1.00  0.00    -0.237 OA
ATOM     95  O   UNL A   1      55.143  26.207  24.435  1.00  0.00    -0.744 OA
ENDBRANCH  91  92
ENDBRANCH  63  86
BRANCH  75  96
ATOM     96  C   UNL A   1      45.150  23.691  25.626  1.00  0.00    -0.014 A 
ATOM     97  C   UNL A   1      44.921  23.469  24.258  1.00  0.00     0.010 A 
ATOM     98  C   UNL A   1      45.279  22.592  26.495  1.00  0.00     0.010 A 
ATOM     99  C   UNL A   1      44.747  22.172  23.780  1.00  0.00     0.020 A 
ATOM    100  C   UNL A   1      45.159  21.292  26.012  1.00  0.00     0.020 A 
ATOM    101  C   UNL A   1      44.866  21.093  24.663  1.00  0.00     0.054 A 
BRANCH 101 102
ATOM    102  S   UNL A   1      44.635  19.418  24.019  1.00  0.00     0.124 S 
ATOM    103  O   UNL A   1      44.435  19.668  22.594  1.00  0.00    -0.237 OA
ATOM    104  O   UNL A   1      45.894  18.766  24.373  1.00  0.00    -0.237 OA
ATOM    105  O   UNL A   1      43.461  18.928  24.736  1.00  0.00    -0.744 OA
ENDBRANCH 101 102
ENDBRANCH  75  96
ENDBRANCH  49  50
ENDBRANCH  42  44
ENDBRANCH  41  42
ENDBRANCH  40  41
ENDBRANCH  39  40
ENDBRANCH  38  39
ENDBRANCH   1  38
TORSDOF 23
ENDMDL
MODEL 3
REMARK VINA RESULT:      -9.5      7.461     13.905
REMARK SMILES Cc1cc(N2CC[NH+]([C@@H](C(=O)OCCOCCOCCOC(=O)c3ccc(-c4c5nc(c(-c6ccc(S(=O)(=O)[O-])cc6)c6ccc([nH]6)c(-c6ccc(S(=O)(=O)[O-])cc6)c6nc(c(-c7ccc(S(=O)(=O)[O-])cc7)c7ccc4[nH]7)C=C6)C=C5)cc3)c3c[nH]c4ccccc34)CC2)nc2ccccc12
REMARK SMILES IDX 17 1 16 2 15 3 14 4 13 5 12 6 10 7 11 8 9 9 8 10 5 11 6 12
REMARK SMILES IDX 94 13 7 14 93 15 4 17 1 18 2 19 3 20 101 21 96 22 100 23
REMARK SMILES IDX 95 24 97 25 99 26 98 27 84 28 85 29 92 30 86 31 87 32 91 33
REMARK SMILES IDX 88 35 90 36 89 37 18 38 19 39 20 40 21 41 22 42 23 43 24 44
REMARK SMILES IDX 25 45 83 46 26 47 82 48 27 49 28 50 29 51 76 52 30 53 81 54
REMARK SMILES IDX 75 55 77 56 31 57 80 58 74 59 73 60 32 62 62 63 43 64 61 65
REMARK SMILES IDX 44 66 47 67 60 68 78 69 45 70 46 71 59 73 79 74 48 75 33 76
REMARK SMILES IDX 34 77 42 78 35 79 41 80 36 81 37 82 38 83 39 84 40 85 63 86
REMARK SMILES IDX 64 87 72 88 65 89 71 90 66 91 67 92 68 93 69 94 70 95 49 96
REMARK SMILES IDX 50 97 58 98 51 99 57 100 52 101 53 102 54 103 55 104 56 105
REMARK H PARENT 8 16 86 34 77 61 47 72
REMARK Flexibility Score: inf
ROOT
ATOM      1  C   UNL A   1      39.056  34.786  33.969  1.00  0.00     0.188 C 
ENDROOT
BRANCH   1   2
ATOM      2  C   UNL A   1      37.806  33.955  33.677  1.00  0.00     0.188 C 
BRANCH   2   3
ATOM      3  O   UNL A   1      37.704  32.715  34.361  1.00  0.00    -0.376 OA
BRANCH   3   4
ATOM      4  C   UNL A   1      37.661  31.538  33.561  1.00  0.00     0.202 C 
BRANCH   4   5
ATOM      5  C   UNL A   1      38.844  31.281  32.617  1.00  0.00     0.261 C 
BRANCH   5   6
ATOM      6  O   UNL A   1      38.427  30.724  31.362  1.00  0.00    -0.459 OA
BRANCH   6   7
ATOM      7  C   UNL A   1      39.066  31.105  30.229  1.00  0.00     0.370 C 
ATOM      8  O   UNL A   1      38.858  32.179  29.669  1.00  0.00    -0.245 OA
BRANCH   7   9
ATOM      9  C   UNL A   1      40.024  30.025  29.702  1.00  0.00     0.328 C 
BRANCH   9  10
ATOM     10  N   UNL A   1      41.357  29.870  30.462  1.00  0.00    -0.316 N 
ATOM     11  N   UNL A   1      43.617  27.873  29.956  1.00  0.00    -0.345 N 
ATOM     12  C   UNL A   1      42.436  27.586  30.802  1.00  0.00     0.179 C 
ATOM     13  C   UNL A   1      43.456  29.058  29.097  1.00  0.00     0.179 C 
ATOM     14  C   UNL A   1      41.703  28.810  31.396  1.00  0.00     0.285 C 
ATOM     15  C   UNL A   1      42.623  30.224  29.768  1.00  0.00     0.285 C 
ATOM     16  H   UNL A   1      40.940  30.592  31.050  1.00  0.00     0.349 HD
BRANCH  11  17
ATOM     17  C   UNL A   1      44.190  26.704  29.358  1.00  0.00     0.129 A 
ATOM     18  C   UNL A   1      44.105  22.947  29.876  1.00  0.00     0.045 C 
ATOM     19  C   UNL A   1      44.276  24.279  29.207  1.00  0.00    -0.038 A 
ATOM     20  C   UNL A   1      43.865  25.457  29.870  1.00  0.00     0.051 A 
ATOM     21  C   UNL A   1      44.844  24.352  27.916  1.00  0.00     0.003 A 
ATOM     22  C   UNL A   1      45.196  25.626  27.475  1.00  0.00     0.073 A 
ATOM     23  C   UNL A   1      45.044  23.223  27.060  1.00  0.00     0.010 A 
ATOM     24  N   UNL A   1      44.985  26.740  28.255  1.00  0.00    -0.231 NA
ATOM     25  C   UNL A   1      45.712  25.703  26.163  1.00  0.00     0.029 A 
ATOM     26  C   UNL A   1      45.475  23.358  25.742  1.00  0.00     0.001 A 
ATOM     27  C   UNL A   1      45.789  24.617  25.278  1.00  0.00     0.002 A 
ENDBRANCH  11  17
ENDBRANCH   9  10
BRANCH   9  28
ATOM     28  C   UNL A   1      39.686  29.289  28.283  1.00  0.00     0.046 A 
ATOM     29  C   UNL A   1      38.460  28.625  28.186  1.00  0.00     0.094 A 
ATOM     30  C   UNL A   1      40.326  28.573  27.146  1.00  0.00     0.009 A 
ATOM     31  N   UNL A   1      38.876  27.332  28.535  1.00  0.00    -0.361 N 
ATOM     32  C   UNL A   1      39.917  26.914  27.637  1.00  0.00     0.046 A 
ATOM     33  C   UNL A   1      41.480  28.698  25.772  1.00  0.00     0.011 A 
ATOM     34  H   UNL A   1      38.512  26.797  29.276  1.00  0.00     0.166 HD
ATOM     35  C   UNL A   1      40.887  25.366  26.796  1.00  0.00     0.026 A 
ATOM     36  C   UNL A   1      42.341  27.325  25.002  1.00  0.00     0.001 A 
ATOM     37  C   UNL A   1      42.090  25.681  25.496  1.00  0.00     0.002 A 
ENDBRANCH   9  28
ENDBRANCH   7   9
ENDBRANCH   6   7
ENDBRANCH   5   6
ENDBRANCH   4   5
ENDBRANCH   3   4
ENDBRANCH   2   3
ENDBRANCH   1   2
BRANCH   1  38
ATOM     38  O   UNL A   1      38.967  35.634  35.069  1.00  0.00    -0.376 OA
BRANCH  38  39
ATOM     39  C   UNL A   1      40.097  35.713  35.902  1.00  0.00     0.202 C 
BRANCH  39  40
ATOM     40  C   UNL A   1      40.067  36.195  37.350  1.00  0.00     0.261 C 
BRANCH  40  41
ATOM     41  O   UNL A   1      40.806  35.298  38.170  1.00  0.00    -0.460 OA
BRANCH  41  42
ATOM     42  C   UNL A   1      40.474  34.165  38.801  1.00  0.00     0.338 C 
ATOM     43  O   UNL A   1      39.612  33.959  39.624  1.00  0.00    -0.246 OA
BRANCH  42  44
ATOM     44  C   UNL A   1      41.403  33.209  38.156  1.00  0.00     0.060 A 
ATOM     45  C   UNL A   1      43.173  33.182  38.212  1.00  0.00     0.016 A 
ATOM     46  C   UNL A   1      40.597  32.169  36.943  1.00  0.00     0.016 A 
ATOM     47  C   UNL A   1      44.179  32.221  37.060  1.00  0.00     0.010 A 
ATOM     48  C   UNL A   1      41.720  31.080  35.680  1.00  0.00     0.010 A 
ATOM     49  C   UNL A   1      43.494  31.187  35.790  1.00  0.00    -0.014 A 
BRANCH  49  50
ATOM     50  C   UNL A   1      44.160  30.698  34.575  1.00  0.00     0.031 A 
ATOM     51  C   UNL A   1      44.165  31.559  33.350  1.00  0.00     0.074 A 
ATOM     52  C   UNL A   1      44.416  29.382  34.439  1.00  0.00     0.049 A 
ATOM     53  N   UNL A   1      44.884  31.451  32.268  1.00  0.00    -0.248 NA
ATOM     54  C   UNL A   1      43.192  32.658  33.295  1.00  0.00     0.031 C 
ATOM     55  C   UNL A   1      44.086  28.338  35.412  1.00  0.00     0.029 A 
ATOM     56  N   UNL A   1      44.988  28.688  33.408  1.00  0.00    -0.354 N 
ATOM     57  C   UNL A   1      44.515  32.530  31.471  1.00  0.00     0.074 A 
ATOM     58  C   UNL A   1      43.422  33.201  32.114  1.00  0.00     0.031 C 
ATOM     59  C   UNL A   1      44.519  27.151  34.967  1.00  0.00     0.029 A 
ATOM     60  C   UNL A   1      45.191  27.358  33.696  1.00  0.00     0.049 A 
ATOM     61  H   UNL A   1      45.230  29.097  32.546  1.00  0.00     0.167 HD
ATOM     62  C   UNL A   1      45.080  32.940  30.317  1.00  0.00     0.031 A 
ATOM     63  C   UNL A   1      45.909  26.433  33.036  1.00  0.00     0.031 A 
ATOM     64  C   UNL A   1      46.040  32.126  29.633  1.00  0.00     0.049 A 
ATOM     65  C   UNL A   1      46.644  26.897  31.815  1.00  0.00     0.074 A 
ATOM     66  C   UNL A   1      46.791  32.408  28.514  1.00  0.00     0.029 A 
ATOM     67  N   UNL A   1      46.329  30.817  30.004  1.00  0.00    -0.354 N 
ATOM     68  N   UNL A   1      46.570  28.059  31.204  1.00  0.00    -0.248 NA
ATOM     69  C   UNL A   1      47.597  25.956  31.227  1.00  0.00     0.031 C 
ATOM     70  C   UNL A   1      47.483  31.241  28.167  1.00  0.00     0.029 A 
ATOM     71  C   UNL A   1      47.232  30.264  29.123  1.00  0.00     0.049 A 
ATOM     72  H   UNL A   1      45.945  30.353  30.783  1.00  0.00     0.167 HD
ATOM     73  C   UNL A   1      47.493  28.004  30.169  1.00  0.00     0.074 A 
ATOM     74  C   UNL A   1      48.124  26.698  30.262  1.00  0.00     0.031 C 
ATOM     75  C   UNL A   1      47.799  28.940  29.235  1.00  0.00     0.031 A 
BRANCH  62  76
ATOM     76  C   UNL A   1      44.668  34.292  29.791  1.00  0.00    -0.014 A 
ATOM     77  C   UNL A   1      45.258  35.467  30.308  1.00  0.00     0.010 A 
ATOM     78  C   UNL A   1      43.689  34.416  28.793  1.00  0.00     0.010 A 
ATOM     79  C   UNL A   1      44.838  36.730  29.885  1.00  0.00     0.020 A 
ATOM     80  C   UNL A   1      43.291  35.679  28.338  1.00  0.00     0.020 A 
ATOM     81  C   UNL A   1      43.854  36.827  28.902  1.00  0.00     0.054 A 
BRANCH  81  82
ATOM     82  S   UNL A   1      43.335  38.479  28.364  1.00  0.00     0.124 S 
ATOM     83  O   UNL A   1      41.902  38.292  28.149  1.00  0.00    -0.237 OA
ATOM     84  O   UNL A   1      43.693  39.312  29.511  1.00  0.00    -0.237 OA
ATOM     85  O   UNL A   1      44.122  38.716  27.157  1.00  0.00    -0.744 OA
ENDBRANCH  81  82
ENDBRANCH  62  76
BRANCH  63  86
ATOM     86  C   UNL A   1      46.068  25.072  33.619  1.00  0.00    -0.014 A 
ATOM     87  C   UNL A   1      47.128  24.780  34.499  1.00  0.00     0.010 A 
ATOM     88  C   UNL A   1      45.099  24.083  33.376  1.00  0.00     0.010 A 
ATOM     89  C   UNL A   1      47.225  23.523  35.106  1.00  0.00     0.020 A 
ATOM     90  C   UNL A   1      45.176  22.835  34.003  1.00  0.00     0.020 A 
ATOM     91  C   UNL A   1      46.242  22.560  34.859  1.00  0.00     0.054 A 
BRANCH  91  92
ATOM     92  S   UNL A   1      46.352  20.958  35.707  1.00  0.00     0.124 S 
ATOM     93  O   UNL A   1      45.653  21.226  36.960  1.00  0.00    -0.237 OA
ATOM     94  O   UNL A   1      45.666  20.064  34.778  1.00  0.00    -0.237 OA
ATOM     95  O   UNL A   1      47.790  20.733  35.831  1.00  0.00    -0.744 OA
ENDBRANCH  91  92
ENDBRANCH  63  86
BRANCH  75  96
ATOM     96  C   UNL A   1      48.884  28.582  28.262  1.00  0.00    -0.014 A 
ATOM     97  C   UNL A   1      48.594  27.994  27.019  1.00  0.00     0.010 A 
ATOM     98  C   UNL A   1      50.219  28.865  28.600  1.00  0.00     0.010 A 
ATOM     99  C   UNL A   1      49.630  27.625  26.163  1.00  0.00     0.020 A 
ATOM    100  C   UNL A   1      51.254  28.547  27.724  1.00  0.00     0.020 A 
ATOM    101  C   UNL A   1      50.953  27.903  26.524  1.00  0.00     0.054 A 
BRANCH 101 102
ATOM    102  S   UNL A   1      52.279  27.413  25.396  1.00  0.00     0.124 S 
ATOM    103  O   UNL A   1      51.697  26.249  24.734  1.00  0.00    -0.237 OA
ATOM    104  O   UNL A   1      52.438  28.600  24.559  1.00  0.00    -0.237 OA
ATOM    105  O   UNL A   1      53.404  27.128  26.284  1.00  0.00    -0.744 OA
ENDBRANCH 101 102
ENDBRANCH  75  96
ENDBRANCH  49  50
ENDBRANCH  42  44
ENDBRANCH  41  42
ENDBRANCH  40  41
ENDBRANCH  39  40
ENDBRANCH  38  39
ENDBRANCH   1  38
TORSDOF 23
ENDMDL
