MODEL 1
REMARK VINA RESULT:      -9.4      0.000      0.000
REMARK SMILES O=C(Cc1ccn[nH]1)Nc1cc(C(=O)OCCOCCOCCOC(=O)c2ccc(-c3c4nc(c(-c5ccc(S(=O)(=O)[O-])cc5)c5ccc([nH]5)c(-c5ccc(S(=O)(=O)[O-])cc5)c5nc(c(-c6ccc(S(=O)(=O)[O-])cc6)c6ccc3[nH]6)C=C5)C=C4)cc2)c(F)cc1F
REMARK SMILES IDX 19 1 18 2 17 3 16 4 15 5 13 6 14 7 12 8 10 9 11 10 90 11
REMARK SMILES IDX 89 12 91 13 87 14 88 15 9 16 1 17 2 18 3 20 4 21 5 22 8 23
REMARK SMILES IDX 6 24 7 25 20 27 21 28 22 29 23 30 24 31 25 32 26 33 27 34
REMARK SMILES IDX 28 35 86 36 29 37 85 38 30 39 31 40 32 41 79 42 33 43 84 44
REMARK SMILES IDX 78 45 80 46 34 47 83 48 77 49 76 50 35 52 65 53 46 54 64 55
REMARK SMILES IDX 47 56 50 57 63 58 81 59 48 60 49 61 62 63 82 64 51 65 36 66
REMARK SMILES IDX 37 67 45 68 38 69 44 70 39 71 40 72 41 73 42 74 43 75 66 76
REMARK SMILES IDX 67 77 75 78 68 79 74 80 69 81 70 82 71 83 72 84 73 85 52 86
REMARK SMILES IDX 53 87 61 88 54 89 60 90 55 91 56 92 57 93 58 94 59 95
REMARK H PARENT 9 19 8 26 80 51 50 62
REMARK Flexibility Score: inf
ROOT
ATOM      1  C   UNL A   1      34.833  29.878  27.600  1.00  0.00     0.188 C 
ENDROOT
BRANCH   1   2
ATOM      2  O   UNL A   1      33.554  30.010  27.017  1.00  0.00    -0.376 OA
BRANCH   2   3
ATOM      3  C   UNL A   1      33.098  29.086  26.043  1.00  0.00     0.202 C 
BRANCH   3   4
ATOM      4  C   UNL A   1      31.746  29.186  25.321  1.00  0.00     0.261 C 
BRANCH   4   5
ATOM      5  O   UNL A   1      31.117  27.947  24.981  1.00  0.00    -0.460 OA
BRANCH   5   6
ATOM      6  C   UNL A   1      31.200  26.985  25.935  1.00  0.00     0.341 C 
ATOM      7  O   UNL A   1      31.018  27.116  27.128  1.00  0.00    -0.246 OA
BRANCH   6   8
ATOM      8  C   UNL A   1      31.396  25.663  25.318  1.00  0.00     0.098 A 
ATOM      9  C   UNL A   1      32.840  23.751  24.981  1.00  0.00     0.078 A 
ATOM     10  C   UNL A   1      32.556  24.946  25.646  1.00  0.00     0.048 A 
ATOM     11  C   UNL A   1      31.963  23.291  23.996  1.00  0.00     0.149 A 
ATOM     12  C   UNL A   1      30.775  23.962  23.721  1.00  0.00     0.081 A 
ATOM     13  F   UNL A   1      32.234  22.145  23.353  1.00  0.00    -0.205 F 
ATOM     14  C   UNL A   1      30.498  25.154  24.384  1.00  0.00     0.140 A 
ATOM     15  F   UNL A   1      29.372  25.813  24.078  1.00  0.00    -0.206 F 
BRANCH   9  16
ATOM     16  N   UNL A   1      34.000  23.005  25.269  1.00  0.00    -0.323 N 
ATOM     17  O   UNL A   1      35.286  23.941  23.608  1.00  0.00    -0.274 OA
ATOM     18  C   UNL A   1      35.163  23.131  24.526  1.00  0.00     0.230 C 
ATOM     19  H   UNL A   1      33.984  22.372  26.023  1.00  0.00     0.170 HD
BRANCH  18  20
ATOM     20  C   UNL A   1      36.293  22.200  24.934  1.00  0.00     0.155 C 
BRANCH  20  21
ATOM     21  C   UNL A   1      37.440  22.848  25.648  1.00  0.00     0.044 A 
ATOM     22  C   UNL A   1      38.656  22.300  26.014  1.00  0.00     0.045 A 
ATOM     23  N   UNL A   1      37.493  24.145  26.089  1.00  0.00    -0.282 N 
ATOM     24  C   UNL A   1      39.311  23.308  26.741  1.00  0.00     0.135 A 
ATOM     25  N   UNL A   1      38.584  24.423  26.820  1.00  0.00    -0.184 NA
ATOM     26  H   UNL A   1      36.796  24.811  25.889  1.00  0.00     0.190 HD
ENDBRANCH  20  21
ENDBRANCH  18  20
ENDBRANCH   9  16
ENDBRANCH   6   8
ENDBRANCH   5   6
ENDBRANCH   4   5
ENDBRANCH   3   4
ENDBRANCH   2   3
ENDBRANCH   1   2
BRANCH   1  27
ATOM     27  C   UNL A   1      35.633  31.143  27.972  1.00  0.00     0.188 C 
BRANCH  27  28
ATOM     28  O   UNL A   1      34.994  32.236  28.596  1.00  0.00    -0.376 OA
BRANCH  28  29
ATOM     29  C   UNL A   1      35.393  32.661  29.888  1.00  0.00     0.202 C 
BRANCH  29  30
ATOM     30  C   UNL A   1      35.336  31.792  31.157  1.00  0.00     0.261 C 
BRANCH  30  31
ATOM     31  O   UNL A   1      36.210  30.662  31.216  1.00  0.00    -0.460 OA
BRANCH  31  32
ATOM     32  C   UNL A   1      37.334  30.849  31.952  1.00  0.00     0.338 C 
ATOM     33  O   UNL A   1      37.405  31.239  33.105  1.00  0.00    -0.246 OA
BRANCH  32  34
ATOM     34  C   UNL A   1      38.493  30.339  31.201  1.00  0.00     0.060 A 
ATOM     35  C   UNL A   1      39.541  29.751  31.917  1.00  0.00     0.016 A 
ATOM     36  C   UNL A   1      38.571  30.485  29.816  1.00  0.00     0.016 A 
ATOM     37  C   UNL A   1      40.681  29.315  31.247  1.00  0.00     0.010 A 
ATOM     38  C   UNL A   1      39.726  30.065  29.148  1.00  0.00     0.010 A 
ATOM     39  C   UNL A   1      40.794  29.494  29.865  1.00  0.00    -0.014 A 
BRANCH  39  40
ATOM     40  C   UNL A   1      42.098  29.242  29.209  1.00  0.00     0.031 A 
ATOM     41  C   UNL A   1      42.368  27.871  28.655  1.00  0.00     0.074 A 
ATOM     42  C   UNL A   1      43.007  30.224  29.064  1.00  0.00     0.049 A 
ATOM     43  N   UNL A   1      43.451  27.406  28.089  1.00  0.00    -0.248 NA
ATOM     44  C   UNL A   1      41.265  26.899  28.745  1.00  0.00     0.031 C 
ATOM     45  C   UNL A   1      42.830  31.614  29.481  1.00  0.00     0.029 A 
ATOM     46  N   UNL A   1      44.270  30.194  28.525  1.00  0.00    -0.354 N 
ATOM     47  C   UNL A   1      43.165  26.085  27.765  1.00  0.00     0.074 A 
ATOM     48  C   UNL A   1      41.815  25.817  28.212  1.00  0.00     0.031 C 
ATOM     49  C   UNL A   1      43.952  32.300  29.202  1.00  0.00     0.029 A 
ATOM     50  C   UNL A   1      44.939  31.390  28.619  1.00  0.00     0.049 A 
ATOM     51  H   UNL A   1      44.659  29.390  28.108  1.00  0.00     0.167 HD
ATOM     52  C   UNL A   1      43.957  25.175  27.151  1.00  0.00     0.031 A 
ATOM     53  C   UNL A   1      46.212  31.705  28.304  1.00  0.00     0.031 A 
ATOM     54  C   UNL A   1      45.304  25.439  26.724  1.00  0.00     0.049 A 
ATOM     55  C   UNL A   1      47.111  30.644  27.718  1.00  0.00     0.074 A 
ATOM     56  C   UNL A   1      46.191  24.579  26.098  1.00  0.00     0.029 A 
ATOM     57  N   UNL A   1      45.964  26.646  26.885  1.00  0.00    -0.354 N 
ATOM     58  N   UNL A   1      46.827  29.400  27.411  1.00  0.00    -0.248 NA
ATOM     59  C   UNL A   1      48.499  31.032  27.428  1.00  0.00     0.031 C 
ATOM     60  C   UNL A   1      47.407  25.250  25.938  1.00  0.00     0.029 A 
ATOM     61  C   UNL A   1      47.256  26.549  26.397  1.00  0.00     0.049 A 
ATOM     62  H   UNL A   1      45.572  27.455  27.288  1.00  0.00     0.167 HD
ATOM     63  C   UNL A   1      47.992  28.868  26.864  1.00  0.00     0.074 A 
ATOM     64  C   UNL A   1      48.978  29.929  26.869  1.00  0.00     0.031 C 
ATOM     65  C   UNL A   1      48.223  27.617  26.396  1.00  0.00     0.031 A 
BRANCH  52  66
ATOM     66  C   UNL A   1      43.400  23.791  26.950  1.00  0.00    -0.014 A 
ATOM     67  C   UNL A   1      43.044  23.322  25.673  1.00  0.00     0.010 A 
ATOM     68  C   UNL A   1      43.273  22.931  28.057  1.00  0.00     0.010 A 
ATOM     69  C   UNL A   1      42.542  22.028  25.511  1.00  0.00     0.020 A 
ATOM     70  C   UNL A   1      42.797  21.628  27.895  1.00  0.00     0.020 A 
ATOM     71  C   UNL A   1      42.422  21.189  26.624  1.00  0.00     0.054 A 
BRANCH  71  72
ATOM     72  S   UNL A   1      41.800  19.503  26.380  1.00  0.00     0.124 S 
ATOM     73  O   UNL A   1      42.479  19.107  25.149  1.00  0.00    -0.237 OA
ATOM     74  O   UNL A   1      42.247  18.819  27.591  1.00  0.00    -0.237 OA
ATOM     75  O   UNL A   1      40.355  19.679  26.264  1.00  0.00    -0.744 OA
ENDBRANCH  71  72
ENDBRANCH  52  66
BRANCH  53  76
ATOM     76  C   UNL A   1      46.735  33.076  28.569  1.00  0.00    -0.014 A 
ATOM     77  C   UNL A   1      46.659  34.080  27.589  1.00  0.00     0.010 A 
ATOM     78  C   UNL A   1      47.343  33.373  29.803  1.00  0.00     0.010 A 
ATOM     79  C   UNL A   1      47.203  35.347  27.828  1.00  0.00     0.020 A 
ATOM     80  C   UNL A   1      47.860  34.646  30.057  1.00  0.00     0.020 A 
ATOM     81  C   UNL A   1      47.799  35.622  29.062  1.00  0.00     0.054 A 
BRANCH  81  82
ATOM     82  S   UNL A   1      48.465  37.283  29.362  1.00  0.00     0.124 S 
ATOM     83  O   UNL A   1      48.537  37.322  30.819  1.00  0.00    -0.237 OA
ATOM     84  O   UNL A   1      49.748  37.237  28.665  1.00  0.00    -0.237 OA
ATOM     85  O   UNL A   1      47.468  38.165  28.760  1.00  0.00    -0.744 OA
ENDBRANCH  81  82
ENDBRANCH  53  76
BRANCH  65  86
ATOM     86  C   UNL A   1      49.576  27.329  25.796  1.00  0.00    -0.014 A 
ATOM     87  C   UNL A   1      50.643  26.853  26.579  1.00  0.00     0.010 A 
ATOM     88  C   UNL A   1      49.758  27.473  24.407  1.00  0.00     0.010 A 
ATOM     89  C   UNL A   1      51.874  26.554  25.988  1.00  0.00     0.020 A 
ATOM     90  C   UNL A   1      50.977  27.147  23.809  1.00  0.00     0.020 A 
ATOM     91  C   UNL A   1      52.033  26.702  24.606  1.00  0.00     0.054 A 
BRANCH  91  92
ATOM     92  S   UNL A   1      53.625  26.260  23.856  1.00  0.00     0.124 S 
ATOM     93  O   UNL A   1      53.246  25.991  22.473  1.00  0.00    -0.237 OA
ATOM     94  O   UNL A   1      54.424  27.464  24.067  1.00  0.00    -0.237 OA
ATOM     95  O   UNL A   1      54.056  25.091  24.622  1.00  0.00    -0.744 OA
ENDBRANCH  91  92
ENDBRANCH  65  86
ENDBRANCH  39  40
ENDBRANCH  32  34
ENDBRANCH  31  32
ENDBRANCH  30  31
ENDBRANCH  29  30
ENDBRANCH  28  29
ENDBRANCH  27  28
ENDBRANCH   1  27
TORSDOF 23
ENDMDL
MODEL 2
REMARK VINA RESULT:      -8.4      4.169     12.315
REMARK SMILES O=C(Cc1ccn[nH]1)Nc1cc(C(=O)OCCOCCOCCOC(=O)c2ccc(-c3c4nc(c(-c5ccc(S(=O)(=O)[O-])cc5)c5ccc([nH]5)c(-c5ccc(S(=O)(=O)[O-])cc5)c5nc(c(-c6ccc(S(=O)(=O)[O-])cc6)c6ccc3[nH]6)C=C5)C=C4)cc2)c(F)cc1F
REMARK SMILES IDX 19 1 18 2 17 3 16 4 15 5 13 6 14 7 12 8 10 9 11 10 90 11
REMARK SMILES IDX 89 12 91 13 87 14 88 15 9 16 1 17 2 18 3 20 4 21 5 22 8 23
REMARK SMILES IDX 6 24 7 25 20 27 21 28 22 29 23 30 24 31 25 32 26 33 27 34
REMARK SMILES IDX 28 35 86 36 29 37 85 38 30 39 31 40 32 41 79 42 33 43 84 44
REMARK SMILES IDX 78 45 80 46 34 47 83 48 77 49 76 50 35 52 65 53 46 54 64 55
REMARK SMILES IDX 47 56 50 57 63 58 81 59 48 60 49 61 62 63 82 64 51 65 36 66
REMARK SMILES IDX 37 67 45 68 38 69 44 70 39 71 40 72 41 73 42 74 43 75 66 76
REMARK SMILES IDX 67 77 75 78 68 79 74 80 69 81 70 82 71 83 72 84 73 85 52 86
REMARK SMILES IDX 53 87 61 88 54 89 60 90 55 91 56 92 57 93 58 94 59 95
REMARK H PARENT 9 19 8 26 80 51 50 62
REMARK Flexibility Score: inf
ROOT
ATOM      1  C   UNL A   1      43.412  24.516  26.849  1.00  0.00     0.188 C 
ENDROOT
BRANCH   1   2
ATOM      2  O   UNL A   1      43.897  23.206  27.055  1.00  0.00    -0.376 OA
BRANCH   2   3
ATOM      3  C   UNL A   1      43.831  22.234  26.025  1.00  0.00     0.202 C 
BRANCH   3   4
ATOM      4  C   UNL A   1      42.908  21.006  26.052  1.00  0.00     0.261 C 
BRANCH   4   5
ATOM      5  O   UNL A   1      41.550  21.226  25.658  1.00  0.00    -0.460 OA
BRANCH   5   6
ATOM      6  C   UNL A   1      40.631  21.011  26.633  1.00  0.00     0.341 C 
ATOM      7  O   UNL A   1      40.742  20.287  27.601  1.00  0.00    -0.246 OA
BRANCH   6   8
ATOM      8  C   UNL A   1      39.481  21.914  26.465  1.00  0.00     0.098 A 
ATOM      9  C   UNL A   1      37.299  22.296  25.491  1.00  0.00     0.078 A 
ATOM     10  C   UNL A   1      38.354  21.429  25.784  1.00  0.00     0.048 A 
ATOM     11  C   UNL A   1      37.386  23.636  25.878  1.00  0.00     0.149 A 
ATOM     12  C   UNL A   1      38.469  24.101  26.617  1.00  0.00     0.081 A 
ATOM     13  F   UNL A   1      36.375  24.472  25.596  1.00  0.00    -0.205 F 
ATOM     14  C   UNL A   1      39.520  23.234  26.904  1.00  0.00     0.140 A 
ATOM     15  F   UNL A   1      40.577  23.707  27.579  1.00  0.00    -0.206 F 
BRANCH   9  16
ATOM     16  N   UNL A   1      36.154  21.856  24.798  1.00  0.00    -0.323 N 
ATOM     17  O   UNL A   1      34.883  21.487  26.679  1.00  0.00    -0.274 OA
ATOM     18  C   UNL A   1      35.006  21.442  25.456  1.00  0.00     0.230 C 
ATOM     19  H   UNL A   1      36.169  21.840  23.814  1.00  0.00     0.170 HD
BRANCH  18  20
ATOM     20  C   UNL A   1      33.893  20.935  24.553  1.00  0.00     0.155 C 
BRANCH  20  21
ATOM     21  C   UNL A   1      33.416  19.542  24.834  1.00  0.00     0.044 A 
ATOM     22  C   UNL A   1      33.391  18.447  23.991  1.00  0.00     0.045 A 
ATOM     23  N   UNL A   1      32.896  19.086  26.017  1.00  0.00    -0.282 N 
ATOM     24  C   UNL A   1      32.757  17.430  24.725  1.00  0.00     0.135 A 
ATOM     25  N   UNL A   1      32.420  17.832  25.950  1.00  0.00    -0.184 NA
ATOM     26  H   UNL A   1      32.872  19.626  26.840  1.00  0.00     0.190 HD
ENDBRANCH  20  21
ENDBRANCH  18  20
ENDBRANCH   9  16
ENDBRANCH   6   8
ENDBRANCH   5   6
ENDBRANCH   4   5
ENDBRANCH   3   4
ENDBRANCH   2   3
ENDBRANCH   1   2
BRANCH   1  27
ATOM     27  C   UNL A   1      44.107  25.433  25.822  1.00  0.00     0.188 C 
BRANCH  27  28
ATOM     28  O   UNL A   1      45.512  25.569  25.821  1.00  0.00    -0.376 OA
BRANCH  28  29
ATOM     29  C   UNL A   1      46.314  24.745  24.993  1.00  0.00     0.202 C 
BRANCH  29  30
ATOM     30  C   UNL A   1      47.803  24.985  24.689  1.00  0.00     0.261 C 
BRANCH  30  31
ATOM     31  O   UNL A   1      48.671  25.203  25.803  1.00  0.00    -0.460 OA
BRANCH  31  32
ATOM     32  C   UNL A   1      49.421  26.331  25.729  1.00  0.00     0.338 C 
ATOM     33  O   UNL A   1      50.458  26.489  25.108  1.00  0.00    -0.246 OA
BRANCH  32  34
ATOM     34  C   UNL A   1      48.701  27.434  26.387  1.00  0.00     0.060 A 
ATOM     35  C   UNL A   1      47.754  28.145  25.642  1.00  0.00     0.016 A 
ATOM     36  C   UNL A   1      48.990  27.797  27.703  1.00  0.00     0.016 A 
ATOM     37  C   UNL A   1      47.098  29.234  26.211  1.00  0.00     0.010 A 
ATOM     38  C   UNL A   1      48.345  28.903  28.264  1.00  0.00     0.010 A 
ATOM     39  C   UNL A   1      47.410  29.638  27.513  1.00  0.00    -0.014 A 
BRANCH  39  40
ATOM     40  C   UNL A   1      46.880  30.928  28.014  1.00  0.00     0.031 A 
ATOM     41  C   UNL A   1      47.661  32.180  27.730  1.00  0.00     0.074 A 
ATOM     42  C   UNL A   1      45.704  30.994  28.665  1.00  0.00     0.049 A 
ATOM     43  N   UNL A   1      47.422  33.409  28.109  1.00  0.00    -0.248 NA
ATOM     44  C   UNL A   1      48.867  32.028  26.899  1.00  0.00     0.031 C 
ATOM     45  C   UNL A   1      44.815  29.864  28.927  1.00  0.00     0.029 A 
ATOM     46  N   UNL A   1      45.061  32.067  29.231  1.00  0.00    -0.354 N 
ATOM     47  C   UNL A   1      48.452  34.173  27.574  1.00  0.00     0.074 A 
ATOM     48  C   UNL A   1      49.327  33.270  26.859  1.00  0.00     0.031 C 
ATOM     49  C   UNL A   1      43.749  30.300  29.622  1.00  0.00     0.029 A 
ATOM     50  C   UNL A   1      43.899  31.732  29.884  1.00  0.00     0.049 A 
ATOM     51  H   UNL A   1      45.399  32.991  29.172  1.00  0.00     0.167 HD
ATOM     52  C   UNL A   1      48.653  35.508  27.672  1.00  0.00     0.031 A 
ATOM     53  C   UNL A   1      43.071  32.487  30.635  1.00  0.00     0.031 A 
ATOM     54  C   UNL A   1      47.791  36.400  28.399  1.00  0.00     0.049 A 
ATOM     55  C   UNL A   1      43.374  33.954  30.818  1.00  0.00     0.074 A 
ATOM     56  C   UNL A   1      47.913  37.769  28.563  1.00  0.00     0.029 A 
ATOM     57  N   UNL A   1      46.655  36.015  29.091  1.00  0.00    -0.354 N 
ATOM     58  N   UNL A   1      44.348  34.666  30.303  1.00  0.00    -0.248 NA
ATOM     59  C   UNL A   1      42.460  34.721  31.678  1.00  0.00     0.031 C 
ATOM     60  C   UNL A   1      46.885  38.201  29.405  1.00  0.00     0.029 A 
ATOM     61  C   UNL A   1      46.080  37.113  29.707  1.00  0.00     0.049 A 
ATOM     62  H   UNL A   1      46.306  35.095  29.139  1.00  0.00     0.167 HD
ATOM     63  C   UNL A   1      44.145  35.968  30.750  1.00  0.00     0.074 A 
ATOM     64  C   UNL A   1      42.949  35.948  31.566  1.00  0.00     0.031 C 
ATOM     65  C   UNL A   1      44.880  37.081  30.505  1.00  0.00     0.031 A 
BRANCH  52  66
ATOM     66  C   UNL A   1      49.882  36.077  27.015  1.00  0.00    -0.014 A 
ATOM     67  C   UNL A   1      49.930  36.313  25.630  1.00  0.00     0.010 A 
ATOM     68  C   UNL A   1      50.992  36.419  27.809  1.00  0.00     0.010 A 
ATOM     69  C   UNL A   1      51.078  36.855  25.046  1.00  0.00     0.020 A 
ATOM     70  C   UNL A   1      52.132  36.985  27.233  1.00  0.00     0.020 A 
ATOM     71  C   UNL A   1      52.172  37.188  25.853  1.00  0.00     0.054 A 
BRANCH  71  72
ATOM     72  S   UNL A   1      53.636  37.921  25.073  1.00  0.00     0.124 S 
ATOM     73  O   UNL A   1      53.395  37.646  23.660  1.00  0.00    -0.237 OA
ATOM     74  O   UNL A   1      53.538  39.325  25.466  1.00  0.00    -0.237 OA
ATOM     75  O   UNL A   1      54.751  37.188  25.668  1.00  0.00    -0.744 OA
ENDBRANCH  71  72
ENDBRANCH  52  66
BRANCH  53  76
ATOM     76  C   UNL A   1      41.894  31.869  31.309  1.00  0.00    -0.014 A 
ATOM     77  C   UNL A   1      41.988  31.379  32.623  1.00  0.00     0.010 A 
ATOM     78  C   UNL A   1      40.673  31.740  30.621  1.00  0.00     0.010 A 
ATOM     79  C   UNL A   1      40.893  30.751  33.226  1.00  0.00     0.020 A 
ATOM     80  C   UNL A   1      39.568  31.141  31.230  1.00  0.00     0.020 A 
ATOM     81  C   UNL A   1      39.689  30.637  32.526  1.00  0.00     0.054 A 
BRANCH  81  82
ATOM     82  S   UNL A   1      38.273  29.851  33.342  1.00  0.00     0.124 S 
ATOM     83  O   UNL A   1      37.149  30.600  32.786  1.00  0.00    -0.237 OA
ATOM     84  O   UNL A   1      38.387  28.463  32.902  1.00  0.00    -0.237 OA
ATOM     85  O   UNL A   1      38.531  30.071  34.763  1.00  0.00    -0.744 OA
ENDBRANCH  81  82
ENDBRANCH  53  76
BRANCH  65  86
ATOM     86  C   UNL A   1      44.390  38.388  31.076  1.00  0.00    -0.014 A 
ATOM     87  C   UNL A   1      43.685  39.316  30.288  1.00  0.00     0.010 A 
ATOM     88  C   UNL A   1      44.580  38.657  32.444  1.00  0.00     0.010 A 
ATOM     89  C   UNL A   1      43.205  40.501  30.855  1.00  0.00     0.020 A 
ATOM     90  C   UNL A   1      44.076  39.824  33.019  1.00  0.00     0.020 A 
ATOM     91  C   UNL A   1      43.402  40.747  32.218  1.00  0.00     0.054 A 
BRANCH  91  92
ATOM     92  S   UNL A   1      42.726  42.269  32.938  1.00  0.00     0.124 S 
ATOM     93  O   UNL A   1      43.924  42.916  33.463  1.00  0.00    -0.237 OA
ATOM     94  O   UNL A   1      42.111  42.923  31.786  1.00  0.00    -0.237 OA
ATOM     95  O   UNL A   1      41.786  41.787  33.948  1.00  0.00    -0.744 OA
ENDBRANCH  91  92
ENDBRANCH  65  86
ENDBRANCH  39  40
ENDBRANCH  32  34
ENDBRANCH  31  32
ENDBRANCH  30  31
ENDBRANCH  29  30
ENDBRANCH  28  29
ENDBRANCH  27  28
ENDBRANCH   1  27
TORSDOF 23
ENDMDL
MODEL 3
REMARK VINA RESULT:      -8.3      8.088     13.400
REMARK SMILES O=C(Cc1ccn[nH]1)Nc1cc(C(=O)OCCOCCOCCOC(=O)c2ccc(-c3c4nc(c(-c5ccc(S(=O)(=O)[O-])cc5)c5ccc([nH]5)c(-c5ccc(S(=O)(=O)[O-])cc5)c5nc(c(-c6ccc(S(=O)(=O)[O-])cc6)c6ccc3[nH]6)C=C5)C=C4)cc2)c(F)cc1F
REMARK SMILES IDX 19 1 18 2 17 3 16 4 15 5 13 6 14 7 12 8 10 9 11 10 90 11
REMARK SMILES IDX 89 12 91 13 87 14 88 15 9 16 1 17 2 18 3 20 4 21 5 22 8 23
REMARK SMILES IDX 6 24 7 25 20 27 21 28 22 29 23 30 24 31 25 32 26 33 27 34
REMARK SMILES IDX 28 35 86 36 29 37 85 38 30 39 31 40 32 41 79 42 33 43 84 44
REMARK SMILES IDX 78 45 80 46 34 47 83 48 77 49 76 50 35 52 65 53 46 54 64 55
REMARK SMILES IDX 47 56 50 57 63 58 81 59 48 60 49 61 62 63 82 64 51 65 36 66
REMARK SMILES IDX 37 67 45 68 38 69 44 70 39 71 40 72 41 73 42 74 43 75 66 76
REMARK SMILES IDX 67 77 75 78 68 79 74 80 69 81 70 82 71 83 72 84 73 85 52 86
REMARK SMILES IDX 53 87 61 88 54 89 60 90 55 91 56 92 57 93 58 94 59 95
REMARK H PARENT 9 19 8 26 80 51 50 62
REMARK Flexibility Score: inf
ROOT
ATOM      1  C   UNL A   1      42.498  42.882  23.030  1.00  0.00     0.188 C 
ENDROOT
BRANCH   1   2
ATOM      2  O   UNL A   1      43.830  43.332  23.163  1.00  0.00    -0.376 OA
BRANCH   2   3
ATOM      3  C   UNL A   1      44.583  43.726  22.029  1.00  0.00     0.202 C 
BRANCH   3   4
ATOM      4  C   UNL A   1      45.381  42.759  21.140  1.00  0.00     0.261 C 
BRANCH   4   5
ATOM      5  O   UNL A   1      45.917  41.602  21.787  1.00  0.00    -0.460 OA
BRANCH   5   6
ATOM      6  C   UNL A   1      47.014  41.833  22.552  1.00  0.00     0.341 C 
ATOM      7  O   UNL A   1      47.986  42.498  22.262  1.00  0.00    -0.246 OA
BRANCH   6   8
ATOM      8  C   UNL A   1      46.823  41.284  23.905  1.00  0.00     0.098 A 
ATOM      9  C   UNL A   1      46.542  39.331  25.305  1.00  0.00     0.078 A 
ATOM     10  C   UNL A   1      46.849  39.890  24.063  1.00  0.00     0.048 A 
ATOM     11  C   UNL A   1      46.207  40.170  26.371  1.00  0.00     0.149 A 
ATOM     12  C   UNL A   1      46.252  41.555  26.236  1.00  0.00     0.081 A 
ATOM     13  F   UNL A   1      45.909  39.636  27.564  1.00  0.00    -0.205 F 
ATOM     14  C   UNL A   1      46.556  42.108  24.995  1.00  0.00     0.140 A 
ATOM     15  F   UNL A   1      46.553  43.442  24.867  1.00  0.00    -0.206 F 
BRANCH   9  16
ATOM     16  N   UNL A   1      46.544  37.936  25.506  1.00  0.00    -0.323 N 
ATOM     17  O   UNL A   1      48.643  37.848  26.440  1.00  0.00    -0.274 OA
ATOM     18  C   UNL A   1      47.632  37.268  26.045  1.00  0.00     0.230 C 
ATOM     19  H   UNL A   1      45.745  37.418  25.255  1.00  0.00     0.170 HD
BRANCH  18  20
ATOM     20  C   UNL A   1      47.486  35.758  26.127  1.00  0.00     0.155 C 
BRANCH  20  21
ATOM     21  C   UNL A   1      46.191  35.204  25.614  1.00  0.00     0.044 A 
ATOM     22  C   UNL A   1      44.970  35.120  26.256  1.00  0.00     0.045 A 
ATOM     23  N   UNL A   1      45.976  34.657  24.376  1.00  0.00    -0.282 N 
ATOM     24  C   UNL A   1      44.131  34.429  25.364  1.00  0.00     0.135 A 
ATOM     25  N   UNL A   1      44.758  34.113  24.230  1.00  0.00    -0.184 NA
ATOM     26  H   UNL A   1      46.651  34.663  23.660  1.00  0.00     0.190 HD
ENDBRANCH  20  21
ENDBRANCH  18  20
ENDBRANCH   9  16
ENDBRANCH   6   8
ENDBRANCH   5   6
ENDBRANCH   4   5
ENDBRANCH   3   4
ENDBRANCH   2   3
ENDBRANCH   1   2
BRANCH   1  27
ATOM     27  C   UNL A   1      41.919  41.900  24.069  1.00  0.00     0.188 C 
BRANCH  27  28
ATOM     28  O   UNL A   1      42.775  41.210  24.955  1.00  0.00    -0.376 OA
BRANCH  28  29
ATOM     29  C   UNL A   1      42.243  40.496  26.058  1.00  0.00     0.202 C 
BRANCH  29  30
ATOM     30  C   UNL A   1      42.681  39.086  26.487  1.00  0.00     0.261 C 
BRANCH  30  31
ATOM     31  O   UNL A   1      42.043  38.523  27.636  1.00  0.00    -0.460 OA
BRANCH  31  32
ATOM     32  C   UNL A   1      42.812  38.482  28.753  1.00  0.00     0.338 C 
ATOM     33  O   UNL A   1      43.068  39.405  29.507  1.00  0.00    -0.246 OA
BRANCH  32  34
ATOM     34  C   UNL A   1      43.176  37.084  29.037  1.00  0.00     0.060 A 
ATOM     35  C   UNL A   1      42.274  36.078  28.675  1.00  0.00     0.016 A 
ATOM     36  C   UNL A   1      44.364  36.771  29.699  1.00  0.00     0.016 A 
ATOM     37  C   UNL A   1      42.555  34.749  28.985  1.00  0.00     0.010 A 
ATOM     38  C   UNL A   1      44.633  35.439  30.027  1.00  0.00     0.010 A 
ATOM     39  C   UNL A   1      43.720  34.424  29.687  1.00  0.00    -0.014 A 
BRANCH  39  40
ATOM     40  C   UNL A   1      43.885  33.048  30.211  1.00  0.00     0.031 A 
ATOM     41  C   UNL A   1      43.102  32.647  31.429  1.00  0.00     0.074 A 
ATOM     42  C   UNL A   1      44.676  32.155  29.588  1.00  0.00     0.049 A 
ATOM     43  N   UNL A   1      43.124  31.520  32.093  1.00  0.00    -0.248 NA
ATOM     44  C   UNL A   1      42.164  33.647  31.966  1.00  0.00     0.031 C 
ATOM     45  C   UNL A   1      45.420  32.397  28.352  1.00  0.00     0.029 A 
ATOM     46  N   UNL A   1      44.989  30.860  29.921  1.00  0.00    -0.354 N 
ATOM     47  C   UNL A   1      42.213  31.680  33.131  1.00  0.00     0.074 A 
ATOM     48  C   UNL A   1      41.668  33.015  33.020  1.00  0.00     0.031 C 
ATOM     49  C   UNL A   1      46.120  31.291  28.041  1.00  0.00     0.029 A 
ATOM     50  C   UNL A   1      45.902  30.278  29.075  1.00  0.00     0.049 A 
ATOM     51  H   UNL A   1      44.594  30.392  30.692  1.00  0.00     0.167 HD
ATOM     52  C   UNL A   1      41.862  30.793  34.091  1.00  0.00     0.031 A 
ATOM     53  C   UNL A   1      46.518  29.080  29.146  1.00  0.00     0.031 A 
ATOM     54  C   UNL A   1      42.418  29.472  34.209  1.00  0.00     0.049 A 
ATOM     55  C   UNL A   1      46.189  28.149  30.287  1.00  0.00     0.074 A 
ATOM     56  C   UNL A   1      42.133  28.501  35.152  1.00  0.00     0.029 A 
ATOM     57  N   UNL A   1      43.380  28.939  33.365  1.00  0.00    -0.354 N 
ATOM     58  N   UNL A   1      45.321  28.309  31.259  1.00  0.00    -0.248 NA
ATOM     59  C   UNL A   1      46.917  26.872  30.336  1.00  0.00     0.031 C 
ATOM     60  C   UNL A   1      42.966  27.404  34.915  1.00  0.00     0.029 A 
ATOM     61  C   UNL A   1      43.719  27.664  33.780  1.00  0.00     0.049 A 
ATOM     62  H   UNL A   1      43.764  29.400  32.584  1.00  0.00     0.167 HD
ATOM     63  C   UNL A   1      45.378  27.141  32.015  1.00  0.00     0.074 A 
ATOM     64  C   UNL A   1      46.353  26.279  31.380  1.00  0.00     0.031 C 
ATOM     65  C   UNL A   1      44.682  26.810  33.131  1.00  0.00     0.031 A 
BRANCH  52  66
ATOM     66  C   UNL A   1      40.863  31.243  35.122  1.00  0.00    -0.014 A 
ATOM     67  C   UNL A   1      41.259  31.969  36.259  1.00  0.00     0.010 A 
ATOM     68  C   UNL A   1      39.497  30.969  34.925  1.00  0.00     0.010 A 
ATOM     69  C   UNL A   1      40.310  32.387  37.196  1.00  0.00     0.020 A 
ATOM     70  C   UNL A   1      38.542  31.408  35.845  1.00  0.00     0.020 A 
ATOM     71  C   UNL A   1      38.957  32.104  36.982  1.00  0.00     0.054 A 
BRANCH  71  72
ATOM     72  S   UNL A   1      37.743  32.688  38.196  1.00  0.00     0.124 S 
ATOM     73  O   UNL A   1      37.652  31.547  39.104  1.00  0.00    -0.237 OA
ATOM     74  O   UNL A   1      38.388  33.878  38.746  1.00  0.00    -0.237 OA
ATOM     75  O   UNL A   1      36.547  32.944  37.398  1.00  0.00    -0.744 OA
ENDBRANCH  71  72
ENDBRANCH  52  66
BRANCH  53  76
ATOM     76  C   UNL A   1      47.540  28.698  28.130  1.00  0.00    -0.014 A 
ATOM     77  C   UNL A   1      48.906  28.937  28.354  1.00  0.00     0.010 A 
ATOM     78  C   UNL A   1      47.141  28.116  26.912  1.00  0.00     0.010 A 
ATOM     79  C   UNL A   1      49.851  28.626  27.371  1.00  0.00     0.020 A 
ATOM     80  C   UNL A   1      48.085  27.775  25.940  1.00  0.00     0.020 A 
ATOM     81  C   UNL A   1      49.434  28.045  26.170  1.00  0.00     0.054 A 
BRANCH  81  82
ATOM     82  S   UNL A   1      50.682  27.617  24.925  1.00  0.00     0.124 S 
ATOM     83  O   UNL A   1      51.853  28.344  25.406  1.00  0.00    -0.237 OA
ATOM     84  O   UNL A   1      50.751  26.162  25.036  1.00  0.00    -0.237 OA
ATOM     85  O   UNL A   1      50.105  28.112  23.677  1.00  0.00    -0.744 OA
ENDBRANCH  81  82
ENDBRANCH  53  76
BRANCH  65  86
ATOM     86  C   UNL A   1      44.901  25.438  33.715  1.00  0.00    -0.014 A 
ATOM     87  C   UNL A   1      44.241  24.306  33.204  1.00  0.00     0.010 A 
ATOM     88  C   UNL A   1      45.840  25.273  34.751  1.00  0.00     0.010 A 
ATOM     89  C   UNL A   1      44.496  23.040  33.739  1.00  0.00     0.020 A 
ATOM     90  C   UNL A   1      46.119  24.005  35.266  1.00  0.00     0.020 A 
ATOM     91  C   UNL A   1      45.435  22.897  34.766  1.00  0.00     0.054 A 
BRANCH  91  92
ATOM     92  S   UNL A   1      45.783  21.236  35.407  1.00  0.00     0.124 S 
ATOM     93  O   UNL A   1      45.755  21.455  36.850  1.00  0.00    -0.237 OA
ATOM     94  O   UNL A   1      44.679  20.446  34.868  1.00  0.00    -0.237 OA
ATOM     95  O   UNL A   1      47.097  20.918  34.851  1.00  0.00    -0.744 OA
ENDBRANCH  91  92
ENDBRANCH  65  86
ENDBRANCH  39  40
ENDBRANCH  32  34
ENDBRANCH  31  32
ENDBRANCH  30  31
ENDBRANCH  29  30
ENDBRANCH  28  29
ENDBRANCH  27  28
ENDBRANCH   1  27
TORSDOF 23
ENDMDL
