MODEL 1
REMARK VINA RESULT:     -12.3      0.000      0.000
REMARK SMILES Cc1cccc(-c2cc(OCC(=O)OCCOCCOCCOC(=O)c3ccc(-c4c5nc(c(-c6ccc(S(=O)(=O)[O-])cc6)c6ccc([nH]6)c(-c6ccc(S(=O)(=O)[O-])cc6)c6nc(c(-c7ccc(S(=O)(=O)[O-])cc7)c7ccc4[nH]7)C=C6)C=C5)cc3)nc(Nc3ccccc3C)n2)c1
REMARK SMILES IDX 18 1 17 2 16 3 15 4 14 5 12 6 13 7 11 8 10 9 9 10 7 11 8 12
REMARK SMILES IDX 96 13 87 14 86 15 6 16 1 17 2 18 3 19 97 20 4 21 5 22 88 23
REMARK SMILES IDX 89 25 90 26 94 27 91 28 93 29 95 30 92 31 19 32 20 33 21 34
REMARK SMILES IDX 22 35 23 36 24 37 25 38 26 39 27 40 85 41 28 42 84 43 29 44
REMARK SMILES IDX 30 45 31 46 78 47 32 48 83 49 77 50 79 51 33 52 82 53 76 54
REMARK SMILES IDX 75 55 34 57 64 58 45 59 63 60 46 61 49 62 62 63 80 64 47 65
REMARK SMILES IDX 48 66 61 68 81 69 50 70 35 71 36 72 44 73 37 74 43 75 38 76
REMARK SMILES IDX 39 77 40 78 41 79 42 80 65 81 66 82 74 83 67 84 73 85 68 86
REMARK SMILES IDX 69 87 70 88 71 89 72 90 51 91 52 92 60 93 53 94 59 95 54 96
REMARK SMILES IDX 55 97 56 98 57 99 58 100
REMARK H PARENT 88 24 79 56 49 67
REMARK Flexibility Score: inf
ROOT
ATOM      1  C   UNL A   1      44.660  26.475  25.851  1.00  0.00     0.188 C 
ENDROOT
BRANCH   1   2
ATOM      2  O   UNL A   1      44.487  25.079  25.846  1.00  0.00    -0.376 OA
BRANCH   2   3
ATOM      3  C   UNL A   1      43.338  24.690  25.166  1.00  0.00     0.202 C 
BRANCH   3   4
ATOM      4  C   UNL A   1      42.165  24.212  26.028  1.00  0.00     0.261 C 
BRANCH   4   5
ATOM      5  O   UNL A   1      41.870  22.516  26.523  1.00  0.00    -0.461 OA
BRANCH   5   6
ATOM      6  C   UNL A   1      40.540  21.468  26.765  1.00  0.00     0.344 C 
ATOM      7  O   UNL A   1      40.574  20.741  27.749  1.00  0.00    -0.248 OA
BRANCH   6   8
ATOM      8  C   UNL A   1      38.907  21.512  25.772  1.00  0.00     0.353 C 
BRANCH   8   9
ATOM      9  O   UNL A   1      37.629  22.668  25.934  1.00  0.00    -0.466 OA
BRANCH   9  10
ATOM     10  C   UNL A   1      36.118  22.549  25.187  1.00  0.00     0.219 A 
ATOM     11  C   UNL A   1      33.442  24.447  24.917  1.00  0.00     0.080 A 
ATOM     12  C   UNL A   1      35.151  24.134  24.345  1.00  0.00     0.097 A 
ATOM     13  N   UNL A   1      32.696  23.187  25.837  1.00  0.00    -0.212 NA
ATOM     14  C   UNL A   1      33.520  21.736  26.280  1.00  0.00     0.231 A 
ATOM     15  N   UNL A   1      35.183  21.397  26.058  1.00  0.00    -0.177 NA
BRANCH  11  16
ATOM     16  C   UNL A   1      32.701  25.768  24.987  1.00  0.00     0.001 A 
ATOM     17  C   UNL A   1      31.729  28.397  27.630  1.00  0.00     0.044 C 
ATOM     18  C   UNL A   1      31.850  27.714  26.299  1.00  0.00    -0.050 A 
ATOM     19  C   UNL A   1      31.038  28.098  25.250  1.00  0.00     0.003 A 
ATOM     20  C   UNL A   1      32.700  26.611  26.104  1.00  0.00     0.013 A 
ATOM     21  C   UNL A   1      31.104  27.394  24.050  1.00  0.00     0.001 A 
ATOM     22  C   UNL A   1      31.911  26.241  23.923  1.00  0.00     0.010 A 
ENDBRANCH  11  16
BRANCH  14  23
ATOM     23  N   UNL A   1      32.710  20.566  26.098  1.00  0.00    -0.324 N 
ATOM     24  H   UNL A   1      32.013  20.360  26.761  1.00  0.00     0.170 HD
BRANCH  23  25
ATOM     25  C   UNL A   1      32.883  19.700  24.995  1.00  0.00     0.044 A 
ATOM     26  C   UNL A   1      33.201  18.372  25.317  1.00  0.00     0.026 A 
ATOM     27  C   UNL A   1      32.541  20.003  23.655  1.00  0.00    -0.027 A 
ATOM     28  C   UNL A   1      33.088  17.343  24.384  1.00  0.00     0.002 A 
ATOM     29  C   UNL A   1      32.339  18.936  22.754  1.00  0.00     0.005 A 
ATOM     30  C   UNL A   1      32.345  21.379  23.072  1.00  0.00     0.046 C 
ATOM     31  C   UNL A   1      32.595  17.618  23.119  1.00  0.00     0.000 A 
ENDBRANCH  23  25
ENDBRANCH  14  23
ENDBRANCH   9  10
ENDBRANCH   8   9
ENDBRANCH   6   8
ENDBRANCH   5   6
ENDBRANCH   4   5
ENDBRANCH   3   4
ENDBRANCH   2   3
ENDBRANCH   1   2
BRANCH   1  32
ATOM     32  C   UNL A   1      44.353  27.279  27.127  1.00  0.00     0.188 C 
BRANCH  32  33
ATOM     33  O   UNL A   1      43.039  27.258  27.641  1.00  0.00    -0.376 OA
BRANCH  33  34
ATOM     34  C   UNL A   1      42.181  28.101  26.840  1.00  0.00     0.202 C 
BRANCH  34  35
ATOM     35  C   UNL A   1      40.687  27.658  26.822  1.00  0.00     0.261 C 
BRANCH  35  36
ATOM     36  O   UNL A   1      40.160  27.908  28.153  1.00  0.00    -0.460 OA
BRANCH  36  37
ATOM     37  C   UNL A   1      39.689  26.958  29.020  1.00  0.00     0.338 C 
ATOM     38  O   UNL A   1      39.784  25.783  28.716  1.00  0.00    -0.246 OA
BRANCH  37  39
ATOM     39  C   UNL A   1      38.796  27.850  30.272  1.00  0.00     0.060 A 
ATOM     40  C   UNL A   1      37.614  29.481  30.052  1.00  0.00     0.016 A 
ATOM     41  C   UNL A   1      40.146  27.895  31.401  1.00  0.00     0.016 A 
ATOM     42  C   UNL A   1      38.362  30.990  30.698  1.00  0.00     0.010 A 
ATOM     43  C   UNL A   1      40.698  29.289  32.039  1.00  0.00     0.010 A 
ATOM     44  C   UNL A   1      39.967  30.809  31.741  1.00  0.00    -0.014 A 
BRANCH  44  45
ATOM     45  C   UNL A   1      40.904  32.051  32.733  1.00  0.00     0.031 A 
ATOM     46  C   UNL A   1      40.108  32.760  33.774  1.00  0.00     0.074 A 
ATOM     47  C   UNL A   1      42.324  32.446  32.680  1.00  0.00     0.049 A 
ATOM     48  N   UNL A   1      40.553  33.853  34.288  1.00  0.00    -0.248 NA
ATOM     49  C   UNL A   1      38.739  32.474  34.206  1.00  0.00     0.031 C 
ATOM     50  C   UNL A   1      43.285  32.655  33.807  1.00  0.00     0.029 A 
ATOM     51  N   UNL A   1      43.319  32.176  31.702  1.00  0.00    -0.354 N 
ATOM     52  C   UNL A   1      39.776  34.121  35.381  1.00  0.00     0.074 A 
ATOM     53  C   UNL A   1      38.550  33.406  35.148  1.00  0.00     0.031 C 
ATOM     54  C   UNL A   1      44.587  32.578  33.375  1.00  0.00     0.029 A 
ATOM     55  C   UNL A   1      44.638  32.413  31.917  1.00  0.00     0.049 A 
ATOM     56  H   UNL A   1      43.040  31.803  30.835  1.00  0.00     0.167 HD
ATOM     57  C   UNL A   1      40.371  34.718  36.446  1.00  0.00     0.031 A 
ATOM     58  C   UNL A   1      45.266  33.082  30.891  1.00  0.00     0.031 A 
ATOM     59  C   UNL A   1      41.789  35.011  36.164  1.00  0.00     0.049 A 
ATOM     60  C   UNL A   1      45.105  34.516  31.306  1.00  0.00     0.074 A 
ATOM     61  C   UNL A   1      42.981  34.468  36.618  1.00  0.00     0.029 A 
ATOM     62  N   UNL A   1      42.124  35.762  35.043  1.00  0.00    -0.354 N 
ATOM     63  N   UNL A   1      44.423  34.834  32.365  1.00  0.00    -0.248 NA
ATOM     64  C   UNL A   1      45.581  35.678  30.583  1.00  0.00     0.031 C 
ATOM     65  C   UNL A   1      44.037  34.955  35.785  1.00  0.00     0.029 A 
ATOM     66  C   UNL A   1      43.488  35.777  34.813  1.00  0.00     0.049 A 
ATOM     67  H   UNL A   1      41.467  36.230  34.479  1.00  0.00     0.167 HD
ATOM     68  C   UNL A   1      44.448  36.145  32.571  1.00  0.00     0.074 A 
ATOM     69  C   UNL A   1      45.060  36.656  31.346  1.00  0.00     0.031 C 
ATOM     70  C   UNL A   1      44.014  36.644  33.758  1.00  0.00     0.031 A 
BRANCH  57  71
ATOM     71  C   UNL A   1      39.778  34.798  37.835  1.00  0.00    -0.014 A 
ATOM     72  C   UNL A   1      39.194  33.635  38.376  1.00  0.00     0.010 A 
ATOM     73  C   UNL A   1      39.754  35.943  38.659  1.00  0.00     0.010 A 
ATOM     74  C   UNL A   1      38.619  33.605  39.650  1.00  0.00     0.020 A 
ATOM     75  C   UNL A   1      39.176  35.929  39.942  1.00  0.00     0.020 A 
ATOM     76  C   UNL A   1      38.621  34.753  40.432  1.00  0.00     0.054 A 
BRANCH  76  77
ATOM     77  S   UNL A   1      37.942  34.656  42.107  1.00  0.00     0.124 S 
ATOM     78  O   UNL A   1      38.379  35.919  42.695  1.00  0.00    -0.237 OA
ATOM     79  O   UNL A   1      36.508  34.539  41.855  1.00  0.00    -0.237 OA
ATOM     80  O   UNL A   1      38.573  33.462  42.668  1.00  0.00    -0.744 OA
ENDBRANCH  76  77
ENDBRANCH  57  71
BRANCH  58  81
ATOM     81  C   UNL A   1      44.999  32.632  29.437  1.00  0.00    -0.014 A 
ATOM     82  C   UNL A   1      43.713  32.818  28.877  1.00  0.00     0.010 A 
ATOM     83  C   UNL A   1      46.044  32.328  28.528  1.00  0.00     0.010 A 
ATOM     84  C   UNL A   1      43.541  32.977  27.487  1.00  0.00     0.020 A 
ATOM     85  C   UNL A   1      45.874  32.453  27.128  1.00  0.00     0.020 A 
ATOM     86  C   UNL A   1      44.652  32.903  26.640  1.00  0.00     0.054 A 
BRANCH  86  87
ATOM     87  S   UNL A   1      44.625  33.973  25.153  1.00  0.00     0.124 S 
ATOM     88  O   UNL A   1      43.660  35.003  25.516  1.00  0.00    -0.237 OA
ATOM     89  O   UNL A   1      46.027  34.378  25.096  1.00  0.00    -0.237 OA
ATOM     90  O   UNL A   1      44.220  33.102  24.051  1.00  0.00    -0.744 OA
ENDBRANCH  86  87
ENDBRANCH  58  81
BRANCH  70  91
ATOM     91  C   UNL A   1      44.067  38.093  33.998  1.00  0.00    -0.014 A 
ATOM     92  C   UNL A   1      43.325  38.987  33.225  1.00  0.00     0.010 A 
ATOM     93  C   UNL A   1      44.887  38.589  35.025  1.00  0.00     0.010 A 
ATOM     94  C   UNL A   1      43.213  40.304  33.617  1.00  0.00     0.020 A 
ATOM     95  C   UNL A   1      44.844  39.922  35.378  1.00  0.00     0.020 A 
ATOM     96  C   UNL A   1      43.963  40.755  34.702  1.00  0.00     0.054 A 
BRANCH  96  97
ATOM     97  S   UNL A   1      43.810  42.476  35.171  1.00  0.00     0.124 S 
ATOM     98  O   UNL A   1      43.708  42.386  36.627  1.00  0.00    -0.237 OA
ATOM     99  O   UNL A   1      45.058  43.034  34.659  1.00  0.00    -0.237 OA
ATOM    100  O   UNL A   1      42.596  42.912  34.489  1.00  0.00    -0.744 OA
ENDBRANCH  96  97
ENDBRANCH  70  91
ENDBRANCH  44  45
ENDBRANCH  37  39
ENDBRANCH  36  37
ENDBRANCH  35  36
ENDBRANCH  34  35
ENDBRANCH  33  34
ENDBRANCH  32  33
ENDBRANCH   1  32
TORSDOF 25
ENDMDL
MODEL 2
REMARK VINA RESULT:     -11.8      4.968      9.255
REMARK SMILES Cc1cccc(-c2cc(OCC(=O)OCCOCCOCCOC(=O)c3ccc(-c4c5nc(c(-c6ccc(S(=O)(=O)[O-])cc6)c6ccc([nH]6)c(-c6ccc(S(=O)(=O)[O-])cc6)c6nc(c(-c7ccc(S(=O)(=O)[O-])cc7)c7ccc4[nH]7)C=C6)C=C5)cc3)nc(Nc3ccccc3C)n2)c1
REMARK SMILES IDX 18 1 17 2 16 3 15 4 14 5 12 6 13 7 11 8 10 9 9 10 7 11 8 12
REMARK SMILES IDX 96 13 87 14 86 15 6 16 1 17 2 18 3 19 97 20 4 21 5 22 88 23
REMARK SMILES IDX 89 25 90 26 94 27 91 28 93 29 95 30 92 31 19 32 20 33 21 34
REMARK SMILES IDX 22 35 23 36 24 37 25 38 26 39 27 40 85 41 28 42 84 43 29 44
REMARK SMILES IDX 30 45 31 46 78 47 32 48 83 49 77 50 79 51 33 52 82 53 76 54
REMARK SMILES IDX 75 55 34 57 64 58 45 59 63 60 46 61 49 62 62 63 80 64 47 65
REMARK SMILES IDX 48 66 61 68 81 69 50 70 35 71 36 72 44 73 37 74 43 75 38 76
REMARK SMILES IDX 39 77 40 78 41 79 42 80 65 81 66 82 74 83 67 84 73 85 68 86
REMARK SMILES IDX 69 87 70 88 71 89 72 90 51 91 52 92 60 93 53 94 59 95 54 96
REMARK SMILES IDX 55 97 56 98 57 99 58 100
REMARK H PARENT 88 24 79 56 49 67
REMARK Flexibility Score: inf
ROOT
ATOM      1  C   UNL A   1      31.470  26.674  25.673  1.00  0.00     0.188 C 
ENDROOT
BRANCH   1   2
ATOM      2  O   UNL A   1      32.136  26.123  24.563  1.00  0.00    -0.376 OA
BRANCH   2   3
ATOM      3  C   UNL A   1      33.469  25.832  24.836  1.00  0.00     0.202 C 
BRANCH   3   4
ATOM      4  C   UNL A   1      34.013  24.523  24.254  1.00  0.00     0.261 C 
BRANCH   4   5
ATOM      5  O   UNL A   1      33.943  22.926  25.061  1.00  0.00    -0.461 OA
BRANCH   5   6
ATOM      6  C   UNL A   1      34.913  21.525  25.213  1.00  0.00     0.344 C 
ATOM      7  O   UNL A   1      34.341  20.444  25.185  1.00  0.00    -0.248 OA
BRANCH   6   8
ATOM      8  C   UNL A   1      36.824  21.500  25.174  1.00  0.00     0.353 C 
BRANCH   8   9
ATOM      9  O   UNL A   1      37.882  22.852  25.394  1.00  0.00    -0.466 OA
BRANCH   9  10
ATOM     10  C   UNL A   1      39.075  22.961  26.584  1.00  0.00     0.219 A 
ATOM     11  C   UNL A   1      41.094  25.301  27.721  1.00  0.00     0.080 A 
ATOM     12  C   UNL A   1      39.391  24.632  27.711  1.00  0.00     0.097 A 
ATOM     13  N   UNL A   1      42.328  24.274  27.075  1.00  0.00    -0.212 NA
ATOM     14  C   UNL A   1      41.993  22.732  26.375  1.00  0.00     0.231 A 
ATOM     15  N   UNL A   1      40.448  22.073  26.047  1.00  0.00    -0.177 NA
BRANCH  11  16
ATOM     16  C   UNL A   1      41.538  26.739  27.907  1.00  0.00     0.001 A 
ATOM     17  C   UNL A   1      43.084  28.951  30.657  1.00  0.00     0.044 C 
ATOM     18  C   UNL A   1      42.511  28.545  29.330  1.00  0.00    -0.050 A 
ATOM     19  C   UNL A   1      42.094  29.509  28.434  1.00  0.00     0.003 A 
ATOM     20  C   UNL A   1      42.281  27.197  29.000  1.00  0.00     0.013 A 
ATOM     21  C   UNL A   1      41.485  29.112  27.246  1.00  0.00     0.001 A 
ATOM     22  C   UNL A   1      41.199  27.751  26.992  1.00  0.00     0.010 A 
ENDBRANCH  11  16
BRANCH  14  23
ATOM     23  N   UNL A   1      42.922  21.724  26.795  1.00  0.00    -0.324 N 
ATOM     24  H   UNL A   1      43.094  21.603  27.756  1.00  0.00     0.170 HD
BRANCH  23  25
ATOM     25  C   UNL A   1      43.600  20.899  25.869  1.00  0.00     0.044 A 
ATOM     26  C   UNL A   1      44.766  21.449  25.314  1.00  0.00     0.026 A 
ATOM     27  C   UNL A   1      43.334  19.526  25.650  1.00  0.00    -0.027 A 
ATOM     28  C   UNL A   1      45.704  20.662  24.650  1.00  0.00     0.002 A 
ATOM     29  C   UNL A   1      44.341  18.731  25.061  1.00  0.00     0.005 A 
ATOM     30  C   UNL A   1      42.065  18.794  26.002  1.00  0.00     0.046 C 
ATOM     31  C   UNL A   1      45.520  19.291  24.579  1.00  0.00     0.000 A 
ENDBRANCH  23  25
ENDBRANCH  14  23
ENDBRANCH   9  10
ENDBRANCH   8   9
ENDBRANCH   6   8
ENDBRANCH   5   6
ENDBRANCH   4   5
ENDBRANCH   3   4
ENDBRANCH   2   3
ENDBRANCH   1   2
BRANCH   1  32
ATOM     32  C   UNL A   1      32.023  27.942  26.345  1.00  0.00     0.188 C 
BRANCH  32  33
ATOM     33  O   UNL A   1      32.420  29.023  25.529  1.00  0.00    -0.376 OA
BRANCH  33  34
ATOM     34  C   UNL A   1      33.614  29.635  26.063  1.00  0.00     0.202 C 
BRANCH  34  35
ATOM     35  C   UNL A   1      34.349  28.774  27.135  1.00  0.00     0.261 C 
BRANCH  35  36
ATOM     36  O   UNL A   1      35.730  29.225  27.158  1.00  0.00    -0.460 OA
BRANCH  36  37
ATOM     37  C   UNL A   1      36.308  29.989  28.137  1.00  0.00     0.338 C 
ATOM     38  O   UNL A   1      35.783  31.042  28.450  1.00  0.00    -0.246 OA
BRANCH  37  39
ATOM     39  C   UNL A   1      37.891  29.246  28.457  1.00  0.00     0.060 A 
ATOM     40  C   UNL A   1      38.290  27.487  29.381  1.00  0.00     0.016 A 
ATOM     41  C   UNL A   1      38.625  30.732  29.053  1.00  0.00     0.016 A 
ATOM     42  C   UNL A   1      38.993  27.695  31.028  1.00  0.00     0.010 A 
ATOM     43  C   UNL A   1      39.350  30.818  30.510  1.00  0.00     0.010 A 
ATOM     44  C   UNL A   1      39.539  29.466  31.544  1.00  0.00    -0.014 A 
BRANCH  44  45
ATOM     45  C   UNL A   1      40.472  30.055  33.022  1.00  0.00     0.031 A 
ATOM     46  C   UNL A   1      41.103  28.982  33.841  1.00  0.00     0.074 A 
ATOM     47  C   UNL A   1      40.717  31.421  33.519  1.00  0.00     0.049 A 
ATOM     48  N   UNL A   1      41.486  29.234  35.043  1.00  0.00    -0.248 NA
ATOM     49  C   UNL A   1      41.207  27.556  33.524  1.00  0.00     0.031 C 
ATOM     50  C   UNL A   1      41.991  32.029  34.012  1.00  0.00     0.029 A 
ATOM     51  N   UNL A   1      40.110  32.655  33.159  1.00  0.00    -0.354 N 
ATOM     52  C   UNL A   1      42.259  28.179  35.441  1.00  0.00     0.074 A 
ATOM     53  C   UNL A   1      41.860  27.086  34.595  1.00  0.00     0.031 C 
ATOM     54  C   UNL A   1      41.941  33.401  33.967  1.00  0.00     0.029 A 
ATOM     55  C   UNL A   1      40.612  33.856  33.541  1.00  0.00     0.049 A 
ATOM     56  H   UNL A   1      39.293  32.637  32.609  1.00  0.00     0.167 HD
ATOM     57  C   UNL A   1      43.301  28.439  36.273  1.00  0.00     0.031 A 
ATOM     58  C   UNL A   1      39.675  34.720  34.060  1.00  0.00     0.031 A 
ATOM     59  C   UNL A   1      43.350  29.871  36.628  1.00  0.00     0.049 A 
ATOM     60  C   UNL A   1      39.736  34.407  35.527  1.00  0.00     0.074 A 
ATOM     61  C   UNL A   1      44.200  30.908  36.281  1.00  0.00     0.029 A 
ATOM     62  N   UNL A   1      42.229  30.477  37.185  1.00  0.00    -0.354 N 
ATOM     63  N   UNL A   1      40.493  33.451  35.976  1.00  0.00    -0.248 NA
ATOM     64  C   UNL A   1      38.947  35.026  36.572  1.00  0.00     0.031 C 
ATOM     65  C   UNL A   1      43.594  32.136  36.693  1.00  0.00     0.029 A 
ATOM     66  C   UNL A   1      42.368  31.851  37.272  1.00  0.00     0.049 A 
ATOM     67  H   UNL A   1      41.430  29.986  37.484  1.00  0.00     0.167 HD
ATOM     68  C   UNL A   1      40.431  33.377  37.300  1.00  0.00     0.074 A 
ATOM     69  C   UNL A   1      39.334  34.285  37.626  1.00  0.00     0.031 C 
ATOM     70  C   UNL A   1      41.337  32.618  37.972  1.00  0.00     0.031 A 
BRANCH  57  71
ATOM     71  C   UNL A   1      44.439  27.485  36.558  1.00  0.00    -0.014 A 
ATOM     72  C   UNL A   1      44.559  26.965  37.862  1.00  0.00     0.010 A 
ATOM     73  C   UNL A   1      45.408  27.053  35.629  1.00  0.00     0.010 A 
ATOM     74  C   UNL A   1      45.575  26.077  38.228  1.00  0.00     0.020 A 
ATOM     75  C   UNL A   1      46.439  26.162  35.982  1.00  0.00     0.020 A 
ATOM     76  C   UNL A   1      46.507  25.672  37.281  1.00  0.00     0.054 A 
BRANCH  76  77
ATOM     77  S   UNL A   1      47.758  24.459  37.767  1.00  0.00     0.124 S 
ATOM     78  O   UNL A   1      47.267  24.007  39.067  1.00  0.00    -0.237 OA
ATOM     79  O   UNL A   1      47.678  23.479  36.687  1.00  0.00    -0.237 OA
ATOM     80  O   UNL A   1      48.996  25.235  37.811  1.00  0.00    -0.744 OA
ENDBRANCH  76  77
ENDBRANCH  57  71
BRANCH  58  81
ATOM     81  C   UNL A   1      38.323  34.878  33.329  1.00  0.00    -0.014 A 
ATOM     82  C   UNL A   1      38.264  34.684  31.928  1.00  0.00     0.010 A 
ATOM     83  C   UNL A   1      37.082  34.899  34.014  1.00  0.00     0.010 A 
ATOM     84  C   UNL A   1      37.078  34.254  31.302  1.00  0.00     0.020 A 
ATOM     85  C   UNL A   1      35.878  34.499  33.386  1.00  0.00     0.020 A 
ATOM     86  C   UNL A   1      35.924  34.059  32.068  1.00  0.00     0.054 A 
BRANCH  86  87
ATOM     87  S   UNL A   1      34.803  32.708  31.540  1.00  0.00     0.124 S 
ATOM     88  O   UNL A   1      34.441  33.105  30.184  1.00  0.00    -0.237 OA
ATOM     89  O   UNL A   1      35.696  31.561  31.670  1.00  0.00    -0.237 OA
ATOM     90  O   UNL A   1      33.704  32.711  32.503  1.00  0.00    -0.744 OA
ENDBRANCH  86  87
ENDBRANCH  58  81
BRANCH  70  91
ATOM     91  C   UNL A   1      41.287  32.558  39.439  1.00  0.00    -0.014 A 
ATOM     92  C   UNL A   1      40.090  32.731  40.135  1.00  0.00     0.010 A 
ATOM     93  C   UNL A   1      42.472  32.327  40.157  1.00  0.00     0.010 A 
ATOM     94  C   UNL A   1      40.031  32.441  41.481  1.00  0.00     0.020 A 
ATOM     95  C   UNL A   1      42.438  32.111  41.519  1.00  0.00     0.020 A 
ATOM     96  C   UNL A   1      41.205  32.117  42.158  1.00  0.00     0.054 A 
BRANCH  96  97
ATOM     97  S   UNL A   1      41.096  31.766  43.909  1.00  0.00     0.124 S 
ATOM     98  O   UNL A   1      41.646  32.986  44.499  1.00  0.00    -0.237 OA
ATOM     99  O   UNL A   1      39.660  31.573  44.083  1.00  0.00    -0.237 OA
ATOM    100  O   UNL A   1      41.918  30.571  44.073  1.00  0.00    -0.744 OA
ENDBRANCH  96  97
ENDBRANCH  70  91
ENDBRANCH  44  45
ENDBRANCH  37  39
ENDBRANCH  36  37
ENDBRANCH  35  36
ENDBRANCH  34  35
ENDBRANCH  33  34
ENDBRANCH  32  33
ENDBRANCH   1  32
TORSDOF 25
ENDMDL
MODEL 3
REMARK VINA RESULT:     -11.6      7.969     16.897
REMARK SMILES Cc1cccc(-c2cc(OCC(=O)OCCOCCOCCOC(=O)c3ccc(-c4c5nc(c(-c6ccc(S(=O)(=O)[O-])cc6)c6ccc([nH]6)c(-c6ccc(S(=O)(=O)[O-])cc6)c6nc(c(-c7ccc(S(=O)(=O)[O-])cc7)c7ccc4[nH]7)C=C6)C=C5)cc3)nc(Nc3ccccc3C)n2)c1
REMARK SMILES IDX 18 1 17 2 16 3 15 4 14 5 12 6 13 7 11 8 10 9 9 10 7 11 8 12
REMARK SMILES IDX 96 13 87 14 86 15 6 16 1 17 2 18 3 19 97 20 4 21 5 22 88 23
REMARK SMILES IDX 89 25 90 26 94 27 91 28 93 29 95 30 92 31 19 32 20 33 21 34
REMARK SMILES IDX 22 35 23 36 24 37 25 38 26 39 27 40 85 41 28 42 84 43 29 44
REMARK SMILES IDX 30 45 31 46 78 47 32 48 83 49 77 50 79 51 33 52 82 53 76 54
REMARK SMILES IDX 75 55 34 57 64 58 45 59 63 60 46 61 49 62 62 63 80 64 47 65
REMARK SMILES IDX 48 66 61 68 81 69 50 70 35 71 36 72 44 73 37 74 43 75 38 76
REMARK SMILES IDX 39 77 40 78 41 79 42 80 65 81 66 82 74 83 67 84 73 85 68 86
REMARK SMILES IDX 69 87 70 88 71 89 72 90 51 91 52 92 60 93 53 94 59 95 54 96
REMARK SMILES IDX 55 97 56 98 57 99 58 100
REMARK H PARENT 88 24 79 56 49 67
REMARK Flexibility Score: inf
ROOT
ATOM      1  C   UNL A   1      47.250  37.678  25.658  1.00  0.00     0.188 C 
ENDROOT
BRANCH   1   2
ATOM      2  O   UNL A   1      47.029  38.895  26.327  1.00  0.00    -0.376 OA
BRANCH   2   3
ATOM      3  C   UNL A   1      46.688  39.925  25.456  1.00  0.00     0.202 C 
BRANCH   3   4
ATOM      4  C   UNL A   1      45.716  40.979  25.994  1.00  0.00     0.261 C 
BRANCH   4   5
ATOM      5  O   UNL A   1      43.968  40.719  26.286  1.00  0.00    -0.461 OA
BRANCH   5   6
ATOM      6  C   UNL A   1      42.479  41.036  25.506  1.00  0.00     0.344 C 
ATOM      7  O   UNL A   1      41.457  40.739  26.110  1.00  0.00    -0.248 OA
BRANCH   6   8
ATOM      8  C   UNL A   1      42.274  42.035  23.889  1.00  0.00     0.353 C 
BRANCH   8   9
ATOM      9  O   UNL A   1      43.417  43.139  23.203  1.00  0.00    -0.466 OA
BRANCH   9  10
ATOM     10  C   UNL A   1      44.230  42.903  21.741  1.00  0.00     0.219 A 
ATOM     11  C   UNL A   1      47.313  43.276  20.645  1.00  0.00     0.080 A 
ATOM     12  C   UNL A   1      46.156  42.245  21.618  1.00  0.00     0.097 A 
ATOM     13  N   UNL A   1      46.601  44.498  19.648  1.00  0.00    -0.212 NA
ATOM     14  C   UNL A   1      44.903  44.808  19.613  1.00  0.00     0.231 A 
ATOM     15  N   UNL A   1      43.718  44.125  20.642  1.00  0.00    -0.177 NA
BRANCH  11  16
ATOM     16  C   UNL A   1      48.809  43.440  20.828  1.00  0.00     0.001 A 
ATOM     17  C   UNL A   1      51.250  45.127  23.286  1.00  0.00     0.044 C 
ATOM     18  C   UNL A   1      50.755  44.340  22.107  1.00  0.00    -0.050 A 
ATOM     19  C   UNL A   1      51.605  44.064  21.056  1.00  0.00     0.003 A 
ATOM     20  C   UNL A   1      49.408  43.955  21.983  1.00  0.00     0.013 A 
ATOM     21  C   UNL A   1      51.104  43.408  19.933  1.00  0.00     0.001 A 
ATOM     22  C   UNL A   1      49.727  43.113  19.814  1.00  0.00     0.010 A 
ENDBRANCH  11  16
BRANCH  14  23
ATOM     23  N   UNL A   1      44.405  44.996  18.282  1.00  0.00    -0.324 N 
ATOM     24  H   UNL A   1      44.486  44.260  17.633  1.00  0.00     0.170 HD
BRANCH  23  25
ATOM     25  C   UNL A   1      43.802  46.206  17.871  1.00  0.00     0.044 A 
ATOM     26  C   UNL A   1      44.692  47.232  17.518  1.00  0.00     0.026 A 
ATOM     27  C   UNL A   1      42.428  46.376  17.573  1.00  0.00    -0.027 A 
ATOM     28  C   UNL A   1      44.275  48.350  16.799  1.00  0.00     0.002 A 
ATOM     29  C   UNL A   1      42.045  47.466  16.763  1.00  0.00     0.005 A 
ATOM     30  C   UNL A   1      41.300  45.485  18.025  1.00  0.00     0.046 C 
ATOM     31  C   UNL A   1      42.961  48.436  16.367  1.00  0.00     0.000 A 
ENDBRANCH  23  25
ENDBRANCH  14  23
ENDBRANCH   9  10
ENDBRANCH   8   9
ENDBRANCH   6   8
ENDBRANCH   5   6
ENDBRANCH   4   5
ENDBRANCH   3   4
ENDBRANCH   2   3
ENDBRANCH   1   2
BRANCH   1  32
ATOM     32  C   UNL A   1      46.664  36.374  26.228  1.00  0.00     0.188 C 
BRANCH  32  33
ATOM     33  O   UNL A   1      47.491  35.233  26.296  1.00  0.00    -0.376 OA
BRANCH  33  34
ATOM     34  C   UNL A   1      46.935  34.273  27.221  1.00  0.00     0.202 C 
BRANCH  34  35
ATOM     35  C   UNL A   1      47.862  33.937  28.428  1.00  0.00     0.261 C 
BRANCH  35  36
ATOM     36  O   UNL A   1      47.139  34.318  29.630  1.00  0.00    -0.460 OA
BRANCH  36  37
ATOM     37  C   UNL A   1      47.701  34.765  30.796  1.00  0.00     0.338 C 
ATOM     38  O   UNL A   1      48.602  35.581  30.741  1.00  0.00    -0.246 OA
BRANCH  37  39
ATOM     39  C   UNL A   1      47.043  33.724  32.078  1.00  0.00     0.060 A 
ATOM     40  C   UNL A   1      47.429  31.766  32.429  1.00  0.00     0.016 A 
ATOM     41  C   UNL A   1      45.381  34.261  31.856  1.00  0.00     0.016 A 
ATOM     42  C   UNL A   1      46.050  30.685  32.002  1.00  0.00     0.010 A 
ATOM     43  C   UNL A   1      44.159  33.216  31.589  1.00  0.00     0.010 A 
ATOM     44  C   UNL A   1      44.365  31.515  31.589  1.00  0.00    -0.014 A 
BRANCH  44  45
ATOM     45  C   UNL A   1      42.696  30.779  31.315  1.00  0.00     0.031 A 
ATOM     46  C   UNL A   1      42.614  29.791  30.203  1.00  0.00     0.074 A 
ATOM     47  C   UNL A   1      41.425  30.991  32.033  1.00  0.00     0.049 A 
ATOM     48  N   UNL A   1      41.469  29.470  29.713  1.00  0.00    -0.248 NA
ATOM     49  C   UNL A   1      43.718  29.224  29.425  1.00  0.00     0.031 C 
ATOM     50  C   UNL A   1      40.430  29.979  32.505  1.00  0.00     0.029 A 
ATOM     51  N   UNL A   1      41.053  31.992  32.971  1.00  0.00    -0.354 N 
ATOM     52  C   UNL A   1      41.670  28.371  28.925  1.00  0.00     0.074 A 
ATOM     53  C   UNL A   1      43.067  28.410  28.583  1.00  0.00     0.031 C 
ATOM     54  C   UNL A   1      39.626  30.491  33.494  1.00  0.00     0.029 A 
ATOM     55  C   UNL A   1      39.923  31.911  33.717  1.00  0.00     0.049 A 
ATOM     56  H   UNL A   1      41.639  32.776  33.083  1.00  0.00     0.167 HD
ATOM     57  C   UNL A   1      40.676  27.447  28.866  1.00  0.00     0.031 A 
ATOM     58  C   UNL A   1      39.172  33.064  33.732  1.00  0.00     0.031 A 
ATOM     59  C   UNL A   1      39.511  27.871  29.666  1.00  0.00     0.049 A 
ATOM     60  C   UNL A   1      38.235  32.844  32.580  1.00  0.00     0.074 A 
ATOM     61  C   UNL A   1      38.973  27.435  30.866  1.00  0.00     0.029 A 
ATOM     62  N   UNL A   1      38.925  29.107  29.421  1.00  0.00    -0.354 N 
ATOM     63  N   UNL A   1      38.339  31.792  31.824  1.00  0.00    -0.248 NA
ATOM     64  C   UNL A   1      37.206  33.755  32.122  1.00  0.00     0.031 C 
ATOM     65  C   UNL A   1      38.014  28.404  31.301  1.00  0.00     0.029 A 
ATOM     66  C   UNL A   1      37.983  29.438  30.379  1.00  0.00     0.049 A 
ATOM     67  H   UNL A   1      39.153  29.682  28.655  1.00  0.00     0.167 HD
ATOM     68  C   UNL A   1      37.387  31.774  30.899  1.00  0.00     0.074 A 
ATOM     69  C   UNL A   1      36.786  33.100  31.024  1.00  0.00     0.031 C 
ATOM     70  C   UNL A   1      37.172  30.640  30.182  1.00  0.00     0.031 A 
BRANCH  57  71
ATOM     71  C   UNL A   1      40.832  26.043  28.325  1.00  0.00    -0.014 A 
ATOM     72  C   UNL A   1      40.128  25.701  27.153  1.00  0.00     0.010 A 
ATOM     73  C   UNL A   1      41.631  25.024  28.886  1.00  0.00     0.010 A 
ATOM     74  C   UNL A   1      40.203  24.431  26.574  1.00  0.00     0.020 A 
ATOM     75  C   UNL A   1      41.715  23.741  28.316  1.00  0.00     0.020 A 
ATOM     76  C   UNL A   1      41.005  23.457  27.154  1.00  0.00     0.054 A 
BRANCH  76  77
ATOM     77  S   UNL A   1      41.144  21.852  26.332  1.00  0.00     0.124 S 
ATOM     78  O   UNL A   1      41.677  21.002  27.393  1.00  0.00    -0.237 OA
ATOM     79  O   UNL A   1      39.763  21.582  25.940  1.00  0.00    -0.237 OA
ATOM     80  O   UNL A   1      42.065  22.108  25.225  1.00  0.00    -0.744 OA
ENDBRANCH  76  77
ENDBRANCH  57  71
BRANCH  58  81
ATOM     81  C   UNL A   1      39.890  34.417  33.935  1.00  0.00    -0.014 A 
ATOM     82  C   UNL A   1      39.650  35.161  35.115  1.00  0.00     0.010 A 
ATOM     83  C   UNL A   1      41.008  34.812  33.159  1.00  0.00     0.010 A 
ATOM     84  C   UNL A   1      40.621  36.042  35.630  1.00  0.00     0.020 A 
ATOM     85  C   UNL A   1      41.975  35.721  33.653  1.00  0.00     0.020 A 
ATOM     86  C   UNL A   1      41.825  36.222  34.942  1.00  0.00     0.054 A 
BRANCH  86  87
ATOM     87  S   UNL A   1      43.318  36.525  35.960  1.00  0.00     0.124 S 
ATOM     88  O   UNL A   1      44.134  37.365  35.090  1.00  0.00    -0.237 OA
ATOM     89  O   UNL A   1      42.716  37.174  37.121  1.00  0.00    -0.237 OA
ATOM     90  O   UNL A   1      43.873  35.203  36.246  1.00  0.00    -0.744 OA
ENDBRANCH  86  87
ENDBRANCH  58  81
BRANCH  70  91
ATOM     91  C   UNL A   1      36.100  30.609  29.177  1.00  0.00    -0.014 A 
ATOM     92  C   UNL A   1      35.946  29.528  28.309  1.00  0.00     0.010 A 
ATOM     93  C   UNL A   1      35.214  31.696  29.085  1.00  0.00     0.010 A 
ATOM     94  C   UNL A   1      34.805  29.421  27.542  1.00  0.00     0.020 A 
ATOM     95  C   UNL A   1      34.109  31.635  28.263  1.00  0.00     0.020 A 
ATOM     96  C   UNL A   1      33.888  30.470  27.540  1.00  0.00     0.054 A 
BRANCH  96  97
ATOM     97  S   UNL A   1      32.428  30.307  26.518  1.00  0.00     0.124 S 
ATOM     98  O   UNL A   1      31.877  31.661  26.557  1.00  0.00    -0.237 OA
ATOM     99  O   UNL A   1      33.005  29.898  25.241  1.00  0.00    -0.237 OA
ATOM    100  O   UNL A   1      31.636  29.294  27.207  1.00  0.00    -0.744 OA
ENDBRANCH  96  97
ENDBRANCH  70  91
ENDBRANCH  44  45
ENDBRANCH  37  39
ENDBRANCH  36  37
ENDBRANCH  35  36
ENDBRANCH  34  35
ENDBRANCH  33  34
ENDBRANCH  32  33
ENDBRANCH   1  32
TORSDOF 25
ENDMDL
