MODEL 1
REMARK VINA RESULT:     -10.0      0.000      0.000
REMARK SMILES O=C(OCCOCCOCCOC(=O)c1oc2cccc3c2c1CCC3)c1ccc(-c2c3nc(c(-c4ccc(S(=O)(=O)[O-])cc4)c4ccc([nH]4)c(-c4ccc(S(=O)(=O)[O-])cc4)c4nc(c(-c5ccc(S(=O)(=O)[O-])cc5)c5ccc2[nH]5)C=C4)C=C3)cc1
REMARK SMILES IDX 6 1 5 2 4 3 3 4 2 5 1 6 27 7 28 8 86 9 29 10 85 11 30 12
REMARK SMILES IDX 31 13 32 14 79 15 33 16 84 17 78 18 80 19 34 20 83 21 77 22
REMARK SMILES IDX 76 23 35 25 65 26 46 27 64 28 47 29 50 30 63 31 81 32 48 33
REMARK SMILES IDX 49 34 62 36 82 37 51 38 36 39 37 40 45 41 38 42 44 43 39 44
REMARK SMILES IDX 40 45 41 46 42 47 43 48 66 49 67 50 75 51 68 52 74 53 69 54
REMARK SMILES IDX 70 55 71 56 72 57 73 58 52 59 53 60 61 61 54 62 60 63 55 64
REMARK SMILES IDX 56 65 57 66 58 67 59 68 7 69 8 70 9 71 10 72 11 73 12 74
REMARK SMILES IDX 13 75 14 76 15 77 16 78 23 79 17 80 22 81 24 82 18 83 21 84
REMARK SMILES IDX 25 85 19 86 20 87 26 88
REMARK H PARENT 80 24 50 35
REMARK Flexibility Score: inf
ROOT
ATOM      1  O   UNL A   1      32.559  34.925  28.946  1.00  0.00    -0.376 OA
ENDROOT
BRANCH   1   2
ATOM      2  C   UNL A   1      33.396  34.321  27.968  1.00  0.00     0.202 C 
BRANCH   2   3
ATOM      3  C   UNL A   1      34.499  33.458  28.583  1.00  0.00     0.261 C 
BRANCH   3   4
ATOM      4  O   UNL A   1      35.167  32.568  27.663  1.00  0.00    -0.460 OA
BRANCH   4   5
ATOM      5  C   UNL A   1      35.280  31.237  27.876  1.00  0.00     0.338 C 
ATOM      6  O   UNL A   1      34.600  30.429  27.251  1.00  0.00    -0.246 OA
BRANCH   5   7
ATOM      7  C   UNL A   1      36.466  30.773  28.643  1.00  0.00     0.060 A 
ATOM      8  C   UNL A   1      37.680  31.458  28.691  1.00  0.00     0.016 A 
ATOM      9  C   UNL A   1      36.343  29.545  29.315  1.00  0.00     0.016 A 
ATOM     10  C   UNL A   1      38.801  30.847  29.223  1.00  0.00     0.010 A 
ATOM     11  C   UNL A   1      37.462  28.938  29.878  1.00  0.00     0.010 A 
ATOM     12  C   UNL A   1      38.703  29.555  29.740  1.00  0.00    -0.014 A 
BRANCH  12  13
ATOM     13  C   UNL A   1      39.963  28.841  29.894  1.00  0.00     0.031 A 
ATOM     14  C   UNL A   1      40.607  28.786  31.228  1.00  0.00     0.074 A 
ATOM     15  C   UNL A   1      40.600  28.351  28.814  1.00  0.00     0.049 A 
ATOM     16  N   UNL A   1      41.710  29.350  31.605  1.00  0.00    -0.248 NA
ATOM     17  C   UNL A   1      39.928  28.018  32.277  1.00  0.00     0.031 C 
ATOM     18  C   UNL A   1      40.059  28.113  27.472  1.00  0.00     0.029 A 
ATOM     19  N   UNL A   1      41.880  27.894  28.727  1.00  0.00    -0.354 N 
ATOM     20  C   UNL A   1      41.945  28.911  32.903  1.00  0.00     0.074 A 
ATOM     21  C   UNL A   1      40.785  28.143  33.292  1.00  0.00     0.031 C 
ATOM     22  C   UNL A   1      40.933  27.362  26.772  1.00  0.00     0.029 A 
ATOM     23  C   UNL A   1      42.141  27.197  27.562  1.00  0.00     0.049 A 
ATOM     24  H   UNL A   1      42.555  28.044  29.427  1.00  0.00     0.167 HD
ATOM     25  C   UNL A   1      43.128  29.088  33.554  1.00  0.00     0.031 A 
ATOM     26  C   UNL A   1      43.245  26.463  27.298  1.00  0.00     0.031 A 
ATOM     27  C   UNL A   1      44.003  30.023  32.910  1.00  0.00     0.049 A 
ATOM     28  C   UNL A   1      44.347  26.985  28.138  1.00  0.00     0.074 A 
ATOM     29  C   UNL A   1      44.005  31.387  32.706  1.00  0.00     0.029 A 
ATOM     30  N   UNL A   1      44.975  29.509  32.087  1.00  0.00    -0.354 N 
ATOM     31  N   UNL A   1      44.866  28.173  27.994  1.00  0.00    -0.248 NA
ATOM     32  C   UNL A   1      44.687  26.312  29.383  1.00  0.00     0.031 C 
ATOM     33  C   UNL A   1      44.705  31.590  31.481  1.00  0.00     0.029 A 
ATOM     34  C   UNL A   1      45.079  30.335  30.994  1.00  0.00     0.049 A 
ATOM     35  H   UNL A   1      45.503  28.695  32.251  1.00  0.00     0.167 HD
ATOM     36  C   UNL A   1      45.264  28.553  29.265  1.00  0.00     0.074 A 
ATOM     37  C   UNL A   1      45.270  27.319  30.040  1.00  0.00     0.031 C 
ATOM     38  C   UNL A   1      45.286  29.867  29.637  1.00  0.00     0.031 A 
BRANCH  25  39
ATOM     39  C   UNL A   1      43.595  28.203  34.674  1.00  0.00    -0.014 A 
ATOM     40  C   UNL A   1      44.340  28.740  35.740  1.00  0.00     0.010 A 
ATOM     41  C   UNL A   1      43.508  26.798  34.582  1.00  0.00     0.010 A 
ATOM     42  C   UNL A   1      44.970  27.904  36.674  1.00  0.00     0.020 A 
ATOM     43  C   UNL A   1      44.104  25.959  35.527  1.00  0.00     0.020 A 
ATOM     44  C   UNL A   1      44.851  26.518  36.558  1.00  0.00     0.054 A 
BRANCH  44  45
ATOM     45  S   UNL A   1      45.746  25.451  37.719  1.00  0.00     0.124 S 
ATOM     46  O   UNL A   1      44.731  24.461  38.069  1.00  0.00    -0.237 OA
ATOM     47  O   UNL A   1      46.853  24.963  36.900  1.00  0.00    -0.237 OA
ATOM     48  O   UNL A   1      46.129  26.360  38.797  1.00  0.00    -0.744 OA
ENDBRANCH  44  45
ENDBRANCH  25  39
BRANCH  26  49
ATOM     49  C   UNL A   1      43.247  25.130  26.650  1.00  0.00    -0.014 A 
ATOM     50  C   UNL A   1      43.639  24.982  25.308  1.00  0.00     0.010 A 
ATOM     51  C   UNL A   1      43.115  23.960  27.430  1.00  0.00     0.010 A 
ATOM     52  C   UNL A   1      43.958  23.716  24.792  1.00  0.00     0.020 A 
ATOM     53  C   UNL A   1      43.414  22.696  26.920  1.00  0.00     0.020 A 
ATOM     54  C   UNL A   1      43.869  22.586  25.611  1.00  0.00     0.054 A 
BRANCH  54  55
ATOM     55  S   UNL A   1      44.454  20.986  24.989  1.00  0.00     0.124 S 
ATOM     56  O   UNL A   1      44.526  21.215  23.549  1.00  0.00    -0.237 OA
ATOM     57  O   UNL A   1      45.735  20.841  25.674  1.00  0.00    -0.237 OA
ATOM     58  O   UNL A   1      43.417  20.048  25.415  1.00  0.00    -0.744 OA
ENDBRANCH  54  55
ENDBRANCH  26  49
BRANCH  38  59
ATOM     59  C   UNL A   1      45.192  30.905  28.543  1.00  0.00    -0.014 A 
ATOM     60  C   UNL A   1      44.008  31.112  27.808  1.00  0.00     0.010 A 
ATOM     61  C   UNL A   1      46.266  31.791  28.349  1.00  0.00     0.010 A 
ATOM     62  C   UNL A   1      43.905  32.169  26.894  1.00  0.00     0.020 A 
ATOM     63  C   UNL A   1      46.165  32.858  27.447  1.00  0.00     0.020 A 
ATOM     64  C   UNL A   1      44.983  33.041  26.726  1.00  0.00     0.054 A 
BRANCH  64  65
ATOM     65  S   UNL A   1      44.806  34.447  25.588  1.00  0.00     0.124 S 
ATOM     66  O   UNL A   1      46.164  34.980  25.520  1.00  0.00    -0.237 OA
ATOM     67  O   UNL A   1      44.319  33.808  24.367  1.00  0.00    -0.237 OA
ATOM     68  O   UNL A   1      43.836  35.315  26.254  1.00  0.00    -0.744 OA
ENDBRANCH  64  65
ENDBRANCH  38  59
ENDBRANCH  12  13
ENDBRANCH   5   7
ENDBRANCH   4   5
ENDBRANCH   3   4
ENDBRANCH   2   3
ENDBRANCH   1   2
BRANCH   1  69
ATOM     69  C   UNL A   1      33.089  35.926  29.819  1.00  0.00     0.188 C 
BRANCH  69  70
ATOM     70  C   UNL A   1      32.491  36.118  31.222  1.00  0.00     0.188 C 
BRANCH  70  71
ATOM     71  O   UNL A   1      33.069  37.124  32.055  1.00  0.00    -0.376 OA
BRANCH  71  72
ATOM     72  C   UNL A   1      33.684  36.731  33.274  1.00  0.00     0.202 C 
BRANCH  72  73
ATOM     73  C   UNL A   1      34.851  35.764  33.094  1.00  0.00     0.261 C 
BRANCH  73  74
ATOM     74  O   UNL A   1      34.468  34.413  33.396  1.00  0.00    -0.457 OA
BRANCH  74  75
ATOM     75  C   UNL A   1      34.811  33.461  32.484  1.00  0.00     0.374 C 
ATOM     76  O   UNL A   1      34.029  32.698  31.935  1.00  0.00    -0.242 OA
BRANCH  75  77
ATOM     77  C   UNL A   1      36.233  33.502  32.271  1.00  0.00     0.216 A 
ATOM     78  O   UNL A   1      36.722  34.200  31.179  1.00  0.00    -0.449 OA
ATOM     79  C   UNL A   1      37.283  32.914  32.948  1.00  0.00     0.014 A 
ATOM     80  C   UNL A   1      38.076  34.010  31.147  1.00  0.00     0.135 A 
ATOM     81  C   UNL A   1      38.431  33.190  32.188  1.00  0.00     0.028 A 
ATOM     82  C   UNL A   1      37.411  32.046  34.150  1.00  0.00     0.041 C 
ATOM     83  C   UNL A   1      39.003  34.496  30.235  1.00  0.00     0.048 A 
ATOM     84  C   UNL A   1      39.726  32.707  32.368  1.00  0.00    -0.037 A 
ATOM     85  C   UNL A   1      38.617  31.078  33.969  1.00  0.00     0.010 C 
ATOM     86  C   UNL A   1      40.329  34.057  30.429  1.00  0.00     0.004 A 
ATOM     87  C   UNL A   1      40.687  33.173  31.467  1.00  0.00     0.004 A 
ATOM     88  C   UNL A   1      39.951  31.761  33.516  1.00  0.00     0.036 C 
ENDBRANCH  75  77
ENDBRANCH  74  75
ENDBRANCH  73  74
ENDBRANCH  72  73
ENDBRANCH  71  72
ENDBRANCH  70  71
ENDBRANCH  69  70
ENDBRANCH   1  69
TORSDOF 20
ENDMDL
MODEL 2
REMARK VINA RESULT:      -9.4      3.885     11.001
REMARK SMILES O=C(OCCOCCOCCOC(=O)c1oc2cccc3c2c1CCC3)c1ccc(-c2c3nc(c(-c4ccc(S(=O)(=O)[O-])cc4)c4ccc([nH]4)c(-c4ccc(S(=O)(=O)[O-])cc4)c4nc(c(-c5ccc(S(=O)(=O)[O-])cc5)c5ccc2[nH]5)C=C4)C=C3)cc1
REMARK SMILES IDX 6 1 5 2 4 3 3 4 2 5 1 6 27 7 28 8 86 9 29 10 85 11 30 12
REMARK SMILES IDX 31 13 32 14 79 15 33 16 84 17 78 18 80 19 34 20 83 21 77 22
REMARK SMILES IDX 76 23 35 25 65 26 46 27 64 28 47 29 50 30 63 31 81 32 48 33
REMARK SMILES IDX 49 34 62 36 82 37 51 38 36 39 37 40 45 41 38 42 44 43 39 44
REMARK SMILES IDX 40 45 41 46 42 47 43 48 66 49 67 50 75 51 68 52 74 53 69 54
REMARK SMILES IDX 70 55 71 56 72 57 73 58 52 59 53 60 61 61 54 62 60 63 55 64
REMARK SMILES IDX 56 65 57 66 58 67 59 68 7 69 8 70 9 71 10 72 11 73 12 74
REMARK SMILES IDX 13 75 14 76 15 77 16 78 23 79 17 80 22 81 24 82 18 83 21 84
REMARK SMILES IDX 25 85 19 86 20 87 26 88
REMARK H PARENT 80 24 50 35
REMARK Flexibility Score: inf
ROOT
ATOM      1  O   UNL A   1      38.591  22.053  26.120  1.00  0.00    -0.376 OA
ENDROOT
BRANCH   1   2
ATOM      2  C   UNL A   1      39.669  21.155  25.891  1.00  0.00     0.202 C 
BRANCH   2   3
ATOM      3  C   UNL A   1      40.775  21.278  26.941  1.00  0.00     0.261 C 
BRANCH   3   4
ATOM      4  O   UNL A   1      42.067  21.669  26.428  1.00  0.00    -0.460 OA
BRANCH   4   5
ATOM      5  C   UNL A   1      42.321  22.902  25.933  1.00  0.00     0.338 C 
ATOM      6  O   UNL A   1      42.787  23.057  24.809  1.00  0.00    -0.246 OA
BRANCH   5   7
ATOM      7  C   UNL A   1      41.721  24.056  26.653  1.00  0.00     0.060 A 
ATOM      8  C   UNL A   1      40.830  24.958  26.074  1.00  0.00     0.016 A 
ATOM      9  C   UNL A   1      42.128  24.252  27.984  1.00  0.00     0.016 A 
ATOM     10  C   UNL A   1      40.506  26.133  26.729  1.00  0.00     0.010 A 
ATOM     11  C   UNL A   1      41.781  25.417  28.660  1.00  0.00     0.010 A 
ATOM     12  C   UNL A   1      41.050  26.394  27.986  1.00  0.00    -0.014 A 
BRANCH  12  13
ATOM     13  C   UNL A   1      41.002  27.784  28.417  1.00  0.00     0.031 A 
ATOM     14  C   UNL A   1      42.161  28.668  28.146  1.00  0.00     0.074 A 
ATOM     15  C   UNL A   1      39.976  28.226  29.168  1.00  0.00     0.049 A 
ATOM     16  N   UNL A   1      42.988  29.182  28.999  1.00  0.00    -0.248 NA
ATOM     17  C   UNL A   1      42.443  29.006  26.747  1.00  0.00     0.031 C 
ATOM     18  C   UNL A   1      38.663  27.603  29.366  1.00  0.00     0.029 A 
ATOM     19  N   UNL A   1      39.884  29.391  29.867  1.00  0.00    -0.354 N 
ATOM     20  C   UNL A   1      43.825  30.020  28.269  1.00  0.00     0.074 A 
ATOM     21  C   UNL A   1      43.487  29.826  26.878  1.00  0.00     0.031 C 
ATOM     22  C   UNL A   1      37.838  28.493  29.953  1.00  0.00     0.029 A 
ATOM     23  C   UNL A   1      38.602  29.679  30.297  1.00  0.00     0.049 A 
ATOM     24  H   UNL A   1      40.656  29.973  30.048  1.00  0.00     0.167 HD
ATOM     25  C   UNL A   1      44.667  30.925  28.840  1.00  0.00     0.031 A 
ATOM     26  C   UNL A   1      38.179  30.848  30.826  1.00  0.00     0.031 A 
ATOM     27  C   UNL A   1      44.842  30.734  30.250  1.00  0.00     0.049 A 
ATOM     28  C   UNL A   1      39.354  31.529  31.418  1.00  0.00     0.074 A 
ATOM     29  C   UNL A   1      45.452  29.788  31.046  1.00  0.00     0.029 A 
ATOM     30  N   UNL A   1      44.071  31.502  31.088  1.00  0.00    -0.354 N 
ATOM     31  N   UNL A   1      40.007  31.075  32.451  1.00  0.00    -0.248 NA
ATOM     32  C   UNL A   1      40.035  32.576  30.670  1.00  0.00     0.031 C 
ATOM     33  C   UNL A   1      44.713  29.779  32.265  1.00  0.00     0.029 A 
ATOM     34  C   UNL A   1      43.681  30.712  32.142  1.00  0.00     0.049 A 
ATOM     35  H   UNL A   1      43.839  32.450  30.957  1.00  0.00     0.167 HD
ATOM     36  C   UNL A   1      41.317  31.485  32.262  1.00  0.00     0.074 A 
ATOM     37  C   UNL A   1      41.241  32.523  31.243  1.00  0.00     0.031 C 
ATOM     38  C   UNL A   1      42.364  30.757  32.749  1.00  0.00     0.031 A 
BRANCH  25  39
ATOM     39  C   UNL A   1      45.152  32.161  28.138  1.00  0.00    -0.014 A 
ATOM     40  C   UNL A   1      46.501  32.279  27.757  1.00  0.00     0.010 A 
ATOM     41  C   UNL A   1      44.345  33.315  28.047  1.00  0.00     0.010 A 
ATOM     42  C   UNL A   1      47.019  33.501  27.305  1.00  0.00     0.020 A 
ATOM     43  C   UNL A   1      44.844  34.527  27.565  1.00  0.00     0.020 A 
ATOM     44  C   UNL A   1      46.187  34.619  27.216  1.00  0.00     0.054 A 
BRANCH  44  45
ATOM     45  S   UNL A   1      46.893  36.212  26.716  1.00  0.00     0.124 S 
ATOM     46  O   UNL A   1      47.707  35.837  25.563  1.00  0.00    -0.237 OA
ATOM     47  O   UNL A   1      45.699  37.001  26.420  1.00  0.00    -0.237 OA
ATOM     48  O   UNL A   1      47.642  36.643  27.894  1.00  0.00    -0.744 OA
ENDBRANCH  44  45
ENDBRANCH  25  39
BRANCH  26  49
ATOM     49  C   UNL A   1      36.904  31.525  30.489  1.00  0.00    -0.014 A 
ATOM     50  C   UNL A   1      36.062  32.019  31.499  1.00  0.00     0.010 A 
ATOM     51  C   UNL A   1      36.638  31.920  29.159  1.00  0.00     0.010 A 
ATOM     52  C   UNL A   1      35.040  32.933  31.195  1.00  0.00     0.020 A 
ATOM     53  C   UNL A   1      35.615  32.814  28.846  1.00  0.00     0.020 A 
ATOM     54  C   UNL A   1      34.842  33.344  29.874  1.00  0.00     0.054 A 
BRANCH  54  55
ATOM     55  S   UNL A   1      33.642  34.657  29.518  1.00  0.00     0.124 S 
ATOM     56  O   UNL A   1      33.186  35.035  30.852  1.00  0.00    -0.237 OA
ATOM     57  O   UNL A   1      34.465  35.644  28.825  1.00  0.00    -0.237 OA
ATOM     58  O   UNL A   1      32.640  33.994  28.686  1.00  0.00    -0.744 OA
ENDBRANCH  54  55
ENDBRANCH  26  49
BRANCH  38  59
ATOM     59  C   UNL A   1      42.057  29.689  33.773  1.00  0.00    -0.014 A 
ATOM     60  C   UNL A   1      41.743  28.366  33.404  1.00  0.00     0.010 A 
ATOM     61  C   UNL A   1      42.232  29.981  35.137  1.00  0.00     0.010 A 
ATOM     62  C   UNL A   1      41.595  27.365  34.373  1.00  0.00     0.020 A 
ATOM     63  C   UNL A   1      42.098  28.983  36.110  1.00  0.00     0.020 A 
ATOM     64  C   UNL A   1      41.782  27.679  35.721  1.00  0.00     0.054 A 
BRANCH  64  65
ATOM     65  S   UNL A   1      41.655  26.354  36.957  1.00  0.00     0.124 S 
ATOM     66  O   UNL A   1      41.624  25.147  36.135  1.00  0.00    -0.237 OA
ATOM     67  O   UNL A   1      42.867  26.542  37.752  1.00  0.00    -0.237 OA
ATOM     68  O   UNL A   1      40.409  26.651  37.662  1.00  0.00    -0.744 OA
ENDBRANCH  64  65
ENDBRANCH  38  59
ENDBRANCH  12  13
ENDBRANCH   5   7
ENDBRANCH   4   5
ENDBRANCH   3   4
ENDBRANCH   2   3
ENDBRANCH   1   2
BRANCH   1  69
ATOM     69  C   UNL A   1      37.405  21.962  25.325  1.00  0.00     0.188 C 
BRANCH  69  70
ATOM     70  C   UNL A   1      36.111  22.645  25.795  1.00  0.00     0.188 C 
BRANCH  70  71
ATOM     71  O   UNL A   1      35.125  21.827  26.426  1.00  0.00    -0.376 OA
BRANCH  71  72
ATOM     72  C   UNL A   1      34.231  21.082  25.611  1.00  0.00     0.202 C 
BRANCH  72  73
ATOM     73  C   UNL A   1      32.834  21.687  25.514  1.00  0.00     0.261 C 
BRANCH  73  74
ATOM     74  O   UNL A   1      32.882  23.123  25.491  1.00  0.00    -0.457 OA
BRANCH  74  75
ATOM     75  C   UNL A   1      32.256  23.773  26.513  1.00  0.00     0.374 C 
ATOM     76  O   UNL A   1      31.655  23.230  27.429  1.00  0.00    -0.242 OA
BRANCH  75  77
ATOM     77  C   UNL A   1      32.418  25.192  26.340  1.00  0.00     0.216 A 
ATOM     78  O   UNL A   1      31.774  26.047  27.218  1.00  0.00    -0.449 OA
ATOM     79  C   UNL A   1      33.092  25.932  25.389  1.00  0.00     0.014 A 
ATOM     80  C   UNL A   1      32.007  27.325  26.789  1.00  0.00     0.135 A 
ATOM     81  C   UNL A   1      32.767  27.273  25.647  1.00  0.00     0.028 A 
ATOM     82  C   UNL A   1      33.928  25.615  24.200  1.00  0.00     0.041 C 
ATOM     83  C   UNL A   1      31.562  28.522  27.331  1.00  0.00     0.048 A 
ATOM     84  C   UNL A   1      33.082  28.402  24.893  1.00  0.00    -0.037 A 
ATOM     85  C   UNL A   1      33.730  26.712  23.112  1.00  0.00     0.010 C 
ATOM     86  C   UNL A   1      31.911  29.681  26.608  1.00  0.00     0.004 A 
ATOM     87  C   UNL A   1      32.648  29.627  25.407  1.00  0.00     0.004 A 
ATOM     88  C   UNL A   1      33.867  28.183  23.627  1.00  0.00     0.036 C 
ENDBRANCH  75  77
ENDBRANCH  74  75
ENDBRANCH  73  74
ENDBRANCH  72  73
ENDBRANCH  71  72
ENDBRANCH  70  71
ENDBRANCH  69  70
ENDBRANCH   1  69
TORSDOF 20
ENDMDL
MODEL 3
REMARK VINA RESULT:      -9.4      2.712     12.053
REMARK SMILES O=C(OCCOCCOCCOC(=O)c1oc2cccc3c2c1CCC3)c1ccc(-c2c3nc(c(-c4ccc(S(=O)(=O)[O-])cc4)c4ccc([nH]4)c(-c4ccc(S(=O)(=O)[O-])cc4)c4nc(c(-c5ccc(S(=O)(=O)[O-])cc5)c5ccc2[nH]5)C=C4)C=C3)cc1
REMARK SMILES IDX 6 1 5 2 4 3 3 4 2 5 1 6 27 7 28 8 86 9 29 10 85 11 30 12
REMARK SMILES IDX 31 13 32 14 79 15 33 16 84 17 78 18 80 19 34 20 83 21 77 22
REMARK SMILES IDX 76 23 35 25 65 26 46 27 64 28 47 29 50 30 63 31 81 32 48 33
REMARK SMILES IDX 49 34 62 36 82 37 51 38 36 39 37 40 45 41 38 42 44 43 39 44
REMARK SMILES IDX 40 45 41 46 42 47 43 48 66 49 67 50 75 51 68 52 74 53 69 54
REMARK SMILES IDX 70 55 71 56 72 57 73 58 52 59 53 60 61 61 54 62 60 63 55 64
REMARK SMILES IDX 56 65 57 66 58 67 59 68 7 69 8 70 9 71 10 72 11 73 12 74
REMARK SMILES IDX 13 75 14 76 15 77 16 78 23 79 17 80 22 81 24 82 18 83 21 84
REMARK SMILES IDX 25 85 19 86 20 87 26 88
REMARK H PARENT 80 24 50 35
REMARK Flexibility Score: inf
ROOT
ATOM      1  O   UNL A   1      42.006  19.723  26.193  1.00  0.00    -0.376 OA
ENDROOT
BRANCH   1   2
ATOM      2  C   UNL A   1      40.599  19.926  26.178  1.00  0.00     0.202 C 
BRANCH   2   3
ATOM      3  C   UNL A   1      40.213  21.379  25.896  1.00  0.00     0.261 C 
BRANCH   3   4
ATOM      4  O   UNL A   1      39.952  22.183  27.066  1.00  0.00    -0.460 OA
BRANCH   4   5
ATOM      5  C   UNL A   1      40.934  22.700  27.838  1.00  0.00     0.338 C 
ATOM      6  O   UNL A   1      41.768  21.980  28.381  1.00  0.00    -0.246 OA
BRANCH   5   7
ATOM      7  C   UNL A   1      41.167  24.166  27.746  1.00  0.00     0.060 A 
ATOM      8  C   UNL A   1      42.252  24.820  28.329  1.00  0.00     0.016 A 
ATOM      9  C   UNL A   1      40.199  24.918  27.060  1.00  0.00     0.016 A 
ATOM     10  C   UNL A   1      42.270  26.201  28.403  1.00  0.00     0.010 A 
ATOM     11  C   UNL A   1      40.229  26.308  27.105  1.00  0.00     0.010 A 
ATOM     12  C   UNL A   1      41.215  26.936  27.862  1.00  0.00    -0.014 A 
BRANCH  12  13
ATOM     13  C   UNL A   1      41.100  28.310  28.329  1.00  0.00     0.031 A 
ATOM     14  C   UNL A   1      42.222  29.251  28.100  1.00  0.00     0.074 A 
ATOM     15  C   UNL A   1      40.044  28.686  29.075  1.00  0.00     0.049 A 
ATOM     16  N   UNL A   1      43.013  29.778  28.979  1.00  0.00    -0.248 NA
ATOM     17  C   UNL A   1      42.508  29.640  26.715  1.00  0.00     0.031 C 
ATOM     18  C   UNL A   1      38.758  28.000  29.236  1.00  0.00     0.029 A 
ATOM     19  N   UNL A   1      39.890  29.826  29.804  1.00  0.00    -0.354 N 
ATOM     20  C   UNL A   1      43.822  30.671  28.285  1.00  0.00     0.074 A 
ATOM     21  C   UNL A   1      43.513  30.501  26.885  1.00  0.00     0.031 C 
ATOM     22  C   UNL A   1      37.886  28.837  29.834  1.00  0.00     0.029 A 
ATOM     23  C   UNL A   1      38.591  30.045  30.222  1.00  0.00     0.049 A 
ATOM     24  H   UNL A   1      40.633  30.436  30.012  1.00  0.00     0.167 HD
ATOM     25  C   UNL A   1      44.615  31.597  28.893  1.00  0.00     0.031 A 
ATOM     26  C   UNL A   1      38.109  31.180  30.775  1.00  0.00     0.031 A 
ATOM     27  C   UNL A   1      44.778  31.375  30.300  1.00  0.00     0.049 A 
ATOM     28  C   UNL A   1      39.244  31.895  31.404  1.00  0.00     0.074 A 
ATOM     29  C   UNL A   1      45.418  30.435  31.080  1.00  0.00     0.029 A 
ATOM     30  N   UNL A   1      43.961  32.086  31.146  1.00  0.00    -0.354 N 
ATOM     31  N   UNL A   1      39.902  31.442  32.434  1.00  0.00    -0.248 NA
ATOM     32  C   UNL A   1      39.888  32.991  30.695  1.00  0.00     0.031 C 
ATOM     33  C   UNL A   1      44.663  30.361  32.287  1.00  0.00     0.029 A 
ATOM     34  C   UNL A   1      43.592  31.250  32.172  1.00  0.00     0.049 A 
ATOM     35  H   UNL A   1      43.690  33.025  31.037  1.00  0.00     0.167 HD
ATOM     36  C   UNL A   1      41.194  31.914  32.276  1.00  0.00     0.074 A 
ATOM     37  C   UNL A   1      41.087  32.976  31.284  1.00  0.00     0.031 C 
ATOM     38  C   UNL A   1      42.266  31.220  32.760  1.00  0.00     0.031 A 
BRANCH  25  39
ATOM     39  C   UNL A   1      45.054  32.872  28.232  1.00  0.00    -0.014 A 
ATOM     40  C   UNL A   1      46.407  33.070  27.900  1.00  0.00     0.010 A 
ATOM     41  C   UNL A   1      44.189  33.982  28.136  1.00  0.00     0.010 A 
ATOM     42  C   UNL A   1      46.872  34.328  27.489  1.00  0.00     0.020 A 
ATOM     43  C   UNL A   1      44.637  35.229  27.695  1.00  0.00     0.020 A 
ATOM     44  C   UNL A   1      45.983  35.401  27.393  1.00  0.00     0.054 A 
BRANCH  44  45
ATOM     45  S   UNL A   1      46.617  37.040  26.949  1.00  0.00     0.124 S 
ATOM     46  O   UNL A   1      47.379  37.406  28.140  1.00  0.00    -0.237 OA
ATOM     47  O   UNL A   1      47.408  36.753  25.755  1.00  0.00    -0.237 OA
ATOM     48  O   UNL A   1      45.409  37.827  26.716  1.00  0.00    -0.744 OA
ENDBRANCH  44  45
ENDBRANCH  25  39
BRANCH  26  49
ATOM     49  C   UNL A   1      36.810  31.809  30.436  1.00  0.00    -0.014 A 
ATOM     50  C   UNL A   1      35.897  32.163  31.444  1.00  0.00     0.010 A 
ATOM     51  C   UNL A   1      36.577  32.302  29.133  1.00  0.00     0.010 A 
ATOM     52  C   UNL A   1      34.835  33.040  31.171  1.00  0.00     0.020 A 
ATOM     53  C   UNL A   1      35.514  33.160  28.850  1.00  0.00     0.020 A 
ATOM     54  C   UNL A   1      34.668  33.553  29.881  1.00  0.00     0.054 A 
BRANCH  54  55
ATOM     55  S   UNL A   1      33.406  34.820  29.582  1.00  0.00     0.124 S 
ATOM     56  O   UNL A   1      32.487  34.140  28.674  1.00  0.00    -0.237 OA
ATOM     57  O   UNL A   1      32.899  35.071  30.928  1.00  0.00    -0.237 OA
ATOM     58  O   UNL A   1      34.157  35.925  28.989  1.00  0.00    -0.744 OA
ENDBRANCH  54  55
ENDBRANCH  26  49
BRANCH  38  59
ATOM     59  C   UNL A   1      41.992  30.112  33.750  1.00  0.00    -0.014 A 
ATOM     60  C   UNL A   1      41.669  28.804  33.339  1.00  0.00     0.010 A 
ATOM     61  C   UNL A   1      42.208  30.351  35.119  1.00  0.00     0.010 A 
ATOM     62  C   UNL A   1      41.552  27.765  34.272  1.00  0.00     0.020 A 
ATOM     63  C   UNL A   1      42.106  29.314  36.055  1.00  0.00     0.020 A 
ATOM     64  C   UNL A   1      41.780  28.026  35.625  1.00  0.00     0.054 A 
BRANCH  64  65
ATOM     65  S   UNL A   1      41.693  26.653  36.811  1.00  0.00     0.124 S 
ATOM     66  O   UNL A   1      42.938  26.794  37.561  1.00  0.00    -0.237 OA
ATOM     67  O   UNL A   1      40.473  26.954  37.557  1.00  0.00    -0.237 OA
ATOM     68  O   UNL A   1      41.615  25.464  35.965  1.00  0.00    -0.744 OA
ENDBRANCH  64  65
ENDBRANCH  38  59
ENDBRANCH  12  13
ENDBRANCH   5   7
ENDBRANCH   4   5
ENDBRANCH   3   4
ENDBRANCH   2   3
ENDBRANCH   1   2
BRANCH   1  69
ATOM     69  C   UNL A   1      42.536  18.410  26.400  1.00  0.00     0.188 C 
BRANCH  69  70
ATOM     70  C   UNL A   1      43.948  18.064  25.901  1.00  0.00     0.188 C 
BRANCH  70  71
ATOM     71  O   UNL A   1      44.480  18.846  24.831  1.00  0.00    -0.376 OA
BRANCH  71  72
ATOM     72  C   UNL A   1      45.851  19.219  24.874  1.00  0.00     0.202 C 
BRANCH  72  73
ATOM     73  C   UNL A   1      46.100  20.691  24.559  1.00  0.00     0.261 C 
BRANCH  73  74
ATOM     74  O   UNL A   1      46.262  21.466  25.759  1.00  0.00    -0.457 OA
BRANCH  74  75
ATOM     75  C   UNL A   1      45.232  22.293  26.096  1.00  0.00     0.374 C 
ATOM     76  O   UNL A   1      44.049  21.984  26.084  1.00  0.00    -0.242 OA
BRANCH  75  77
ATOM     77  C   UNL A   1      45.761  23.577  26.470  1.00  0.00     0.216 A 
ATOM     78  O   UNL A   1      46.687  23.641  27.498  1.00  0.00    -0.449 OA
ATOM     79  C   UNL A   1      45.488  24.853  26.018  1.00  0.00     0.014 A 
ATOM     80  C   UNL A   1      46.959  24.963  27.721  1.00  0.00     0.135 A 
ATOM     81  C   UNL A   1      46.201  25.719  26.862  1.00  0.00     0.028 A 
ATOM     82  C   UNL A   1      44.595  25.438  24.982  1.00  0.00     0.041 C 
ATOM     83  C   UNL A   1      47.812  25.532  28.656  1.00  0.00     0.048 A 
ATOM     84  C   UNL A   1      46.158  27.111  26.912  1.00  0.00    -0.037 A 
ATOM     85  C   UNL A   1      44.102  26.840  25.447  1.00  0.00     0.010 C 
ATOM     86  C   UNL A   1      47.818  26.942  28.690  1.00  0.00     0.004 A 
ATOM     87  C   UNL A   1      47.003  27.720  27.844  1.00  0.00     0.004 A 
ATOM     88  C   UNL A   1      45.228  27.802  25.951  1.00  0.00     0.036 C 
ENDBRANCH  75  77
ENDBRANCH  74  75
ENDBRANCH  73  74
ENDBRANCH  72  73
ENDBRANCH  71  72
ENDBRANCH  70  71
ENDBRANCH  69  70
ENDBRANCH   1  69
TORSDOF 20
ENDMDL
