MODEL 1
REMARK VINA RESULT:     -10.1      0.000      0.000
REMARK SMILES Cc1cc(F)cc(N[C@@](C)(C(=O)OCCOCCOCCOC(=O)c2ccc(-c3c4nc(c(-c5ccc(S(=O)(=O)[O-])cc5)c5ccc([nH]5)c(-c5ccc(S(=O)(=O)[O-])cc5)c5nc(c(-c6ccc(S(=O)(=O)[O-])cc6)c6ccc3[nH]6)C=C5)C=C4)cc2)c2ccc(O)cc2)c1
REMARK SMILES IDX 18 1 17 2 16 3 15 4 14 5 13 6 11 7 12 8 9 9 10 10 8 11 7 13
REMARK SMILES IDX 1 14 2 15 3 16 92 17 4 18 5 19 6 20 85 21 86 22 91 23 87 24
REMARK SMILES IDX 90 25 88 26 89 27 19 29 20 30 21 31 22 32 23 33 24 34 25 35
REMARK SMILES IDX 26 36 84 37 27 38 83 39 28 40 29 41 30 42 77 43 31 44 82 45
REMARK SMILES IDX 76 46 78 47 32 48 81 49 75 50 74 51 33 53 63 54 44 55 62 56
REMARK SMILES IDX 45 57 48 58 61 59 79 60 46 61 47 62 60 64 80 65 49 66 34 67
REMARK SMILES IDX 35 68 43 69 36 70 42 71 37 72 38 73 39 74 40 75 41 76 64 77
REMARK SMILES IDX 65 78 73 79 66 80 72 81 67 82 68 83 69 84 70 85 71 86 50 87
REMARK SMILES IDX 51 88 59 89 52 90 58 91 53 92 54 93 55 94 56 95 57 96
REMARK H PARENT 8 12 89 28 78 52 48 63
REMARK Flexibility Score: inf
ROOT
ATOM      1  C   UNL A   1      41.523  21.114  26.268  1.00  0.00     0.188 C 
ENDROOT
BRANCH   1   2
ATOM      2  C   UNL A   1      40.133  21.721  26.532  1.00  0.00     0.188 C 
BRANCH   2   3
ATOM      3  O   UNL A   1      39.067  21.475  25.614  1.00  0.00    -0.376 OA
BRANCH   3   4
ATOM      4  C   UNL A   1      37.859  22.207  25.747  1.00  0.00     0.202 C 
BRANCH   4   5
ATOM      5  C   UNL A   1      36.694  21.779  24.850  1.00  0.00     0.261 C 
BRANCH   5   6
ATOM      6  O   UNL A   1      35.657  22.772  24.720  1.00  0.00    -0.461 OA
BRANCH   6   7
ATOM      7  C   UNL A   1      34.504  22.518  25.405  1.00  0.00     0.336 C 
ATOM      8  O   UNL A   1      34.464  22.454  26.632  1.00  0.00    -0.249 OA
BRANCH   7   9
ATOM      9  C   UNL A   1      33.241  22.282  24.484  1.00  0.00     0.158 C 
ATOM     10  C   UNL A   1      33.643  23.041  23.193  1.00  0.00     0.053 C 
BRANCH   9  11
ATOM     11  N   UNL A   1      32.007  22.977  25.007  1.00  0.00    -0.366 N 
ATOM     12  H   UNL A   1      31.352  22.360  25.405  1.00  0.00     0.162 HD
BRANCH  11  13
ATOM     13  C   UNL A   1      31.603  24.303  25.045  1.00  0.00     0.038 A 
ATOM     14  C   UNL A   1      32.751  27.584  26.733  1.00  0.00     0.044 C 
ATOM     15  C   UNL A   1      32.002  26.609  25.872  1.00  0.00    -0.046 A 
ATOM     16  C   UNL A   1      30.942  27.083  25.105  1.00  0.00     0.042 A 
ATOM     17  C   UNL A   1      32.338  25.235  25.812  1.00  0.00     0.029 A 
ATOM     18  C   UNL A   1      30.207  26.185  24.358  1.00  0.00     0.125 A 
ATOM     19  F   UNL A   1      29.164  26.630  23.646  1.00  0.00    -0.207 F 
ATOM     20  C   UNL A   1      30.499  24.821  24.369  1.00  0.00     0.065 A 
ENDBRANCH  11  13
ENDBRANCH   9  11
BRANCH   9  21
ATOM     21  C   UNL A   1      33.042  20.784  24.188  1.00  0.00    -0.011 A 
ATOM     22  C   UNL A   1      33.734  19.807  24.939  1.00  0.00     0.010 A 
ATOM     23  C   UNL A   1      32.248  20.330  23.113  1.00  0.00     0.010 A 
ATOM     24  C   UNL A   1      33.717  18.461  24.561  1.00  0.00     0.046 A 
ATOM     25  C   UNL A   1      32.206  18.976  22.758  1.00  0.00     0.046 A 
ATOM     26  C   UNL A   1      32.970  18.059  23.465  1.00  0.00     0.115 A 
BRANCH  26  27
ATOM     27  O   UNL A   1      33.034  16.748  23.104  1.00  0.00    -0.508 OA
ATOM     28  H   UNL A   1      33.844  16.282  23.175  1.00  0.00     0.293 HD
ENDBRANCH  26  27
ENDBRANCH   9  21
ENDBRANCH   7   9
ENDBRANCH   6   7
ENDBRANCH   5   6
ENDBRANCH   4   5
ENDBRANCH   3   4
ENDBRANCH   2   3
ENDBRANCH   1   2
BRANCH   1  29
ATOM     29  O   UNL A   1      42.580  22.051  26.406  1.00  0.00    -0.376 OA
BRANCH  29  30
ATOM     30  C   UNL A   1      43.163  22.487  25.194  1.00  0.00     0.202 C 
BRANCH  30  31
ATOM     31  C   UNL A   1      43.343  24.007  25.137  1.00  0.00     0.261 C 
BRANCH  31  32
ATOM     32  O   UNL A   1      42.358  24.766  25.862  1.00  0.00    -0.460 OA
BRANCH  32  33
ATOM     33  C   UNL A   1      42.406  26.112  25.722  1.00  0.00     0.338 C 
ATOM     34  O   UNL A   1      42.367  26.735  24.679  1.00  0.00    -0.246 OA
BRANCH  33  35
ATOM     35  C   UNL A   1      42.337  26.715  27.072  1.00  0.00     0.060 A 
ATOM     36  C   UNL A   1      41.507  26.124  28.027  1.00  0.00     0.016 A 
ATOM     37  C   UNL A   1      43.061  27.863  27.392  1.00  0.00     0.016 A 
ATOM     38  C   UNL A   1      41.382  26.684  29.302  1.00  0.00     0.010 A 
ATOM     39  C   UNL A   1      42.913  28.442  28.660  1.00  0.00     0.010 A 
ATOM     40  C   UNL A   1      42.051  27.870  29.614  1.00  0.00    -0.014 A 
BRANCH  40  41
ATOM     41  C   UNL A   1      41.707  28.607  30.860  1.00  0.00     0.031 A 
ATOM     42  C   UNL A   1      40.494  29.500  30.851  1.00  0.00     0.074 A 
ATOM     43  C   UNL A   1      42.432  28.478  31.986  1.00  0.00     0.049 A 
ATOM     44  N   UNL A   1      40.072  30.340  31.760  1.00  0.00    -0.248 NA
ATOM     45  C   UNL A   1      39.649  29.439  29.647  1.00  0.00     0.031 C 
ATOM     46  C   UNL A   1      43.581  27.591  32.160  1.00  0.00     0.029 A 
ATOM     47  N   UNL A   1      42.311  29.113  33.198  1.00  0.00    -0.354 N 
ATOM     48  C   UNL A   1      38.934  30.934  31.225  1.00  0.00     0.074 A 
ATOM     49  C   UNL A   1      38.735  30.362  29.911  1.00  0.00     0.031 C 
ATOM     50  C   UNL A   1      44.072  27.754  33.403  1.00  0.00     0.029 A 
ATOM     51  C   UNL A   1      43.298  28.785  34.096  1.00  0.00     0.049 A 
ATOM     52  H   UNL A   1      41.584  29.745  33.405  1.00  0.00     0.167 HD
ATOM     53  C   UNL A   1      38.132  31.877  31.773  1.00  0.00     0.031 A 
ATOM     54  C   UNL A   1      43.569  29.281  35.321  1.00  0.00     0.031 A 
ATOM     55  C   UNL A   1      38.327  32.444  33.081  1.00  0.00     0.049 A 
ATOM     56  C   UNL A   1      42.702  30.379  35.888  1.00  0.00     0.074 A 
ATOM     57  C   UNL A   1      37.569  33.407  33.723  1.00  0.00     0.029 A 
ATOM     58  N   UNL A   1      39.353  32.098  33.948  1.00  0.00    -0.354 N 
ATOM     59  N   UNL A   1      41.646  30.952  35.362  1.00  0.00    -0.248 NA
ATOM     60  C   UNL A   1      43.070  30.900  37.214  1.00  0.00     0.031 C 
ATOM     61  C   UNL A   1      38.169  33.685  34.956  1.00  0.00     0.029 A 
ATOM     62  C   UNL A   1      39.264  32.848  35.108  1.00  0.00     0.049 A 
ATOM     63  H   UNL A   1      40.042  31.420  33.765  1.00  0.00     0.167 HD
ATOM     64  C   UNL A   1      41.212  31.885  36.299  1.00  0.00     0.074 A 
ATOM     65  C   UNL A   1      42.109  31.789  37.432  1.00  0.00     0.031 C 
ATOM     66  C   UNL A   1      40.165  32.746  36.228  1.00  0.00     0.031 A 
BRANCH  53  67
ATOM     67  C   UNL A   1      37.004  32.405  30.926  1.00  0.00    -0.014 A 
ATOM     68  C   UNL A   1      35.710  31.860  30.996  1.00  0.00     0.010 A 
ATOM     69  C   UNL A   1      37.248  33.483  30.054  1.00  0.00     0.010 A 
ATOM     70  C   UNL A   1      34.691  32.355  30.176  1.00  0.00     0.020 A 
ATOM     71  C   UNL A   1      36.225  33.999  29.255  1.00  0.00     0.020 A 
ATOM     72  C   UNL A   1      34.956  33.418  29.307  1.00  0.00     0.054 A 
BRANCH  72  73
ATOM     73  S   UNL A   1      33.615  34.047  28.261  1.00  0.00     0.124 S 
ATOM     74  O   UNL A   1      33.075  32.815  27.691  1.00  0.00    -0.237 OA
ATOM     75  O   UNL A   1      32.749  34.726  29.222  1.00  0.00    -0.237 OA
ATOM     76  O   UNL A   1      34.297  34.925  27.312  1.00  0.00    -0.744 OA
ENDBRANCH  72  73
ENDBRANCH  53  67
BRANCH  54  77
ATOM     77  C   UNL A   1      44.747  28.777  36.082  1.00  0.00    -0.014 A 
ATOM     78  C   UNL A   1      46.001  29.401  35.965  1.00  0.00     0.010 A 
ATOM     79  C   UNL A   1      44.614  27.665  36.933  1.00  0.00     0.010 A 
ATOM     80  C   UNL A   1      47.102  28.917  36.680  1.00  0.00     0.020 A 
ATOM     81  C   UNL A   1      45.705  27.196  37.671  1.00  0.00     0.020 A 
ATOM     82  C   UNL A   1      46.945  27.821  37.533  1.00  0.00     0.054 A 
BRANCH  82  83
ATOM     83  S   UNL A   1      48.369  27.251  38.503  1.00  0.00     0.124 S 
ATOM     84  O   UNL A   1      48.886  26.165  37.675  1.00  0.00    -0.237 OA
ATOM     85  O   UNL A   1      49.203  28.448  38.570  1.00  0.00    -0.237 OA
ATOM     86  O   UNL A   1      47.775  26.843  39.773  1.00  0.00    -0.744 OA
ENDBRANCH  82  83
ENDBRANCH  54  77
BRANCH  66  87
ATOM     87  C   UNL A   1      39.906  33.635  37.417  1.00  0.00    -0.014 A 
ATOM     88  C   UNL A   1      40.304  34.984  37.422  1.00  0.00     0.010 A 
ATOM     89  C   UNL A   1      39.191  33.129  38.519  1.00  0.00     0.010 A 
ATOM     90  C   UNL A   1      40.015  35.801  38.519  1.00  0.00     0.020 A 
ATOM     91  C   UNL A   1      38.878  33.951  39.605  1.00  0.00     0.020 A 
ATOM     92  C   UNL A   1      39.304  35.280  39.604  1.00  0.00     0.054 A 
BRANCH  92  93
ATOM     93  S   UNL A   1      38.901  36.375  40.994  1.00  0.00     0.124 S 
ATOM     94  O   UNL A   1      40.164  36.414  41.726  1.00  0.00    -0.237 OA
ATOM     95  O   UNL A   1      38.522  37.616  40.326  1.00  0.00    -0.237 OA
ATOM     96  O   UNL A   1      37.809  35.682  41.675  1.00  0.00    -0.744 OA
ENDBRANCH  92  93
ENDBRANCH  66  87
ENDBRANCH  40  41
ENDBRANCH  33  35
ENDBRANCH  32  33
ENDBRANCH  31  32
ENDBRANCH  30  31
ENDBRANCH  29  30
ENDBRANCH   1  29
TORSDOF 24
ENDMDL
MODEL 2
REMARK VINA RESULT:      -9.7      2.962      9.924
REMARK SMILES Cc1cc(F)cc(N[C@@](C)(C(=O)OCCOCCOCCOC(=O)c2ccc(-c3c4nc(c(-c5ccc(S(=O)(=O)[O-])cc5)c5ccc([nH]5)c(-c5ccc(S(=O)(=O)[O-])cc5)c5nc(c(-c6ccc(S(=O)(=O)[O-])cc6)c6ccc3[nH]6)C=C5)C=C4)cc2)c2ccc(O)cc2)c1
REMARK SMILES IDX 18 1 17 2 16 3 15 4 14 5 13 6 11 7 12 8 9 9 10 10 8 11 7 13
REMARK SMILES IDX 1 14 2 15 3 16 92 17 4 18 5 19 6 20 85 21 86 22 91 23 87 24
REMARK SMILES IDX 90 25 88 26 89 27 19 29 20 30 21 31 22 32 23 33 24 34 25 35
REMARK SMILES IDX 26 36 84 37 27 38 83 39 28 40 29 41 30 42 77 43 31 44 82 45
REMARK SMILES IDX 76 46 78 47 32 48 81 49 75 50 74 51 33 53 63 54 44 55 62 56
REMARK SMILES IDX 45 57 48 58 61 59 79 60 46 61 47 62 60 64 80 65 49 66 34 67
REMARK SMILES IDX 35 68 43 69 36 70 42 71 37 72 38 73 39 74 40 75 41 76 64 77
REMARK SMILES IDX 65 78 73 79 66 80 72 81 67 82 68 83 69 84 70 85 71 86 50 87
REMARK SMILES IDX 51 88 59 89 52 90 58 91 53 92 54 93 55 94 56 95 57 96
REMARK H PARENT 8 12 89 28 78 52 48 63
REMARK Flexibility Score: inf
ROOT
ATOM      1  C   UNL A   1      34.580  32.696  28.504  1.00  0.00     0.188 C 
ENDROOT
BRANCH   1   2
ATOM      2  C   UNL A   1      35.766  31.829  28.044  1.00  0.00     0.188 C 
BRANCH   2   3
ATOM      3  O   UNL A   1      35.914  30.504  28.555  1.00  0.00    -0.376 OA
BRANCH   3   4
ATOM      4  C   UNL A   1      35.570  29.402  27.730  1.00  0.00     0.202 C 
BRANCH   4   5
ATOM      5  C   UNL A   1      34.192  29.446  27.065  1.00  0.00     0.261 C 
BRANCH   5   6
ATOM      6  O   UNL A   1      33.686  28.153  26.677  1.00  0.00    -0.461 OA
BRANCH   6   7
ATOM      7  C   UNL A   1      32.354  28.102  26.381  1.00  0.00     0.336 C 
ATOM      8  O   UNL A   1      31.516  28.768  26.985  1.00  0.00    -0.249 OA
BRANCH   7   9
ATOM      9  C   UNL A   1      31.986  27.091  25.223  1.00  0.00     0.158 C 
ATOM     10  C   UNL A   1      31.532  25.842  26.023  1.00  0.00     0.053 C 
BRANCH   9  11
ATOM     11  N   UNL A   1      33.193  26.658  24.427  1.00  0.00    -0.366 N 
ATOM     12  H   UNL A   1      33.764  27.409  24.146  1.00  0.00     0.162 HD
BRANCH  11  13
ATOM     13  C   UNL A   1      33.668  25.424  24.010  1.00  0.00     0.038 A 
ATOM     14  C   UNL A   1      36.490  22.975  24.997  1.00  0.00     0.044 C 
ATOM     15  C   UNL A   1      35.286  23.567  24.324  1.00  0.00    -0.046 A 
ATOM     16  C   UNL A   1      34.659  22.833  23.322  1.00  0.00     0.042 A 
ATOM     17  C   UNL A   1      34.769  24.838  24.676  1.00  0.00     0.029 A 
ATOM     18  C   UNL A   1      33.590  23.394  22.655  1.00  0.00     0.125 A 
ATOM     19  F   UNL A   1      33.007  22.707  21.665  1.00  0.00    -0.207 F 
ATOM     20  C   UNL A   1      33.139  24.680  22.957  1.00  0.00     0.065 A 
ENDBRANCH  11  13
ENDBRANCH   9  11
BRANCH   9  21
ATOM     21  C   UNL A   1      30.826  27.630  24.364  1.00  0.00    -0.011 A 
ATOM     22  C   UNL A   1      30.873  28.940  23.837  1.00  0.00     0.010 A 
ATOM     23  C   UNL A   1      29.645  26.888  24.146  1.00  0.00     0.010 A 
ATOM     24  C   UNL A   1      29.754  29.512  23.224  1.00  0.00     0.046 A 
ATOM     25  C   UNL A   1      28.538  27.452  23.501  1.00  0.00     0.046 A 
ATOM     26  C   UNL A   1      28.591  28.772  23.077  1.00  0.00     0.115 A 
BRANCH  26  27
ATOM     27  O   UNL A   1      27.512  29.394  22.527  1.00  0.00    -0.508 OA
ATOM     28  H   UNL A   1      26.655  29.037  22.649  1.00  0.00     0.293 HD
ENDBRANCH  26  27
ENDBRANCH   9  21
ENDBRANCH   7   9
ENDBRANCH   6   7
ENDBRANCH   5   6
ENDBRANCH   4   5
ENDBRANCH   3   4
ENDBRANCH   2   3
ENDBRANCH   1   2
BRANCH   1  29
ATOM     29  O   UNL A   1      34.345  33.816  27.665  1.00  0.00    -0.376 OA
BRANCH  29  30
ATOM     30  C   UNL A   1      33.294  34.669  28.075  1.00  0.00     0.202 C 
BRANCH  30  31
ATOM     31  C   UNL A   1      33.562  35.326  29.432  1.00  0.00     0.261 C 
BRANCH  31  32
ATOM     32  O   UNL A   1      32.656  34.947  30.485  1.00  0.00    -0.460 OA
BRANCH  32  33
ATOM     33  C   UNL A   1      32.840  35.542  31.687  1.00  0.00     0.338 C 
ATOM     34  O   UNL A   1      32.129  36.387  32.194  1.00  0.00    -0.246 OA
BRANCH  33  35
ATOM     35  C   UNL A   1      33.965  34.861  32.367  1.00  0.00     0.060 A 
ATOM     36  C   UNL A   1      35.144  35.576  32.588  1.00  0.00     0.016 A 
ATOM     37  C   UNL A   1      33.872  33.527  32.762  1.00  0.00     0.016 A 
ATOM     38  C   UNL A   1      36.243  34.959  33.191  1.00  0.00     0.010 A 
ATOM     39  C   UNL A   1      34.985  32.900  33.339  1.00  0.00     0.010 A 
ATOM     40  C   UNL A   1      36.187  33.605  33.533  1.00  0.00    -0.014 A 
BRANCH  40  41
ATOM     41  C   UNL A   1      37.433  32.887  33.916  1.00  0.00     0.031 A 
ATOM     42  C   UNL A   1      37.977  33.089  35.306  1.00  0.00     0.074 A 
ATOM     43  C   UNL A   1      38.064  32.056  33.066  1.00  0.00     0.049 A 
ATOM     44  N   UNL A   1      39.108  32.684  35.823  1.00  0.00    -0.248 NA
ATOM     45  C   UNL A   1      37.130  33.858  36.232  1.00  0.00     0.031 C 
ATOM     46  C   UNL A   1      37.607  31.707  31.721  1.00  0.00     0.029 A 
ATOM     47  N   UNL A   1      39.241  31.363  33.212  1.00  0.00    -0.354 N 
ATOM     48  C   UNL A   1      39.126  33.180  37.123  1.00  0.00     0.074 A 
ATOM     49  C   UNL A   1      37.895  33.918  37.311  1.00  0.00     0.031 C 
ATOM     50  C   UNL A   1      38.506  30.880  31.158  1.00  0.00     0.029 A 
ATOM     51  C   UNL A   1      39.620  30.674  32.085  1.00  0.00     0.049 A 
ATOM     52  H   UNL A   1      39.765  31.360  34.045  1.00  0.00     0.167 HD
ATOM     53  C   UNL A   1      40.083  33.041  38.070  1.00  0.00     0.031 A 
ATOM     54  C   UNL A   1      40.750  29.986  31.817  1.00  0.00     0.031 A 
ATOM     55  C   UNL A   1      41.304  32.305  37.884  1.00  0.00     0.049 A 
ATOM     56  C   UNL A   1      41.834  29.898  32.862  1.00  0.00     0.074 A 
ATOM     57  C   UNL A   1      42.337  32.109  38.784  1.00  0.00     0.029 A 
ATOM     58  N   UNL A   1      41.658  31.641  36.719  1.00  0.00    -0.354 N 
ATOM     59  N   UNL A   1      41.851  30.393  34.077  1.00  0.00    -0.248 NA
ATOM     60  C   UNL A   1      43.054  29.161  32.497  1.00  0.00     0.031 C 
ATOM     61  C   UNL A   1      43.341  31.374  38.144  1.00  0.00     0.029 A 
ATOM     62  C   UNL A   1      42.905  31.058  36.867  1.00  0.00     0.049 A 
ATOM     63  H   UNL A   1      41.104  31.592  35.907  1.00  0.00     0.167 HD
ATOM     64  C   UNL A   1      43.073  30.012  34.626  1.00  0.00     0.074 A 
ATOM     65  C   UNL A   1      43.759  29.231  33.619  1.00  0.00     0.031 C 
ATOM     66  C   UNL A   1      43.580  30.285  35.855  1.00  0.00     0.031 A 
BRANCH  53  67
ATOM     67  C   UNL A   1      39.874  33.761  39.376  1.00  0.00    -0.014 A 
ATOM     68  C   UNL A   1      40.188  35.124  39.526  1.00  0.00     0.010 A 
ATOM     69  C   UNL A   1      39.337  33.058  40.470  1.00  0.00     0.010 A 
ATOM     70  C   UNL A   1      40.008  35.758  40.760  1.00  0.00     0.020 A 
ATOM     71  C   UNL A   1      39.129  33.695  41.696  1.00  0.00     0.020 A 
ATOM     72  C   UNL A   1      39.484  35.038  41.838  1.00  0.00     0.054 A 
BRANCH  72  73
ATOM     73  S   UNL A   1      39.254  35.885  43.425  1.00  0.00     0.124 S 
ATOM     74  O   UNL A   1      39.661  37.250  43.099  1.00  0.00    -0.237 OA
ATOM     75  O   UNL A   1      37.828  35.700  43.684  1.00  0.00    -0.237 OA
ATOM     76  O   UNL A   1      40.147  35.170  44.333  1.00  0.00    -0.744 OA
ENDBRANCH  72  73
ENDBRANCH  53  67
BRANCH  54  77
ATOM     77  C   UNL A   1      40.938  29.360  30.477  1.00  0.00    -0.014 A 
ATOM     78  C   UNL A   1      41.630  30.037  29.457  1.00  0.00     0.010 A 
ATOM     79  C   UNL A   1      40.423  28.077  30.218  1.00  0.00     0.010 A 
ATOM     80  C   UNL A   1      41.796  29.443  28.201  1.00  0.00     0.020 A 
ATOM     81  C   UNL A   1      40.612  27.469  28.974  1.00  0.00     0.020 A 
ATOM     82  C   UNL A   1      41.291  28.160  27.970  1.00  0.00     0.054 A 
BRANCH  82  83
ATOM     83  S   UNL A   1      41.576  27.381  26.356  1.00  0.00     0.124 S 
ATOM     84  O   UNL A   1      41.521  28.525  25.451  1.00  0.00    -0.237 OA
ATOM     85  O   UNL A   1      42.893  26.773  26.529  1.00  0.00    -0.237 OA
ATOM     86  O   UNL A   1      40.472  26.433  26.236  1.00  0.00    -0.744 OA
ENDBRANCH  82  83
ENDBRANCH  54  77
BRANCH  66  87
ATOM     87  C   UNL A   1      44.931  29.713  36.199  1.00  0.00    -0.014 A 
ATOM     88  C   UNL A   1      46.113  30.439  35.968  1.00  0.00     0.010 A 
ATOM     89  C   UNL A   1      45.013  28.455  36.826  1.00  0.00     0.010 A 
ATOM     90  C   UNL A   1      47.353  29.906  36.334  1.00  0.00     0.020 A 
ATOM     91  C   UNL A   1      46.248  27.931  37.217  1.00  0.00     0.020 A 
ATOM     92  C   UNL A   1      47.413  28.655  36.956  1.00  0.00     0.054 A 
BRANCH  92  93
ATOM     93  S   UNL A   1      49.030  28.006  37.463  1.00  0.00     0.124 S 
ATOM     94  O   UNL A   1      48.679  26.690  37.990  1.00  0.00    -0.237 OA
ATOM     95  O   UNL A   1      49.782  28.002  36.211  1.00  0.00    -0.237 OA
ATOM     96  O   UNL A   1      49.494  28.970  38.458  1.00  0.00    -0.744 OA
ENDBRANCH  92  93
ENDBRANCH  66  87
ENDBRANCH  40  41
ENDBRANCH  33  35
ENDBRANCH  32  33
ENDBRANCH  31  32
ENDBRANCH  30  31
ENDBRANCH  29  30
ENDBRANCH   1  29
TORSDOF 24
ENDMDL
MODEL 3
REMARK VINA RESULT:      -9.7      1.798      8.575
REMARK SMILES Cc1cc(F)cc(N[C@@](C)(C(=O)OCCOCCOCCOC(=O)c2ccc(-c3c4nc(c(-c5ccc(S(=O)(=O)[O-])cc5)c5ccc([nH]5)c(-c5ccc(S(=O)(=O)[O-])cc5)c5nc(c(-c6ccc(S(=O)(=O)[O-])cc6)c6ccc3[nH]6)C=C5)C=C4)cc2)c2ccc(O)cc2)c1
REMARK SMILES IDX 18 1 17 2 16 3 15 4 14 5 13 6 11 7 12 8 9 9 10 10 8 11 7 13
REMARK SMILES IDX 1 14 2 15 3 16 92 17 4 18 5 19 6 20 85 21 86 22 91 23 87 24
REMARK SMILES IDX 90 25 88 26 89 27 19 29 20 30 21 31 22 32 23 33 24 34 25 35
REMARK SMILES IDX 26 36 84 37 27 38 83 39 28 40 29 41 30 42 77 43 31 44 82 45
REMARK SMILES IDX 76 46 78 47 32 48 81 49 75 50 74 51 33 53 63 54 44 55 62 56
REMARK SMILES IDX 45 57 48 58 61 59 79 60 46 61 47 62 60 64 80 65 49 66 34 67
REMARK SMILES IDX 35 68 43 69 36 70 42 71 37 72 38 73 39 74 40 75 41 76 64 77
REMARK SMILES IDX 65 78 73 79 66 80 72 81 67 82 68 83 69 84 70 85 71 86 50 87
REMARK SMILES IDX 51 88 59 89 52 90 58 91 53 92 54 93 55 94 56 95 57 96
REMARK H PARENT 8 12 89 28 78 52 48 63
REMARK Flexibility Score: inf
ROOT
ATOM      1  C   UNL A   1      41.017  19.861  26.834  1.00  0.00     0.188 C 
ENDROOT
BRANCH   1   2
ATOM      2  C   UNL A   1      40.039  20.033  25.658  1.00  0.00     0.188 C 
BRANCH   2   3
ATOM      3  O   UNL A   1      38.812  20.737  25.856  1.00  0.00    -0.376 OA
BRANCH   3   4
ATOM      4  C   UNL A   1      37.700  20.431  25.030  1.00  0.00     0.202 C 
BRANCH   4   5
ATOM      5  C   UNL A   1      36.909  21.619  24.475  1.00  0.00     0.261 C 
BRANCH   5   6
ATOM      6  O   UNL A   1      35.805  22.029  25.308  1.00  0.00    -0.461 OA
BRANCH   6   7
ATOM      7  C   UNL A   1      34.587  22.081  24.694  1.00  0.00     0.336 C 
ATOM      8  O   UNL A   1      34.462  22.265  23.485  1.00  0.00    -0.249 OA
BRANCH   7   9
ATOM      9  C   UNL A   1      33.359  21.917  25.676  1.00  0.00     0.158 C 
ATOM     10  C   UNL A   1      34.048  21.992  27.063  1.00  0.00     0.053 C 
BRANCH   9  11
ATOM     11  N   UNL A   1      32.734  20.545  25.597  1.00  0.00    -0.366 N 
ATOM     12  H   UNL A   1      32.032  20.397  26.272  1.00  0.00     0.162 HD
BRANCH  11  13
ATOM     13  C   UNL A   1      32.941  19.449  24.773  1.00  0.00     0.038 A 
ATOM     14  C   UNL A   1      34.769  16.049  24.958  1.00  0.00     0.044 C 
ATOM     15  C   UNL A   1      33.920  17.188  24.472  1.00  0.00    -0.046 A 
ATOM     16  C   UNL A   1      33.333  17.086  23.214  1.00  0.00     0.042 A 
ATOM     17  C   UNL A   1      33.695  18.352  25.247  1.00  0.00     0.029 A 
ATOM     18  C   UNL A   1      32.602  18.152  22.732  1.00  0.00     0.125 A 
ATOM     19  F   UNL A   1      32.066  18.074  21.508  1.00  0.00    -0.207 F 
ATOM     20  C   UNL A   1      32.454  19.326  23.473  1.00  0.00     0.065 A 
ENDBRANCH  11  13
ENDBRANCH   9  11
BRANCH   9  21
ATOM     21  C   UNL A   1      32.357  23.075  25.509  1.00  0.00    -0.011 A 
ATOM     22  C   UNL A   1      31.641  23.571  26.623  1.00  0.00     0.010 A 
ATOM     23  C   UNL A   1      32.044  23.621  24.245  1.00  0.00     0.010 A 
ATOM     24  C   UNL A   1      30.593  24.481  26.460  1.00  0.00     0.046 A 
ATOM     25  C   UNL A   1      31.017  24.560  24.091  1.00  0.00     0.046 A 
ATOM     26  C   UNL A   1      30.278  24.955  25.196  1.00  0.00     0.115 A 
BRANCH  26  27
ATOM     27  O   UNL A   1      29.212  25.794  25.084  1.00  0.00    -0.508 OA
ATOM     28  H   UNL A   1      28.341  25.455  25.146  1.00  0.00     0.293 HD
ENDBRANCH  26  27
ENDBRANCH   9  21
ENDBRANCH   7   9
ENDBRANCH   6   7
ENDBRANCH   5   6
ENDBRANCH   4   5
ENDBRANCH   3   4
ENDBRANCH   2   3
ENDBRANCH   1   2
BRANCH   1  29
ATOM     29  O   UNL A   1      41.817  21.009  27.072  1.00  0.00    -0.376 OA
BRANCH  29  30
ATOM     30  C   UNL A   1      41.468  21.762  28.217  1.00  0.00     0.202 C 
BRANCH  30  31
ATOM     31  C   UNL A   1      42.410  22.945  28.456  1.00  0.00     0.261 C 
BRANCH  31  32
ATOM     32  O   UNL A   1      42.460  23.912  27.391  1.00  0.00    -0.460 OA
BRANCH  32  33
ATOM     33  C   UNL A   1      41.277  24.431  26.987  1.00  0.00     0.338 C 
ATOM     34  O   UNL A   1      40.514  23.951  26.172  1.00  0.00    -0.246 OA
BRANCH  33  35
ATOM     35  C   UNL A   1      40.977  25.604  27.840  1.00  0.00     0.060 A 
ATOM     36  C   UNL A   1      41.893  26.658  27.873  1.00  0.00     0.016 A 
ATOM     37  C   UNL A   1      39.821  25.658  28.618  1.00  0.00     0.016 A 
ATOM     38  C   UNL A   1      41.667  27.766  28.695  1.00  0.00     0.010 A 
ATOM     39  C   UNL A   1      39.610  26.755  29.465  1.00  0.00     0.010 A 
ATOM     40  C   UNL A   1      40.546  27.804  29.528  1.00  0.00    -0.014 A 
BRANCH  40  41
ATOM     41  C   UNL A   1      40.451  28.840  30.591  1.00  0.00     0.031 A 
ATOM     42  C   UNL A   1      41.375  28.737  31.776  1.00  0.00     0.074 A 
ATOM     43  C   UNL A   1      39.583  29.866  30.509  1.00  0.00     0.049 A 
ATOM     44  N   UNL A   1      41.390  29.434  32.883  1.00  0.00    -0.248 NA
ATOM     45  C   UNL A   1      42.419  27.703  31.700  1.00  0.00     0.031 C 
ATOM     46  C   UNL A   1      38.686  30.133  29.385  1.00  0.00     0.029 A 
ATOM     47  N   UNL A   1      39.308  30.871  31.405  1.00  0.00    -0.354 N 
ATOM     48  C   UNL A   1      42.419  28.899  33.651  1.00  0.00     0.074 A 
ATOM     49  C   UNL A   1      43.001  27.817  32.884  1.00  0.00     0.031 C 
ATOM     50  C   UNL A   1      37.945  31.219  29.669  1.00  0.00     0.029 A 
ATOM     51  C   UNL A   1      38.286  31.700  31.009  1.00  0.00     0.049 A 
ATOM     52  H   UNL A   1      39.797  30.986  32.252  1.00  0.00     0.167 HD
ATOM     53  C   UNL A   1      42.837  29.266  34.885  1.00  0.00     0.031 A 
ATOM     54  C   UNL A   1      37.672  32.707  31.664  1.00  0.00     0.031 A 
ATOM     55  C   UNL A   1      42.260  30.343  35.645  1.00  0.00     0.049 A 
ATOM     56  C   UNL A   1      38.107  33.060  33.065  1.00  0.00     0.074 A 
ATOM     57  C   UNL A   1      42.613  30.791  36.907  1.00  0.00     0.029 A 
ATOM     58  N   UNL A   1      41.212  31.143  35.216  1.00  0.00    -0.354 N 
ATOM     59  N   UNL A   1      39.063  32.530  33.791  1.00  0.00    -0.248 NA
ATOM     60  C   UNL A   1      37.376  34.146  33.736  1.00  0.00     0.031 C 
ATOM     61  C   UNL A   1      41.740  31.825  37.263  1.00  0.00     0.029 A 
ATOM     62  C   UNL A   1      40.887  32.063  36.197  1.00  0.00     0.049 A 
ATOM     63  H   UNL A   1      40.766  31.067  34.342  1.00  0.00     0.167 HD
ATOM     64  C   UNL A   1      39.059  33.228  34.995  1.00  0.00     0.074 A 
ATOM     65  C   UNL A   1      38.020  34.231  34.894  1.00  0.00     0.031 C 
ATOM     66  C   UNL A   1      39.846  33.056  36.086  1.00  0.00     0.031 A 
BRANCH  53  67
ATOM     67  C   UNL A   1      43.931  28.449  35.519  1.00  0.00    -0.014 A 
ATOM     68  C   UNL A   1      43.646  27.317  36.303  1.00  0.00     0.010 A 
ATOM     69  C   UNL A   1      45.272  28.817  35.308  1.00  0.00     0.010 A 
ATOM     70  C   UNL A   1      44.684  26.594  36.900  1.00  0.00     0.020 A 
ATOM     71  C   UNL A   1      46.313  28.080  35.880  1.00  0.00     0.020 A 
ATOM     72  C   UNL A   1      46.010  26.984  36.689  1.00  0.00     0.054 A 
BRANCH  72  73
ATOM     73  S   UNL A   1      47.337  26.024  37.470  1.00  0.00     0.124 S 
ATOM     74  O   UNL A   1      46.601  24.897  38.035  1.00  0.00    -0.237 OA
ATOM     75  O   UNL A   1      48.208  25.703  36.341  1.00  0.00    -0.237 OA
ATOM     76  O   UNL A   1      47.905  26.950  38.447  1.00  0.00    -0.744 OA
ENDBRANCH  72  73
ENDBRANCH  53  67
BRANCH  54  77
ATOM     77  C   UNL A   1      36.540  33.430  31.019  1.00  0.00    -0.014 A 
ATOM     78  C   UNL A   1      36.728  34.138  29.818  1.00  0.00     0.010 A 
ATOM     79  C   UNL A   1      35.262  33.411  31.607  1.00  0.00     0.010 A 
ATOM     80  C   UNL A   1      35.660  34.819  29.223  1.00  0.00     0.020 A 
ATOM     81  C   UNL A   1      34.186  34.065  31.000  1.00  0.00     0.020 A 
ATOM     82  C   UNL A   1      34.395  34.773  29.815  1.00  0.00     0.054 A 
BRANCH  82  83
ATOM     83  S   UNL A   1      33.008  35.606  28.992  1.00  0.00     0.124 S 
ATOM     84  O   UNL A   1      32.397  34.512  28.243  1.00  0.00    -0.237 OA
ATOM     85  O   UNL A   1      32.232  36.114  30.120  1.00  0.00    -0.237 OA
ATOM     86  O   UNL A   1      33.661  36.633  28.183  1.00  0.00    -0.744 OA
ENDBRANCH  82  83
ENDBRANCH  54  77
BRANCH  66  87
ATOM     87  C   UNL A   1      39.643  33.986  37.254  1.00  0.00    -0.014 A 
ATOM     88  C   UNL A   1      39.135  33.521  38.480  1.00  0.00     0.010 A 
ATOM     89  C   UNL A   1      40.028  35.335  37.142  1.00  0.00     0.010 A 
ATOM     90  C   UNL A   1      38.994  34.394  39.563  1.00  0.00     0.020 A 
ATOM     91  C   UNL A   1      39.913  36.204  38.230  1.00  0.00     0.020 A 
ATOM     92  C   UNL A   1      39.383  35.730  39.432  1.00  0.00     0.054 A 
BRANCH  92  93
ATOM     93  S   UNL A   1      39.233  36.831  40.866  1.00  0.00     0.124 S 
ATOM     94  O   UNL A   1      40.605  36.874  41.363  1.00  0.00    -0.237 OA
ATOM     95  O   UNL A   1      38.740  38.070  40.270  1.00  0.00    -0.237 OA
ATOM     96  O   UNL A   1      38.278  36.142  41.733  1.00  0.00    -0.744 OA
ENDBRANCH  92  93
ENDBRANCH  66  87
ENDBRANCH  40  41
ENDBRANCH  33  35
ENDBRANCH  32  33
ENDBRANCH  31  32
ENDBRANCH  30  31
ENDBRANCH  29  30
ENDBRANCH   1  29
TORSDOF 24
ENDMDL
