MODEL 1
REMARK VINA RESULT:      -8.9      0.000      0.000
REMARK SMILES Cc1ccc(S(C)(=O)=O)cc1C(=O)NCCOCC(=O)OCCOCCOCCOC(=O)c1ccc(-c2c3nc(c(-c4ccc(S(=O)(=O)[O-])cc4)c4ccc([nH]4)c(-c4ccc(S(=O)(=O)[O-])cc4)c4nc(c(-c5ccc(S(=O)(=O)[O-])cc5)c5ccc2[nH]5)C=C4)C=C3)cc1
REMARK SMILES IDX 24 1 23 2 22 3 21 4 19 5 20 6 18 7 17 8 16 9 15 10 14 11
REMARK SMILES IDX 12 12 13 13 11 15 1 16 2 17 3 18 4 19 10 20 5 21 6 22 7 23
REMARK SMILES IDX 8 24 9 25 25 26 26 27 27 28 28 29 29 30 30 31 31 32 32 33
REMARK SMILES IDX 33 34 34 35 92 36 35 37 91 38 36 39 37 40 38 41 85 42 39 43
REMARK SMILES IDX 90 44 84 45 86 46 40 47 89 48 83 49 82 50 41 52 71 53 52 54
REMARK SMILES IDX 70 55 53 56 56 57 69 58 87 59 54 60 55 61 68 63 88 64 57 65
REMARK SMILES IDX 42 66 43 67 51 68 44 69 50 70 45 71 46 72 47 73 48 74 49 75
REMARK SMILES IDX 72 76 73 77 81 78 74 79 80 80 75 81 76 82 77 83 78 84 79 85
REMARK SMILES IDX 58 86 59 87 67 88 60 89 66 90 61 91 62 92 63 93 64 94 65 95
REMARK H PARENT 14 14 86 51 56 62
REMARK Flexibility Score: inf
ROOT
ATOM      1  O   UNL A   1      44.887  23.751  26.883  1.00  0.00    -0.376 OA
ENDROOT
BRANCH   1   2
ATOM      2  C   UNL A   1      44.891  22.465  26.290  1.00  0.00     0.202 C 
BRANCH   2   3
ATOM      3  C   UNL A   1      43.780  22.253  25.290  1.00  0.00     0.261 C 
BRANCH   3   4
ATOM      4  O   UNL A   1      42.983  20.987  25.077  1.00  0.00    -0.462 OA
BRANCH   4   5
ATOM      5  C   UNL A   1      42.155  20.208  25.817  1.00  0.00     0.332 C 
ATOM      6  O   UNL A   1      42.154  18.995  25.809  1.00  0.00    -0.250 OA
BRANCH   5   7
ATOM      7  C   UNL A   1      40.982  20.963  26.529  1.00  0.00     0.282 C 
BRANCH   7   8
ATOM      8  O   UNL A   1      40.119  21.907  25.917  1.00  0.00    -0.368 OA
BRANCH   8   9
ATOM      9  C   UNL A   1      38.740  21.594  26.060  1.00  0.00     0.182 C 
BRANCH   9  10
ATOM     10  C   UNL A   1      37.799  22.715  25.606  1.00  0.00     0.144 C 
BRANCH  10  11
ATOM     11  N   UNL A   1      36.588  22.812  26.388  1.00  0.00    -0.350 N 
ATOM     12  C   UNL A   1      35.348  23.373  26.302  1.00  0.00     0.251 C 
ATOM     13  O   UNL A   1      34.631  23.036  27.258  1.00  0.00    -0.269 OA
ATOM     14  H   UNL A   1      36.689  22.328  27.239  1.00  0.00     0.163 HD
BRANCH  12  15
ATOM     15  C   UNL A   1      34.735  24.259  25.235  1.00  0.00     0.044 A 
ATOM     16  C   UNL A   1      35.146  23.005  22.986  1.00  0.00     0.045 C 
ATOM     17  C   UNL A   1      34.627  24.120  23.830  1.00  0.00    -0.038 A 
ATOM     18  C   UNL A   1      34.022  25.150  23.062  1.00  0.00     0.005 A 
ATOM     19  C   UNL A   1      33.561  26.325  23.633  1.00  0.00     0.020 A 
ATOM     20  C   UNL A   1      34.243  25.477  25.786  1.00  0.00     0.034 A 
ATOM     21  C   UNL A   1      33.695  26.496  24.999  1.00  0.00     0.067 A 
BRANCH  21  22
ATOM     22  S   UNL A   1      33.120  28.008  25.724  1.00  0.00     0.175 S 
ATOM     23  C   UNL A   1      31.395  27.791  26.041  1.00  0.00     0.163 C 
ATOM     24  O   UNL A   1      33.795  28.113  27.006  1.00  0.00    -0.224 OA
ATOM     25  O   UNL A   1      33.276  29.077  24.748  1.00  0.00    -0.224 OA
ENDBRANCH  21  22
ENDBRANCH  12  15
ENDBRANCH  10  11
ENDBRANCH   9  10
ENDBRANCH   8   9
ENDBRANCH   7   8
ENDBRANCH   5   7
ENDBRANCH   4   5
ENDBRANCH   3   4
ENDBRANCH   2   3
ENDBRANCH   1   2
BRANCH   1  26
ATOM     26  C   UNL A   1      44.473  23.683  28.236  1.00  0.00     0.188 C 
BRANCH  26  27
ATOM     27  C   UNL A   1      43.263  24.544  28.520  1.00  0.00     0.188 C 
BRANCH  27  28
ATOM     28  O   UNL A   1      42.048  23.983  28.072  1.00  0.00    -0.376 OA
BRANCH  28  29
ATOM     29  C   UNL A   1      40.957  24.898  27.979  1.00  0.00     0.202 C 
BRANCH  29  30
ATOM     30  C   UNL A   1      41.054  25.470  26.574  1.00  0.00     0.261 C 
BRANCH  30  31
ATOM     31  O   UNL A   1      40.766  26.892  26.630  1.00  0.00    -0.460 OA
BRANCH  31  32
ATOM     32  C   UNL A   1      41.798  27.677  27.062  1.00  0.00     0.338 C 
ATOM     33  O   UNL A   1      42.982  27.452  26.863  1.00  0.00    -0.246 OA
BRANCH  32  34
ATOM     34  C   UNL A   1      41.281  28.755  27.975  1.00  0.00     0.060 A 
ATOM     35  C   UNL A   1      42.176  29.697  28.492  1.00  0.00     0.016 A 
ATOM     36  C   UNL A   1      39.985  28.711  28.502  1.00  0.00     0.016 A 
ATOM     37  C   UNL A   1      41.831  30.438  29.636  1.00  0.00     0.010 A 
ATOM     38  C   UNL A   1      39.682  29.395  29.691  1.00  0.00     0.010 A 
ATOM     39  C   UNL A   1      40.664  30.140  30.359  1.00  0.00    -0.014 A 
BRANCH  39  40
ATOM     40  C   UNL A   1      40.375  30.650  31.748  1.00  0.00     0.031 A 
ATOM     41  C   UNL A   1      39.743  31.981  31.731  1.00  0.00     0.074 A 
ATOM     42  C   UNL A   1      40.668  30.157  33.008  1.00  0.00     0.049 A 
ATOM     43  N   UNL A   1      39.880  32.878  32.652  1.00  0.00    -0.248 NA
ATOM     44  C   UNL A   1      39.064  32.472  30.520  1.00  0.00     0.031 C 
ATOM     45  C   UNL A   1      39.717  30.172  34.122  1.00  0.00     0.029 A 
ATOM     46  N   UNL A   1      41.717  29.411  33.577  1.00  0.00    -0.354 N 
ATOM     47  C   UNL A   1      38.901  33.791  32.348  1.00  0.00     0.074 A 
ATOM     48  C   UNL A   1      38.747  33.701  30.919  1.00  0.00     0.031 C 
ATOM     49  C   UNL A   1      40.226  29.520  35.191  1.00  0.00     0.029 A 
ATOM     50  C   UNL A   1      41.594  29.075  34.923  1.00  0.00     0.049 A 
ATOM     51  H   UNL A   1      42.500  29.139  33.048  1.00  0.00     0.167 HD
ATOM     52  C   UNL A   1      37.992  34.127  33.312  1.00  0.00     0.031 A 
ATOM     53  C   UNL A   1      42.654  29.025  35.803  1.00  0.00     0.031 A 
ATOM     54  C   UNL A   1      38.380  33.631  34.642  1.00  0.00     0.049 A 
ATOM     55  C   UNL A   1      42.674  30.329  36.567  1.00  0.00     0.074 A 
ATOM     56  C   UNL A   1      37.835  32.697  35.511  1.00  0.00     0.029 A 
ATOM     57  N   UNL A   1      39.657  33.903  35.137  1.00  0.00    -0.354 N 
ATOM     58  N   UNL A   1      41.806  31.265  36.308  1.00  0.00    -0.248 NA
ATOM     59  C   UNL A   1      43.600  30.731  37.623  1.00  0.00     0.031 C 
ATOM     60  C   UNL A   1      38.784  32.415  36.528  1.00  0.00     0.029 A 
ATOM     61  C   UNL A   1      39.911  33.175  36.284  1.00  0.00     0.049 A 
ATOM     62  H   UNL A   1      40.292  34.530  34.723  1.00  0.00     0.167 HD
ATOM     63  C   UNL A   1      41.988  32.332  37.128  1.00  0.00     0.074 A 
ATOM     64  C   UNL A   1      43.144  31.967  37.927  1.00  0.00     0.031 C 
ATOM     65  C   UNL A   1      41.137  33.394  37.050  1.00  0.00     0.031 A 
BRANCH  52  66
ATOM     66  C   UNL A   1      36.574  34.512  32.906  1.00  0.00    -0.014 A 
ATOM     67  C   UNL A   1      36.104  34.250  31.606  1.00  0.00     0.010 A 
ATOM     68  C   UNL A   1      35.675  35.203  33.747  1.00  0.00     0.010 A 
ATOM     69  C   UNL A   1      34.865  34.726  31.147  1.00  0.00     0.020 A 
ATOM     70  C   UNL A   1      34.461  35.735  33.293  1.00  0.00     0.020 A 
ATOM     71  C   UNL A   1      34.058  35.483  31.991  1.00  0.00     0.054 A 
BRANCH  71  72
ATOM     72  S   UNL A   1      32.457  36.079  31.395  1.00  0.00     0.124 S 
ATOM     73  O   UNL A   1      31.600  35.918  32.566  1.00  0.00    -0.237 OA
ATOM     74  O   UNL A   1      32.765  37.456  31.022  1.00  0.00    -0.237 OA
ATOM     75  O   UNL A   1      32.149  35.186  30.279  1.00  0.00    -0.744 OA
ENDBRANCH  71  72
ENDBRANCH  52  66
BRANCH  53  76
ATOM     76  C   UNL A   1      43.821  28.071  35.596  1.00  0.00    -0.014 A 
ATOM     77  C   UNL A   1      43.521  26.696  35.414  1.00  0.00     0.010 A 
ATOM     78  C   UNL A   1      45.166  28.424  35.378  1.00  0.00     0.010 A 
ATOM     79  C   UNL A   1      44.446  25.773  34.866  1.00  0.00     0.020 A 
ATOM     80  C   UNL A   1      46.103  27.502  34.804  1.00  0.00     0.020 A 
ATOM     81  C   UNL A   1      45.726  26.187  34.516  1.00  0.00     0.054 A 
BRANCH  81  82
ATOM     82  S   UNL A   1      46.779  25.041  33.539  1.00  0.00     0.124 S 
ATOM     83  O   UNL A   1      46.513  25.439  32.162  1.00  0.00    -0.237 OA
ATOM     84  O   UNL A   1      48.141  25.322  33.987  1.00  0.00    -0.237 OA
ATOM     85  O   UNL A   1      46.288  23.712  33.900  1.00  0.00    -0.744 OA
ENDBRANCH  81  82
ENDBRANCH  53  76
BRANCH  65  86
ATOM     86  C   UNL A   1      41.267  34.711  37.758  1.00  0.00    -0.014 A 
ATOM     87  C   UNL A   1      40.434  35.147  38.793  1.00  0.00     0.010 A 
ATOM     88  C   UNL A   1      42.395  35.515  37.445  1.00  0.00     0.010 A 
ATOM     89  C   UNL A   1      40.699  36.352  39.461  1.00  0.00     0.020 A 
ATOM     90  C   UNL A   1      42.692  36.684  38.131  1.00  0.00     0.020 A 
ATOM     91  C   UNL A   1      41.825  37.110  39.125  1.00  0.00     0.054 A 
BRANCH  91  92
ATOM     92  S   UNL A   1      42.191  38.631  40.027  1.00  0.00     0.124 S 
ATOM     93  O   UNL A   1      43.278  39.195  39.231  1.00  0.00    -0.237 OA
ATOM     94  O   UNL A   1      40.925  39.356  39.967  1.00  0.00    -0.237 OA
ATOM     95  O   UNL A   1      42.569  38.160  41.357  1.00  0.00    -0.744 OA
ENDBRANCH  91  92
ENDBRANCH  65  86
ENDBRANCH  39  40
ENDBRANCH  32  34
ENDBRANCH  31  32
ENDBRANCH  30  31
ENDBRANCH  29  30
ENDBRANCH  28  29
ENDBRANCH  27  28
ENDBRANCH  26  27
ENDBRANCH   1  26
TORSDOF 26
ENDMDL
MODEL 2
REMARK VINA RESULT:      -8.6      7.032     12.625
REMARK SMILES Cc1ccc(S(C)(=O)=O)cc1C(=O)NCCOCC(=O)OCCOCCOCCOC(=O)c1ccc(-c2c3nc(c(-c4ccc(S(=O)(=O)[O-])cc4)c4ccc([nH]4)c(-c4ccc(S(=O)(=O)[O-])cc4)c4nc(c(-c5ccc(S(=O)(=O)[O-])cc5)c5ccc2[nH]5)C=C4)C=C3)cc1
REMARK SMILES IDX 24 1 23 2 22 3 21 4 19 5 20 6 18 7 17 8 16 9 15 10 14 11
REMARK SMILES IDX 12 12 13 13 11 15 1 16 2 17 3 18 4 19 10 20 5 21 6 22 7 23
REMARK SMILES IDX 8 24 9 25 25 26 26 27 27 28 28 29 29 30 30 31 31 32 32 33
REMARK SMILES IDX 33 34 34 35 92 36 35 37 91 38 36 39 37 40 38 41 85 42 39 43
REMARK SMILES IDX 90 44 84 45 86 46 40 47 89 48 83 49 82 50 41 52 71 53 52 54
REMARK SMILES IDX 70 55 53 56 56 57 69 58 87 59 54 60 55 61 68 63 88 64 57 65
REMARK SMILES IDX 42 66 43 67 51 68 44 69 50 70 45 71 46 72 47 73 48 74 49 75
REMARK SMILES IDX 72 76 73 77 81 78 74 79 80 80 75 81 76 82 77 83 78 84 79 85
REMARK SMILES IDX 58 86 59 87 67 88 60 89 66 90 61 91 62 92 63 93 64 94 65 95
REMARK H PARENT 14 14 86 51 56 62
REMARK Flexibility Score: inf
ROOT
ATOM      1  O   UNL A   1      37.117  31.851  31.696  1.00  0.00    -0.376 OA
ENDROOT
BRANCH   1   2
ATOM      2  C   UNL A   1      36.157  32.716  31.115  1.00  0.00     0.202 C 
BRANCH   2   3
ATOM      3  C   UNL A   1      36.534  33.203  29.736  1.00  0.00     0.261 C 
BRANCH   3   4
ATOM      4  O   UNL A   1      35.590  33.668  28.652  1.00  0.00    -0.462 OA
BRANCH   4   5
ATOM      5  C   UNL A   1      34.286  33.481  28.333  1.00  0.00     0.332 C 
ATOM      6  O   UNL A   1      33.368  34.164  28.735  1.00  0.00    -0.250 OA
BRANCH   5   7
ATOM      7  C   UNL A   1      33.964  32.141  27.586  1.00  0.00     0.282 C 
BRANCH   7   8
ATOM      8  O   UNL A   1      34.012  30.847  28.162  1.00  0.00    -0.368 OA
BRANCH   8   9
ATOM      9  C   UNL A   1      33.680  29.807  27.252  1.00  0.00     0.182 C 
BRANCH   9  10
ATOM     10  C   UNL A   1      32.647  30.214  26.195  1.00  0.00     0.144 C 
BRANCH  10  11
ATOM     11  N   UNL A   1      33.004  29.825  24.851  1.00  0.00    -0.350 N 
ATOM     12  C   UNL A   1      32.635  28.908  23.911  1.00  0.00     0.251 C 
ATOM     13  O   UNL A   1      33.228  29.096  22.837  1.00  0.00    -0.269 OA
ATOM     14  H   UNL A   1      33.733  30.391  24.511  1.00  0.00     0.163 HD
BRANCH  12  15
ATOM     15  C   UNL A   1      31.618  27.784  23.971  1.00  0.00     0.044 A 
ATOM     16  C   UNL A   1      29.527  28.687  22.702  1.00  0.00     0.045 C 
ATOM     17  C   UNL A   1      30.304  27.663  23.459  1.00  0.00    -0.038 A 
ATOM     18  C   UNL A   1      29.555  26.482  23.707  1.00  0.00     0.005 A 
ATOM     19  C   UNL A   1      30.047  25.441  24.477  1.00  0.00     0.020 A 
ATOM     20  C   UNL A   1      32.092  26.692  24.752  1.00  0.00     0.034 A 
ATOM     21  C   UNL A   1      31.314  25.561  25.020  1.00  0.00     0.067 A 
BRANCH  21  22
ATOM     22  S   UNL A   1      31.934  24.235  26.021  1.00  0.00     0.175 S 
ATOM     23  C   UNL A   1      31.437  22.734  25.231  1.00  0.00     0.163 C 
ATOM     24  O   UNL A   1      33.381  24.320  25.936  1.00  0.00    -0.224 OA
ATOM     25  O   UNL A   1      31.292  24.301  27.326  1.00  0.00    -0.224 OA
ENDBRANCH  21  22
ENDBRANCH  12  15
ENDBRANCH  10  11
ENDBRANCH   9  10
ENDBRANCH   8   9
ENDBRANCH   7   8
ENDBRANCH   5   7
ENDBRANCH   4   5
ENDBRANCH   3   4
ENDBRANCH   2   3
ENDBRANCH   1   2
BRANCH   1  26
ATOM     26  C   UNL A   1      37.180  32.037  33.099  1.00  0.00     0.188 C 
BRANCH  26  27
ATOM     27  C   UNL A   1      38.173  33.104  33.503  1.00  0.00     0.188 C 
BRANCH  27  28
ATOM     28  O   UNL A   1      37.642  34.070  34.383  1.00  0.00    -0.376 OA
BRANCH  28  29
ATOM     29  C   UNL A   1      37.646  33.700  35.761  1.00  0.00     0.202 C 
BRANCH  29  30
ATOM     30  C   UNL A   1      38.890  34.361  36.333  1.00  0.00     0.261 C 
BRANCH  30  31
ATOM     31  O   UNL A   1      39.292  35.440  35.447  1.00  0.00    -0.460 OA
BRANCH  31  32
ATOM     32  C   UNL A   1      40.474  36.046  35.768  1.00  0.00     0.338 C 
ATOM     33  O   UNL A   1      40.622  36.867  36.660  1.00  0.00    -0.246 OA
BRANCH  32  34
ATOM     34  C   UNL A   1      41.526  35.700  34.749  1.00  0.00     0.060 A 
ATOM     35  C   UNL A   1      42.743  36.388  34.767  1.00  0.00     0.016 A 
ATOM     36  C   UNL A   1      41.241  34.880  33.651  1.00  0.00     0.016 A 
ATOM     37  C   UNL A   1      43.560  36.397  33.622  1.00  0.00     0.010 A 
ATOM     38  C   UNL A   1      42.023  34.963  32.487  1.00  0.00     0.010 A 
ATOM     39  C   UNL A   1      43.103  35.854  32.410  1.00  0.00    -0.014 A 
BRANCH  39  40
ATOM     40  C   UNL A   1      43.758  36.094  31.074  1.00  0.00     0.031 A 
ATOM     41  C   UNL A   1      44.583  34.950  30.646  1.00  0.00     0.074 A 
ATOM     42  C   UNL A   1      43.805  37.196  30.236  1.00  0.00     0.049 A 
ATOM     43  N   UNL A   1      45.643  35.037  29.911  1.00  0.00    -0.248 NA
ATOM     44  C   UNL A   1      44.367  33.613  31.224  1.00  0.00     0.031 C 
ATOM     45  C   UNL A   1      43.661  37.110  28.781  1.00  0.00     0.029 A 
ATOM     46  N   UNL A   1      43.812  38.592  30.412  1.00  0.00    -0.354 N 
ATOM     47  C   UNL A   1      45.878  33.733  29.548  1.00  0.00     0.074 A 
ATOM     48  C   UNL A   1      45.360  32.949  30.639  1.00  0.00     0.031 C 
ATOM     49  C   UNL A   1      43.625  38.346  28.234  1.00  0.00     0.029 A 
ATOM     50  C   UNL A   1      43.819  39.372  29.258  1.00  0.00     0.049 A 
ATOM     51  H   UNL A   1      43.812  38.998  31.308  1.00  0.00     0.167 HD
ATOM     52  C   UNL A   1      45.987  33.429  28.220  1.00  0.00     0.031 A 
ATOM     53  C   UNL A   1      44.501  40.565  29.141  1.00  0.00     0.031 A 
ATOM     54  C   UNL A   1      46.093  34.632  27.379  1.00  0.00     0.049 A 
ATOM     55  C   UNL A   1      45.811  40.275  28.443  1.00  0.00     0.074 A 
ATOM     56  C   UNL A   1      45.274  35.202  26.415  1.00  0.00     0.029 A 
ATOM     57  N   UNL A   1      47.048  35.605  27.681  1.00  0.00    -0.354 N 
ATOM     58  N   UNL A   1      46.128  39.058  28.104  1.00  0.00    -0.248 NA
ATOM     59  C   UNL A   1      46.857  41.226  28.076  1.00  0.00     0.031 C 
ATOM     60  C   UNL A   1      45.743  36.512  26.136  1.00  0.00     0.029 A 
ATOM     61  C   UNL A   1      46.850  36.747  26.929  1.00  0.00     0.049 A 
ATOM     62  H   UNL A   1      47.769  35.492  28.341  1.00  0.00     0.167 HD
ATOM     63  C   UNL A   1      47.327  39.032  27.468  1.00  0.00     0.074 A 
ATOM     64  C   UNL A   1      47.766  40.415  27.491  1.00  0.00     0.031 C 
ATOM     65  C   UNL A   1      47.806  37.852  26.982  1.00  0.00     0.031 A 
BRANCH  52  66
ATOM     66  C   UNL A   1      45.543  32.057  27.724  1.00  0.00    -0.014 A 
ATOM     67  C   UNL A   1      44.252  31.866  27.202  1.00  0.00     0.010 A 
ATOM     68  C   UNL A   1      46.339  30.894  27.812  1.00  0.00     0.010 A 
ATOM     69  C   UNL A   1      43.754  30.593  26.881  1.00  0.00     0.020 A 
ATOM     70  C   UNL A   1      45.844  29.611  27.551  1.00  0.00     0.020 A 
ATOM     71  C   UNL A   1      44.550  29.468  27.076  1.00  0.00     0.054 A 
BRANCH  71  72
ATOM     72  S   UNL A   1      43.905  27.835  26.645  1.00  0.00     0.124 S 
ATOM     73  O   UNL A   1      42.693  27.744  27.455  1.00  0.00    -0.237 OA
ATOM     74  O   UNL A   1      43.695  27.959  25.206  1.00  0.00    -0.237 OA
ATOM     75  O   UNL A   1      44.978  26.923  27.040  1.00  0.00    -0.744 OA
ENDBRANCH  71  72
ENDBRANCH  52  66
BRANCH  53  76
ATOM     76  C   UNL A   1      44.187  41.756  30.033  1.00  0.00    -0.014 A 
ATOM     77  C   UNL A   1      42.821  42.039  30.294  1.00  0.00     0.010 A 
ATOM     78  C   UNL A   1      45.109  42.508  30.787  1.00  0.00     0.010 A 
ATOM     79  C   UNL A   1      42.398  42.868  31.364  1.00  0.00     0.020 A 
ATOM     80  C   UNL A   1      44.691  43.331  31.883  1.00  0.00     0.020 A 
ATOM     81  C   UNL A   1      43.334  43.478  32.191  1.00  0.00     0.054 A 
BRANCH  81  82
ATOM     82  S   UNL A   1      42.745  44.287  33.731  1.00  0.00     0.124 S 
ATOM     83  O   UNL A   1      42.246  43.169  34.523  1.00  0.00    -0.237 OA
ATOM     84  O   UNL A   1      43.934  44.928  34.287  1.00  0.00    -0.237 OA
ATOM     85  O   UNL A   1      41.717  45.221  33.271  1.00  0.00    -0.744 OA
ENDBRANCH  81  82
ENDBRANCH  53  76
BRANCH  65  86
ATOM     86  C   UNL A   1      49.164  37.601  26.392  1.00  0.00    -0.014 A 
ATOM     87  C   UNL A   1      50.372  37.758  27.078  1.00  0.00     0.010 A 
ATOM     88  C   UNL A   1      49.220  37.040  25.090  1.00  0.00     0.010 A 
ATOM     89  C   UNL A   1      51.587  37.401  26.472  1.00  0.00     0.020 A 
ATOM     90  C   UNL A   1      50.411  36.640  24.500  1.00  0.00     0.020 A 
ATOM     91  C   UNL A   1      51.595  36.845  25.189  1.00  0.00     0.054 A 
BRANCH  91  92
ATOM     92  S   UNL A   1      53.156  36.336  24.436  1.00  0.00     0.124 S 
ATOM     93  O   UNL A   1      52.758  35.135  23.708  1.00  0.00    -0.237 OA
ATOM     94  O   UNL A   1      53.508  37.487  23.610  1.00  0.00    -0.237 OA
ATOM     95  O   UNL A   1      54.033  36.110  25.583  1.00  0.00    -0.744 OA
ENDBRANCH  91  92
ENDBRANCH  65  86
ENDBRANCH  39  40
ENDBRANCH  32  34
ENDBRANCH  31  32
ENDBRANCH  30  31
ENDBRANCH  29  30
ENDBRANCH  28  29
ENDBRANCH  27  28
ENDBRANCH  26  27
ENDBRANCH   1  26
TORSDOF 26
ENDMDL
MODEL 3
REMARK VINA RESULT:      -8.6      4.305      6.657
REMARK SMILES Cc1ccc(S(C)(=O)=O)cc1C(=O)NCCOCC(=O)OCCOCCOCCOC(=O)c1ccc(-c2c3nc(c(-c4ccc(S(=O)(=O)[O-])cc4)c4ccc([nH]4)c(-c4ccc(S(=O)(=O)[O-])cc4)c4nc(c(-c5ccc(S(=O)(=O)[O-])cc5)c5ccc2[nH]5)C=C4)C=C3)cc1
REMARK SMILES IDX 24 1 23 2 22 3 21 4 19 5 20 6 18 7 17 8 16 9 15 10 14 11
REMARK SMILES IDX 12 12 13 13 11 15 1 16 2 17 3 18 4 19 10 20 5 21 6 22 7 23
REMARK SMILES IDX 8 24 9 25 25 26 26 27 27 28 28 29 29 30 30 31 31 32 32 33
REMARK SMILES IDX 33 34 34 35 92 36 35 37 91 38 36 39 37 40 38 41 85 42 39 43
REMARK SMILES IDX 90 44 84 45 86 46 40 47 89 48 83 49 82 50 41 52 71 53 52 54
REMARK SMILES IDX 70 55 53 56 56 57 69 58 87 59 54 60 55 61 68 63 88 64 57 65
REMARK SMILES IDX 42 66 43 67 51 68 44 69 50 70 45 71 46 72 47 73 48 74 49 75
REMARK SMILES IDX 72 76 73 77 81 78 74 79 80 80 75 81 76 82 77 83 78 84 79 85
REMARK SMILES IDX 58 86 59 87 67 88 60 89 66 90 61 91 62 92 63 93 64 94 65 95
REMARK H PARENT 14 14 86 51 56 62
REMARK Flexibility Score: inf
ROOT
ATOM      1  O   UNL A   1      41.098  25.387  25.821  1.00  0.00    -0.376 OA
ENDROOT
BRANCH   1   2
ATOM      2  C   UNL A   1      40.139  25.325  26.861  1.00  0.00     0.202 C 
BRANCH   2   3
ATOM      3  C   UNL A   1      39.326  24.053  26.864  1.00  0.00     0.261 C 
BRANCH   3   4
ATOM      4  O   UNL A   1      38.338  23.607  25.812  1.00  0.00    -0.462 OA
BRANCH   4   5
ATOM      5  C   UNL A   1      37.371  22.663  25.705  1.00  0.00     0.332 C 
ATOM      6  O   UNL A   1      37.511  21.584  25.169  1.00  0.00    -0.250 OA
BRANCH   5   7
ATOM      7  C   UNL A   1      35.929  23.132  26.100  1.00  0.00     0.282 C 
BRANCH   7   8
ATOM      8  O   UNL A   1      34.727  22.709  25.478  1.00  0.00    -0.368 OA
BRANCH   8   9
ATOM      9  C   UNL A   1      34.555  23.223  24.164  1.00  0.00     0.182 C 
BRANCH   9  10
ATOM     10  C   UNL A   1      34.446  24.751  24.105  1.00  0.00     0.144 C 
BRANCH  10  11
ATOM     11  N   UNL A   1      34.008  25.254  22.825  1.00  0.00    -0.350 N 
ATOM     12  C   UNL A   1      32.890  25.787  22.253  1.00  0.00     0.251 C 
ATOM     13  O   UNL A   1      33.110  26.163  21.091  1.00  0.00    -0.269 OA
ATOM     14  H   UNL A   1      34.737  25.195  22.165  1.00  0.00     0.163 HD
BRANCH  12  15
ATOM     15  C   UNL A   1      31.505  26.021  22.823  1.00  0.00     0.044 A 
ATOM     16  C   UNL A   1      30.771  23.718  23.802  1.00  0.00     0.045 C 
ATOM     17  C   UNL A   1      30.595  25.167  23.492  1.00  0.00    -0.038 A 
ATOM     18  C   UNL A   1      29.324  25.659  23.889  1.00  0.00     0.005 A 
ATOM     19  C   UNL A   1      28.910  26.952  23.609  1.00  0.00     0.020 A 
ATOM     20  C   UNL A   1      31.047  27.344  22.559  1.00  0.00     0.034 A 
ATOM     21  C   UNL A   1      29.770  27.787  22.919  1.00  0.00     0.067 A 
BRANCH  21  22
ATOM     22  S   UNL A   1      29.231  29.435  22.547  1.00  0.00     0.175 S 
ATOM     23  C   UNL A   1      29.866  30.474  23.828  1.00  0.00     0.163 C 
ATOM     24  O   UNL A   1      29.901  29.799  21.310  1.00  0.00    -0.224 OA
ATOM     25  O   UNL A   1      27.777  29.470  22.605  1.00  0.00    -0.224 OA
ENDBRANCH  21  22
ENDBRANCH  12  15
ENDBRANCH  10  11
ENDBRANCH   9  10
ENDBRANCH   8   9
ENDBRANCH   7   8
ENDBRANCH   5   7
ENDBRANCH   4   5
ENDBRANCH   3   4
ENDBRANCH   2   3
ENDBRANCH   1   2
BRANCH   1  26
ATOM     26  C   UNL A   1      42.039  26.418  26.062  1.00  0.00     0.188 C 
BRANCH  26  27
ATOM     27  C   UNL A   1      43.462  25.984  25.793  1.00  0.00     0.188 C 
BRANCH  27  28
ATOM     28  O   UNL A   1      43.565  24.880  24.921  1.00  0.00    -0.376 OA
BRANCH  28  29
ATOM     29  C   UNL A   1      44.795  24.159  25.000  1.00  0.00     0.202 C 
BRANCH  29  30
ATOM     30  C   UNL A   1      44.555  23.105  26.068  1.00  0.00     0.261 C 
BRANCH  30  31
ATOM     31  O   UNL A   1      45.826  22.775  26.689  1.00  0.00    -0.460 OA
BRANCH  31  32
ATOM     32  C   UNL A   1      46.493  23.831  27.245  1.00  0.00     0.338 C 
ATOM     33  O   UNL A   1      47.656  24.125  27.016  1.00  0.00    -0.246 OA
BRANCH  32  34
ATOM     34  C   UNL A   1      45.651  24.468  28.317  1.00  0.00     0.060 A 
ATOM     35  C   UNL A   1      46.067  25.679  28.879  1.00  0.00     0.016 A 
ATOM     36  C   UNL A   1      44.595  23.780  28.926  1.00  0.00     0.016 A 
ATOM     37  C   UNL A   1      45.560  26.083  30.127  1.00  0.00     0.010 A 
ATOM     38  C   UNL A   1      44.157  24.151  30.208  1.00  0.00     0.010 A 
ATOM     39  C   UNL A   1      44.758  25.218  30.890  1.00  0.00    -0.014 A 
BRANCH  39  40
ATOM     40  C   UNL A   1      44.436  25.427  32.348  1.00  0.00     0.031 A 
ATOM     41  C   UNL A   1      43.909  26.778  32.612  1.00  0.00     0.074 A 
ATOM     42  C   UNL A   1      44.623  24.642  33.472  1.00  0.00     0.049 A 
ATOM     43  N   UNL A   1      44.066  27.430  33.718  1.00  0.00    -0.248 NA
ATOM     44  C   UNL A   1      43.334  27.585  31.522  1.00  0.00     0.031 C 
ATOM     45  C   UNL A   1      43.619  24.489  34.528  1.00  0.00     0.029 A 
ATOM     46  N   UNL A   1      45.581  23.700  33.891  1.00  0.00    -0.354 N 
ATOM     47  C   UNL A   1      43.176  28.470  33.596  1.00  0.00     0.074 A 
ATOM     48  C   UNL A   1      43.091  28.716  32.179  1.00  0.00     0.031 C 
ATOM     49  C   UNL A   1      44.020  23.573  35.437  1.00  0.00     0.029 A 
ATOM     50  C   UNL A   1      45.362  23.083  35.121  1.00  0.00     0.049 A 
ATOM     51  H   UNL A   1      46.368  23.486  33.342  1.00  0.00     0.167 HD
ATOM     52  C   UNL A   1      42.246  28.659  34.579  1.00  0.00     0.031 A 
ATOM     53  C   UNL A   1      46.368  22.746  36.002  1.00  0.00     0.031 A 
ATOM     54  C   UNL A   1      42.524  27.846  35.774  1.00  0.00     0.049 A 
ATOM     55  C   UNL A   1      46.447  23.840  37.043  1.00  0.00     0.074 A 
ATOM     56  C   UNL A   1      41.865  26.791  36.389  1.00  0.00     0.029 A 
ATOM     57  N   UNL A   1      43.791  27.889  36.361  1.00  0.00    -0.354 N 
ATOM     58  N   UNL A   1      45.668  24.881  36.974  1.00  0.00    -0.248 NA
ATOM     59  C   UNL A   1      47.344  23.914  38.194  1.00  0.00     0.031 C 
ATOM     60  C   UNL A   1      42.735  26.208  37.347  1.00  0.00     0.029 A 
ATOM     61  C   UNL A   1      43.928  26.904  37.320  1.00  0.00     0.049 A 
ATOM     62  H   UNL A   1      44.493  28.536  36.123  1.00  0.00     0.167 HD
ATOM     63  C   UNL A   1      45.888  25.718  38.021  1.00  0.00     0.074 A 
ATOM     64  C   UNL A   1      46.968  25.085  38.754  1.00  0.00     0.031 C 
ATOM     65  C   UNL A   1      45.125  26.839  38.158  1.00  0.00     0.031 A 
BRANCH  52  66
ATOM     66  C   UNL A   1      40.885  29.246  34.223  1.00  0.00    -0.014 A 
ATOM     67  C   UNL A   1      40.131  28.717  33.160  1.00  0.00     0.010 A 
ATOM     68  C   UNL A   1      40.323  30.373  34.862  1.00  0.00     0.010 A 
ATOM     69  C   UNL A   1      38.951  29.324  32.703  1.00  0.00     0.020 A 
ATOM     70  C   UNL A   1      39.179  31.026  34.386  1.00  0.00     0.020 A 
ATOM     71  C   UNL A   1      38.491  30.489  33.310  1.00  0.00     0.054 A 
BRANCH  71  72
ATOM     72  S   UNL A   1      36.961  31.255  32.724  1.00  0.00     0.124 S 
ATOM     73  O   UNL A   1      36.496  31.982  33.902  1.00  0.00    -0.237 OA
ATOM     74  O   UNL A   1      37.438  32.081  31.619  1.00  0.00    -0.237 OA
ATOM     75  O   UNL A   1      36.130  30.117  32.335  1.00  0.00    -0.744 OA
ENDBRANCH  71  72
ENDBRANCH  52  66
BRANCH  53  76
ATOM     76  C   UNL A   1      47.468  21.766  35.623  1.00  0.00    -0.014 A 
ATOM     77  C   UNL A   1      48.530  22.251  34.816  1.00  0.00     0.010 A 
ATOM     78  C   UNL A   1      47.651  20.469  36.138  1.00  0.00     0.010 A 
ATOM     79  C   UNL A   1      49.769  21.575  34.689  1.00  0.00     0.020 A 
ATOM     80  C   UNL A   1      48.908  19.787  36.031  1.00  0.00     0.020 A 
ATOM     81  C   UNL A   1      49.977  20.363  35.337  1.00  0.00     0.054 A 
BRANCH  81  82
ATOM     82  S   UNL A   1      51.682  19.680  35.390  1.00  0.00     0.124 S 
ATOM     83  O   UNL A   1      51.548  18.522  36.266  1.00  0.00    -0.237 OA
ATOM     84  O   UNL A   1      51.987  19.346  34.002  1.00  0.00    -0.237 OA
ATOM     85  O   UNL A   1      52.485  20.774  35.937  1.00  0.00    -0.744 OA
ENDBRANCH  81  82
ENDBRANCH  53  76
BRANCH  65  86
ATOM     86  C   UNL A   1      45.318  27.949  39.150  1.00  0.00    -0.014 A 
ATOM     87  C   UNL A   1      45.384  27.776  40.537  1.00  0.00     0.010 A 
ATOM     88  C   UNL A   1      45.585  29.246  38.641  1.00  0.00     0.010 A 
ATOM     89  C   UNL A   1      45.669  28.863  41.377  1.00  0.00     0.020 A 
ATOM     90  C   UNL A   1      45.915  30.317  39.459  1.00  0.00     0.020 A 
ATOM     91  C   UNL A   1      45.932  30.124  40.831  1.00  0.00     0.054 A 
BRANCH  91  92
ATOM     92  S   UNL A   1      46.354  31.506  41.914  1.00  0.00     0.124 S 
ATOM     93  O   UNL A   1      46.903  30.817  43.078  1.00  0.00    -0.237 OA
ATOM     94  O   UNL A   1      47.316  32.261  41.117  1.00  0.00    -0.237 OA
ATOM     95  O   UNL A   1      45.073  32.176  42.131  1.00  0.00    -0.744 OA
ENDBRANCH  91  92
ENDBRANCH  65  86
ENDBRANCH  39  40
ENDBRANCH  32  34
ENDBRANCH  31  32
ENDBRANCH  30  31
ENDBRANCH  29  30
ENDBRANCH  28  29
ENDBRANCH  27  28
ENDBRANCH  26  27
ENDBRANCH   1  26
TORSDOF 26
ENDMDL
