MODEL 1
REMARK VINA RESULT:     -11.5      0.000      0.000
REMARK SMILES CC(=O)Nc1ccc(/C=C2/CCc3oc(C(=O)OCCOCCOCCOC(=O)c4ccc(-c5c6nc(c(-c7ccc(S(=O)(=O)[O-])cc7)c7ccc([nH]7)c(-c7ccc(S(=O)(=O)[O-])cc7)c7nc(c(-c8ccc(S(=O)(=O)[O-])cc8)c8ccc5[nH]8)C=C7)C=C6)cc4)c(C)c3C2=O)cc1
REMARK SMILES IDX 23 1 22 2 21 3 20 4 19 5 18 6 16 7 17 8 15 9 9 10 10 11
REMARK SMILES IDX 11 12 93 13 12 14 92 15 94 16 13 17 90 18 14 19 91 20 8 21
REMARK SMILES IDX 5 22 6 23 96 24 7 25 95 26 4 27 1 28 2 29 3 30 24 32 25 33
REMARK SMILES IDX 26 34 27 35 28 36 29 37 30 38 31 39 89 40 32 41 88 42 33 43
REMARK SMILES IDX 34 44 35 45 82 46 36 47 87 48 81 49 83 50 37 51 86 52 80 53
REMARK SMILES IDX 79 54 38 56 68 57 49 58 67 59 50 60 53 61 66 62 84 63 51 64
REMARK SMILES IDX 52 65 65 67 85 68 54 69 39 70 40 71 48 72 41 73 47 74 42 75
REMARK SMILES IDX 43 76 44 77 45 78 46 79 69 80 70 81 78 82 71 83 77 84 72 85
REMARK SMILES IDX 73 86 74 87 75 88 76 89 55 90 56 91 64 92 57 93 63 94 58 95
REMARK SMILES IDX 59 96 60 97 61 98 62 99
REMARK H PARENT 4 31 83 55 53 66
REMARK Flexibility Score: inf
ROOT
ATOM      1  C   UNL A   1      33.003  35.882  29.325  1.00  0.00     0.188 C 
ENDROOT
BRANCH   1   2
ATOM      2  C   UNL A   1      33.324  34.542  28.623  1.00  0.00     0.188 C 
BRANCH   2   3
ATOM      3  O   UNL A   1      34.544  34.331  27.919  1.00  0.00    -0.376 OA
BRANCH   3   4
ATOM      4  C   UNL A   1      35.172  33.058  27.922  1.00  0.00     0.202 C 
BRANCH   4   5
ATOM      5  C   UNL A   1      34.355  31.819  28.329  1.00  0.00     0.261 C 
BRANCH   5   6
ATOM      6  O   UNL A   1      33.681  31.135  27.262  1.00  0.00    -0.457 OA
BRANCH   6   7
ATOM      7  C   UNL A   1      34.098  29.860  27.016  1.00  0.00     0.374 C 
ATOM      8  O   UNL A   1      35.039  29.311  27.577  1.00  0.00    -0.242 OA
BRANCH   7   9
ATOM      9  C   UNL A   1      33.185  29.198  26.106  1.00  0.00     0.215 A 
ATOM     10  C   UNL A   1      31.113  25.257  22.854  1.00  0.00     0.016 C 
ATOM     11  C   UNL A   1      30.875  26.516  23.275  1.00  0.00     0.001 C 
ATOM     12  C   UNL A   1      30.927  27.725  22.348  1.00  0.00     0.048 C 
ATOM     13  C   UNL A   1      30.677  26.909  24.707  1.00  0.00     0.192 C 
ATOM     14  C   UNL A   1      32.097  28.682  22.705  1.00  0.00     0.081 C 
ATOM     15  C   UNL A   1      31.663  27.888  25.104  1.00  0.00     0.067 A 
ATOM     16  O   UNL A   1      29.783  26.483  25.426  1.00  0.00    -0.289 OA
ATOM     17  C   UNL A   1      32.291  28.686  24.177  1.00  0.00     0.116 A 
ATOM     18  C   UNL A   1      32.204  28.241  26.366  1.00  0.00     0.014 A 
ATOM     19  O   UNL A   1      33.208  29.494  24.761  1.00  0.00    -0.453 OA
ATOM     20  C   UNL A   1      31.802  27.677  27.681  1.00  0.00     0.049 C 
BRANCH  10  21
ATOM     21  C   UNL A   1      31.336  23.980  23.577  1.00  0.00    -0.025 A 
ATOM     22  C   UNL A   1      32.040  21.554  24.891  1.00  0.00     0.041 A 
ATOM     23  C   UNL A   1      31.123  22.432  25.458  1.00  0.00     0.027 A 
ATOM     24  C   UNL A   1      32.557  21.852  23.633  1.00  0.00     0.027 A 
ATOM     25  C   UNL A   1      30.800  23.638  24.821  1.00  0.00     0.010 A 
ATOM     26  C   UNL A   1      32.202  23.045  22.985  1.00  0.00     0.010 A 
BRANCH  22  27
ATOM     27  N   UNL A   1      32.352  20.392  25.612  1.00  0.00    -0.326 N 
ATOM     28  C   UNL A   1      32.727  18.821  23.723  1.00  0.00     0.114 C 
ATOM     29  C   UNL A   1      32.541  19.107  25.189  1.00  0.00     0.221 C 
ATOM     30  O   UNL A   1      32.635  18.203  26.023  1.00  0.00    -0.275 OA
ATOM     31  H   UNL A   1      32.452  20.524  26.582  1.00  0.00     0.169 HD
ENDBRANCH  22  27
ENDBRANCH  10  21
ENDBRANCH   7   9
ENDBRANCH   6   7
ENDBRANCH   5   6
ENDBRANCH   4   5
ENDBRANCH   3   4
ENDBRANCH   2   3
ENDBRANCH   1   2
BRANCH   1  32
ATOM     32  O   UNL A   1      32.747  35.763  30.712  1.00  0.00    -0.376 OA
BRANCH  32  33
ATOM     33  C   UNL A   1      33.664  36.365  31.609  1.00  0.00     0.202 C 
BRANCH  33  34
ATOM     34  C   UNL A   1      34.590  35.467  32.426  1.00  0.00     0.261 C 
BRANCH  34  35
ATOM     35  O   UNL A   1      35.511  34.683  31.683  1.00  0.00    -0.460 OA
BRANCH  35  36
ATOM     36  C   UNL A   1      35.282  33.355  31.708  1.00  0.00     0.338 C 
ATOM     37  O   UNL A   1      34.208  32.803  31.537  1.00  0.00    -0.246 OA
BRANCH  36  38
ATOM     38  C   UNL A   1      36.521  32.675  32.112  1.00  0.00     0.060 A 
ATOM     39  C   UNL A   1      37.714  33.206  31.627  1.00  0.00     0.016 A 
ATOM     40  C   UNL A   1      36.468  31.404  32.713  1.00  0.00     0.016 A 
ATOM     41  C   UNL A   1      38.814  32.379  31.553  1.00  0.00     0.010 A 
ATOM     42  C   UNL A   1      37.568  30.576  32.632  1.00  0.00     0.010 A 
ATOM     43  C   UNL A   1      38.698  31.046  31.972  1.00  0.00    -0.014 A 
BRANCH  43  44
ATOM     44  C   UNL A   1      39.807  30.169  31.662  1.00  0.00     0.031 A 
ATOM     45  C   UNL A   1      40.727  29.914  32.786  1.00  0.00     0.074 A 
ATOM     46  C   UNL A   1      40.002  29.628  30.447  1.00  0.00     0.049 A 
ATOM     47  N   UNL A   1      41.935  30.346  32.927  1.00  0.00    -0.248 NA
ATOM     48  C   UNL A   1      40.186  29.199  33.948  1.00  0.00     0.031 C 
ATOM     49  C   UNL A   1      39.068  29.560  29.321  1.00  0.00     0.029 A 
ATOM     50  N   UNL A   1      41.081  28.928  30.005  1.00  0.00    -0.354 N 
ATOM     51  C   UNL A   1      42.387  29.796  34.118  1.00  0.00     0.074 A 
ATOM     52  C   UNL A   1      41.232  29.230  34.774  1.00  0.00     0.031 C 
ATOM     53  C   UNL A   1      39.535  28.670  28.416  1.00  0.00     0.029 A 
ATOM     54  C   UNL A   1      40.854  28.223  28.835  1.00  0.00     0.049 A 
ATOM     55  H   UNL A   1      41.946  28.922  30.474  1.00  0.00     0.167 HD
ATOM     56  C   UNL A   1      43.712  29.645  34.381  1.00  0.00     0.031 A 
ATOM     57  C   UNL A   1      41.666  27.281  28.298  1.00  0.00     0.031 A 
ATOM     58  C   UNL A   1      44.540  30.438  33.512  1.00  0.00     0.049 A 
ATOM     59  C   UNL A   1      43.030  27.497  28.840  1.00  0.00     0.074 A 
ATOM     60  C   UNL A   1      44.674  31.789  33.260  1.00  0.00     0.029 A 
ATOM     61  N   UNL A   1      45.163  29.792  32.470  1.00  0.00    -0.354 N 
ATOM     62  N   UNL A   1      43.768  28.532  28.550  1.00  0.00    -0.248 NA
ATOM     63  C   UNL A   1      43.445  26.755  30.021  1.00  0.00     0.031 C 
ATOM     64  C   UNL A   1      44.983  31.884  31.872  1.00  0.00     0.029 A 
ATOM     65  C   UNL A   1      45.050  30.588  31.358  1.00  0.00     0.049 A 
ATOM     66  H   UNL A   1      45.610  28.915  32.514  1.00  0.00     0.167 HD
ATOM     67  C   UNL A   1      44.468  28.813  29.714  1.00  0.00     0.074 A 
ATOM     68  C   UNL A   1      44.322  27.619  30.538  1.00  0.00     0.031 C 
ATOM     69  C   UNL A   1      44.870  30.086  30.009  1.00  0.00     0.031 A 
BRANCH  56  70
ATOM     70  C   UNL A   1      44.251  28.483  35.171  1.00  0.00    -0.014 A 
ATOM     71  C   UNL A   1      45.543  28.566  35.723  1.00  0.00     0.010 A 
ATOM     72  C   UNL A   1      43.639  27.211  35.151  1.00  0.00     0.010 A 
ATOM     73  C   UNL A   1      46.211  27.419  36.172  1.00  0.00     0.020 A 
ATOM     74  C   UNL A   1      44.275  26.072  35.639  1.00  0.00     0.020 A 
ATOM     75  C   UNL A   1      45.575  26.177  36.109  1.00  0.00     0.054 A 
BRANCH  75  76
ATOM     76  S   UNL A   1      46.489  24.684  36.563  1.00  0.00     0.124 S 
ATOM     77  O   UNL A   1      47.017  24.255  35.272  1.00  0.00    -0.237 OA
ATOM     78  O   UNL A   1      47.471  25.197  37.514  1.00  0.00    -0.237 OA
ATOM     79  O   UNL A   1      45.463  23.818  37.140  1.00  0.00    -0.744 OA
ENDBRANCH  75  76
ENDBRANCH  56  70
BRANCH  57  80
ATOM     80  C   UNL A   1      41.255  26.033  27.612  1.00  0.00    -0.014 A 
ATOM     81  C   UNL A   1      42.142  25.352  26.760  1.00  0.00     0.010 A 
ATOM     82  C   UNL A   1      40.082  25.361  28.012  1.00  0.00     0.010 A 
ATOM     83  C   UNL A   1      41.895  24.024  26.376  1.00  0.00     0.020 A 
ATOM     84  C   UNL A   1      39.821  24.044  27.624  1.00  0.00     0.020 A 
ATOM     85  C   UNL A   1      40.744  23.372  26.828  1.00  0.00     0.054 A 
BRANCH  85  86
ATOM     86  S   UNL A   1      40.525  21.602  26.484  1.00  0.00     0.124 S 
ATOM     87  O   UNL A   1      41.650  21.318  25.597  1.00  0.00    -0.237 OA
ATOM     88  O   UNL A   1      40.602  21.008  27.816  1.00  0.00    -0.237 OA
ATOM     89  O   UNL A   1      39.207  21.535  25.854  1.00  0.00    -0.744 OA
ENDBRANCH  85  86
ENDBRANCH  57  80
BRANCH  69  90
ATOM     90  C   UNL A   1      44.863  31.116  28.901  1.00  0.00    -0.014 A 
ATOM     91  C   UNL A   1      45.992  31.428  28.121  1.00  0.00     0.010 A 
ATOM     92  C   UNL A   1      43.627  31.689  28.546  1.00  0.00     0.010 A 
ATOM     93  C   UNL A   1      45.895  32.311  27.035  1.00  0.00     0.020 A 
ATOM     94  C   UNL A   1      43.519  32.554  27.453  1.00  0.00     0.020 A 
ATOM     95  C   UNL A   1      44.656  32.870  26.709  1.00  0.00     0.054 A 
BRANCH  95  96
ATOM     96  S   UNL A   1      44.526  33.967  25.268  1.00  0.00     0.124 S 
ATOM     97  O   UNL A   1      45.878  34.511  25.161  1.00  0.00    -0.237 OA
ATOM     98  O   UNL A   1      44.129  33.055  24.198  1.00  0.00    -0.237 OA
ATOM     99  O   UNL A   1      43.500  34.933  25.657  1.00  0.00    -0.744 OA
ENDBRANCH  95  96
ENDBRANCH  69  90
ENDBRANCH  43  44
ENDBRANCH  36  38
ENDBRANCH  35  36
ENDBRANCH  34  35
ENDBRANCH  33  34
ENDBRANCH  32  33
ENDBRANCH   1  32
TORSDOF 22
ENDMDL
MODEL 2
REMARK VINA RESULT:     -11.2      1.963      3.163
REMARK SMILES CC(=O)Nc1ccc(/C=C2/CCc3oc(C(=O)OCCOCCOCCOC(=O)c4ccc(-c5c6nc(c(-c7ccc(S(=O)(=O)[O-])cc7)c7ccc([nH]7)c(-c7ccc(S(=O)(=O)[O-])cc7)c7nc(c(-c8ccc(S(=O)(=O)[O-])cc8)c8ccc5[nH]8)C=C7)C=C6)cc4)c(C)c3C2=O)cc1
REMARK SMILES IDX 23 1 22 2 21 3 20 4 19 5 18 6 16 7 17 8 15 9 9 10 10 11
REMARK SMILES IDX 11 12 93 13 12 14 92 15 94 16 13 17 90 18 14 19 91 20 8 21
REMARK SMILES IDX 5 22 6 23 96 24 7 25 95 26 4 27 1 28 2 29 3 30 24 32 25 33
REMARK SMILES IDX 26 34 27 35 28 36 29 37 30 38 31 39 89 40 32 41 88 42 33 43
REMARK SMILES IDX 34 44 35 45 82 46 36 47 87 48 81 49 83 50 37 51 86 52 80 53
REMARK SMILES IDX 79 54 38 56 68 57 49 58 67 59 50 60 53 61 66 62 84 63 51 64
REMARK SMILES IDX 52 65 65 67 85 68 54 69 39 70 40 71 48 72 41 73 47 74 42 75
REMARK SMILES IDX 43 76 44 77 45 78 46 79 69 80 70 81 78 82 71 83 77 84 72 85
REMARK SMILES IDX 73 86 74 87 75 88 76 89 55 90 56 91 64 92 57 93 63 94 58 95
REMARK SMILES IDX 59 96 60 97 61 98 62 99
REMARK H PARENT 4 31 83 55 53 66
REMARK Flexibility Score: inf
ROOT
ATOM      1  C   UNL A   1      34.308  34.201  27.822  1.00  0.00     0.188 C 
ENDROOT
BRANCH   1   2
ATOM      2  C   UNL A   1      32.856  33.761  27.519  1.00  0.00     0.188 C 
BRANCH   2   3
ATOM      3  O   UNL A   1      32.420  32.418  27.700  1.00  0.00    -0.376 OA
BRANCH   3   4
ATOM      4  C   UNL A   1      31.769  31.719  26.650  1.00  0.00     0.202 C 
BRANCH   4   5
ATOM      5  C   UNL A   1      32.338  30.367  26.184  1.00  0.00     0.261 C 
BRANCH   5   6
ATOM      6  O   UNL A   1      31.731  29.802  25.013  1.00  0.00    -0.457 OA
BRANCH   6   7
ATOM      7  C   UNL A   1      32.559  29.088  24.198  1.00  0.00     0.374 C 
ATOM      8  O   UNL A   1      33.472  29.566  23.537  1.00  0.00    -0.242 OA
BRANCH   7   9
ATOM      9  C   UNL A   1      32.302  27.668  24.338  1.00  0.00     0.215 A 
ATOM     10  C   UNL A   1      33.128  22.228  23.987  1.00  0.00     0.016 C 
ATOM     11  C   UNL A   1      32.216  23.137  24.390  1.00  0.00     0.001 C 
ATOM     12  C   UNL A   1      30.866  23.318  23.704  1.00  0.00     0.048 C 
ATOM     13  C   UNL A   1      32.457  24.171  25.446  1.00  0.00     0.192 C 
ATOM     14  C   UNL A   1      30.750  24.698  23.002  1.00  0.00     0.081 C 
ATOM     15  C   UNL A   1      32.265  25.499  24.909  1.00  0.00     0.067 A 
ATOM     16  O   UNL A   1      32.743  23.920  26.610  1.00  0.00    -0.289 OA
ATOM     17  C   UNL A   1      31.481  25.714  23.800  1.00  0.00     0.116 A 
ATOM     18  C   UNL A   1      32.770  26.767  25.293  1.00  0.00     0.014 A 
ATOM     19  O   UNL A   1      31.479  27.021  23.443  1.00  0.00    -0.453 OA
ATOM     20  C   UNL A   1      33.634  27.047  26.469  1.00  0.00     0.049 C 
BRANCH  10  21
ATOM     21  C   UNL A   1      34.555  22.015  24.334  1.00  0.00    -0.025 A 
ATOM     22  C   UNL A   1      37.328  21.891  24.972  1.00  0.00     0.041 A 
ATOM     23  C   UNL A   1      36.405  21.095  25.642  1.00  0.00     0.027 A 
ATOM     24  C   UNL A   1      36.877  22.701  23.934  1.00  0.00     0.027 A 
ATOM     25  C   UNL A   1      35.038  21.179  25.344  1.00  0.00     0.010 A 
ATOM     26  C   UNL A   1      35.511  22.755  23.617  1.00  0.00     0.010 A 
BRANCH  22  27
ATOM     27  N   UNL A   1      38.672  21.789  25.361  1.00  0.00    -0.326 N 
ATOM     28  C   UNL A   1      38.798  23.719  26.921  1.00  0.00     0.114 C 
ATOM     29  C   UNL A   1      39.445  22.625  26.114  1.00  0.00     0.221 C 
ATOM     30  O   UNL A   1      40.659  22.425  26.187  1.00  0.00    -0.275 OA
ATOM     31  H   UNL A   1      39.133  20.981  25.039  1.00  0.00     0.169 HD
ENDBRANCH  22  27
ENDBRANCH  10  21
ENDBRANCH   7   9
ENDBRANCH   6   7
ENDBRANCH   5   6
ENDBRANCH   4   5
ENDBRANCH   3   4
ENDBRANCH   2   3
ENDBRANCH   1   2
BRANCH   1  32
ATOM     32  O   UNL A   1      34.454  34.931  29.026  1.00  0.00    -0.376 OA
BRANCH  32  33
ATOM     33  C   UNL A   1      34.074  34.298  30.235  1.00  0.00     0.202 C 
BRANCH  33  34
ATOM     34  C   UNL A   1      35.134  33.544  31.035  1.00  0.00     0.261 C 
BRANCH  34  35
ATOM     35  O   UNL A   1      35.015  32.130  31.048  1.00  0.00    -0.460 OA
BRANCH  35  36
ATOM     36  C   UNL A   1      35.674  31.492  30.060  1.00  0.00     0.338 C 
ATOM     37  O   UNL A   1      35.341  31.434  28.888  1.00  0.00    -0.246 OA
BRANCH  36  38
ATOM     38  C   UNL A   1      36.800  30.753  30.650  1.00  0.00     0.060 A 
ATOM     39  C   UNL A   1      37.935  31.495  30.971  1.00  0.00     0.016 A 
ATOM     40  C   UNL A   1      36.820  29.348  30.619  1.00  0.00     0.016 A 
ATOM     41  C   UNL A   1      39.143  30.835  31.055  1.00  0.00     0.010 A 
ATOM     42  C   UNL A   1      38.030  28.690  30.696  1.00  0.00     0.010 A 
ATOM     43  C   UNL A   1      39.185  29.453  30.824  1.00  0.00    -0.014 A 
BRANCH  43  44
ATOM     44  C   UNL A   1      40.498  28.856  30.699  1.00  0.00     0.031 A 
ATOM     45  C   UNL A   1      41.281  28.819  31.948  1.00  0.00     0.074 A 
ATOM     46  C   UNL A   1      40.983  28.376  29.541  1.00  0.00     0.049 A 
ATOM     47  N   UNL A   1      42.325  29.517  32.243  1.00  0.00    -0.248 NA
ATOM     48  C   UNL A   1      40.758  27.996  33.046  1.00  0.00     0.031 C 
ATOM     49  C   UNL A   1      40.260  28.097  28.298  1.00  0.00     0.029 A 
ATOM     50  N   UNL A   1      42.246  27.945  29.276  1.00  0.00    -0.354 N 
ATOM     51  C   UNL A   1      42.716  29.085  33.502  1.00  0.00     0.074 A 
ATOM     52  C   UNL A   1      41.639  28.266  34.007  1.00  0.00     0.031 C 
ATOM     53  C   UNL A   1      41.043  27.341  27.496  1.00  0.00     0.029 A 
ATOM     54  C   UNL A   1      42.356  27.209  28.108  1.00  0.00     0.049 A 
ATOM     55  H   UNL A   1      43.013  28.138  29.862  1.00  0.00     0.167 HD
ATOM     56  C   UNL A   1      43.989  29.242  33.953  1.00  0.00     0.031 A 
ATOM     57  C   UNL A   1      43.430  26.480  27.721  1.00  0.00     0.031 A 
ATOM     58  C   UNL A   1      44.729  30.206  33.183  1.00  0.00     0.049 A 
ATOM     59  C   UNL A   1      44.616  27.004  28.441  1.00  0.00     0.074 A 
ATOM     60  C   UNL A   1      44.585  31.552  32.910  1.00  0.00     0.029 A 
ATOM     61  N   UNL A   1      45.626  29.723  32.260  1.00  0.00    -0.354 N 
ATOM     62  N   UNL A   1      45.132  28.182  28.224  1.00  0.00    -0.248 NA
ATOM     63  C   UNL A   1      45.016  26.376  29.691  1.00  0.00     0.031 C 
ATOM     64  C   UNL A   1      45.060  31.718  31.577  1.00  0.00     0.029 A 
ATOM     65  C   UNL A   1      45.495  30.473  31.118  1.00  0.00     0.049 A 
ATOM     66  H   UNL A   1      46.251  28.973  32.393  1.00  0.00     0.167 HD
ATOM     67  C   UNL A   1      45.575  28.615  29.465  1.00  0.00     0.074 A 
ATOM     68  C   UNL A   1      45.589  27.419  30.298  1.00  0.00     0.031 C 
ATOM     69  C   UNL A   1      45.629  29.946  29.774  1.00  0.00     0.031 A 
BRANCH  56  70
ATOM     70  C   UNL A   1      44.660  28.234  34.847  1.00  0.00    -0.014 A 
ATOM     71  C   UNL A   1      45.012  26.977  34.323  1.00  0.00     0.010 A 
ATOM     72  C   UNL A   1      44.702  28.384  36.249  1.00  0.00     0.010 A 
ATOM     73  C   UNL A   1      45.327  25.905  35.169  1.00  0.00     0.020 A 
ATOM     74  C   UNL A   1      45.061  27.339  37.098  1.00  0.00     0.020 A 
ATOM     75  C   UNL A   1      45.332  26.093  36.553  1.00  0.00     0.054 A 
BRANCH  75  76
ATOM     76  S   UNL A   1      45.606  24.677  37.644  1.00  0.00     0.124 S 
ATOM     77  O   UNL A   1      47.063  24.652  37.737  1.00  0.00    -0.237 OA
ATOM     78  O   UNL A   1      44.897  25.074  38.855  1.00  0.00    -0.237 OA
ATOM     79  O   UNL A   1      45.006  23.563  36.913  1.00  0.00    -0.744 OA
ENDBRANCH  75  76
ENDBRANCH  56  70
BRANCH  57  80
ATOM     80  C   UNL A   1      43.418  25.172  27.023  1.00  0.00    -0.014 A 
ATOM     81  C   UNL A   1      43.406  25.104  25.619  1.00  0.00     0.010 A 
ATOM     82  C   UNL A   1      43.697  23.989  27.737  1.00  0.00     0.010 A 
ATOM     83  C   UNL A   1      43.727  23.909  24.955  1.00  0.00     0.020 A 
ATOM     84  C   UNL A   1      44.004  22.793  27.084  1.00  0.00     0.020 A 
ATOM     85  C   UNL A   1      44.044  22.766  25.693  1.00  0.00     0.054 A 
BRANCH  85  86
ATOM     86  S   UNL A   1      44.639  21.281  24.832  1.00  0.00     0.124 S 
ATOM     87  O   UNL A   1      45.944  21.068  25.452  1.00  0.00    -0.237 OA
ATOM     88  O   UNL A   1      43.614  20.293  25.158  1.00  0.00    -0.237 OA
ATOM     89  O   UNL A   1      44.678  21.689  23.428  1.00  0.00    -0.744 OA
ENDBRANCH  85  86
ENDBRANCH  57  80
BRANCH  69  90
ATOM     90  C   UNL A   1      45.545  30.949  28.643  1.00  0.00    -0.014 A 
ATOM     91  C   UNL A   1      44.333  31.373  28.067  1.00  0.00     0.010 A 
ATOM     92  C   UNL A   1      46.734  31.588  28.245  1.00  0.00     0.010 A 
ATOM     93  C   UNL A   1      44.314  32.386  27.097  1.00  0.00     0.020 A 
ATOM     94  C   UNL A   1      46.719  32.613  27.295  1.00  0.00     0.020 A 
ATOM     95  C   UNL A   1      45.510  33.000  26.717  1.00  0.00     0.054 A 
BRANCH  95  96
ATOM     96  S   UNL A   1      45.471  34.350  25.504  1.00  0.00     0.124 S 
ATOM     97  O   UNL A   1      44.787  35.414  26.235  1.00  0.00    -0.237 OA
ATOM     98  O   UNL A   1      46.888  34.586  25.231  1.00  0.00    -0.237 OA
ATOM     99  O   UNL A   1      44.719  33.789  24.382  1.00  0.00    -0.744 OA
ENDBRANCH  95  96
ENDBRANCH  69  90
ENDBRANCH  43  44
ENDBRANCH  36  38
ENDBRANCH  35  36
ENDBRANCH  34  35
ENDBRANCH  33  34
ENDBRANCH  32  33
ENDBRANCH   1  32
TORSDOF 22
ENDMDL
MODEL 3
REMARK VINA RESULT:     -10.8      2.482      9.889
REMARK SMILES CC(=O)Nc1ccc(/C=C2/CCc3oc(C(=O)OCCOCCOCCOC(=O)c4ccc(-c5c6nc(c(-c7ccc(S(=O)(=O)[O-])cc7)c7ccc([nH]7)c(-c7ccc(S(=O)(=O)[O-])cc7)c7nc(c(-c8ccc(S(=O)(=O)[O-])cc8)c8ccc5[nH]8)C=C7)C=C6)cc4)c(C)c3C2=O)cc1
REMARK SMILES IDX 23 1 22 2 21 3 20 4 19 5 18 6 16 7 17 8 15 9 9 10 10 11
REMARK SMILES IDX 11 12 93 13 12 14 92 15 94 16 13 17 90 18 14 19 91 20 8 21
REMARK SMILES IDX 5 22 6 23 96 24 7 25 95 26 4 27 1 28 2 29 3 30 24 32 25 33
REMARK SMILES IDX 26 34 27 35 28 36 29 37 30 38 31 39 89 40 32 41 88 42 33 43
REMARK SMILES IDX 34 44 35 45 82 46 36 47 87 48 81 49 83 50 37 51 86 52 80 53
REMARK SMILES IDX 79 54 38 56 68 57 49 58 67 59 50 60 53 61 66 62 84 63 51 64
REMARK SMILES IDX 52 65 65 67 85 68 54 69 39 70 40 71 48 72 41 73 47 74 42 75
REMARK SMILES IDX 43 76 44 77 45 78 46 79 69 80 70 81 78 82 71 83 77 84 72 85
REMARK SMILES IDX 73 86 74 87 75 88 76 89 55 90 56 91 64 92 57 93 63 94 58 95
REMARK SMILES IDX 59 96 60 97 61 98 62 99
REMARK H PARENT 4 31 83 55 53 66
REMARK Flexibility Score: inf
ROOT
ATOM      1  C   UNL A   1      34.691  22.234  26.173  1.00  0.00     0.188 C 
ENDROOT
BRANCH   1   2
ATOM      2  C   UNL A   1      33.672  21.111  26.481  1.00  0.00     0.188 C 
BRANCH   2   3
ATOM      3  O   UNL A   1      32.571  20.833  25.622  1.00  0.00    -0.376 OA
BRANCH   3   4
ATOM      4  C   UNL A   1      32.779  20.267  24.337  1.00  0.00     0.202 C 
BRANCH   4   5
ATOM      5  C   UNL A   1      32.654  21.165  23.093  1.00  0.00     0.261 C 
BRANCH   5   6
ATOM      6  O   UNL A   1      33.713  22.114  22.897  1.00  0.00    -0.457 OA
BRANCH   6   7
ATOM      7  C   UNL A   1      33.384  23.236  22.194  1.00  0.00     0.374 C 
ATOM      8  O   UNL A   1      33.628  23.413  21.007  1.00  0.00    -0.242 OA
BRANCH   7   9
ATOM      9  C   UNL A   1      32.578  24.124  23.009  1.00  0.00     0.215 A 
ATOM     10  C   UNL A   1      31.300  27.708  26.999  1.00  0.00     0.016 C 
ATOM     11  C   UNL A   1      30.747  27.009  25.985  1.00  0.00     0.001 C 
ATOM     12  C   UNL A   1      29.738  25.887  26.204  1.00  0.00     0.048 C 
ATOM     13  C   UNL A   1      31.149  27.135  24.548  1.00  0.00     0.192 C 
ATOM     14  C   UNL A   1      30.306  24.504  25.785  1.00  0.00     0.081 C 
ATOM     15  C   UNL A   1      31.596  25.862  24.033  1.00  0.00     0.067 A 
ATOM     16  O   UNL A   1      31.076  28.169  23.896  1.00  0.00    -0.289 OA
ATOM     17  C   UNL A   1      31.195  24.678  24.609  1.00  0.00     0.116 A 
ATOM     18  C   UNL A   1      32.461  25.513  22.965  1.00  0.00     0.014 A 
ATOM     19  O   UNL A   1      31.768  23.613  23.999  1.00  0.00    -0.453 OA
ATOM     20  C   UNL A   1      33.111  26.457  22.020  1.00  0.00     0.049 C 
BRANCH  10  21
ATOM     21  C   UNL A   1      32.434  28.663  27.059  1.00  0.00    -0.025 A 
ATOM     22  C   UNL A   1      34.452  30.649  27.364  1.00  0.00     0.041 A 
ATOM     23  C   UNL A   1      34.786  29.303  27.258  1.00  0.00     0.027 A 
ATOM     24  C   UNL A   1      33.114  31.014  27.249  1.00  0.00     0.027 A 
ATOM     25  C   UNL A   1      33.787  28.327  27.135  1.00  0.00     0.010 A 
ATOM     26  C   UNL A   1      32.122  30.034  27.092  1.00  0.00     0.010 A 
BRANCH  22  27
ATOM     27  N   UNL A   1      35.503  31.562  27.535  1.00  0.00    -0.326 N 
ATOM     28  C   UNL A   1      34.625  32.842  29.476  1.00  0.00     0.114 C 
ATOM     29  C   UNL A   1      35.611  32.649  28.355  1.00  0.00     0.221 C 
ATOM     30  O   UNL A   1      36.563  33.420  28.216  1.00  0.00    -0.275 OA
ATOM     31  H   UNL A   1      36.293  31.391  26.973  1.00  0.00     0.169 HD
ENDBRANCH  22  27
ENDBRANCH  10  21
ENDBRANCH   7   9
ENDBRANCH   6   7
ENDBRANCH   5   6
ENDBRANCH   4   5
ENDBRANCH   3   4
ENDBRANCH   2   3
ENDBRANCH   1   2
BRANCH   1  32
ATOM     32  O   UNL A   1      35.828  21.802  25.449  1.00  0.00    -0.376 OA
BRANCH  32  33
ATOM     33  C   UNL A   1      36.684  22.793  24.909  1.00  0.00     0.202 C 
BRANCH  33  34
ATOM     34  C   UNL A   1      38.041  23.031  25.569  1.00  0.00     0.261 C 
BRANCH  34  35
ATOM     35  O   UNL A   1      38.682  21.884  26.105  1.00  0.00    -0.460 OA
BRANCH  35  36
ATOM     36  C   UNL A   1      39.753  22.139  26.883  1.00  0.00     0.338 C 
ATOM     37  O   UNL A   1      40.383  21.324  27.535  1.00  0.00    -0.246 OA
BRANCH  36  38
ATOM     38  C   UNL A   1      39.962  23.594  26.929  1.00  0.00     0.060 A 
ATOM     39  C   UNL A   1      41.281  24.035  27.007  1.00  0.00     0.016 A 
ATOM     40  C   UNL A   1      38.879  24.458  27.166  1.00  0.00     0.016 A 
ATOM     41  C   UNL A   1      41.521  25.287  27.530  1.00  0.00     0.010 A 
ATOM     42  C   UNL A   1      39.120  25.709  27.695  1.00  0.00     0.010 A 
ATOM     43  C   UNL A   1      40.437  26.071  27.953  1.00  0.00    -0.014 A 
BRANCH  43  44
ATOM     44  C   UNL A   1      40.756  27.270  28.698  1.00  0.00     0.031 A 
ATOM     45  C   UNL A   1      41.767  28.139  28.067  1.00  0.00     0.074 A 
ATOM     46  C   UNL A   1      40.189  27.579  29.877  1.00  0.00     0.049 A 
ATOM     47  N   UNL A   1      42.981  28.341  28.454  1.00  0.00    -0.248 NA
ATOM     48  C   UNL A   1      41.418  28.753  26.781  1.00  0.00     0.031 C 
ATOM     49  C   UNL A   1      39.006  26.983  30.501  1.00  0.00     0.029 A 
ATOM     50  N   UNL A   1      40.524  28.585  30.730  1.00  0.00    -0.354 N 
ATOM     51  C   UNL A   1      43.504  29.267  27.563  1.00  0.00     0.074 A 
ATOM     52  C   UNL A   1      42.559  29.369  26.476  1.00  0.00     0.031 C 
ATOM     53  C   UNL A   1      38.594  27.781  31.512  1.00  0.00     0.029 A 
ATOM     54  C   UNL A   1      39.561  28.853  31.689  1.00  0.00     0.049 A 
ATOM     55  H   UNL A   1      41.373  29.078  30.671  1.00  0.00     0.167 HD
ATOM     56  C   UNL A   1      44.565  30.053  27.885  1.00  0.00     0.031 A 
ATOM     57  C   UNL A   1      39.530  29.928  32.512  1.00  0.00     0.031 A 
ATOM     58  C   UNL A   1      45.287  29.562  29.028  1.00  0.00     0.049 A 
ATOM     59  C   UNL A   1      40.908  30.470  32.600  1.00  0.00     0.074 A 
ATOM     60  C   UNL A   1      45.971  28.399  29.323  1.00  0.00     0.029 A 
ATOM     61  N   UNL A   1      45.068  30.191  30.231  1.00  0.00    -0.354 N 
ATOM     62  N   UNL A   1      41.895  29.847  33.183  1.00  0.00    -0.248 NA
ATOM     63  C   UNL A   1      41.303  31.544  31.700  1.00  0.00     0.031 C 
ATOM     64  C   UNL A   1      45.747  28.172  30.711  1.00  0.00     0.029 A 
ATOM     65  C   UNL A   1      44.964  29.222  31.197  1.00  0.00     0.049 A 
ATOM     66  H   UNL A   1      44.999  31.164  30.375  1.00  0.00     0.167 HD
ATOM     67  C   UNL A   1      43.015  30.159  32.427  1.00  0.00     0.074 A 
ATOM     68  C   UNL A   1      42.612  31.298  31.610  1.00  0.00     0.031 C 
ATOM     69  C   UNL A   1      44.073  29.298  32.338  1.00  0.00     0.031 A 
BRANCH  56  70
ATOM     70  C   UNL A   1      44.703  31.468  27.389  1.00  0.00    -0.014 A 
ATOM     71  C   UNL A   1      45.863  31.841  26.685  1.00  0.00     0.010 A 
ATOM     72  C   UNL A   1      43.857  32.505  27.835  1.00  0.00     0.010 A 
ATOM     73  C   UNL A   1      46.189  33.190  26.495  1.00  0.00     0.020 A 
ATOM     74  C   UNL A   1      44.146  33.850  27.609  1.00  0.00     0.020 A 
ATOM     75  C   UNL A   1      45.333  34.184  26.976  1.00  0.00     0.054 A 
BRANCH  75  76
ATOM     76  S   UNL A   1      45.825  35.920  26.847  1.00  0.00     0.124 S 
ATOM     77  O   UNL A   1      44.530  36.595  26.836  1.00  0.00    -0.237 OA
ATOM     78  O   UNL A   1      46.629  36.106  28.051  1.00  0.00    -0.237 OA
ATOM     79  O   UNL A   1      46.570  35.972  25.591  1.00  0.00    -0.744 OA
ENDBRANCH  75  76
ENDBRANCH  56  70
BRANCH  57  80
ATOM     80  C   UNL A   1      38.333  30.684  32.951  1.00  0.00    -0.014 A 
ATOM     81  C   UNL A   1      38.445  31.745  33.865  1.00  0.00     0.010 A 
ATOM     82  C   UNL A   1      37.114  30.538  32.257  1.00  0.00     0.010 A 
ATOM     83  C   UNL A   1      37.397  32.666  34.030  1.00  0.00     0.020 A 
ATOM     84  C   UNL A   1      36.062  31.442  32.426  1.00  0.00     0.020 A 
ATOM     85  C   UNL A   1      36.219  32.519  33.293  1.00  0.00     0.054 A 
BRANCH  85  86
ATOM     86  S   UNL A   1      34.947  33.813  33.370  1.00  0.00     0.124 S 
ATOM     87  O   UNL A   1      33.728  33.067  33.067  1.00  0.00    -0.237 OA
ATOM     88  O   UNL A   1      35.069  34.296  34.742  1.00  0.00    -0.237 OA
ATOM     89  O   UNL A   1      35.362  34.766  32.342  1.00  0.00    -0.744 OA
ENDBRANCH  85  86
ENDBRANCH  57  80
BRANCH  69  90
ATOM     90  C   UNL A   1      44.169  28.174  33.347  1.00  0.00    -0.014 A 
ATOM     91  C   UNL A   1      44.741  28.322  34.625  1.00  0.00     0.010 A 
ATOM     92  C   UNL A   1      43.530  26.959  33.038  1.00  0.00     0.010 A 
ATOM     93  C   UNL A   1      44.701  27.273  35.556  1.00  0.00     0.020 A 
ATOM     94  C   UNL A   1      43.469  25.918  33.968  1.00  0.00     0.020 A 
ATOM     95  C   UNL A   1      44.064  26.075  35.219  1.00  0.00     0.054 A 
BRANCH  95  96
ATOM     96  S   UNL A   1      43.967  24.744  36.449  1.00  0.00     0.124 S 
ATOM     97  O   UNL A   1      42.851  23.939  35.958  1.00  0.00    -0.237 OA
ATOM     98  O   UNL A   1      45.283  24.116  36.356  1.00  0.00    -0.237 OA
ATOM     99  O   UNL A   1      43.715  25.447  37.706  1.00  0.00    -0.744 OA
ENDBRANCH  95  96
ENDBRANCH  69  90
ENDBRANCH  43  44
ENDBRANCH  36  38
ENDBRANCH  35  36
ENDBRANCH  34  35
ENDBRANCH  33  34
ENDBRANCH  32  33
ENDBRANCH   1  32
TORSDOF 22
ENDMDL
