MODEL 1
REMARK VINA RESULT:      -8.6      0.000      0.000
REMARK SMILES Cc1ccc(C(C)C)c(OCC(=O)Nc2nc(CC(=O)OCCOCCOCCOC(=O)c3ccc(-c4c5nc(c(-c6ccc(S(=O)(=O)[O-])cc6)c6ccc([nH]6)c(-c6ccc(S(=O)(=O)[O-])cc6)c6nc(c(-c7ccc(S(=O)(=O)[O-])cc7)c7ccc4[nH]7)C=C6)C=C5)cc3)cs2)c1
REMARK SMILES IDX 24 1 23 2 22 3 21 4 19 5 20 6 18 7 17 8 15 9 16 10 94 11
REMARK SMILES IDX 93 12 14 13 12 14 13 15 11 17 10 18 9 19 1 20 2 21 3 22
REMARK SMILES IDX 95 23 4 24 5 25 6 26 7 27 8 28 25 29 26 30 27 31 28 32 29 33
REMARK SMILES IDX 30 34 31 35 32 36 33 37 34 38 92 39 35 40 91 41 36 42 37 43
REMARK SMILES IDX 38 44 85 45 39 46 90 47 84 48 86 49 40 50 89 51 83 52 82 53
REMARK SMILES IDX 41 55 71 56 52 57 70 58 53 59 56 60 69 61 87 62 54 63 55 64
REMARK SMILES IDX 68 66 88 67 57 68 42 69 43 70 51 71 44 72 50 73 45 74 46 75
REMARK SMILES IDX 47 76 48 77 49 78 72 79 73 80 81 81 74 82 80 83 75 84 76 85
REMARK SMILES IDX 77 86 78 87 79 88 58 89 59 90 67 91 60 92 66 93 61 94 62 95
REMARK SMILES IDX 63 96 64 97 65 98
REMARK H PARENT 14 16 86 54 56 65
REMARK Flexibility Score: inf
ROOT
ATOM      1  O   UNL A   1      39.544  22.777  26.480  1.00  0.00    -0.376 OA
ENDROOT
BRANCH   1   2
ATOM      2  C   UNL A   1      38.552  23.793  26.660  1.00  0.00     0.202 C 
BRANCH   2   3
ATOM      3  C   UNL A   1      37.291  23.741  25.751  1.00  0.00     0.261 C 
BRANCH   3   4
ATOM      4  O   UNL A   1      37.060  22.907  24.576  1.00  0.00    -0.463 OA
BRANCH   4   5
ATOM      5  C   UNL A   1      36.579  21.631  24.782  1.00  0.00     0.311 C 
ATOM      6  O   UNL A   1      37.294  20.694  25.139  1.00  0.00    -0.252 OA
BRANCH   5   7
ATOM      7  C   UNL A   1      35.103  21.357  24.576  1.00  0.00     0.179 C 
BRANCH   7   8
ATOM      8  C   UNL A   1      34.152  21.927  25.601  1.00  0.00     0.065 A 
ATOM      9  C   UNL A   1      32.700  23.371  26.485  1.00  0.00     0.189 A 
ATOM     10  N   UNL A   1      33.268  23.015  25.352  1.00  0.00    -0.224 NA
ATOM     11  S   UNL A   1      32.979  22.342  27.823  1.00  0.00    -0.105 S 
ATOM     12  C   UNL A   1      34.005  21.379  26.862  1.00  0.00     0.093 A 
BRANCH   9  13
ATOM     13  N   UNL A   1      32.042  24.507  26.871  1.00  0.00    -0.299 N 
ATOM     14  C   UNL A   1      31.184  25.311  26.198  1.00  0.00     0.264 C 
ATOM     15  O   UNL A   1      30.709  26.278  26.812  1.00  0.00    -0.271 OA
ATOM     16  H   UNL A   1      32.223  24.788  27.798  1.00  0.00     0.172 HD
BRANCH  14  17
ATOM     17  C   UNL A   1      30.654  24.952  24.820  1.00  0.00     0.329 C 
BRANCH  17  18
ATOM     18  O   UNL A   1      31.178  25.700  23.758  1.00  0.00    -0.483 OA
BRANCH  18  19
ATOM     19  C   UNL A   1      30.655  26.926  23.458  1.00  0.00     0.123 A 
ATOM     20  C   UNL A   1      27.409  28.902  23.020  1.00  0.00     0.044 C 
ATOM     21  C   UNL A   1      28.865  28.538  23.057  1.00  0.00    -0.047 A 
ATOM     22  C   UNL A   1      29.824  29.518  22.809  1.00  0.00     0.004 A 
ATOM     23  C   UNL A   1      29.290  27.237  23.368  1.00  0.00     0.050 A 
ATOM     24  C   UNL A   1      31.185  29.219  22.905  1.00  0.00     0.008 A 
ATOM     25  C   UNL A   1      31.619  27.922  23.228  1.00  0.00    -0.003 A 
BRANCH  25  26
ATOM     26  C   UNL A   1      33.109  27.591  23.284  1.00  0.00     0.017 C 
ATOM     27  C   UNL A   1      33.903  28.542  22.389  1.00  0.00     0.012 C 
ATOM     28  C   UNL A   1      33.645  27.564  24.714  1.00  0.00     0.012 C 
ENDBRANCH  25  26
ENDBRANCH  18  19
ENDBRANCH  17  18
ENDBRANCH  14  17
ENDBRANCH   9  13
ENDBRANCH   7   8
ENDBRANCH   5   7
ENDBRANCH   4   5
ENDBRANCH   3   4
ENDBRANCH   2   3
ENDBRANCH   1   2
BRANCH   1  29
ATOM     29  C   UNL A   1      40.623  22.982  27.371  1.00  0.00     0.188 C 
BRANCH  29  30
ATOM     30  C   UNL A   1      41.916  23.338  26.640  1.00  0.00     0.188 C 
BRANCH  30  31
ATOM     31  O   UNL A   1      42.238  24.722  26.611  1.00  0.00    -0.376 OA
BRANCH  31  32
ATOM     32  C   UNL A   1      42.070  25.398  25.373  1.00  0.00     0.202 C 
BRANCH  32  33
ATOM     33  C   UNL A   1      43.137  26.492  25.368  1.00  0.00     0.261 C 
BRANCH  33  34
ATOM     34  O   UNL A   1      43.250  27.165  26.647  1.00  0.00    -0.460 OA
BRANCH  34  35
ATOM     35  C   UNL A   1      42.551  28.315  26.798  1.00  0.00     0.338 C 
ATOM     36  O   UNL A   1      42.022  28.952  25.876  1.00  0.00    -0.246 OA
BRANCH  35  37
ATOM     37  C   UNL A   1      42.567  28.723  28.231  1.00  0.00     0.060 A 
ATOM     38  C   UNL A   1      41.472  28.469  29.051  1.00  0.00     0.016 A 
ATOM     39  C   UNL A   1      43.581  29.546  28.719  1.00  0.00     0.016 A 
ATOM     40  C   UNL A   1      41.322  29.162  30.265  1.00  0.00     0.010 A 
ATOM     41  C   UNL A   1      43.353  30.334  29.847  1.00  0.00     0.010 A 
ATOM     42  C   UNL A   1      42.152  30.246  30.558  1.00  0.00    -0.014 A 
BRANCH  42  43
ATOM     43  C   UNL A   1      41.938  31.266  31.633  1.00  0.00     0.031 A 
ATOM     44  C   UNL A   1      42.735  30.968  32.829  1.00  0.00     0.074 A 
ATOM     45  C   UNL A   1      41.112  32.363  31.697  1.00  0.00     0.049 A 
ATOM     46  N   UNL A   1      43.138  31.814  33.705  1.00  0.00    -0.248 NA
ATOM     47  C   UNL A   1      43.088  29.574  33.116  1.00  0.00     0.031 C 
ATOM     48  C   UNL A   1      41.312  33.600  32.456  1.00  0.00     0.029 A 
ATOM     49  N   UNL A   1      39.838  32.577  31.157  1.00  0.00    -0.354 N 
ATOM     50  C   UNL A   1      43.622  31.066  34.739  1.00  0.00     0.074 A 
ATOM     51  C   UNL A   1      43.757  29.710  34.254  1.00  0.00     0.031 C 
ATOM     52  C   UNL A   1      40.232  34.401  32.357  1.00  0.00     0.029 A 
ATOM     53  C   UNL A   1      39.183  33.715  31.611  1.00  0.00     0.049 A 
ATOM     54  H   UNL A   1      39.435  31.964  30.499  1.00  0.00     0.167 HD
ATOM     55  C   UNL A   1      43.452  31.450  36.030  1.00  0.00     0.031 A 
ATOM     56  C   UNL A   1      37.830  33.810  31.797  1.00  0.00     0.031 A 
ATOM     57  C   UNL A   1      42.469  32.519  36.172  1.00  0.00     0.049 A 
ATOM     58  C   UNL A   1      37.615  33.834  33.282  1.00  0.00     0.074 A 
ATOM     59  C   UNL A   1      42.508  33.869  35.865  1.00  0.00     0.029 A 
ATOM     60  N   UNL A   1      41.123  32.209  36.380  1.00  0.00    -0.354 N 
ATOM     61  N   UNL A   1      38.495  33.358  34.117  1.00  0.00    -0.248 NA
ATOM     62  C   UNL A   1      36.438  34.388  33.935  1.00  0.00     0.031 C 
ATOM     63  C   UNL A   1      41.178  34.360  35.857  1.00  0.00     0.029 A 
ATOM     64  C   UNL A   1      40.321  33.325  36.195  1.00  0.00     0.049 A 
ATOM     65  H   UNL A   1      40.788  31.316  36.625  1.00  0.00     0.167 HD
ATOM     66  C   UNL A   1      38.081  33.611  35.386  1.00  0.00     0.074 A 
ATOM     67  C   UNL A   1      36.768  34.222  35.226  1.00  0.00     0.031 C 
ATOM     68  C   UNL A   1      38.876  33.336  36.457  1.00  0.00     0.031 A 
BRANCH  55  69
ATOM     69  C   UNL A   1      44.627  31.163  36.922  1.00  0.00    -0.014 A 
ATOM     70  C   UNL A   1      45.846  31.806  36.667  1.00  0.00     0.010 A 
ATOM     71  C   UNL A   1      44.645  30.130  37.880  1.00  0.00     0.010 A 
ATOM     72  C   UNL A   1      47.035  31.370  37.271  1.00  0.00     0.020 A 
ATOM     73  C   UNL A   1      45.820  29.663  38.465  1.00  0.00     0.020 A 
ATOM     74  C   UNL A   1      47.017  30.277  38.140  1.00  0.00     0.054 A 
BRANCH  74  75
ATOM     75  S   UNL A   1      48.567  29.637  38.813  1.00  0.00     0.124 S 
ATOM     76  O   UNL A   1      48.308  28.201  38.884  1.00  0.00    -0.237 OA
ATOM     77  O   UNL A   1      49.540  30.058  37.812  1.00  0.00    -0.237 OA
ATOM     78  O   UNL A   1      48.685  30.304  40.110  1.00  0.00    -0.744 OA
ENDBRANCH  74  75
ENDBRANCH  55  69
BRANCH  56  79
ATOM     79  C   UNL A   1      36.846  33.190  30.839  1.00  0.00    -0.014 A 
ATOM     80  C   UNL A   1      36.890  33.543  29.471  1.00  0.00     0.010 A 
ATOM     81  C   UNL A   1      35.985  32.139  31.192  1.00  0.00     0.010 A 
ATOM     82  C   UNL A   1      36.294  32.738  28.474  1.00  0.00     0.020 A 
ATOM     83  C   UNL A   1      35.370  31.338  30.201  1.00  0.00     0.020 A 
ATOM     84  C   UNL A   1      35.602  31.588  28.846  1.00  0.00     0.054 A 
BRANCH  84  85
ATOM     85  S   UNL A   1      35.241  30.265  27.618  1.00  0.00     0.124 S 
ATOM     86  O   UNL A   1      36.515  30.110  26.935  1.00  0.00    -0.237 OA
ATOM     87  O   UNL A   1      34.832  29.123  28.435  1.00  0.00    -0.237 OA
ATOM     88  O   UNL A   1      34.168  30.852  26.815  1.00  0.00    -0.744 OA
ENDBRANCH  84  85
ENDBRANCH  56  79
BRANCH  68  89
ATOM     89  C   UNL A   1      38.372  33.295  37.870  1.00  0.00    -0.014 A 
ATOM     90  C   UNL A   1      37.438  32.356  38.340  1.00  0.00     0.010 A 
ATOM     91  C   UNL A   1      38.926  34.181  38.817  1.00  0.00     0.010 A 
ATOM     92  C   UNL A   1      36.989  32.376  39.661  1.00  0.00     0.020 A 
ATOM     93  C   UNL A   1      38.531  34.170  40.155  1.00  0.00     0.020 A 
ATOM     94  C   UNL A   1      37.535  33.290  40.559  1.00  0.00     0.054 A 
BRANCH  94  95
ATOM     95  S   UNL A   1      36.974  33.272  42.275  1.00  0.00     0.124 S 
ATOM     96  O   UNL A   1      35.944  34.308  42.262  1.00  0.00    -0.237 OA
ATOM     97  O   UNL A   1      36.484  31.906  42.440  1.00  0.00    -0.237 OA
ATOM     98  O   UNL A   1      38.179  33.592  43.034  1.00  0.00    -0.744 OA
ENDBRANCH  94  95
ENDBRANCH  68  89
ENDBRANCH  42  43
ENDBRANCH  35  37
ENDBRANCH  34  35
ENDBRANCH  33  34
ENDBRANCH  32  33
ENDBRANCH  31  32
ENDBRANCH  30  31
ENDBRANCH  29  30
ENDBRANCH   1  29
TORSDOF 26
ENDMDL
MODEL 2
REMARK VINA RESULT:      -8.4     10.676     16.131
REMARK SMILES Cc1ccc(C(C)C)c(OCC(=O)Nc2nc(CC(=O)OCCOCCOCCOC(=O)c3ccc(-c4c5nc(c(-c6ccc(S(=O)(=O)[O-])cc6)c6ccc([nH]6)c(-c6ccc(S(=O)(=O)[O-])cc6)c6nc(c(-c7ccc(S(=O)(=O)[O-])cc7)c7ccc4[nH]7)C=C6)C=C5)cc3)cs2)c1
REMARK SMILES IDX 24 1 23 2 22 3 21 4 19 5 20 6 18 7 17 8 15 9 16 10 94 11
REMARK SMILES IDX 93 12 14 13 12 14 13 15 11 17 10 18 9 19 1 20 2 21 3 22
REMARK SMILES IDX 95 23 4 24 5 25 6 26 7 27 8 28 25 29 26 30 27 31 28 32 29 33
REMARK SMILES IDX 30 34 31 35 32 36 33 37 34 38 92 39 35 40 91 41 36 42 37 43
REMARK SMILES IDX 38 44 85 45 39 46 90 47 84 48 86 49 40 50 89 51 83 52 82 53
REMARK SMILES IDX 41 55 71 56 52 57 70 58 53 59 56 60 69 61 87 62 54 63 55 64
REMARK SMILES IDX 68 66 88 67 57 68 42 69 43 70 51 71 44 72 50 73 45 74 46 75
REMARK SMILES IDX 47 76 48 77 49 78 72 79 73 80 81 81 74 82 80 83 75 84 76 85
REMARK SMILES IDX 77 86 78 87 79 88 58 89 59 90 67 91 60 92 66 93 61 94 62 95
REMARK SMILES IDX 63 96 64 97 65 98
REMARK H PARENT 14 16 86 54 56 65
REMARK Flexibility Score: inf
ROOT
ATOM      1  O   UNL A   1      44.089  42.019  26.134  1.00  0.00    -0.376 OA
ENDROOT
BRANCH   1   2
ATOM      2  C   UNL A   1      44.149  42.941  25.039  1.00  0.00     0.202 C 
BRANCH   2   3
ATOM      3  C   UNL A   1      43.000  42.894  23.992  1.00  0.00     0.261 C 
BRANCH   3   4
ATOM      4  O   UNL A   1      42.678  43.876  22.961  1.00  0.00    -0.463 OA
BRANCH   4   5
ATOM      5  C   UNL A   1      42.487  43.414  21.675  1.00  0.00     0.311 C 
ATOM      6  O   UNL A   1      41.444  43.594  21.046  1.00  0.00    -0.252 OA
BRANCH   5   7
ATOM      7  C   UNL A   1      43.607  42.658  20.991  1.00  0.00     0.179 C 
BRANCH   7   8
ATOM      8  C   UNL A   1      44.894  43.412  20.752  1.00  0.00     0.065 A 
ATOM      9  C   UNL A   1      46.437  44.997  21.043  1.00  0.00     0.189 A 
ATOM     10  N   UNL A   1      45.392  44.432  21.612  1.00  0.00    -0.224 NA
ATOM     11  S   UNL A   1      47.022  44.240  19.625  1.00  0.00    -0.105 S 
ATOM     12  C   UNL A   1      45.747  43.113  19.706  1.00  0.00     0.093 A 
BRANCH   9  13
ATOM     13  N   UNL A   1      47.078  46.186  21.263  1.00  0.00    -0.299 N 
ATOM     14  C   UNL A   1      46.770  47.448  20.878  1.00  0.00     0.264 C 
ATOM     15  O   UNL A   1      47.530  48.357  21.246  1.00  0.00    -0.271 OA
ATOM     16  H   UNL A   1      47.905  46.110  21.793  1.00  0.00     0.172 HD
BRANCH  14  17
ATOM     17  C   UNL A   1      45.453  47.787  20.202  1.00  0.00     0.329 C 
BRANCH  17  18
ATOM     18  O   UNL A   1      45.307  47.313  18.892  1.00  0.00    -0.483 OA
BRANCH  18  19
ATOM     19  C   UNL A   1      44.063  47.188  18.342  1.00  0.00     0.123 A 
ATOM     20  C   UNL A   1      41.356  44.692  17.304  1.00  0.00     0.044 C 
ATOM     21  C   UNL A   1      42.111  45.972  17.523  1.00  0.00    -0.047 A 
ATOM     22  C   UNL A   1      41.515  47.186  17.187  1.00  0.00     0.004 A 
ATOM     23  C   UNL A   1      43.395  45.981  18.088  1.00  0.00     0.050 A 
ATOM     24  C   UNL A   1      42.169  48.392  17.444  1.00  0.00     0.008 A 
ATOM     25  C   UNL A   1      43.450  48.411  18.022  1.00  0.00    -0.003 A 
BRANCH  25  26
ATOM     26  C   UNL A   1      44.180  49.732  18.255  1.00  0.00     0.017 C 
ATOM     27  C   UNL A   1      44.455  50.435  16.926  1.00  0.00     0.012 C 
ATOM     28  C   UNL A   1      43.444  50.635  19.243  1.00  0.00     0.012 C 
ENDBRANCH  25  26
ENDBRANCH  18  19
ENDBRANCH  17  18
ENDBRANCH  14  17
ENDBRANCH   9  13
ENDBRANCH   7   8
ENDBRANCH   5   7
ENDBRANCH   4   5
ENDBRANCH   3   4
ENDBRANCH   2   3
ENDBRANCH   1   2
BRANCH   1  29
ATOM     29  C   UNL A   1      43.002  41.129  25.966  1.00  0.00     0.188 C 
BRANCH  29  30
ATOM     30  C   UNL A   1      43.294  39.747  26.547  1.00  0.00     0.188 C 
BRANCH  30  31
ATOM     31  O   UNL A   1      44.613  39.263  26.334  1.00  0.00    -0.376 OA
BRANCH  31  32
ATOM     32  C   UNL A   1      45.404  39.014  27.487  1.00  0.00     0.202 C 
BRANCH  32  33
ATOM     33  C   UNL A   1      46.526  38.092  27.011  1.00  0.00     0.261 C 
BRANCH  33  34
ATOM     34  O   UNL A   1      46.031  36.817  26.531  1.00  0.00    -0.460 OA
BRANCH  34  35
ATOM     35  C   UNL A   1      46.925  36.002  25.923  1.00  0.00     0.338 C 
ATOM     36  O   UNL A   1      48.026  36.358  25.480  1.00  0.00    -0.246 OA
BRANCH  35  37
ATOM     37  C   UNL A   1      46.357  34.628  25.819  1.00  0.00     0.060 A 
ATOM     38  C   UNL A   1      45.040  34.437  25.414  1.00  0.00     0.016 A 
ATOM     39  C   UNL A   1      47.058  33.534  26.324  1.00  0.00     0.016 A 
ATOM     40  C   UNL A   1      44.392  33.214  25.669  1.00  0.00     0.010 A 
ATOM     41  C   UNL A   1      46.370  32.383  26.704  1.00  0.00     0.010 A 
ATOM     42  C   UNL A   1      44.991  32.267  26.503  1.00  0.00    -0.014 A 
BRANCH  42  43
ATOM     43  C   UNL A   1      44.326  31.075  27.116  1.00  0.00     0.031 A 
ATOM     44  C   UNL A   1      43.637  31.421  28.366  1.00  0.00     0.074 A 
ATOM     45  C   UNL A   1      44.299  29.752  26.742  1.00  0.00     0.049 A 
ATOM     46  N   UNL A   1      42.638  30.804  28.881  1.00  0.00    -0.248 NA
ATOM     47  C   UNL A   1      44.136  32.550  29.159  1.00  0.00     0.031 C 
ATOM     48  C   UNL A   1      43.248  28.763  26.997  1.00  0.00     0.029 A 
ATOM     49  N   UNL A   1      45.271  28.963  26.116  1.00  0.00    -0.354 N 
ATOM     50  C   UNL A   1      42.494  31.325  30.135  1.00  0.00     0.074 A 
ATOM     51  C   UNL A   1      43.300  32.525  30.190  1.00  0.00     0.031 C 
ATOM     52  C   UNL A   1      43.629  27.542  26.572  1.00  0.00     0.029 A 
ATOM     53  C   UNL A   1      45.006  27.599  26.095  1.00  0.00     0.049 A 
ATOM     54  H   UNL A   1      46.086  29.347  25.718  1.00  0.00     0.167 HD
ATOM     55  C   UNL A   1      42.129  30.547  31.185  1.00  0.00     0.031 A 
ATOM     56  C   UNL A   1      45.959  26.621  26.185  1.00  0.00     0.031 A 
ATOM     57  C   UNL A   1      42.224  29.122  30.888  1.00  0.00     0.049 A 
ATOM     58  C   UNL A   1      45.803  26.012  27.547  1.00  0.00     0.074 A 
ATOM     59  C   UNL A   1      41.453  28.279  30.106  1.00  0.00     0.029 A 
ATOM     60  N   UNL A   1      43.410  28.431  31.149  1.00  0.00    -0.354 N 
ATOM     61  N   UNL A   1      45.231  26.649  28.530  1.00  0.00    -0.248 NA
ATOM     62  C   UNL A   1      46.250  24.674  27.908  1.00  0.00     0.031 C 
ATOM     63  C   UNL A   1      42.192  27.093  29.871  1.00  0.00     0.029 A 
ATOM     64  C   UNL A   1      43.404  27.185  30.537  1.00  0.00     0.049 A 
ATOM     65  H   UNL A   1      44.152  28.780  31.694  1.00  0.00     0.167 HD
ATOM     66  C   UNL A   1      45.139  25.818  29.600  1.00  0.00     0.074 A 
ATOM     67  C   UNL A   1      45.825  24.603  29.180  1.00  0.00     0.031 C 
ATOM     68  C   UNL A   1      44.464  26.187  30.725  1.00  0.00     0.031 A 
BRANCH  55  69
ATOM     69  C   UNL A   1      41.205  31.219  32.162  1.00  0.00    -0.014 A 
ATOM     70  C   UNL A   1      41.248  30.835  33.510  1.00  0.00     0.010 A 
ATOM     71  C   UNL A   1      40.149  32.069  31.779  1.00  0.00     0.010 A 
ATOM     72  C   UNL A   1      40.230  31.208  34.401  1.00  0.00     0.020 A 
ATOM     73  C   UNL A   1      39.114  32.423  32.642  1.00  0.00     0.020 A 
ATOM     74  C   UNL A   1      39.151  31.972  33.950  1.00  0.00     0.054 A 
BRANCH  74  75
ATOM     75  S   UNL A   1      37.779  32.340  35.066  1.00  0.00     0.124 S 
ATOM     76  O   UNL A   1      37.809  31.205  35.985  1.00  0.00    -0.237 OA
ATOM     77  O   UNL A   1      38.173  33.625  35.631  1.00  0.00    -0.237 OA
ATOM     78  O   UNL A   1      36.614  32.382  34.183  1.00  0.00    -0.744 OA
ENDBRANCH  74  75
ENDBRANCH  55  69
BRANCH  56  79
ATOM     79  C   UNL A   1      47.291  26.736  25.489  1.00  0.00    -0.014 A 
ATOM     80  C   UNL A   1      47.645  25.788  24.502  1.00  0.00     0.010 A 
ATOM     81  C   UNL A   1      48.143  27.842  25.637  1.00  0.00     0.010 A 
ATOM     82  C   UNL A   1      48.658  26.045  23.552  1.00  0.00     0.020 A 
ATOM     83  C   UNL A   1      49.172  28.098  24.699  1.00  0.00     0.020 A 
ATOM     84  C   UNL A   1      49.364  27.244  23.610  1.00  0.00     0.054 A 
BRANCH  84  85
ATOM     85  S   UNL A   1      50.317  27.850  22.157  1.00  0.00     0.124 S 
ATOM     86  O   UNL A   1      51.557  28.311  22.761  1.00  0.00    -0.237 OA
ATOM     87  O   UNL A   1      50.446  26.673  21.299  1.00  0.00    -0.237 OA
ATOM     88  O   UNL A   1      49.455  28.902  21.618  1.00  0.00    -0.744 OA
ENDBRANCH  84  85
ENDBRANCH  56  79
BRANCH  68  89
ATOM     89  C   UNL A   1      44.586  25.464  32.035  1.00  0.00    -0.014 A 
ATOM     90  C   UNL A   1      44.724  24.070  32.148  1.00  0.00     0.010 A 
ATOM     91  C   UNL A   1      44.661  26.218  33.225  1.00  0.00     0.010 A 
ATOM     92  C   UNL A   1      44.814  23.448  33.395  1.00  0.00     0.020 A 
ATOM     93  C   UNL A   1      44.814  25.611  34.471  1.00  0.00     0.020 A 
ATOM     94  C   UNL A   1      44.851  24.224  34.549  1.00  0.00     0.054 A 
BRANCH  94  95
ATOM     95  S   UNL A   1      45.013  23.404  36.150  1.00  0.00     0.124 S 
ATOM     96  O   UNL A   1      44.096  24.184  36.978  1.00  0.00    -0.237 OA
ATOM     97  O   UNL A   1      44.584  22.039  35.857  1.00  0.00    -0.237 OA
ATOM     98  O   UNL A   1      46.430  23.551  36.470  1.00  0.00    -0.744 OA
ENDBRANCH  94  95
ENDBRANCH  68  89
ENDBRANCH  42  43
ENDBRANCH  35  37
ENDBRANCH  34  35
ENDBRANCH  33  34
ENDBRANCH  32  33
ENDBRANCH  31  32
ENDBRANCH  30  31
ENDBRANCH  29  30
ENDBRANCH   1  29
TORSDOF 26
ENDMDL
MODEL 3
REMARK VINA RESULT:      -8.2      6.622     12.705
REMARK SMILES Cc1ccc(C(C)C)c(OCC(=O)Nc2nc(CC(=O)OCCOCCOCCOC(=O)c3ccc(-c4c5nc(c(-c6ccc(S(=O)(=O)[O-])cc6)c6ccc([nH]6)c(-c6ccc(S(=O)(=O)[O-])cc6)c6nc(c(-c7ccc(S(=O)(=O)[O-])cc7)c7ccc4[nH]7)C=C6)C=C5)cc3)cs2)c1
REMARK SMILES IDX 24 1 23 2 22 3 21 4 19 5 20 6 18 7 17 8 15 9 16 10 94 11
REMARK SMILES IDX 93 12 14 13 12 14 13 15 11 17 10 18 9 19 1 20 2 21 3 22
REMARK SMILES IDX 95 23 4 24 5 25 6 26 7 27 8 28 25 29 26 30 27 31 28 32 29 33
REMARK SMILES IDX 30 34 31 35 32 36 33 37 34 38 92 39 35 40 91 41 36 42 37 43
REMARK SMILES IDX 38 44 85 45 39 46 90 47 84 48 86 49 40 50 89 51 83 52 82 53
REMARK SMILES IDX 41 55 71 56 52 57 70 58 53 59 56 60 69 61 87 62 54 63 55 64
REMARK SMILES IDX 68 66 88 67 57 68 42 69 43 70 51 71 44 72 50 73 45 74 46 75
REMARK SMILES IDX 47 76 48 77 49 78 72 79 73 80 81 81 74 82 80 83 75 84 76 85
REMARK SMILES IDX 77 86 78 87 79 88 58 89 59 90 67 91 60 92 66 93 61 94 62 95
REMARK SMILES IDX 63 96 64 97 65 98
REMARK H PARENT 14 16 86 54 56 65
REMARK Flexibility Score: inf
ROOT
ATOM      1  O   UNL A   1      41.562  27.070  27.652  1.00  0.00    -0.376 OA
ENDROOT
BRANCH   1   2
ATOM      2  C   UNL A   1      41.088  28.070  28.561  1.00  0.00     0.202 C 
BRANCH   2   3
ATOM      3  C   UNL A   1      42.125  29.086  29.121  1.00  0.00     0.261 C 
BRANCH   3   4
ATOM      4  O   UNL A   1      42.333  30.475  28.724  1.00  0.00    -0.463 OA
BRANCH   4   5
ATOM      5  C   UNL A   1      43.608  30.989  28.842  1.00  0.00     0.311 C 
ATOM      6  O   UNL A   1      44.108  31.300  29.924  1.00  0.00    -0.252 OA
BRANCH   5   7
ATOM      7  C   UNL A   1      44.445  31.176  27.594  1.00  0.00     0.179 C 
BRANCH   7   8
ATOM      8  C   UNL A   1      44.520  32.573  27.024  1.00  0.00     0.065 A 
ATOM      9  C   UNL A   1      43.872  34.668  26.614  1.00  0.00     0.189 A 
ATOM     10  N   UNL A   1      43.656  33.638  27.406  1.00  0.00    -0.224 NA
ATOM     11  S   UNL A   1      45.216  34.539  25.562  1.00  0.00    -0.105 S 
ATOM     12  C   UNL A   1      45.501  32.958  26.128  1.00  0.00     0.093 A 
BRANCH   9  13
ATOM     13  N   UNL A   1      43.138  35.788  26.334  1.00  0.00    -0.299 N 
ATOM     14  C   UNL A   1      43.055  36.980  26.973  1.00  0.00     0.264 C 
ATOM     15  O   UNL A   1      42.314  37.842  26.476  1.00  0.00    -0.271 OA
ATOM     16  H   UNL A   1      42.573  35.715  25.530  1.00  0.00     0.172 HD
BRANCH  14  17
ATOM     17  C   UNL A   1      43.971  37.342  28.129  1.00  0.00     0.329 C 
BRANCH  17  18
ATOM     18  O   UNL A   1      44.597  38.593  28.035  1.00  0.00    -0.483 OA
BRANCH  18  19
ATOM     19  C   UNL A   1      45.468  38.849  27.014  1.00  0.00     0.123 A 
ATOM     20  C   UNL A   1      48.524  37.535  25.127  1.00  0.00     0.044 C 
ATOM     21  C   UNL A   1      47.389  38.410  25.573  1.00  0.00    -0.047 A 
ATOM     22  C   UNL A   1      47.126  39.596  24.888  1.00  0.00     0.004 A 
ATOM     23  C   UNL A   1      46.561  38.051  26.647  1.00  0.00     0.050 A 
ATOM     24  C   UNL A   1      46.035  40.391  25.242  1.00  0.00     0.008 A 
ATOM     25  C   UNL A   1      45.193  40.032  26.308  1.00  0.00    -0.003 A 
BRANCH  25  26
ATOM     26  C   UNL A   1      44.030  40.932  26.719  1.00  0.00     0.017 C 
ATOM     27  C   UNL A   1      44.540  42.143  27.500  1.00  0.00     0.012 C 
ATOM     28  C   UNL A   1      43.161  41.337  25.531  1.00  0.00     0.012 C 
ENDBRANCH  25  26
ENDBRANCH  18  19
ENDBRANCH  17  18
ENDBRANCH  14  17
ENDBRANCH   9  13
ENDBRANCH   7   8
ENDBRANCH   5   7
ENDBRANCH   4   5
ENDBRANCH   3   4
ENDBRANCH   2   3
ENDBRANCH   1   2
BRANCH   1  29
ATOM     29  C   UNL A   1      41.346  27.482  26.315  1.00  0.00     0.188 C 
BRANCH  29  30
ATOM     30  C   UNL A   1      42.603  27.344  25.459  1.00  0.00     0.188 C 
BRANCH  30  31
ATOM     31  O   UNL A   1      42.720  26.124  24.740  1.00  0.00    -0.376 OA
BRANCH  31  32
ATOM     32  C   UNL A   1      43.206  24.997  25.454  1.00  0.00     0.202 C 
BRANCH  32  33
ATOM     33  C   UNL A   1      44.697  24.930  25.125  1.00  0.00     0.261 C 
BRANCH  33  34
ATOM     34  O   UNL A   1      45.515  25.608  26.112  1.00  0.00    -0.460 OA
BRANCH  34  35
ATOM     35  C   UNL A   1      46.034  24.848  27.105  1.00  0.00     0.338 C 
ATOM     36  O   UNL A   1      46.668  23.796  26.938  1.00  0.00    -0.246 OA
BRANCH  35  37
ATOM     37  C   UNL A   1      45.677  25.441  28.424  1.00  0.00     0.060 A 
ATOM     38  C   UNL A   1      46.639  25.579  29.421  1.00  0.00     0.016 A 
ATOM     39  C   UNL A   1      44.343  25.670  28.757  1.00  0.00     0.016 A 
ATOM     40  C   UNL A   1      46.248  25.778  30.757  1.00  0.00     0.010 A 
ATOM     41  C   UNL A   1      43.961  25.718  30.097  1.00  0.00     0.010 A 
ATOM     42  C   UNL A   1      44.907  25.634  31.123  1.00  0.00    -0.014 A 
BRANCH  42  43
ATOM     43  C   UNL A   1      44.373  25.506  32.515  1.00  0.00     0.031 A 
ATOM     44  C   UNL A   1      43.743  26.751  32.970  1.00  0.00     0.074 A 
ATOM     45  C   UNL A   1      44.420  24.470  33.418  1.00  0.00     0.049 A 
ATOM     46  N   UNL A   1      42.828  26.859  33.862  1.00  0.00    -0.248 NA
ATOM     47  C   UNL A   1      44.207  28.025  32.411  1.00  0.00     0.031 C 
ATOM     48  C   UNL A   1      43.464  24.158  34.483  1.00  0.00     0.029 A 
ATOM     49  N   UNL A   1      45.405  23.502  33.642  1.00  0.00    -0.354 N 
ATOM     50  C   UNL A   1      42.728  28.196  34.122  1.00  0.00     0.074 A 
ATOM     51  C   UNL A   1      43.444  28.887  33.072  1.00  0.00     0.031 C 
ATOM     52  C   UNL A   1      43.905  23.130  35.235  1.00  0.00     0.029 A 
ATOM     53  C   UNL A   1      45.241  22.743  34.794  1.00  0.00     0.049 A 
ATOM     54  H   UNL A   1      46.162  23.367  33.026  1.00  0.00     0.167 HD
ATOM     55  C   UNL A   1      42.490  28.656  35.377  1.00  0.00     0.031 A 
ATOM     56  C   UNL A   1      46.268  22.270  35.566  1.00  0.00     0.031 A 
ATOM     57  C   UNL A   1      42.670  27.627  36.395  1.00  0.00     0.049 A 
ATOM     58  C   UNL A   1      46.245  23.080  36.829  1.00  0.00     0.074 A 
ATOM     59  C   UNL A   1      41.915  26.523  36.749  1.00  0.00     0.029 A 
ATOM     60  N   UNL A   1      43.918  27.451  36.998  1.00  0.00    -0.354 N 
ATOM     61  N   UNL A   1      45.693  24.260  36.886  1.00  0.00    -0.248 NA
ATOM     62  C   UNL A   1      46.813  22.645  38.097  1.00  0.00     0.031 C 
ATOM     63  C   UNL A   1      42.723  25.667  37.539  1.00  0.00     0.029 A 
ATOM     64  C   UNL A   1      43.965  26.258  37.705  1.00  0.00     0.049 A 
ATOM     65  H   UNL A   1      44.666  28.088  36.930  1.00  0.00     0.167 HD
ATOM     66  C   UNL A   1      45.731  24.703  38.170  1.00  0.00     0.074 A 
ATOM     67  C   UNL A   1      46.477  23.677  38.888  1.00  0.00     0.031 C 
ATOM     68  C   UNL A   1      45.105  25.856  38.538  1.00  0.00     0.031 A 
BRANCH  55  69
ATOM     69  C   UNL A   1      41.584  29.854  35.436  1.00  0.00    -0.014 A 
ATOM     70  C   UNL A   1      41.861  30.869  36.363  1.00  0.00     0.010 A 
ATOM     71  C   UNL A   1      40.350  29.933  34.761  1.00  0.00     0.010 A 
ATOM     72  C   UNL A   1      40.909  31.854  36.664  1.00  0.00     0.020 A 
ATOM     73  C   UNL A   1      39.380  30.885  35.069  1.00  0.00     0.020 A 
ATOM     74  C   UNL A   1      39.660  31.833  36.038  1.00  0.00     0.054 A 
BRANCH  74  75
ATOM     75  S   UNL A   1      38.390  33.024  36.523  1.00  0.00     0.124 S 
ATOM     76  O   UNL A   1      37.158  32.346  36.130  1.00  0.00    -0.237 OA
ATOM     77  O   UNL A   1      38.615  33.153  37.958  1.00  0.00    -0.237 OA
ATOM     78  O   UNL A   1      38.712  34.215  35.736  1.00  0.00    -0.744 OA
ENDBRANCH  74  75
ENDBRANCH  55  69
BRANCH  56  79
ATOM     79  C   UNL A   1      47.540  21.732  34.963  1.00  0.00    -0.014 A 
ATOM     80  C   UNL A   1      48.684  22.559  34.897  1.00  0.00     0.010 A 
ATOM     81  C   UNL A   1      47.714  20.384  34.613  1.00  0.00     0.010 A 
ATOM     82  C   UNL A   1      49.980  22.025  34.724  1.00  0.00     0.020 A 
ATOM     83  C   UNL A   1      49.008  19.844  34.421  1.00  0.00     0.020 A 
ATOM     84  C   UNL A   1      50.140  20.650  34.568  1.00  0.00     0.054 A 
BRANCH  84  85
ATOM     85  S   UNL A   1      51.777  19.854  34.833  1.00  0.00     0.124 S 
ATOM     86  O   UNL A   1      52.272  19.686  33.475  1.00  0.00    -0.237 OA
ATOM     87  O   UNL A   1      52.515  20.818  35.649  1.00  0.00    -0.237 OA
ATOM     88  O   UNL A   1      51.426  18.615  35.528  1.00  0.00    -0.744 OA
ENDBRANCH  84  85
ENDBRANCH  56  79
BRANCH  68  89
ATOM     89  C   UNL A   1      45.365  26.556  39.840  1.00  0.00    -0.014 A 
ATOM     90  C   UNL A   1      44.381  26.774  40.819  1.00  0.00     0.010 A 
ATOM     91  C   UNL A   1      46.684  26.941  40.155  1.00  0.00     0.010 A 
ATOM     92  C   UNL A   1      44.674  27.449  42.005  1.00  0.00     0.020 A 
ATOM     93  C   UNL A   1      47.001  27.560  41.364  1.00  0.00     0.020 A 
ATOM     94  C   UNL A   1      45.983  27.844  42.266  1.00  0.00     0.054 A 
BRANCH  94  95
ATOM     95  S   UNL A   1      46.352  28.677  43.825  1.00  0.00     0.124 S 
ATOM     96  O   UNL A   1      46.074  30.071  43.491  1.00  0.00    -0.237 OA
ATOM     97  O   UNL A   1      45.409  28.056  44.753  1.00  0.00    -0.237 OA
ATOM     98  O   UNL A   1      47.756  28.353  44.064  1.00  0.00    -0.744 OA
ENDBRANCH  94  95
ENDBRANCH  68  89
ENDBRANCH  42  43
ENDBRANCH  35  37
ENDBRANCH  34  35
ENDBRANCH  33  34
ENDBRANCH  32  33
ENDBRANCH  31  32
ENDBRANCH  30  31
ENDBRANCH  29  30
ENDBRANCH   1  29
TORSDOF 26
ENDMDL
