MODEL 1
REMARK VINA RESULT:     -10.6      0.000      0.000
REMARK SMILES O=C(/C=C\N1[C@@H]2CC[C@H]1C[C@H](O)C2)OCCOCCOCCOC(=O)c1ccc(-c2c3nc(c(-c4ccc(S(=O)(=O)[O-])cc4)c4ccc([nH]4)c(-c4ccc(S(=O)(=O)[O-])cc4)c4nc(c(-c5ccc(S(=O)(=O)[O-])cc5)c5ccc2[nH]5)C=C4)C=C3)cc1
REMARK SMILES IDX 19 1 18 2 17 3 16 4 15 5 14 6 2 7 1 8 3 9 4 10 5 11 6 12
REMARK SMILES IDX 9 13 7 14 13 15 8 16 10 17 11 18 12 19 20 21 21 22 22 23
REMARK SMILES IDX 23 24 24 25 25 26 26 27 27 28 85 29 28 30 84 31 29 32 30 33
REMARK SMILES IDX 31 34 78 35 32 36 83 37 77 38 79 39 33 40 82 41 76 42 75 43
REMARK SMILES IDX 34 45 64 46 45 47 63 48 46 49 49 50 62 51 80 52 47 53 48 54
REMARK SMILES IDX 61 56 81 57 50 58 35 59 36 60 44 61 37 62 43 63 38 64 39 65
REMARK SMILES IDX 40 66 41 67 42 68 65 69 66 70 74 71 67 72 73 73 68 74 69 75
REMARK SMILES IDX 70 76 71 77 72 78 51 79 52 80 60 81 53 82 59 83 54 84 55 85
REMARK SMILES IDX 56 86 57 87 58 88
REMARK H PARENT 12 20 79 44 49 55
REMARK Flexibility Score: inf
ROOT
ATOM      1  C   UNL A   1      38.524  23.651  26.147  1.00  0.00     0.188 C 
ENDROOT
BRANCH   1   2
ATOM      2  C   UNL A   1      37.035  23.373  25.762  1.00  0.00     0.188 C 
BRANCH   2   3
ATOM      3  O   UNL A   1      36.753  21.976  25.807  1.00  0.00    -0.376 OA
BRANCH   3   4
ATOM      4  C   UNL A   1      35.817  21.199  24.929  1.00  0.00     0.202 C 
BRANCH   4   5
ATOM      5  C   UNL A   1      33.807  21.805  24.349  1.00  0.00     0.261 C 
BRANCH   5   6
ATOM      6  O   UNL A   1      32.852  22.853  25.567  1.00  0.00    -0.460 OA
BRANCH   6   7
ATOM      7  C   UNL A   1      31.565  23.154  25.915  1.00  0.00     0.332 C 
ATOM      8  O   UNL A   1      30.616  22.493  25.512  1.00  0.00    -0.247 OA
BRANCH   7   9
ATOM      9  C   UNL A   1      31.379  24.251  26.843  1.00  0.00     0.111 C 
ATOM     10  C   UNL A   1      31.761  25.408  26.339  1.00  0.00     0.089 C 
BRANCH  10  11
ATOM     11  N   UNL A   1      32.122  25.539  25.015  1.00  0.00    -0.371 N 
ATOM     12  C   UNL A   1      30.699  25.907  23.621  1.00  0.00     0.084 C 
ATOM     13  C   UNL A   1      33.875  26.174  24.100  1.00  0.00     0.084 C 
ATOM     14  C   UNL A   1      31.610  25.792  21.935  1.00  0.00     0.027 C 
ATOM     15  C   UNL A   1      30.518  27.862  23.349  1.00  0.00     0.056 C 
ATOM     16  C   UNL A   1      33.513  25.936  22.184  1.00  0.00     0.027 C 
ATOM     17  C   UNL A   1      33.887  28.120  23.694  1.00  0.00     0.056 C 
ATOM     18  C   UNL A   1      32.137  28.935  23.504  1.00  0.00     0.118 C 
BRANCH  18  19
ATOM     19  O   UNL A   1      31.966  29.836  24.592  1.00  0.00    -0.393 OA
ATOM     20  H   UNL A   1      31.478  29.395  25.304  1.00  0.00     0.210 HD
ENDBRANCH  18  19
ENDBRANCH  10  11
ENDBRANCH   7   9
ENDBRANCH   6   7
ENDBRANCH   5   6
ENDBRANCH   4   5
ENDBRANCH   3   4
ENDBRANCH   2   3
ENDBRANCH   1   2
BRANCH   1  21
ATOM     21  O   UNL A   1      39.259  22.686  26.902  1.00  0.00    -0.376 OA
BRANCH  21  22
ATOM     22  C   UNL A   1      40.319  21.972  26.283  1.00  0.00     0.202 C 
BRANCH  22  23
ATOM     23  C   UNL A   1      41.774  22.349  26.571  1.00  0.00     0.261 C 
BRANCH  23  24
ATOM     24  O   UNL A   1      41.959  23.511  27.386  1.00  0.00    -0.460 OA
BRANCH  24  25
ATOM     25  C   UNL A   1      42.070  24.677  26.699  1.00  0.00     0.338 C 
ATOM     26  O   UNL A   1      42.278  24.811  25.507  1.00  0.00    -0.246 OA
BRANCH  25  27
ATOM     27  C   UNL A   1      41.674  25.785  27.593  1.00  0.00     0.060 A 
ATOM     28  C   UNL A   1      42.422  26.973  27.572  1.00  0.00     0.016 A 
ATOM     29  C   UNL A   1      40.572  25.653  28.436  1.00  0.00     0.016 A 
ATOM     30  C   UNL A   1      42.069  28.038  28.392  1.00  0.00     0.010 A 
ATOM     31  C   UNL A   1      40.255  26.697  29.303  1.00  0.00     0.010 A 
ATOM     32  C   UNL A   1      41.018  27.878  29.298  1.00  0.00    -0.014 A 
BRANCH  32  33
ATOM     33  C   UNL A   1      40.860  28.855  30.391  1.00  0.00     0.031 A 
ATOM     34  C   UNL A   1      41.757  28.712  31.588  1.00  0.00     0.074 A 
ATOM     35  C   UNL A   1      39.948  29.838  30.311  1.00  0.00     0.049 A 
ATOM     36  N   UNL A   1      41.737  29.368  32.716  1.00  0.00    -0.248 NA
ATOM     37  C   UNL A   1      42.815  27.689  31.501  1.00  0.00     0.031 C 
ATOM     38  C   UNL A   1      39.085  30.101  29.159  1.00  0.00     0.029 A 
ATOM     39  N   UNL A   1      39.589  30.790  31.227  1.00  0.00    -0.354 N 
ATOM     40  C   UNL A   1      42.761  28.823  33.481  1.00  0.00     0.074 A 
ATOM     41  C   UNL A   1      43.378  27.778  32.698  1.00  0.00     0.031 C 
ATOM     42  C   UNL A   1      38.273  31.131  29.452  1.00  0.00     0.029 A 
ATOM     43  C   UNL A   1      38.529  31.565  30.824  1.00  0.00     0.049 A 
ATOM     44  H   UNL A   1      40.046  30.906  32.092  1.00  0.00     0.167 HD
ATOM     45  C   UNL A   1      43.142  29.167  34.732  1.00  0.00     0.031 A 
ATOM     46  C   UNL A   1      37.823  32.487  31.507  1.00  0.00     0.031 A 
ATOM     47  C   UNL A   1      42.507  30.204  35.497  1.00  0.00     0.049 A 
ATOM     48  C   UNL A   1      38.213  32.785  32.934  1.00  0.00     0.074 A 
ATOM     49  C   UNL A   1      42.825  30.650  36.768  1.00  0.00     0.029 A 
ATOM     50  N   UNL A   1      41.419  30.949  35.069  1.00  0.00    -0.354 N 
ATOM     51  N   UNL A   1      39.203  32.288  33.640  1.00  0.00    -0.248 NA
ATOM     52  C   UNL A   1      37.396  33.769  33.655  1.00  0.00     0.031 C 
ATOM     53  C   UNL A   1      41.880  31.609  37.138  1.00  0.00     0.029 A 
ATOM     54  C   UNL A   1      41.023  31.820  36.068  1.00  0.00     0.049 A 
ATOM     55  H   UNL A   1      40.991  30.869  34.186  1.00  0.00     0.167 HD
ATOM     56  C   UNL A   1      39.140  32.919  34.879  1.00  0.00     0.074 A 
ATOM     57  C   UNL A   1      38.033  33.851  34.814  1.00  0.00     0.031 C 
ATOM     58  C   UNL A   1      39.918  32.741  35.976  1.00  0.00     0.031 A 
BRANCH  45  59
ATOM     59  C   UNL A   1      44.259  28.388  35.371  1.00  0.00    -0.014 A 
ATOM     60  C   UNL A   1      45.601  28.789  35.248  1.00  0.00     0.010 A 
ATOM     61  C   UNL A   1      43.948  27.279  36.180  1.00  0.00     0.010 A 
ATOM     62  C   UNL A   1      46.611  28.092  35.918  1.00  0.00     0.020 A 
ATOM     63  C   UNL A   1      44.951  26.597  36.873  1.00  0.00     0.020 A 
ATOM     64  C   UNL A   1      46.278  27.007  36.735  1.00  0.00     0.054 A 
BRANCH  64  65
ATOM     65  S   UNL A   1      47.600  26.174  37.655  1.00  0.00     0.124 S 
ATOM     66  O   UNL A   1      48.795  26.649  36.964  1.00  0.00    -0.237 OA
ATOM     67  O   UNL A   1      47.412  26.684  39.011  1.00  0.00    -0.237 OA
ATOM     68  O   UNL A   1      47.305  24.754  37.480  1.00  0.00    -0.744 OA
ENDBRANCH  64  65
ENDBRANCH  45  59
BRANCH  46  69
ATOM     69  C   UNL A   1      36.641  33.148  30.885  1.00  0.00    -0.014 A 
ATOM     70  C   UNL A   1      36.735  33.755  29.620  1.00  0.00     0.010 A 
ATOM     71  C   UNL A   1      35.418  33.207  31.577  1.00  0.00     0.010 A 
ATOM     72  C   UNL A   1      35.642  34.439  29.078  1.00  0.00     0.020 A 
ATOM     73  C   UNL A   1      34.312  33.857  31.024  1.00  0.00     0.020 A 
ATOM     74  C   UNL A   1      34.438  34.486  29.785  1.00  0.00     0.054 A 
BRANCH  74  75
ATOM     75  S   UNL A   1      33.029  35.366  29.056  1.00  0.00     0.124 S 
ATOM     76  O   UNL A   1      32.157  35.552  30.212  1.00  0.00    -0.237 OA
ATOM     77  O   UNL A   1      33.653  36.577  28.531  1.00  0.00    -0.237 OA
ATOM     78  O   UNL A   1      32.534  34.439  28.041  1.00  0.00    -0.744 OA
ENDBRANCH  74  75
ENDBRANCH  46  69
BRANCH  58  79
ATOM     79  C   UNL A   1      39.622  33.593  37.181  1.00  0.00    -0.014 A 
ATOM     80  C   UNL A   1      38.863  33.095  38.257  1.00  0.00     0.010 A 
ATOM     81  C   UNL A   1      40.164  34.889  37.266  1.00  0.00     0.010 A 
ATOM     82  C   UNL A   1      38.623  33.893  39.378  1.00  0.00     0.020 A 
ATOM     83  C   UNL A   1      39.957  35.674  38.402  1.00  0.00     0.020 A 
ATOM     84  C   UNL A   1      39.176  35.175  39.445  1.00  0.00     0.054 A 
BRANCH  84  85
ATOM     85  S   UNL A   1      38.888  36.167  40.934  1.00  0.00     0.124 S 
ATOM     86  O   UNL A   1      40.175  36.074  41.617  1.00  0.00    -0.237 OA
ATOM     87  O   UNL A   1      38.562  37.480  40.384  1.00  0.00    -0.237 OA
ATOM     88  O   UNL A   1      37.780  35.483  41.599  1.00  0.00    -0.744 OA
ENDBRANCH  84  85
ENDBRANCH  58  79
ENDBRANCH  32  33
ENDBRANCH  25  27
ENDBRANCH  24  25
ENDBRANCH  23  24
ENDBRANCH  22  23
ENDBRANCH  21  22
ENDBRANCH   1  21
TORSDOF 22
ENDMDL
MODEL 2
REMARK VINA RESULT:     -10.5      2.378      9.411
REMARK SMILES O=C(/C=C\N1[C@@H]2CC[C@H]1C[C@H](O)C2)OCCOCCOCCOC(=O)c1ccc(-c2c3nc(c(-c4ccc(S(=O)(=O)[O-])cc4)c4ccc([nH]4)c(-c4ccc(S(=O)(=O)[O-])cc4)c4nc(c(-c5ccc(S(=O)(=O)[O-])cc5)c5ccc2[nH]5)C=C4)C=C3)cc1
REMARK SMILES IDX 19 1 18 2 17 3 16 4 15 5 14 6 2 7 1 8 3 9 4 10 5 11 6 12
REMARK SMILES IDX 9 13 7 14 13 15 8 16 10 17 11 18 12 19 20 21 21 22 22 23
REMARK SMILES IDX 23 24 24 25 25 26 26 27 27 28 85 29 28 30 84 31 29 32 30 33
REMARK SMILES IDX 31 34 78 35 32 36 83 37 77 38 79 39 33 40 82 41 76 42 75 43
REMARK SMILES IDX 34 45 64 46 45 47 63 48 46 49 49 50 62 51 80 52 47 53 48 54
REMARK SMILES IDX 61 56 81 57 50 58 35 59 36 60 44 61 37 62 43 63 38 64 39 65
REMARK SMILES IDX 40 66 41 67 42 68 65 69 66 70 74 71 67 72 73 73 68 74 69 75
REMARK SMILES IDX 70 76 71 77 72 78 51 79 52 80 60 81 53 82 59 83 54 84 55 85
REMARK SMILES IDX 56 86 57 87 58 88
REMARK H PARENT 12 20 79 44 49 55
REMARK Flexibility Score: inf
ROOT
ATOM      1  C   UNL A   1      34.672  34.729  28.281  1.00  0.00     0.188 C 
ENDROOT
BRANCH   1   2
ATOM      2  C   UNL A   1      33.849  33.407  28.413  1.00  0.00     0.188 C 
BRANCH   2   3
ATOM      3  O   UNL A   1      34.643  32.370  28.984  1.00  0.00    -0.376 OA
BRANCH   3   4
ATOM      4  C   UNL A   1      35.386  31.282  28.267  1.00  0.00     0.202 C 
BRANCH   4   5
ATOM      5  C   UNL A   1      34.504  29.771  26.971  1.00  0.00     0.261 C 
BRANCH   5   6
ATOM      6  O   UNL A   1      32.898  28.998  27.536  1.00  0.00    -0.460 OA
BRANCH   6   7
ATOM      7  C   UNL A   1      31.778  28.405  27.026  1.00  0.00     0.332 C 
ATOM      8  O   UNL A   1      31.058  27.689  27.710  1.00  0.00    -0.247 OA
BRANCH   7   9
ATOM      9  C   UNL A   1      31.442  28.718  25.652  1.00  0.00     0.111 C 
ATOM     10  C   UNL A   1      31.677  27.712  24.833  1.00  0.00     0.089 C 
BRANCH  10  11
ATOM     11  N   UNL A   1      32.034  26.465  25.300  1.00  0.00    -0.371 N 
ATOM     12  C   UNL A   1      30.784  24.895  25.018  1.00  0.00     0.084 C 
ATOM     13  C   UNL A   1      33.878  25.566  25.619  1.00  0.00     0.084 C 
ATOM     14  C   UNL A   1      31.570  23.447  26.003  1.00  0.00     0.027 C 
ATOM     15  C   UNL A   1      31.255  23.959  23.335  1.00  0.00     0.056 C 
ATOM     16  C   UNL A   1      33.419  23.819  26.390  1.00  0.00     0.027 C 
ATOM     17  C   UNL A   1      34.525  24.526  24.053  1.00  0.00     0.056 C 
ATOM     18  C   UNL A   1      33.141  23.899  22.848  1.00  0.00     0.118 C 
BRANCH  18  19
ATOM     19  O   UNL A   1      33.300  24.594  21.617  1.00  0.00    -0.393 OA
ATOM     20  H   UNL A   1      33.891  25.350  21.746  1.00  0.00     0.210 HD
ENDBRANCH  18  19
ENDBRANCH  10  11
ENDBRANCH   7   9
ENDBRANCH   6   7
ENDBRANCH   5   6
ENDBRANCH   4   5
ENDBRANCH   3   4
ENDBRANCH   2   3
ENDBRANCH   1   2
BRANCH   1  21
ATOM     21  O   UNL A   1      34.029  35.931  27.850  1.00  0.00    -0.376 OA
BRANCH  21  22
ATOM     22  C   UNL A   1      33.634  36.897  28.812  1.00  0.00     0.202 C 
BRANCH  22  23
ATOM     23  C   UNL A   1      32.632  36.527  29.909  1.00  0.00     0.261 C 
BRANCH  23  24
ATOM     24  O   UNL A   1      33.092  36.713  31.251  1.00  0.00    -0.460 OA
BRANCH  24  25
ATOM     25  C   UNL A   1      32.739  35.727  32.116  1.00  0.00     0.338 C 
ATOM     26  O   UNL A   1      31.624  35.490  32.545  1.00  0.00    -0.246 OA
BRANCH  25  27
ATOM     27  C   UNL A   1      33.895  34.826  32.295  1.00  0.00     0.060 A 
ATOM     28  C   UNL A   1      33.716  33.622  32.996  1.00  0.00     0.016 A 
ATOM     29  C   UNL A   1      35.142  35.164  31.769  1.00  0.00     0.016 A 
ATOM     30  C   UNL A   1      34.781  32.748  33.172  1.00  0.00     0.010 A 
ATOM     31  C   UNL A   1      36.225  34.316  31.999  1.00  0.00     0.010 A 
ATOM     32  C   UNL A   1      36.049  33.122  32.721  1.00  0.00    -0.014 A 
BRANCH  32  33
ATOM     33  C   UNL A   1      37.228  32.376  33.197  1.00  0.00     0.031 A 
ATOM     34  C   UNL A   1      37.830  32.791  34.509  1.00  0.00     0.074 A 
ATOM     35  C   UNL A   1      37.736  31.360  32.481  1.00  0.00     0.049 A 
ATOM     36  N   UNL A   1      38.925  32.372  35.083  1.00  0.00    -0.248 NA
ATOM     37  C   UNL A   1      37.101  33.819  35.275  1.00  0.00     0.031 C 
ATOM     38  C   UNL A   1      37.176  30.838  31.235  1.00  0.00     0.029 A 
ATOM     39  N   UNL A   1      38.852  30.595  32.698  1.00  0.00    -0.354 N 
ATOM     40  C   UNL A   1      39.030  33.100  36.262  1.00  0.00     0.074 A 
ATOM     41  C   UNL A   1      37.896  33.993  36.321  1.00  0.00     0.031 C 
ATOM     42  C   UNL A   1      37.971  29.853  30.781  1.00  0.00     0.029 A 
ATOM     43  C   UNL A   1      39.115  29.712  31.679  1.00  0.00     0.049 A 
ATOM     44  H   UNL A   1      39.410  30.672  33.505  1.00  0.00     0.167 HD
ATOM     45  C   UNL A   1      39.995  33.028  37.205  1.00  0.00     0.031 A 
ATOM     46  C   UNL A   1      40.184  28.916  31.480  1.00  0.00     0.031 A 
ATOM     47  C   UNL A   1      41.121  32.138  37.121  1.00  0.00     0.049 A 
ATOM     48  C   UNL A   1      41.292  28.924  32.505  1.00  0.00     0.074 A 
ATOM     49  C   UNL A   1      42.150  31.967  38.030  1.00  0.00     0.029 A 
ATOM     50  N   UNL A   1      41.371  31.278  36.062  1.00  0.00    -0.354 N 
ATOM     51  N   UNL A   1      41.368  29.592  33.633  1.00  0.00    -0.248 NA
ATOM     52  C   UNL A   1      42.455  28.069  32.232  1.00  0.00     0.031 C 
ATOM     53  C   UNL A   1      43.063  31.063  37.484  1.00  0.00     0.029 A 
ATOM     54  C   UNL A   1      42.562  30.608  36.273  1.00  0.00     0.049 A 
ATOM     55  H   UNL A   1      40.789  31.164  35.277  1.00  0.00     0.167 HD
ATOM     56  C   UNL A   1      42.576  29.217  34.215  1.00  0.00     0.074 A 
ATOM     57  C   UNL A   1      43.180  28.246  33.327  1.00  0.00     0.031 C 
ATOM     58  C   UNL A   1      43.141  29.642  35.373  1.00  0.00     0.031 A 
BRANCH  45  59
ATOM     59  C   UNL A   1      39.910  33.963  38.380  1.00  0.00    -0.014 A 
ATOM     60  C   UNL A   1      39.272  33.589  39.575  1.00  0.00     0.010 A 
ATOM     61  C   UNL A   1      40.555  35.213  38.312  1.00  0.00     0.010 A 
ATOM     62  C   UNL A   1      39.276  34.448  40.678  1.00  0.00     0.020 A 
ATOM     63  C   UNL A   1      40.586  36.062  39.419  1.00  0.00     0.020 A 
ATOM     64  C   UNL A   1      39.943  35.675  40.596  1.00  0.00     0.054 A 
BRANCH  64  65
ATOM     65  S   UNL A   1      40.001  36.732  42.069  1.00  0.00     0.124 S 
ATOM     66  O   UNL A   1      41.434  36.794  42.341  1.00  0.00    -0.237 OA
ATOM     67  O   UNL A   1      39.397  37.974  41.591  1.00  0.00    -0.237 OA
ATOM     68  O   UNL A   1      39.212  35.998  43.055  1.00  0.00    -0.744 OA
ENDBRANCH  64  65
ENDBRANCH  45  59
BRANCH  46  69
ATOM     69  C   UNL A   1      40.296  28.096  30.241  1.00  0.00    -0.014 A 
ATOM     70  C   UNL A   1      39.455  26.989  30.028  1.00  0.00     0.010 A 
ATOM     71  C   UNL A   1      41.277  28.399  29.279  1.00  0.00     0.010 A 
ATOM     72  C   UNL A   1      39.619  26.180  28.899  1.00  0.00     0.020 A 
ATOM     73  C   UNL A   1      41.420  27.617  28.131  1.00  0.00     0.020 A 
ATOM     74  C   UNL A   1      40.602  26.500  27.958  1.00  0.00     0.054 A 
BRANCH  74  75
ATOM     75  S   UNL A   1      40.786  25.446  26.493  1.00  0.00     0.124 S 
ATOM     76  O   UNL A   1      39.472  24.819  26.403  1.00  0.00    -0.237 OA
ATOM     77  O   UNL A   1      41.100  26.415  25.446  1.00  0.00    -0.237 OA
ATOM     78  O   UNL A   1      41.884  24.551  26.851  1.00  0.00    -0.744 OA
ENDBRANCH  74  75
ENDBRANCH  46  69
BRANCH  58  79
ATOM     79  C   UNL A   1      44.463  29.035  35.762  1.00  0.00    -0.014 A 
ATOM     80  C   UNL A   1      45.666  29.473  35.179  1.00  0.00     0.010 A 
ATOM     81  C   UNL A   1      44.507  28.056  36.772  1.00  0.00     0.010 A 
ATOM     82  C   UNL A   1      46.884  28.916  35.574  1.00  0.00     0.020 A 
ATOM     83  C   UNL A   1      45.727  27.525  37.196  1.00  0.00     0.020 A 
ATOM     84  C   UNL A   1      46.907  27.949  36.584  1.00  0.00     0.054 A 
BRANCH  84  85
ATOM     85  S   UNL A   1      48.508  27.281  37.109  1.00  0.00     0.124 S 
ATOM     86  O   UNL A   1      48.220  26.834  38.469  1.00  0.00    -0.237 OA
ATOM     87  O   UNL A   1      48.744  26.218  36.135  1.00  0.00    -0.237 OA
ATOM     88  O   UNL A   1      49.412  28.424  37.008  1.00  0.00    -0.744 OA
ENDBRANCH  84  85
ENDBRANCH  58  79
ENDBRANCH  32  33
ENDBRANCH  25  27
ENDBRANCH  24  25
ENDBRANCH  23  24
ENDBRANCH  22  23
ENDBRANCH  21  22
ENDBRANCH   1  21
TORSDOF 22
ENDMDL
MODEL 3
REMARK VINA RESULT:     -10.4      2.706      4.074
REMARK SMILES O=C(/C=C\N1[C@@H]2CC[C@H]1C[C@H](O)C2)OCCOCCOCCOC(=O)c1ccc(-c2c3nc(c(-c4ccc(S(=O)(=O)[O-])cc4)c4ccc([nH]4)c(-c4ccc(S(=O)(=O)[O-])cc4)c4nc(c(-c5ccc(S(=O)(=O)[O-])cc5)c5ccc2[nH]5)C=C4)C=C3)cc1
REMARK SMILES IDX 19 1 18 2 17 3 16 4 15 5 14 6 2 7 1 8 3 9 4 10 5 11 6 12
REMARK SMILES IDX 9 13 7 14 13 15 8 16 10 17 11 18 12 19 20 21 21 22 22 23
REMARK SMILES IDX 23 24 24 25 25 26 26 27 27 28 85 29 28 30 84 31 29 32 30 33
REMARK SMILES IDX 31 34 78 35 32 36 83 37 77 38 79 39 33 40 82 41 76 42 75 43
REMARK SMILES IDX 34 45 64 46 45 47 63 48 46 49 49 50 62 51 80 52 47 53 48 54
REMARK SMILES IDX 61 56 81 57 50 58 35 59 36 60 44 61 37 62 43 63 38 64 39 65
REMARK SMILES IDX 40 66 41 67 42 68 65 69 66 70 74 71 67 72 73 73 68 74 69 75
REMARK SMILES IDX 70 76 71 77 72 78 51 79 52 80 60 81 53 82 59 83 54 84 55 85
REMARK SMILES IDX 56 86 57 87 58 88
REMARK H PARENT 12 20 79 44 49 55
REMARK Flexibility Score: inf
ROOT
ATOM      1  C   UNL A   1      41.519  19.648  25.822  1.00  0.00     0.188 C 
ENDROOT
BRANCH   1   2
ATOM      2  C   UNL A   1      41.228  19.969  27.323  1.00  0.00     0.188 C 
BRANCH   2   3
ATOM      3  O   UNL A   1      40.321  21.063  27.441  1.00  0.00    -0.376 OA
BRANCH   3   4
ATOM      4  C   UNL A   1      39.630  21.806  26.337  1.00  0.00     0.202 C 
BRANCH   4   5
ATOM      5  C   UNL A   1      37.897  21.113  25.216  1.00  0.00     0.261 C 
BRANCH   5   6
ATOM      6  O   UNL A   1      36.280  22.002  25.516  1.00  0.00    -0.460 OA
BRANCH   6   7
ATOM      7  C   UNL A   1      35.796  23.138  26.100  1.00  0.00     0.332 C 
ATOM      8  O   UNL A   1      36.280  24.239  25.871  1.00  0.00    -0.247 OA
BRANCH   7   9
ATOM      9  C   UNL A   1      34.635  22.989  26.954  1.00  0.00     0.111 C 
ATOM     10  C   UNL A   1      33.561  23.565  26.450  1.00  0.00     0.089 C 
BRANCH  10  11
ATOM     11  N   UNL A   1      33.548  24.083  25.173  1.00  0.00    -0.371 N 
ATOM     12  C   UNL A   1      32.680  23.031  23.675  1.00  0.00     0.084 C 
ATOM     13  C   UNL A   1      33.562  26.031  24.453  1.00  0.00     0.084 C 
ATOM     14  C   UNL A   1      33.085  24.010  22.075  1.00  0.00     0.027 C 
ATOM     15  C   UNL A   1      30.783  23.577  23.486  1.00  0.00     0.056 C 
ATOM     16  C   UNL A   1      33.628  25.807  22.503  1.00  0.00     0.027 C 
ATOM     17  C   UNL A   1      31.740  26.767  24.147  1.00  0.00     0.056 C 
ATOM     18  C   UNL A   1      30.356  25.445  23.840  1.00  0.00     0.118 C 
BRANCH  18  19
ATOM     19  O   UNL A   1      29.468  25.490  24.951  1.00  0.00    -0.393 OA
ATOM     20  H   UNL A   1      28.721  24.894  24.793  1.00  0.00     0.210 HD
ENDBRANCH  18  19
ENDBRANCH  10  11
ENDBRANCH   7   9
ENDBRANCH   6   7
ENDBRANCH   5   6
ENDBRANCH   4   5
ENDBRANCH   3   4
ENDBRANCH   2   3
ENDBRANCH   1   2
BRANCH   1  21
ATOM     21  O   UNL A   1      42.468  18.635  25.479  1.00  0.00    -0.376 OA
BRANCH  21  22
ATOM     22  C   UNL A   1      43.856  18.902  25.614  1.00  0.00     0.202 C 
BRANCH  22  23
ATOM     23  C   UNL A   1      44.472  20.133  24.944  1.00  0.00     0.261 C 
BRANCH  23  24
ATOM     24  O   UNL A   1      44.380  21.350  25.689  1.00  0.00    -0.460 OA
BRANCH  24  25
ATOM     25  C   UNL A   1      43.979  22.430  24.970  1.00  0.00     0.338 C 
ATOM     26  O   UNL A   1      43.754  22.474  23.773  1.00  0.00    -0.246 OA
BRANCH  25  27
ATOM     27  C   UNL A   1      43.637  23.517  25.909  1.00  0.00     0.060 A 
ATOM     28  C   UNL A   1      44.067  24.823  25.624  1.00  0.00     0.016 A 
ATOM     29  C   UNL A   1      42.892  23.249  27.058  1.00  0.00     0.016 A 
ATOM     30  C   UNL A   1      43.752  25.868  26.482  1.00  0.00     0.010 A 
ATOM     31  C   UNL A   1      42.628  24.287  27.950  1.00  0.00     0.010 A 
ATOM     32  C   UNL A   1      43.080  25.590  27.674  1.00  0.00    -0.014 A 
BRANCH  32  33
ATOM     33  C   UNL A   1      43.046  26.615  28.733  1.00  0.00     0.031 A 
ATOM     34  C   UNL A   1      44.142  26.591  29.760  1.00  0.00     0.074 A 
ATOM     35  C   UNL A   1      42.070  27.536  28.770  1.00  0.00     0.049 A 
ATOM     36  N   UNL A   1      44.272  27.306  30.844  1.00  0.00    -0.248 NA
ATOM     37  C   UNL A   1      45.237  25.629  29.534  1.00  0.00     0.031 C 
ATOM     38  C   UNL A   1      41.006  27.684  27.776  1.00  0.00     0.029 A 
ATOM     39  N   UNL A   1      41.810  28.515  29.692  1.00  0.00    -0.354 N 
ATOM     40  C   UNL A   1      45.446  26.866  31.442  1.00  0.00     0.074 A 
ATOM     41  C   UNL A   1      45.989  25.817  30.609  1.00  0.00     0.031 C 
ATOM     42  C   UNL A   1      40.189  28.680  28.160  1.00  0.00     0.029 A 
ATOM     43  C   UNL A   1      40.646  29.203  29.446  1.00  0.00     0.049 A 
ATOM     44  H   UNL A   1      42.399  28.706  30.458  1.00  0.00     0.167 HD
ATOM     45  C   UNL A   1      46.012  27.300  32.590  1.00  0.00     0.031 A 
ATOM     46  C   UNL A   1      40.007  30.118  30.201  1.00  0.00     0.031 A 
ATOM     47  C   UNL A   1      45.450  28.339  33.408  1.00  0.00     0.049 A 
ATOM     48  C   UNL A   1      40.615  30.517  31.523  1.00  0.00     0.074 A 
ATOM     49  C   UNL A   1      45.950  28.872  34.583  1.00  0.00     0.029 A 
ATOM     50  N   UNL A   1      44.256  28.994  33.144  1.00  0.00    -0.354 N 
ATOM     51  N   UNL A   1      41.743  30.118  32.067  1.00  0.00    -0.248 NA
ATOM     52  C   UNL A   1      39.869  31.490  32.331  1.00  0.00     0.031 C 
ATOM     53  C   UNL A   1      45.020  29.793  35.070  1.00  0.00     0.029 A 
ATOM     54  C   UNL A   1      43.979  29.894  34.157  1.00  0.00     0.049 A 
ATOM     55  H   UNL A   1      43.690  28.840  32.354  1.00  0.00     0.167 HD
ATOM     56  C   UNL A   1      41.850  30.812  33.268  1.00  0.00     0.074 A 
ATOM     57  C   UNL A   1      40.689  31.673  33.356  1.00  0.00     0.031 C 
ATOM     58  C   UNL A   1      42.816  30.742  34.219  1.00  0.00     0.031 A 
BRANCH  45  59
ATOM     59  C   UNL A   1      47.273  26.625  33.058  1.00  0.00    -0.014 A 
ATOM     60  C   UNL A   1      47.237  25.451  33.832  1.00  0.00     0.010 A 
ATOM     61  C   UNL A   1      48.518  27.134  32.645  1.00  0.00     0.010 A 
ATOM     62  C   UNL A   1      48.423  24.803  34.186  1.00  0.00     0.020 A 
ATOM     63  C   UNL A   1      49.704  26.474  32.974  1.00  0.00     0.020 A 
ATOM     64  C   UNL A   1      49.649  25.312  33.746  1.00  0.00     0.054 A 
BRANCH  64  65
ATOM     65  S   UNL A   1      51.164  24.403  34.153  1.00  0.00     0.124 S 
ATOM     66  O   UNL A   1      50.638  23.104  34.562  1.00  0.00    -0.237 OA
ATOM     67  O   UNL A   1      51.892  24.417  32.887  1.00  0.00    -0.237 OA
ATOM     68  O   UNL A   1      51.768  25.194  35.224  1.00  0.00    -0.744 OA
ENDBRANCH  64  65
ENDBRANCH  45  59
BRANCH  46  69
ATOM     69  C   UNL A   1      38.694  30.672  29.766  1.00  0.00    -0.014 A 
ATOM     70  C   UNL A   1      38.601  31.962  29.213  1.00  0.00     0.010 A 
ATOM     71  C   UNL A   1      37.517  29.922  29.940  1.00  0.00     0.010 A 
ATOM     72  C   UNL A   1      37.356  32.504  28.880  1.00  0.00     0.020 A 
ATOM     73  C   UNL A   1      36.274  30.443  29.573  1.00  0.00     0.020 A 
ATOM     74  C   UNL A   1      36.200  31.740  29.063  1.00  0.00     0.054 A 
BRANCH  74  75
ATOM     75  S   UNL A   1      34.596  32.456  28.609  1.00  0.00     0.124 S 
ATOM     76  O   UNL A   1      34.984  33.480  27.645  1.00  0.00    -0.237 OA
ATOM     77  O   UNL A   1      33.882  31.306  28.061  1.00  0.00    -0.237 OA
ATOM     78  O   UNL A   1      34.073  32.957  29.878  1.00  0.00    -0.744 OA
ENDBRANCH  74  75
ENDBRANCH  46  69
BRANCH  58  79
ATOM     79  C   UNL A   1      42.674  31.640  35.419  1.00  0.00    -0.014 A 
ATOM     80  C   UNL A   1      42.064  31.184  36.602  1.00  0.00     0.010 A 
ATOM     81  C   UNL A   1      43.215  32.938  35.383  1.00  0.00     0.010 A 
ATOM     82  C   UNL A   1      41.967  32.025  37.713  1.00  0.00     0.020 A 
ATOM     83  C   UNL A   1      43.154  33.767  36.504  1.00  0.00     0.020 A 
ATOM     84  C   UNL A   1      42.517  33.309  37.658  1.00  0.00     0.054 A 
BRANCH  84  85
ATOM     85  S   UNL A   1      42.419  34.359  39.133  1.00  0.00     0.124 S 
ATOM     86  O   UNL A   1      42.150  35.672  38.555  1.00  0.00    -0.237 OA
ATOM     87  O   UNL A   1      41.313  33.761  39.876  1.00  0.00    -0.237 OA
ATOM     88  O   UNL A   1      43.733  34.210  39.754  1.00  0.00    -0.744 OA
ENDBRANCH  84  85
ENDBRANCH  58  79
ENDBRANCH  32  33
ENDBRANCH  25  27
ENDBRANCH  24  25
ENDBRANCH  23  24
ENDBRANCH  22  23
ENDBRANCH  21  22
ENDBRANCH   1  21
TORSDOF 22
ENDMDL
