MODEL 1
REMARK VINA RESULT:      -7.9      0.000      0.000
REMARK SMILES CC(C)[C@@H](NS(=O)(=O)c1ccc(Cl)c([N+](=O)[O-])c1)C(=O)OCCOCCOCCOC(=O)c1ccc(-c2c3nc(c(-c4ccc(S(=O)(=O)[O-])cc4)c4ccc([nH]4)c(-c4ccc(S(=O)(=O)[O-])cc4)c4nc(c(-c5ccc(S(=O)(=O)[O-])cc5)c5ccc2[nH]5)C=C4)C=C3)cc1
REMARK SMILES IDX 25 1 24 2 23 3 22 4 21 5 19 6 20 7 4 8 2 9 1 10 3 11 5 12
REMARK SMILES IDX 6 14 7 15 8 16 9 17 10 18 18 19 11 20 14 21 12 22 13 23
REMARK SMILES IDX 15 24 16 25 17 26 26 27 27 28 28 29 29 30 30 31 31 32 32 33
REMARK SMILES IDX 33 34 34 35 92 36 35 37 91 38 36 39 37 40 38 41 85 42 39 43
REMARK SMILES IDX 90 44 84 45 86 46 40 47 89 48 83 49 82 50 41 52 71 53 52 54
REMARK SMILES IDX 70 55 53 56 56 57 69 58 87 59 54 60 55 61 68 63 88 64 57 65
REMARK SMILES IDX 42 66 43 67 51 68 44 69 50 70 45 71 46 72 47 73 48 74 49 75
REMARK SMILES IDX 72 76 73 77 81 78 74 79 80 80 75 81 76 82 77 83 78 84 79 85
REMARK SMILES IDX 58 86 59 87 67 88 60 89 66 90 61 91 62 92 63 93 64 94 65 95
REMARK H PARENT 5 13 86 51 56 62
REMARK Flexibility Score: inf
ROOT
ATOM      1  C   UNL A   1      50.799  20.450  37.549  1.00  0.00     0.188 C 
ENDROOT
BRANCH   1   2
ATOM      2  O   UNL A   1      49.869  19.437  37.908  1.00  0.00    -0.376 OA
BRANCH   2   3
ATOM      3  C   UNL A   1      49.771  19.209  39.304  1.00  0.00     0.202 C 
BRANCH   3   4
ATOM      4  C   UNL A   1      48.707  19.914  40.189  1.00  0.00     0.261 C 
BRANCH   4   5
ATOM      5  O   UNL A   1      47.507  19.328  40.752  1.00  0.00    -0.462 OA
BRANCH   5   6
ATOM      6  C   UNL A   1      47.564  18.532  41.840  1.00  0.00     0.324 C 
ATOM      7  O   UNL A   1      48.579  18.382  42.509  1.00  0.00    -0.250 OA
BRANCH   6   8
ATOM      8  C   UNL A   1      46.276  17.726  42.112  1.00  0.00     0.182 C 
BRANCH   8   9
ATOM      9  C   UNL A   1      45.263  17.504  40.943  1.00  0.00     0.012 C 
ATOM     10  C   UNL A   1      45.766  16.425  39.963  1.00  0.00     0.009 C 
ATOM     11  C   UNL A   1      43.874  17.032  41.394  1.00  0.00     0.009 C 
ENDBRANCH   8   9
BRANCH   8  12
ATOM     12  N   UNL A   1      46.754  16.407  42.642  1.00  0.00    -0.197 NA
ATOM     13  H   UNL A   1      47.767  16.387  42.525  1.00  0.00     0.142 HD
BRANCH  12  14
ATOM     14  S   UNL A   1      46.431  16.009  44.259  1.00  0.00     0.241 S 
ATOM     15  O   UNL A   1      47.707  15.828  44.916  1.00  0.00    -0.207 OA
ATOM     16  O   UNL A   1      45.476  16.992  44.706  1.00  0.00    -0.207 OA
BRANCH  14  17
ATOM     17  C   UNL A   1      45.567  14.453  44.198  1.00  0.00     0.089 A 
ATOM     18  C   UNL A   1      44.194  14.427  43.946  1.00  0.00     0.024 A 
ATOM     19  C   UNL A   1      46.255  13.267  44.466  1.00  0.00     0.109 A 
ATOM     20  C   UNL A   1      43.488  13.225  44.057  1.00  0.00     0.029 A 
ATOM     21  C   UNL A   1      45.542  12.047  44.546  1.00  0.00     0.289 A 
ATOM     22  C   UNL A   1      44.149  12.028  44.364  1.00  0.00     0.118 A 
ATOM     23  Cl  UNL A   1      43.132  10.639  44.518  1.00  0.00    -0.077 Cl
BRANCH  21  24
ATOM     24  N   UNL A   1      46.312  10.851  44.918  1.00  0.00     0.064 N 
ATOM     25  O   UNL A   1      46.943  10.284  44.015  1.00  0.00    -0.258 OA
ATOM     26  O   UNL A   1      46.355  10.503  46.104  1.00  0.00    -0.258 OA
ENDBRANCH  21  24
ENDBRANCH  14  17
ENDBRANCH  12  14
ENDBRANCH   8  12
ENDBRANCH   6   8
ENDBRANCH   5   6
ENDBRANCH   4   5
ENDBRANCH   3   4
ENDBRANCH   2   3
ENDBRANCH   1   2
BRANCH   1  27
ATOM     27  C   UNL A   1      50.097  21.494  36.709  1.00  0.00     0.188 C 
BRANCH  27  28
ATOM     28  O   UNL A   1      50.320  21.365  35.320  1.00  0.00    -0.376 OA
BRANCH  28  29
ATOM     29  C   UNL A   1      49.403  20.603  34.547  1.00  0.00     0.202 C 
BRANCH  29  30
ATOM     30  C   UNL A   1      47.872  20.677  34.744  1.00  0.00     0.261 C 
BRANCH  30  31
ATOM     31  O   UNL A   1      47.181  21.892  34.381  1.00  0.00    -0.460 OA
BRANCH  31  32
ATOM     32  C   UNL A   1      45.835  21.966  34.543  1.00  0.00     0.338 C 
ATOM     33  O   UNL A   1      45.149  21.236  35.233  1.00  0.00    -0.246 OA
BRANCH  32  34
ATOM     34  C   UNL A   1      45.405  23.296  34.003  1.00  0.00     0.060 A 
ATOM     35  C   UNL A   1      44.374  23.338  33.045  1.00  0.00     0.016 A 
ATOM     36  C   UNL A   1      45.909  24.490  34.521  1.00  0.00     0.016 A 
ATOM     37  C   UNL A   1      43.848  24.560  32.611  1.00  0.00     0.010 A 
ATOM     38  C   UNL A   1      45.415  25.715  34.049  1.00  0.00     0.010 A 
ATOM     39  C   UNL A   1      44.392  25.760  33.082  1.00  0.00    -0.014 A 
BRANCH  39  40
ATOM     40  C   UNL A   1      44.034  27.055  32.442  1.00  0.00     0.031 A 
ATOM     41  C   UNL A   1      44.659  27.385  31.113  1.00  0.00     0.074 A 
ATOM     42  C   UNL A   1      43.181  27.927  33.013  1.00  0.00     0.049 A 
ATOM     43  N   UNL A   1      44.604  28.492  30.419  1.00  0.00    -0.248 NA
ATOM     44  C   UNL A   1      45.454  26.317  30.484  1.00  0.00     0.031 C 
ATOM     45  C   UNL A   1      42.444  27.706  34.256  1.00  0.00     0.029 A 
ATOM     46  N   UNL A   1      42.803  29.189  32.619  1.00  0.00    -0.354 N 
ATOM     47  C   UNL A   1      45.373  28.264  29.284  1.00  0.00     0.074 A 
ATOM     48  C   UNL A   1      45.897  26.919  29.390  1.00  0.00     0.031 C 
ATOM     49  C   UNL A   1      41.717  28.805  34.532  1.00  0.00     0.029 A 
ATOM     50  C   UNL A   1      41.974  29.824  33.514  1.00  0.00     0.049 A 
ATOM     51  H   UNL A   1      43.098  29.600  31.774  1.00  0.00     0.167 HD
ATOM     52  C   UNL A   1      45.625  29.097  28.246  1.00  0.00     0.031 A 
ATOM     53  C   UNL A   1      41.508  31.091  33.534  1.00  0.00     0.031 A 
ATOM     54  C   UNL A   1      45.117  30.441  28.149  1.00  0.00     0.049 A 
ATOM     55  C   UNL A   1      41.890  32.039  32.425  1.00  0.00     0.074 A 
ATOM     56  C   UNL A   1      45.312  31.361  27.134  1.00  0.00     0.029 A 
ATOM     57  N   UNL A   1      44.326  31.060  29.103  1.00  0.00    -0.354 N 
ATOM     58  N   UNL A   1      42.613  31.810  31.354  1.00  0.00    -0.248 NA
ATOM     59  C   UNL A   1      41.394  33.421  32.527  1.00  0.00     0.031 C 
ATOM     60  C   UNL A   1      44.699  32.560  27.507  1.00  0.00     0.029 A 
ATOM     61  C   UNL A   1      44.058  32.365  28.720  1.00  0.00     0.049 A 
ATOM     62  H   UNL A   1      44.003  30.637  29.931  1.00  0.00     0.167 HD
ATOM     63  C   UNL A   1      42.640  33.010  30.648  1.00  0.00     0.074 A 
ATOM     64  C   UNL A   1      41.843  33.956  31.400  1.00  0.00     0.031 C 
ATOM     65  C   UNL A   1      43.270  33.302  29.481  1.00  0.00     0.031 A 
BRANCH  52  66
ATOM     66  C   UNL A   1      46.534  28.597  27.154  1.00  0.00    -0.014 A 
ATOM     67  C   UNL A   1      46.027  27.930  26.024  1.00  0.00     0.010 A 
ATOM     68  C   UNL A   1      47.919  28.831  27.245  1.00  0.00     0.010 A 
ATOM     69  C   UNL A   1      46.891  27.476  25.024  1.00  0.00     0.020 A 
ATOM     70  C   UNL A   1      48.783  28.407  26.232  1.00  0.00     0.020 A 
ATOM     71  C   UNL A   1      48.265  27.718  25.134  1.00  0.00     0.054 A 
BRANCH  71  72
ATOM     72  S   UNL A   1      49.359  27.139  23.809  1.00  0.00     0.124 S 
ATOM     73  O   UNL A   1      48.401  26.635  22.827  1.00  0.00    -0.237 OA
ATOM     74  O   UNL A   1      50.069  28.356  23.427  1.00  0.00    -0.237 OA
ATOM     75  O   UNL A   1      50.180  26.117  24.457  1.00  0.00    -0.744 OA
ENDBRANCH  71  72
ENDBRANCH  52  66
BRANCH  53  76
ATOM     76  C   UNL A   1      40.663  31.561  34.671  1.00  0.00    -0.014 A 
ATOM     77  C   UNL A   1      39.260  31.566  34.575  1.00  0.00     0.010 A 
ATOM     78  C   UNL A   1      41.265  32.024  35.857  1.00  0.00     0.010 A 
ATOM     79  C   UNL A   1      38.477  32.031  35.637  1.00  0.00     0.020 A 
ATOM     80  C   UNL A   1      40.485  32.459  36.932  1.00  0.00     0.020 A 
ATOM     81  C   UNL A   1      39.095  32.468  36.813  1.00  0.00     0.054 A 
BRANCH  81  82
ATOM     82  S   UNL A   1      38.057  33.006  38.201  1.00  0.00     0.124 S 
ATOM     83  O   UNL A   1      36.712  32.801  37.673  1.00  0.00    -0.237 OA
ATOM     84  O   UNL A   1      38.466  32.095  39.268  1.00  0.00    -0.237 OA
ATOM     85  O   UNL A   1      38.448  34.400  38.399  1.00  0.00    -0.744 OA
ENDBRANCH  81  82
ENDBRANCH  53  76
BRANCH  65  86
ATOM     86  C   UNL A   1      43.110  34.697  28.928  1.00  0.00    -0.014 A 
ATOM     87  C   UNL A   1      42.052  35.022  28.062  1.00  0.00     0.010 A 
ATOM     88  C   UNL A   1      43.998  35.712  29.333  1.00  0.00     0.010 A 
ATOM     89  C   UNL A   1      41.902  36.329  27.586  1.00  0.00     0.020 A 
ATOM     90  C   UNL A   1      43.833  37.026  28.885  1.00  0.00     0.020 A 
ATOM     91  C   UNL A   1      42.793  37.323  28.003  1.00  0.00     0.054 A 
BRANCH  91  92
ATOM     92  S   UNL A   1      42.546  39.019  27.408  1.00  0.00     0.124 S 
ATOM     93  O   UNL A   1      42.310  39.747  28.653  1.00  0.00    -0.237 OA
ATOM     94  O   UNL A   1      43.812  39.311  26.740  1.00  0.00    -0.237 OA
ATOM     95  O   UNL A   1      41.390  38.912  26.521  1.00  0.00    -0.744 OA
ENDBRANCH  91  92
ENDBRANCH  65  86
ENDBRANCH  39  40
ENDBRANCH  32  34
ENDBRANCH  31  32
ENDBRANCH  30  31
ENDBRANCH  29  30
ENDBRANCH  28  29
ENDBRANCH  27  28
ENDBRANCH   1  27
TORSDOF 25
ENDMDL
MODEL 2
REMARK VINA RESULT:      -7.7      2.031      2.530
REMARK SMILES CC(C)[C@@H](NS(=O)(=O)c1ccc(Cl)c([N+](=O)[O-])c1)C(=O)OCCOCCOCCOC(=O)c1ccc(-c2c3nc(c(-c4ccc(S(=O)(=O)[O-])cc4)c4ccc([nH]4)c(-c4ccc(S(=O)(=O)[O-])cc4)c4nc(c(-c5ccc(S(=O)(=O)[O-])cc5)c5ccc2[nH]5)C=C4)C=C3)cc1
REMARK SMILES IDX 25 1 24 2 23 3 22 4 21 5 19 6 20 7 4 8 2 9 1 10 3 11 5 12
REMARK SMILES IDX 6 14 7 15 8 16 9 17 10 18 18 19 11 20 14 21 12 22 13 23
REMARK SMILES IDX 15 24 16 25 17 26 26 27 27 28 28 29 29 30 30 31 31 32 32 33
REMARK SMILES IDX 33 34 34 35 92 36 35 37 91 38 36 39 37 40 38 41 85 42 39 43
REMARK SMILES IDX 90 44 84 45 86 46 40 47 89 48 83 49 82 50 41 52 71 53 52 54
REMARK SMILES IDX 70 55 53 56 56 57 69 58 87 59 54 60 55 61 68 63 88 64 57 65
REMARK SMILES IDX 42 66 43 67 51 68 44 69 50 70 45 71 46 72 47 73 48 74 49 75
REMARK SMILES IDX 72 76 73 77 81 78 74 79 80 80 75 81 76 82 77 83 78 84 79 85
REMARK SMILES IDX 58 86 59 87 67 88 60 89 66 90 61 91 62 92 63 93 64 94 65 95
REMARK H PARENT 5 13 86 51 56 62
REMARK Flexibility Score: inf
ROOT
ATOM      1  C   UNL A   1      51.114  21.878  37.618  1.00  0.00     0.188 C 
ENDROOT
BRANCH   1   2
ATOM      2  O   UNL A   1      50.396  21.100  38.566  1.00  0.00    -0.376 OA
BRANCH   2   3
ATOM      3  C   UNL A   1      49.536  21.855  39.402  1.00  0.00     0.202 C 
BRANCH   3   4
ATOM      4  C   UNL A   1      48.025  21.527  39.555  1.00  0.00     0.261 C 
BRANCH   4   5
ATOM      5  O   UNL A   1      47.436  20.449  40.324  1.00  0.00    -0.462 OA
BRANCH   5   6
ATOM      6  C   UNL A   1      46.556  19.593  39.765  1.00  0.00     0.324 C 
ATOM      7  O   UNL A   1      45.967  19.825  38.717  1.00  0.00    -0.250 OA
BRANCH   6   8
ATOM      8  C   UNL A   1      46.256  18.337  40.613  1.00  0.00     0.182 C 
BRANCH   8   9
ATOM      9  C   UNL A   1      46.661  18.331  42.122  1.00  0.00     0.012 C 
ATOM     10  C   UNL A   1      45.553  18.942  43.002  1.00  0.00     0.009 C 
ATOM     11  C   UNL A   1      46.917  16.933  42.699  1.00  0.00     0.009 C 
ENDBRANCH   8   9
BRANCH   8  12
ATOM     12  N   UNL A   1      44.778  18.123  40.471  1.00  0.00    -0.197 NA
ATOM     13  H   UNL A   1      44.396  18.960  40.031  1.00  0.00     0.142 HD
BRANCH  12  14
ATOM     14  S   UNL A   1      44.226  16.793  39.576  1.00  0.00     0.241 S 
ATOM     15  O   UNL A   1      43.356  17.307  38.541  1.00  0.00    -0.207 OA
ATOM     16  O   UNL A   1      45.409  16.028  39.267  1.00  0.00    -0.207 OA
BRANCH  14  17
ATOM     17  C   UNL A   1      43.276  15.816  40.722  1.00  0.00     0.089 A 
ATOM     18  C   UNL A   1      43.231  16.171  42.072  1.00  0.00     0.024 A 
ATOM     19  C   UNL A   1      42.628  14.660  40.277  1.00  0.00     0.109 A 
ATOM     20  C   UNL A   1      42.620  15.318  42.996  1.00  0.00     0.029 A 
ATOM     21  C   UNL A   1      41.984  13.815  41.212  1.00  0.00     0.289 A 
ATOM     22  C   UNL A   1      41.998  14.132  42.580  1.00  0.00     0.118 A 
ATOM     23  Cl  UNL A   1      41.335  13.160  43.847  1.00  0.00    -0.077 Cl
BRANCH  21  24
ATOM     24  N   UNL A   1      41.399  12.571  40.689  1.00  0.00     0.064 N 
ATOM     25  O   UNL A   1      40.162  12.499  40.659  1.00  0.00    -0.258 OA
ATOM     26  O   UNL A   1      42.145  11.691  40.247  1.00  0.00    -0.258 OA
ENDBRANCH  21  24
ENDBRANCH  14  17
ENDBRANCH  12  14
ENDBRANCH   8  12
ENDBRANCH   6   8
ENDBRANCH   5   6
ENDBRANCH   4   5
ENDBRANCH   3   4
ENDBRANCH   2   3
ENDBRANCH   1   2
BRANCH   1  27
ATOM     27  C   UNL A   1      50.132  22.640  36.753  1.00  0.00     0.188 C 
BRANCH  27  28
ATOM     28  O   UNL A   1      50.011  22.141  35.438  1.00  0.00    -0.376 OA
BRANCH  28  29
ATOM     29  C   UNL A   1      49.287  20.935  35.227  1.00  0.00     0.202 C 
BRANCH  29  30
ATOM     30  C   UNL A   1      47.753  20.838  35.381  1.00  0.00     0.261 C 
BRANCH  30  31
ATOM     31  O   UNL A   1      46.912  21.483  34.401  1.00  0.00    -0.460 OA
BRANCH  31  32
ATOM     32  C   UNL A   1      45.584  21.622  34.650  1.00  0.00     0.338 C 
ATOM     33  O   UNL A   1      44.908  20.917  35.375  1.00  0.00    -0.246 OA
BRANCH  32  34
ATOM     34  C   UNL A   1      45.189  22.979  34.153  1.00  0.00     0.060 A 
ATOM     35  C   UNL A   1      44.037  23.098  33.351  1.00  0.00     0.016 A 
ATOM     36  C   UNL A   1      45.855  24.131  34.573  1.00  0.00     0.016 A 
ATOM     37  C   UNL A   1      43.554  24.357  32.975  1.00  0.00     0.010 A 
ATOM     38  C   UNL A   1      45.397  25.389  34.156  1.00  0.00     0.010 A 
ATOM     39  C   UNL A   1      44.253  25.511  33.342  1.00  0.00    -0.014 A 
BRANCH  39  40
ATOM     40  C   UNL A   1      43.912  26.827  32.738  1.00  0.00     0.031 A 
ATOM     41  C   UNL A   1      44.533  27.181  31.413  1.00  0.00     0.074 A 
ATOM     42  C   UNL A   1      43.076  27.698  33.335  1.00  0.00     0.049 A 
ATOM     43  N   UNL A   1      44.492  28.305  30.747  1.00  0.00    -0.248 NA
ATOM     44  C   UNL A   1      45.308  26.117  30.752  1.00  0.00     0.031 C 
ATOM     45  C   UNL A   1      42.343  27.458  34.577  1.00  0.00     0.029 A 
ATOM     46  N   UNL A   1      42.715  28.975  32.975  1.00  0.00    -0.354 N 
ATOM     47  C   UNL A   1      45.250  28.094  29.601  1.00  0.00     0.074 A 
ATOM     48  C   UNL A   1      45.754  26.739  29.671  1.00  0.00     0.031 C 
ATOM     49  C   UNL A   1      41.634  28.560  34.885  1.00  0.00     0.029 A 
ATOM     50  C   UNL A   1      41.902  29.600  33.891  1.00  0.00     0.049 A 
ATOM     51  H   UNL A   1      43.011  29.402  32.139  1.00  0.00     0.167 HD
ATOM     52  C   UNL A   1      45.509  28.949  28.583  1.00  0.00     0.031 A 
ATOM     53  C   UNL A   1      41.455  30.874  33.945  1.00  0.00     0.031 A 
ATOM     54  C   UNL A   1      45.022  30.302  28.523  1.00  0.00     0.049 A 
ATOM     55  C   UNL A   1      41.846  31.843  32.857  1.00  0.00     0.074 A 
ATOM     56  C   UNL A   1      45.225  31.244  27.530  1.00  0.00     0.029 A 
ATOM     57  N   UNL A   1      44.246  30.910  29.497  1.00  0.00    -0.354 N 
ATOM     58  N   UNL A   1      42.559  31.629  31.776  1.00  0.00    -0.248 NA
ATOM     59  C   UNL A   1      41.372  33.229  32.997  1.00  0.00     0.031 C 
ATOM     60  C   UNL A   1      44.632  32.443  27.936  1.00  0.00     0.029 A 
ATOM     61  C   UNL A   1      43.996  32.228  29.148  1.00  0.00     0.049 A 
ATOM     62  H   UNL A   1      43.921  30.471  30.316  1.00  0.00     0.167 HD
ATOM     63  C   UNL A   1      42.600  32.846  31.100  1.00  0.00     0.074 A 
ATOM     64  C   UNL A   1      41.822  33.785  31.881  1.00  0.00     0.031 C 
ATOM     65  C   UNL A   1      43.227  33.157  29.937  1.00  0.00     0.031 A 
BRANCH  52  66
ATOM     66  C   UNL A   1      46.404  28.462  27.474  1.00  0.00    -0.014 A 
ATOM     67  C   UNL A   1      47.623  29.099  27.180  1.00  0.00     0.010 A 
ATOM     68  C   UNL A   1      46.035  27.321  26.737  1.00  0.00     0.010 A 
ATOM     69  C   UNL A   1      48.437  28.628  26.146  1.00  0.00     0.020 A 
ATOM     70  C   UNL A   1      46.860  26.827  25.724  1.00  0.00     0.020 A 
ATOM     71  C   UNL A   1      48.050  27.494  25.424  1.00  0.00     0.054 A 
BRANCH  71  72
ATOM     72  S   UNL A   1      49.138  26.891  24.105  1.00  0.00     0.124 S 
ATOM     73  O   UNL A   1      50.025  25.988  24.836  1.00  0.00    -0.237 OA
ATOM     74  O   UNL A   1      48.202  26.245  23.189  1.00  0.00    -0.237 OA
ATOM     75  O   UNL A   1      49.771  28.105  23.594  1.00  0.00    -0.744 OA
ENDBRANCH  71  72
ENDBRANCH  52  66
BRANCH  53  76
ATOM     76  C   UNL A   1      40.625  31.328  35.098  1.00  0.00    -0.014 A 
ATOM     77  C   UNL A   1      39.220  31.304  35.032  1.00  0.00     0.010 A 
ATOM     78  C   UNL A   1      41.241  31.805  36.271  1.00  0.00     0.010 A 
ATOM     79  C   UNL A   1      38.450  31.754  36.110  1.00  0.00     0.020 A 
ATOM     80  C   UNL A   1      40.475  32.226  37.362  1.00  0.00     0.020 A 
ATOM     81  C   UNL A   1      39.082  32.206  37.271  1.00  0.00     0.054 A 
BRANCH  81  82
ATOM     82  S   UNL A   1      38.062  32.724  38.680  1.00  0.00     0.124 S 
ATOM     83  O   UNL A   1      38.689  32.011  39.788  1.00  0.00    -0.237 OA
ATOM     84  O   UNL A   1      38.238  34.175  38.677  1.00  0.00    -0.237 OA
ATOM     85  O   UNL A   1      36.722  32.267  38.318  1.00  0.00    -0.744 OA
ENDBRANCH  81  82
ENDBRANCH  53  76
BRANCH  65  86
ATOM     86  C   UNL A   1      43.085  34.568  29.420  1.00  0.00    -0.014 A 
ATOM     87  C   UNL A   1      44.120  35.508  29.570  1.00  0.00     0.010 A 
ATOM     88  C   UNL A   1      41.922  34.939  28.719  1.00  0.00     0.010 A 
ATOM     89  C   UNL A   1      43.982  36.801  29.056  1.00  0.00     0.020 A 
ATOM     90  C   UNL A   1      41.793  36.220  28.176  1.00  0.00     0.020 A 
ATOM     91  C   UNL A   1      42.820  37.148  28.359  1.00  0.00     0.054 A 
BRANCH  91  92
ATOM     92  S   UNL A   1      42.688  38.817  27.661  1.00  0.00     0.124 S 
ATOM     93  O   UNL A   1      41.937  39.522  28.697  1.00  0.00    -0.237 OA
ATOM     94  O   UNL A   1      44.086  39.215  27.517  1.00  0.00    -0.237 OA
ATOM     95  O   UNL A   1      41.972  38.612  26.404  1.00  0.00    -0.744 OA
ENDBRANCH  91  92
ENDBRANCH  65  86
ENDBRANCH  39  40
ENDBRANCH  32  34
ENDBRANCH  31  32
ENDBRANCH  30  31
ENDBRANCH  29  30
ENDBRANCH  28  29
ENDBRANCH  27  28
ENDBRANCH   1  27
TORSDOF 25
ENDMDL
MODEL 3
REMARK VINA RESULT:      -7.6     10.119     15.907
REMARK SMILES CC(C)[C@@H](NS(=O)(=O)c1ccc(Cl)c([N+](=O)[O-])c1)C(=O)OCCOCCOCCOC(=O)c1ccc(-c2c3nc(c(-c4ccc(S(=O)(=O)[O-])cc4)c4ccc([nH]4)c(-c4ccc(S(=O)(=O)[O-])cc4)c4nc(c(-c5ccc(S(=O)(=O)[O-])cc5)c5ccc2[nH]5)C=C4)C=C3)cc1
REMARK SMILES IDX 25 1 24 2 23 3 22 4 21 5 19 6 20 7 4 8 2 9 1 10 3 11 5 12
REMARK SMILES IDX 6 14 7 15 8 16 9 17 10 18 18 19 11 20 14 21 12 22 13 23
REMARK SMILES IDX 15 24 16 25 17 26 26 27 27 28 28 29 29 30 30 31 31 32 32 33
REMARK SMILES IDX 33 34 34 35 92 36 35 37 91 38 36 39 37 40 38 41 85 42 39 43
REMARK SMILES IDX 90 44 84 45 86 46 40 47 89 48 83 49 82 50 41 52 71 53 52 54
REMARK SMILES IDX 70 55 53 56 56 57 69 58 87 59 54 60 55 61 68 63 88 64 57 65
REMARK SMILES IDX 42 66 43 67 51 68 44 69 50 70 45 71 46 72 47 73 48 74 49 75
REMARK SMILES IDX 72 76 73 77 81 78 74 79 80 80 75 81 76 82 77 83 78 84 79 85
REMARK SMILES IDX 58 86 59 87 67 88 60 89 66 90 61 91 62 92 63 93 64 94 65 95
REMARK H PARENT 5 13 86 51 56 62
REMARK Flexibility Score: inf
ROOT
ATOM      1  C   UNL A   1      42.801  32.570  31.502  1.00  0.00     0.188 C 
ENDROOT
BRANCH   1   2
ATOM      2  O   UNL A   1      42.151  33.053  32.671  1.00  0.00    -0.376 OA
BRANCH   2   3
ATOM      3  C   UNL A   1      42.160  32.142  33.757  1.00  0.00     0.202 C 
BRANCH   3   4
ATOM      4  C   UNL A   1      40.859  31.505  34.319  1.00  0.00     0.261 C 
BRANCH   4   5
ATOM      5  O   UNL A   1      39.656  31.175  33.581  1.00  0.00    -0.462 OA
BRANCH   5   6
ATOM      6  C   UNL A   1      38.434  31.367  34.119  1.00  0.00     0.324 C 
ATOM      7  O   UNL A   1      38.066  30.831  35.157  1.00  0.00    -0.250 OA
BRANCH   6   8
ATOM      8  C   UNL A   1      37.483  32.227  33.258  1.00  0.00     0.182 C 
BRANCH   8   9
ATOM      9  C   UNL A   1      37.224  33.711  33.673  1.00  0.00     0.012 C 
ATOM     10  C   UNL A   1      36.364  33.793  34.951  1.00  0.00     0.009 C 
ATOM     11  C   UNL A   1      38.496  34.510  33.985  1.00  0.00     0.009 C 
ENDBRANCH   8   9
BRANCH   8  12
ATOM     12  N   UNL A   1      38.058  32.167  31.875  1.00  0.00    -0.197 NA
ATOM     13  H   UNL A   1      38.897  31.590  31.925  1.00  0.00     0.142 HD
BRANCH  12  14
ATOM     14  S   UNL A   1      37.102  31.550  30.617  1.00  0.00     0.241 S 
ATOM     15  O   UNL A   1      35.826  31.184  31.192  1.00  0.00    -0.207 OA
ATOM     16  O   UNL A   1      37.210  32.516  29.551  1.00  0.00    -0.207 OA
BRANCH  14  17
ATOM     17  C   UNL A   1      37.946  30.084  30.060  1.00  0.00     0.089 A 
ATOM     18  C   UNL A   1      37.736  28.867  30.713  1.00  0.00     0.024 A 
ATOM     19  C   UNL A   1      38.864  30.168  29.010  1.00  0.00     0.109 A 
ATOM     20  C   UNL A   1      38.515  27.755  30.381  1.00  0.00     0.029 A 
ATOM     21  C   UNL A   1      39.629  29.032  28.656  1.00  0.00     0.289 A 
ATOM     22  C   UNL A   1      39.471  27.825  29.358  1.00  0.00     0.118 A 
ATOM     23  Cl  UNL A   1      40.390  26.384  29.103  1.00  0.00    -0.077 Cl
BRANCH  21  24
ATOM     24  N   UNL A   1      40.639  29.213  27.603  1.00  0.00     0.064 N 
ATOM     25  O   UNL A   1      41.775  29.551  27.963  1.00  0.00    -0.258 OA
ATOM     26  O   UNL A   1      40.342  28.961  26.430  1.00  0.00    -0.258 OA
ENDBRANCH  21  24
ENDBRANCH  14  17
ENDBRANCH  12  14
ENDBRANCH   8  12
ENDBRANCH   6   8
ENDBRANCH   5   6
ENDBRANCH   4   5
ENDBRANCH   3   4
ENDBRANCH   2   3
ENDBRANCH   1   2
BRANCH   1  27
ATOM     27  C   UNL A   1      41.928  32.847  30.297  1.00  0.00     0.188 C 
BRANCH  27  28
ATOM     28  O   UNL A   1      40.595  33.189  30.615  1.00  0.00    -0.376 OA
BRANCH  28  29
ATOM     29  C   UNL A   1      40.119  34.482  30.265  1.00  0.00     0.202 C 
BRANCH  29  30
ATOM     30  C   UNL A   1      40.469  35.174  28.929  1.00  0.00     0.261 C 
BRANCH  30  31
ATOM     31  O   UNL A   1      41.429  36.252  28.933  1.00  0.00    -0.460 OA
BRANCH  31  32
ATOM     32  C   UNL A   1      41.938  36.696  27.754  1.00  0.00     0.338 C 
ATOM     33  O   UNL A   1      41.710  37.769  27.229  1.00  0.00    -0.246 OA
BRANCH  32  34
ATOM     34  C   UNL A   1      43.074  35.786  27.400  1.00  0.00     0.060 A 
ATOM     35  C   UNL A   1      43.976  35.403  28.411  1.00  0.00     0.016 A 
ATOM     36  C   UNL A   1      43.178  35.209  26.134  1.00  0.00     0.016 A 
ATOM     37  C   UNL A   1      44.972  34.451  28.160  1.00  0.00     0.010 A 
ATOM     38  C   UNL A   1      44.205  34.292  25.870  1.00  0.00     0.010 A 
ATOM     39  C   UNL A   1      45.118  33.917  26.876  1.00  0.00    -0.014 A 
BRANCH  39  40
ATOM     40  C   UNL A   1      46.320  33.115  26.523  1.00  0.00     0.031 A 
ATOM     41  C   UNL A   1      46.211  31.614  26.575  1.00  0.00     0.074 A 
ATOM     42  C   UNL A   1      47.487  33.686  26.166  1.00  0.00     0.049 A 
ATOM     43  N   UNL A   1      47.140  30.706  26.434  1.00  0.00    -0.248 NA
ATOM     44  C   UNL A   1      44.865  31.067  26.821  1.00  0.00     0.031 C 
ATOM     45  C   UNL A   1      47.715  35.120  25.997  1.00  0.00     0.029 A 
ATOM     46  N   UNL A   1      48.709  33.117  25.892  1.00  0.00    -0.354 N 
ATOM     47  C   UNL A   1      46.500  29.482  26.596  1.00  0.00     0.074 A 
ATOM     48  C   UNL A   1      45.106  29.766  26.861  1.00  0.00     0.031 C 
ATOM     49  C   UNL A   1      49.005  35.319  25.668  1.00  0.00     0.029 A 
ATOM     50  C   UNL A   1      49.705  34.034  25.651  1.00  0.00     0.049 A 
ATOM     51  H   UNL A   1      48.857  32.144  25.872  1.00  0.00     0.167 HD
ATOM     52  C   UNL A   1      47.023  28.235  26.532  1.00  0.00     0.031 A 
ATOM     53  C   UNL A   1      51.033  33.864  25.475  1.00  0.00     0.031 A 
ATOM     54  C   UNL A   1      48.413  27.953  26.284  1.00  0.00     0.049 A 
ATOM     55  C   UNL A   1      51.613  32.472  25.518  1.00  0.00     0.074 A 
ATOM     56  C   UNL A   1      49.037  26.722  26.195  1.00  0.00     0.029 A 
ATOM     57  N   UNL A   1      49.394  28.914  26.098  1.00  0.00    -0.354 N 
ATOM     58  N   UNL A   1      50.996  31.323  25.665  1.00  0.00    -0.248 NA
ATOM     59  C   UNL A   1      53.073  32.354  25.372  1.00  0.00     0.031 C 
ATOM     60  C   UNL A   1      50.408  26.938  26.026  1.00  0.00     0.029 A 
ATOM     61  C   UNL A   1      50.628  28.303  25.935  1.00  0.00     0.049 A 
ATOM     62  H   UNL A   1      49.240  29.885  26.084  1.00  0.00     0.167 HD
ATOM     63  C   UNL A   1      51.989  30.348  25.609  1.00  0.00     0.074 A 
ATOM     64  C   UNL A   1      53.243  31.039  25.391  1.00  0.00     0.031 C 
ATOM     65  C   UNL A   1      51.872  29.001  25.727  1.00  0.00     0.031 A 
BRANCH  52  66
ATOM     66  C   UNL A   1      46.094  27.076  26.787  1.00  0.00    -0.014 A 
ATOM     67  C   UNL A   1      45.387  26.457  25.739  1.00  0.00     0.010 A 
ATOM     68  C   UNL A   1      45.957  26.573  28.094  1.00  0.00     0.010 A 
ATOM     69  C   UNL A   1      44.532  25.383  26.001  1.00  0.00     0.020 A 
ATOM     70  C   UNL A   1      45.128  25.479  28.355  1.00  0.00     0.020 A 
ATOM     71  C   UNL A   1      44.408  24.900  27.309  1.00  0.00     0.054 A 
BRANCH  71  72
ATOM     72  S   UNL A   1      43.311  23.489  27.614  1.00  0.00     0.124 S 
ATOM     73  O   UNL A   1      42.029  23.994  27.128  1.00  0.00    -0.237 OA
ATOM     74  O   UNL A   1      43.916  22.434  26.806  1.00  0.00    -0.237 OA
ATOM     75  O   UNL A   1      43.393  23.291  29.059  1.00  0.00    -0.744 OA
ENDBRANCH  71  72
ENDBRANCH  52  66
BRANCH  53  76
ATOM     76  C   UNL A   1      51.922  35.047  25.292  1.00  0.00    -0.014 A 
ATOM     77  C   UNL A   1      52.543  35.663  26.393  1.00  0.00     0.010 A 
ATOM     78  C   UNL A   1      52.142  35.577  24.006  1.00  0.00     0.010 A 
ATOM     79  C   UNL A   1      53.357  36.787  26.214  1.00  0.00     0.020 A 
ATOM     80  C   UNL A   1      52.979  36.680  23.819  1.00  0.00     0.020 A 
ATOM     81  C   UNL A   1      53.576  37.284  24.926  1.00  0.00     0.054 A 
BRANCH  81  82
ATOM     82  S   UNL A   1      54.687  38.704  24.711  1.00  0.00     0.124 S 
ATOM     83  O   UNL A   1      53.858  39.812  25.175  1.00  0.00    -0.237 OA
ATOM     84  O   UNL A   1      55.815  38.351  25.570  1.00  0.00    -0.237 OA
ATOM     85  O   UNL A   1      54.978  38.694  23.279  1.00  0.00    -0.744 OA
ENDBRANCH  81  82
ENDBRANCH  53  76
BRANCH  65  86
ATOM     86  C   UNL A   1      53.129  28.174  25.605  1.00  0.00    -0.014 A 
ATOM     87  C   UNL A   1      53.925  27.887  26.727  1.00  0.00     0.010 A 
ATOM     88  C   UNL A   1      53.483  27.627  24.357  1.00  0.00     0.010 A 
ATOM     89  C   UNL A   1      55.069  27.092  26.598  1.00  0.00     0.020 A 
ATOM     90  C   UNL A   1      54.607  26.806  24.230  1.00  0.00     0.020 A 
ATOM     91  C   UNL A   1      55.401  26.555  25.350  1.00  0.00     0.054 A 
BRANCH  91  92
ATOM     92  S   UNL A   1      56.863  25.488  25.222  1.00  0.00     0.124 S 
ATOM     93  O   UNL A   1      56.278  24.154  25.332  1.00  0.00    -0.237 OA
ATOM     94  O   UNL A   1      57.396  25.834  23.907  1.00  0.00    -0.237 OA
ATOM     95  O   UNL A   1      57.693  25.899  26.352  1.00  0.00    -0.744 OA
ENDBRANCH  91  92
ENDBRANCH  65  86
ENDBRANCH  39  40
ENDBRANCH  32  34
ENDBRANCH  31  32
ENDBRANCH  30  31
ENDBRANCH  29  30
ENDBRANCH  28  29
ENDBRANCH  27  28
ENDBRANCH   1  27
TORSDOF 25
ENDMDL
