MODEL 1
REMARK VINA RESULT:     -11.0      0.000      0.000
REMARK SMILES O=C(OCCOCCOCCOC(=O)c1ccc2c(c1)[C@@H]1C=CC[C@@H]1[C@H](c1ccncc1)N2)c1ccc(-c2c3nc(c(-c4ccc(S(=O)(=O)[O-])cc4)c4ccc([nH]4)c(-c4ccc(S(=O)(=O)[O-])cc4)c4nc(c(-c5ccc(S(=O)(=O)[O-])cc5)c5ccc2[nH]5)C=C4)C=C3)cc1
REMARK SMILES IDX 7 1 6 2 5 3 4 4 3 5 2 6 1 7 34 8 35 9 93 10 36 11 92 12
REMARK SMILES IDX 37 13 38 14 39 15 86 16 40 17 91 18 85 19 87 20 41 21 90 22
REMARK SMILES IDX 84 23 83 24 42 26 72 27 53 28 71 29 54 30 57 31 70 32 88 33
REMARK SMILES IDX 55 34 56 35 69 37 89 38 58 39 43 40 44 41 52 42 45 43 51 44
REMARK SMILES IDX 46 45 47 46 48 47 49 48 50 49 73 50 74 51 82 52 75 53 81 54
REMARK SMILES IDX 76 55 77 56 78 57 79 58 80 59 59 60 60 61 68 62 61 63 67 64
REMARK SMILES IDX 62 65 63 66 64 67 65 68 66 69 8 70 9 71 10 72 11 73 12 74
REMARK SMILES IDX 13 75 14 76 15 77 16 78 20 79 17 80 19 81 18 82 21 83 33 84
REMARK SMILES IDX 22 85 25 86 26 87 23 89 24 90 27 91 28 92 32 93 29 94 31 95
REMARK SMILES IDX 30 96
REMARK H PARENT 87 25 57 36 33 88
REMARK Flexibility Score: inf
ROOT
ATOM      1  C   UNL A   1      33.418  32.159  27.761  1.00  0.00     0.188 C 
ENDROOT
BRANCH   1   2
ATOM      2  O   UNL A   1      34.236  33.324  27.925  1.00  0.00    -0.376 OA
BRANCH   2   3
ATOM      3  C   UNL A   1      33.621  34.346  28.716  1.00  0.00     0.202 C 
BRANCH   3   4
ATOM      4  C   UNL A   1      34.143  34.430  30.156  1.00  0.00     0.261 C 
BRANCH   4   5
ATOM      5  O   UNL A   1      34.091  33.162  30.830  1.00  0.00    -0.460 OA
BRANCH   5   6
ATOM      6  C   UNL A   1      34.982  32.652  31.719  1.00  0.00     0.338 C 
ATOM      7  O   UNL A   1      34.732  32.752  32.920  1.00  0.00    -0.246 OA
BRANCH   6   8
ATOM      8  C   UNL A   1      36.225  31.917  31.323  1.00  0.00     0.060 A 
ATOM      9  C   UNL A   1      37.047  31.197  32.191  1.00  0.00     0.016 A 
ATOM     10  C   UNL A   1      36.562  31.920  29.958  1.00  0.00     0.016 A 
ATOM     11  C   UNL A   1      38.243  30.632  31.755  1.00  0.00     0.010 A 
ATOM     12  C   UNL A   1      37.726  31.285  29.499  1.00  0.00     0.010 A 
ATOM     13  C   UNL A   1      38.604  30.681  30.408  1.00  0.00    -0.014 A 
BRANCH  13  14
ATOM     14  C   UNL A   1      39.958  30.230  30.003  1.00  0.00     0.031 A 
ATOM     15  C   UNL A   1      41.102  31.200  30.115  1.00  0.00     0.074 A 
ATOM     16  C   UNL A   1      40.205  28.942  29.691  1.00  0.00     0.049 A 
ATOM     17  N   UNL A   1      42.359  31.035  29.796  1.00  0.00    -0.248 NA
ATOM     18  C   UNL A   1      40.799  32.516  30.704  1.00  0.00     0.031 C 
ATOM     19  C   UNL A   1      39.222  27.858  29.734  1.00  0.00     0.029 A 
ATOM     20  N   UNL A   1      41.368  28.316  29.311  1.00  0.00    -0.354 N 
ATOM     21  C   UNL A   1      42.998  32.210  30.167  1.00  0.00     0.074 A 
ATOM     22  C   UNL A   1      41.987  33.103  30.687  1.00  0.00     0.031 C 
ATOM     23  C   UNL A   1      39.833  26.707  29.409  1.00  0.00     0.029 A 
ATOM     24  C   UNL A   1      41.207  26.978  29.024  1.00  0.00     0.049 A 
ATOM     25  H   UNL A   1      42.234  28.780  29.248  1.00  0.00     0.167 HD
ATOM     26  C   UNL A   1      44.316  32.512  30.103  1.00  0.00     0.031 A 
ATOM     27  C   UNL A   1      42.054  26.095  28.456  1.00  0.00     0.031 A 
ATOM     28  C   UNL A   1      45.313  31.631  29.561  1.00  0.00     0.049 A 
ATOM     29  C   UNL A   1      43.437  26.555  28.120  1.00  0.00     0.074 A 
ATOM     30  C   UNL A   1      46.673  31.840  29.424  1.00  0.00     0.029 A 
ATOM     31  N   UNL A   1      45.048  30.368  29.053  1.00  0.00    -0.354 N 
ATOM     32  N   UNL A   1      43.991  27.719  28.349  1.00  0.00    -0.248 NA
ATOM     33  C   UNL A   1      44.309  25.574  27.463  1.00  0.00     0.031 C 
ATOM     34  C   UNL A   1      47.222  30.725  28.780  1.00  0.00     0.029 A 
ATOM     35  C   UNL A   1      46.213  29.802  28.567  1.00  0.00     0.049 A 
ATOM     36  H   UNL A   1      44.163  29.939  29.041  1.00  0.00     0.167 HD
ATOM     37  C   UNL A   1      45.293  27.600  27.892  1.00  0.00     0.074 A 
ATOM     38  C   UNL A   1      45.432  26.265  27.344  1.00  0.00     0.031 C 
ATOM     39  C   UNL A   1      46.302  28.500  27.967  1.00  0.00     0.031 A 
BRANCH  26  40
ATOM     40  C   UNL A   1      44.727  33.873  30.588  1.00  0.00    -0.014 A 
ATOM     41  C   UNL A   1      45.068  34.095  31.935  1.00  0.00     0.010 A 
ATOM     42  C   UNL A   1      44.745  34.951  29.686  1.00  0.00     0.010 A 
ATOM     43  C   UNL A   1      45.371  35.384  32.381  1.00  0.00     0.020 A 
ATOM     44  C   UNL A   1      45.068  36.236  30.124  1.00  0.00     0.020 A 
ATOM     45  C   UNL A   1      45.357  36.449  31.474  1.00  0.00     0.054 A 
BRANCH  45  46
ATOM     46  S   UNL A   1      45.731  38.117  32.079  1.00  0.00     0.124 S 
ATOM     47  O   UNL A   1      46.101  38.806  30.845  1.00  0.00    -0.237 OA
ATOM     48  O   UNL A   1      44.465  38.534  32.677  1.00  0.00    -0.237 OA
ATOM     49  O   UNL A   1      46.823  37.905  33.025  1.00  0.00    -0.744 OA
ENDBRANCH  45  46
ENDBRANCH  26  40
BRANCH  27  50
ATOM     50  C   UNL A   1      41.615  24.738  28.028  1.00  0.00    -0.014 A 
ATOM     51  C   UNL A   1      40.757  24.534  26.937  1.00  0.00     0.010 A 
ATOM     52  C   UNL A   1      42.063  23.622  28.761  1.00  0.00     0.010 A 
ATOM     53  C   UNL A   1      40.422  23.231  26.534  1.00  0.00     0.020 A 
ATOM     54  C   UNL A   1      41.730  22.322  28.365  1.00  0.00     0.020 A 
ATOM     55  C   UNL A   1      40.939  22.133  27.233  1.00  0.00     0.054 A 
BRANCH  55  56
ATOM     56  S   UNL A   1      40.781  20.453  26.551  1.00  0.00     0.124 S 
ATOM     57  O   UNL A   1      40.858  19.627  27.750  1.00  0.00    -0.237 OA
ATOM     58  O   UNL A   1      39.480  20.483  25.885  1.00  0.00    -0.237 OA
ATOM     59  O   UNL A   1      41.927  20.359  25.647  1.00  0.00    -0.744 OA
ENDBRANCH  55  56
ENDBRANCH  27  50
BRANCH  39  60
ATOM     60  C   UNL A   1      47.633  28.030  27.469  1.00  0.00    -0.014 A 
ATOM     61  C   UNL A   1      48.008  28.195  26.125  1.00  0.00     0.010 A 
ATOM     62  C   UNL A   1      48.499  27.375  28.361  1.00  0.00     0.010 A 
ATOM     63  C   UNL A   1      49.222  27.680  25.673  1.00  0.00     0.020 A 
ATOM     64  C   UNL A   1      49.722  26.880  27.917  1.00  0.00     0.020 A 
ATOM     65  C   UNL A   1      50.069  27.021  26.571  1.00  0.00     0.054 A 
BRANCH  65  66
ATOM     66  S   UNL A   1      51.650  26.375  25.970  1.00  0.00     0.124 S 
ATOM     67  O   UNL A   1      51.631  25.007  26.479  1.00  0.00    -0.237 OA
ATOM     68  O   UNL A   1      51.523  26.509  24.521  1.00  0.00    -0.237 OA
ATOM     69  O   UNL A   1      52.639  27.257  26.587  1.00  0.00    -0.744 OA
ENDBRANCH  65  66
ENDBRANCH  39  60
ENDBRANCH  13  14
ENDBRANCH   6   8
ENDBRANCH   5   6
ENDBRANCH   4   5
ENDBRANCH   3   4
ENDBRANCH   2   3
ENDBRANCH   1   2
BRANCH   1  70
ATOM     70  C   UNL A   1      34.247  30.942  27.343  1.00  0.00     0.188 C 
BRANCH  70  71
ATOM     71  O   UNL A   1      33.540  29.703  27.260  1.00  0.00    -0.376 OA
BRANCH  71  72
ATOM     72  C   UNL A   1      33.170  29.250  25.962  1.00  0.00     0.202 C 
BRANCH  72  73
ATOM     73  C   UNL A   1      31.674  29.104  25.653  1.00  0.00     0.261 C 
BRANCH  73  74
ATOM     74  O   UNL A   1      31.265  27.812  25.182  1.00  0.00    -0.460 OA
BRANCH  74  75
ATOM     75  C   UNL A   1      31.238  26.865  26.154  1.00  0.00     0.338 C 
ATOM     76  O   UNL A   1      31.230  27.052  27.360  1.00  0.00    -0.246 OA
BRANCH  75  77
ATOM     77  C   UNL A   1      31.363  25.514  25.583  1.00  0.00     0.060 A 
ATOM     78  C   UNL A   1      30.640  25.050  24.487  1.00  0.00     0.018 A 
ATOM     79  C   UNL A   1      32.228  24.659  26.255  1.00  0.00     0.022 A 
ATOM     80  C   UNL A   1      30.763  23.702  24.099  1.00  0.00     0.027 A 
ATOM     81  C   UNL A   1      32.393  23.333  25.833  1.00  0.00    -0.017 A 
ATOM     82  C   UNL A   1      31.615  22.818  24.782  1.00  0.00     0.038 A 
ATOM     83  C   UNL A   1      33.461  22.499  26.498  1.00  0.00     0.049 C 
ATOM     84  N   UNL A   1      31.767  21.505  24.337  1.00  0.00    -0.378 N 
ATOM     85  C   UNL A   1      34.789  23.204  26.502  1.00  0.00    -0.023 C 
ATOM     86  C   UNL A   1      33.825  21.273  25.665  1.00  0.00     0.031 C 
ATOM     87  C   UNL A   1      32.605  20.564  25.087  1.00  0.00     0.114 C 
ATOM     88  H   UNL A   1      31.308  21.209  23.517  1.00  0.00     0.161 HD
ATOM     89  C   UNL A   1      35.524  22.830  25.452  1.00  0.00    -0.030 C 
ATOM     90  C   UNL A   1      34.821  21.798  24.631  1.00  0.00     0.034 C 
BRANCH  87  91
ATOM     91  C   UNL A   1      33.018  19.321  24.293  1.00  0.00    -0.022 A 
ATOM     92  C   UNL A   1      32.323  18.998  23.112  1.00  0.00     0.026 A 
ATOM     93  C   UNL A   1      34.045  18.452  24.676  1.00  0.00     0.026 A 
ATOM     94  C   UNL A   1      32.661  17.858  22.398  1.00  0.00     0.111 A 
ATOM     95  C   UNL A   1      34.327  17.346  23.881  1.00  0.00     0.111 A 
ATOM     96  N   UNL A   1      33.667  17.034  22.747  1.00  0.00    -0.265 NA
ENDBRANCH  87  91
ENDBRANCH  75  77
ENDBRANCH  74  75
ENDBRANCH  73  74
ENDBRANCH  72  73
ENDBRANCH  71  72
ENDBRANCH  70  71
ENDBRANCH   1  70
TORSDOF 21
ENDMDL
MODEL 2
REMARK VINA RESULT:     -10.1      2.802      8.783
REMARK SMILES O=C(OCCOCCOCCOC(=O)c1ccc2c(c1)[C@@H]1C=CC[C@@H]1[C@H](c1ccncc1)N2)c1ccc(-c2c3nc(c(-c4ccc(S(=O)(=O)[O-])cc4)c4ccc([nH]4)c(-c4ccc(S(=O)(=O)[O-])cc4)c4nc(c(-c5ccc(S(=O)(=O)[O-])cc5)c5ccc2[nH]5)C=C4)C=C3)cc1
REMARK SMILES IDX 7 1 6 2 5 3 4 4 3 5 2 6 1 7 34 8 35 9 93 10 36 11 92 12
REMARK SMILES IDX 37 13 38 14 39 15 86 16 40 17 91 18 85 19 87 20 41 21 90 22
REMARK SMILES IDX 84 23 83 24 42 26 72 27 53 28 71 29 54 30 57 31 70 32 88 33
REMARK SMILES IDX 55 34 56 35 69 37 89 38 58 39 43 40 44 41 52 42 45 43 51 44
REMARK SMILES IDX 46 45 47 46 48 47 49 48 50 49 73 50 74 51 82 52 75 53 81 54
REMARK SMILES IDX 76 55 77 56 78 57 79 58 80 59 59 60 60 61 68 62 61 63 67 64
REMARK SMILES IDX 62 65 63 66 64 67 65 68 66 69 8 70 9 71 10 72 11 73 12 74
REMARK SMILES IDX 13 75 14 76 15 77 16 78 20 79 17 80 19 81 18 82 21 83 33 84
REMARK SMILES IDX 22 85 25 86 26 87 23 89 24 90 27 91 28 92 32 93 29 94 31 95
REMARK SMILES IDX 30 96
REMARK H PARENT 87 25 57 36 33 88
REMARK Flexibility Score: inf
ROOT
ATOM      1  C   UNL A   1      33.327  29.802  26.905  1.00  0.00     0.188 C 
ENDROOT
BRANCH   1   2
ATOM      2  O   UNL A   1      33.456  31.097  27.507  1.00  0.00    -0.376 OA
BRANCH   2   3
ATOM      3  C   UNL A   1      34.672  31.265  28.241  1.00  0.00     0.202 C 
BRANCH   3   4
ATOM      4  C   UNL A   1      35.884  30.549  27.630  1.00  0.00     0.261 C 
BRANCH   4   5
ATOM      5  O   UNL A   1      36.259  29.379  28.375  1.00  0.00    -0.460 OA
BRANCH   5   6
ATOM      6  C   UNL A   1      37.255  29.256  29.289  1.00  0.00     0.338 C 
ATOM      7  O   UNL A   1      36.970  29.350  30.482  1.00  0.00    -0.246 OA
BRANCH   6   8
ATOM      8  C   UNL A   1      38.678  28.949  28.934  1.00  0.00     0.060 A 
ATOM      9  C   UNL A   1      39.643  28.466  29.818  1.00  0.00     0.016 A 
ATOM     10  C   UNL A   1      39.053  29.120  27.590  1.00  0.00     0.016 A 
ATOM     11  C   UNL A   1      40.971  28.308  29.427  1.00  0.00     0.010 A 
ATOM     12  C   UNL A   1      40.371  28.888  27.171  1.00  0.00     0.010 A 
ATOM     13  C   UNL A   1      41.353  28.530  28.104  1.00  0.00    -0.014 A 
BRANCH  13  14
ATOM     14  C   UNL A   1      42.796  28.527  27.756  1.00  0.00     0.031 A 
ATOM     15  C   UNL A   1      43.418  27.242  27.283  1.00  0.00     0.074 A 
ATOM     16  C   UNL A   1      43.508  29.670  27.708  1.00  0.00     0.049 A 
ATOM     17  N   UNL A   1      44.658  26.997  26.952  1.00  0.00    -0.248 NA
ATOM     18  C   UNL A   1      42.515  26.089  27.121  1.00  0.00     0.031 C 
ATOM     19  C   UNL A   1      42.976  31.010  27.953  1.00  0.00     0.029 A 
ATOM     20  N   UNL A   1      44.830  29.893  27.400  1.00  0.00    -0.354 N 
ATOM     21  C   UNL A   1      44.679  25.678  26.520  1.00  0.00     0.074 A 
ATOM     22  C   UNL A   1      43.343  25.154  26.679  1.00  0.00     0.031 C 
ATOM     23  C   UNL A   1      43.958  31.907  27.768  1.00  0.00     0.029 A 
ATOM     24  C   UNL A   1      45.207  31.213  27.510  1.00  0.00     0.049 A 
ATOM     25  H   UNL A   1      45.448  29.176  27.127  1.00  0.00     0.167 HD
ATOM     26  C   UNL A   1      45.717  24.972  26.013  1.00  0.00     0.031 A 
ATOM     27  C   UNL A   1      46.430  31.782  27.471  1.00  0.00     0.031 A 
ATOM     28  C   UNL A   1      47.050  25.490  25.882  1.00  0.00     0.049 A 
ATOM     29  C   UNL A   1      47.610  30.905  27.197  1.00  0.00     0.074 A 
ATOM     30  C   UNL A   1      48.184  24.858  25.404  1.00  0.00     0.029 A 
ATOM     31  N   UNL A   1      47.430  26.773  26.246  1.00  0.00    -0.354 N 
ATOM     32  N   UNL A   1      47.634  29.625  26.926  1.00  0.00    -0.248 NA
ATOM     33  C   UNL A   1      48.925  31.558  27.208  1.00  0.00     0.031 C 
ATOM     34  C   UNL A   1      49.262  25.741  25.532  1.00  0.00     0.029 A 
ATOM     35  C   UNL A   1      48.787  26.940  26.038  1.00  0.00     0.049 A 
ATOM     36  H   UNL A   1      46.823  27.463  26.598  1.00  0.00     0.167 HD
ATOM     37  C   UNL A   1      48.967  29.323  26.701  1.00  0.00     0.074 A 
ATOM     38  C   UNL A   1      49.720  30.546  26.901  1.00  0.00     0.031 C 
ATOM     39  C   UNL A   1      49.515  28.148  26.312  1.00  0.00     0.031 A 
BRANCH  26  40
ATOM     40  C   UNL A   1      45.442  23.549  25.618  1.00  0.00    -0.014 A 
ATOM     41  C   UNL A   1      45.652  22.488  26.518  1.00  0.00     0.010 A 
ATOM     42  C   UNL A   1      44.993  23.270  24.315  1.00  0.00     0.010 A 
ATOM     43  C   UNL A   1      45.465  21.166  26.104  1.00  0.00     0.020 A 
ATOM     44  C   UNL A   1      44.784  21.952  23.905  1.00  0.00     0.020 A 
ATOM     45  C   UNL A   1      45.043  20.907  24.795  1.00  0.00     0.054 A 
BRANCH  45  46
ATOM     46  S   UNL A   1      44.829  19.183  24.272  1.00  0.00     0.124 S 
ATOM     47  O   UNL A   1      45.533  18.461  25.329  1.00  0.00    -0.237 OA
ATOM     48  O   UNL A   1      43.377  19.027  24.264  1.00  0.00    -0.237 OA
ATOM     49  O   UNL A   1      45.465  19.139  22.958  1.00  0.00    -0.744 OA
ENDBRANCH  45  46
ENDBRANCH  26  40
BRANCH  27  50
ATOM     50  C   UNL A   1      46.652  33.209  27.831  1.00  0.00    -0.014 A 
ATOM     51  C   UNL A   1      46.867  33.628  29.153  1.00  0.00     0.010 A 
ATOM     52  C   UNL A   1      46.626  34.175  26.806  1.00  0.00     0.010 A 
ATOM     53  C   UNL A   1      47.134  34.977  29.432  1.00  0.00     0.020 A 
ATOM     54  C   UNL A   1      46.889  35.521  27.080  1.00  0.00     0.020 A 
ATOM     55  C   UNL A   1      47.176  35.910  28.388  1.00  0.00     0.054 A 
BRANCH  55  56
ATOM     56  S   UNL A   1      47.824  37.585  28.677  1.00  0.00     0.124 S 
ATOM     57  O   UNL A   1      49.053  37.578  27.893  1.00  0.00    -0.237 OA
ATOM     58  O   UNL A   1      46.758  38.449  28.174  1.00  0.00    -0.237 OA
ATOM     59  O   UNL A   1      48.004  37.619  30.129  1.00  0.00    -0.744 OA
ENDBRANCH  55  56
ENDBRANCH  27  50
BRANCH  39  60
ATOM     60  C   UNL A   1      50.990  28.170  26.053  1.00  0.00    -0.014 A 
ATOM     61  C   UNL A   1      51.511  28.678  24.853  1.00  0.00     0.010 A 
ATOM     62  C   UNL A   1      51.856  27.630  27.020  1.00  0.00     0.010 A 
ATOM     63  C   UNL A   1      52.882  28.616  24.608  1.00  0.00     0.020 A 
ATOM     64  C   UNL A   1      53.228  27.588  26.788  1.00  0.00     0.020 A 
ATOM     65  C   UNL A   1      53.732  28.066  25.576  1.00  0.00     0.054 A 
BRANCH  65  66
ATOM     66  S   UNL A   1      55.512  28.011  25.248  1.00  0.00     0.124 S 
ATOM     67  O   UNL A   1      55.903  29.400  25.467  1.00  0.00    -0.237 OA
ATOM     68  O   UNL A   1      55.993  27.056  26.244  1.00  0.00    -0.237 OA
ATOM     69  O   UNL A   1      55.592  27.550  23.863  1.00  0.00    -0.744 OA
ENDBRANCH  65  66
ENDBRANCH  39  60
ENDBRANCH  13  14
ENDBRANCH   6   8
ENDBRANCH   5   6
ENDBRANCH   4   5
ENDBRANCH   3   4
ENDBRANCH   2   3
ENDBRANCH   1   2
BRANCH   1  70
ATOM     70  C   UNL A   1      32.759  29.894  25.486  1.00  0.00     0.188 C 
BRANCH  70  71
ATOM     71  O   UNL A   1      31.340  29.771  25.373  1.00  0.00    -0.376 OA
BRANCH  71  72
ATOM     72  C   UNL A   1      30.653  30.792  24.657  1.00  0.00     0.202 C 
BRANCH  72  73
ATOM     73  C   UNL A   1      29.636  30.361  23.592  1.00  0.00     0.261 C 
BRANCH  73  74
ATOM     74  O   UNL A   1      30.113  29.402  22.636  1.00  0.00    -0.460 OA
BRANCH  74  75
ATOM     75  C   UNL A   1      29.701  28.135  22.889  1.00  0.00     0.338 C 
ATOM     76  O   UNL A   1      28.562  27.769  23.134  1.00  0.00    -0.246 OA
BRANCH  75  77
ATOM     77  C   UNL A   1      30.844  27.212  22.980  1.00  0.00     0.060 A 
ATOM     78  C   UNL A   1      32.109  27.469  22.457  1.00  0.00     0.018 A 
ATOM     79  C   UNL A   1      30.578  25.988  23.580  1.00  0.00     0.022 A 
ATOM     80  C   UNL A   1      33.094  26.464  22.507  1.00  0.00     0.027 A 
ATOM     81  C   UNL A   1      31.577  25.010  23.681  1.00  0.00    -0.017 A 
ATOM     82  C   UNL A   1      32.836  25.213  23.090  1.00  0.00     0.038 A 
ATOM     83  C   UNL A   1      31.280  23.766  24.483  1.00  0.00     0.049 C 
ATOM     84  N   UNL A   1      33.848  24.259  23.184  1.00  0.00    -0.378 N 
ATOM     85  C   UNL A   1      30.755  24.103  25.852  1.00  0.00    -0.023 C 
ATOM     86  C   UNL A   1      32.556  23.025  24.874  1.00  0.00     0.031 C 
ATOM     87  C   UNL A   1      33.562  22.930  23.733  1.00  0.00     0.114 C 
ATOM     88  H   UNL A   1      34.759  24.479  22.879  1.00  0.00     0.161 HD
ATOM     89  C   UNL A   1      31.747  24.123  26.744  1.00  0.00    -0.030 C 
ATOM     90  C   UNL A   1      33.055  23.759  26.119  1.00  0.00     0.034 C 
BRANCH  87  91
ATOM     91  C   UNL A   1      34.806  22.147  24.162  1.00  0.00    -0.022 A 
ATOM     92  C   UNL A   1      36.073  22.747  24.034  1.00  0.00     0.026 A 
ATOM     93  C   UNL A   1      34.776  20.841  24.663  1.00  0.00     0.026 A 
ATOM     94  C   UNL A   1      37.214  22.041  24.386  1.00  0.00     0.111 A 
ATOM     95  C   UNL A   1      35.972  20.222  25.011  1.00  0.00     0.111 A 
ATOM     96  N   UNL A   1      37.189  20.795  24.895  1.00  0.00    -0.265 NA
ENDBRANCH  87  91
ENDBRANCH  75  77
ENDBRANCH  74  75
ENDBRANCH  73  74
ENDBRANCH  72  73
ENDBRANCH  71  72
ENDBRANCH  70  71
ENDBRANCH   1  70
TORSDOF 21
ENDMDL
MODEL 3
REMARK VINA RESULT:      -9.9      6.986     12.431
REMARK SMILES O=C(OCCOCCOCCOC(=O)c1ccc2c(c1)[C@@H]1C=CC[C@@H]1[C@H](c1ccncc1)N2)c1ccc(-c2c3nc(c(-c4ccc(S(=O)(=O)[O-])cc4)c4ccc([nH]4)c(-c4ccc(S(=O)(=O)[O-])cc4)c4nc(c(-c5ccc(S(=O)(=O)[O-])cc5)c5ccc2[nH]5)C=C4)C=C3)cc1
REMARK SMILES IDX 7 1 6 2 5 3 4 4 3 5 2 6 1 7 34 8 35 9 93 10 36 11 92 12
REMARK SMILES IDX 37 13 38 14 39 15 86 16 40 17 91 18 85 19 87 20 41 21 90 22
REMARK SMILES IDX 84 23 83 24 42 26 72 27 53 28 71 29 54 30 57 31 70 32 88 33
REMARK SMILES IDX 55 34 56 35 69 37 89 38 58 39 43 40 44 41 52 42 45 43 51 44
REMARK SMILES IDX 46 45 47 46 48 47 49 48 50 49 73 50 74 51 82 52 75 53 81 54
REMARK SMILES IDX 76 55 77 56 78 57 79 58 80 59 59 60 60 61 68 62 61 63 67 64
REMARK SMILES IDX 62 65 63 66 64 67 65 68 66 69 8 70 9 71 10 72 11 73 12 74
REMARK SMILES IDX 13 75 14 76 15 77 16 78 20 79 17 80 19 81 18 82 21 83 33 84
REMARK SMILES IDX 22 85 25 86 26 87 23 89 24 90 27 91 28 92 32 93 29 94 31 95
REMARK SMILES IDX 30 96
REMARK H PARENT 87 25 57 36 33 88
REMARK Flexibility Score: inf
ROOT
ATOM      1  C   UNL A   1      34.052  30.811  27.589  1.00  0.00     0.188 C 
ENDROOT
BRANCH   1   2
ATOM      2  O   UNL A   1      34.860  31.935  27.964  1.00  0.00    -0.376 OA
BRANCH   2   3
ATOM      3  C   UNL A   1      34.103  33.040  28.464  1.00  0.00     0.202 C 
BRANCH   3   4
ATOM      4  C   UNL A   1      34.583  33.573  29.821  1.00  0.00     0.261 C 
BRANCH   4   5
ATOM      5  O   UNL A   1      34.398  32.617  30.878  1.00  0.00    -0.460 OA
BRANCH   5   6
ATOM      6  C   UNL A   1      35.352  31.944  31.571  1.00  0.00     0.338 C 
ATOM      7  O   UNL A   1      35.687  30.829  31.172  1.00  0.00    -0.246 OA
BRANCH   6   8
ATOM      8  C   UNL A   1      36.069  32.505  32.760  1.00  0.00     0.060 A 
ATOM      9  C   UNL A   1      35.845  33.765  33.316  1.00  0.00     0.016 A 
ATOM     10  C   UNL A   1      37.011  31.674  33.390  1.00  0.00     0.016 A 
ATOM     11  C   UNL A   1      36.632  34.248  34.359  1.00  0.00     0.010 A 
ATOM     12  C   UNL A   1      37.754  32.125  34.491  1.00  0.00     0.010 A 
ATOM     13  C   UNL A   1      37.604  33.441  34.949  1.00  0.00    -0.014 A 
BRANCH  13  14
ATOM     14  C   UNL A   1      38.543  34.036  35.932  1.00  0.00     0.031 A 
ATOM     15  C   UNL A   1      38.265  33.846  37.398  1.00  0.00     0.074 A 
ATOM     16  C   UNL A   1      39.702  34.601  35.542  1.00  0.00     0.049 A 
ATOM     17  N   UNL A   1      38.928  34.296  38.430  1.00  0.00    -0.248 NA
ATOM     18  C   UNL A   1      37.110  33.000  37.748  1.00  0.00     0.031 C 
ATOM     19  C   UNL A   1      40.185  34.676  34.162  1.00  0.00     0.029 A 
ATOM     20  N   UNL A   1      40.707  35.189  36.273  1.00  0.00    -0.354 N 
ATOM     21  C   UNL A   1      38.290  33.770  39.545  1.00  0.00     0.074 A 
ATOM     22  C   UNL A   1      37.156  33.010  39.072  1.00  0.00     0.031 C 
ATOM     23  C   UNL A   1      41.395  35.259  34.158  1.00  0.00     0.029 A 
ATOM     24  C   UNL A   1      41.725  35.704  35.500  1.00  0.00     0.049 A 
ATOM     25  H   UNL A   1      40.699  35.240  37.257  1.00  0.00     0.167 HD
ATOM     26  C   UNL A   1      38.633  33.891  40.849  1.00  0.00     0.031 A 
ATOM     27  C   UNL A   1      42.765  36.496  35.834  1.00  0.00     0.031 A 
ATOM     28  C   UNL A   1      39.746  34.670  41.315  1.00  0.00     0.049 A 
ATOM     29  C   UNL A   1      42.945  36.859  37.274  1.00  0.00     0.074 A 
ATOM     30  C   UNL A   1      40.173  34.882  42.614  1.00  0.00     0.029 A 
ATOM     31  N   UNL A   1      40.606  35.378  40.490  1.00  0.00    -0.354 N 
ATOM     32  N   UNL A   1      42.250  36.467  38.311  1.00  0.00    -0.248 NA
ATOM     33  C   UNL A   1      44.063  37.758  37.584  1.00  0.00     0.031 C 
ATOM     34  C   UNL A   1      41.258  35.766  42.576  1.00  0.00     0.029 A 
ATOM     35  C   UNL A   1      41.538  36.058  41.252  1.00  0.00     0.049 A 
ATOM     36  H   UNL A   1      40.560  35.393  39.507  1.00  0.00     0.167 HD
ATOM     37  C   UNL A   1      42.866  37.047  39.406  1.00  0.00     0.074 A 
ATOM     38  C   UNL A   1      43.969  37.843  38.902  1.00  0.00     0.031 C 
ATOM     39  C   UNL A   1      42.578  36.894  40.720  1.00  0.00     0.031 A 
BRANCH  26  40
ATOM     40  C   UNL A   1      37.752  33.199  41.850  1.00  0.00    -0.014 A 
ATOM     41  C   UNL A   1      36.648  33.854  42.426  1.00  0.00     0.010 A 
ATOM     42  C   UNL A   1      38.052  31.882  42.240  1.00  0.00     0.010 A 
ATOM     43  C   UNL A   1      35.889  33.220  43.413  1.00  0.00     0.020 A 
ATOM     44  C   UNL A   1      37.283  31.238  43.210  1.00  0.00     0.020 A 
ATOM     45  C   UNL A   1      36.220  31.918  43.807  1.00  0.00     0.054 A 
BRANCH  45  46
ATOM     46  S   UNL A   1      35.236  31.123  45.106  1.00  0.00     0.124 S 
ATOM     47  O   UNL A   1      36.043  29.944  45.412  1.00  0.00    -0.237 OA
ATOM     48  O   UNL A   1      35.193  32.143  46.150  1.00  0.00    -0.237 OA
ATOM     49  O   UNL A   1      33.959  30.850  44.453  1.00  0.00    -0.744 OA
ENDBRANCH  45  46
ENDBRANCH  26  40
BRANCH  27  50
ATOM     50  C   UNL A   1      43.640  37.128  34.809  1.00  0.00    -0.014 A 
ATOM     51  C   UNL A   1      44.984  36.761  34.637  1.00  0.00     0.010 A 
ATOM     52  C   UNL A   1      43.102  38.146  33.998  1.00  0.00     0.010 A 
ATOM     53  C   UNL A   1      45.750  37.343  33.615  1.00  0.00     0.020 A 
ATOM     54  C   UNL A   1      43.863  38.730  32.980  1.00  0.00     0.020 A 
ATOM     55  C   UNL A   1      45.173  38.301  32.772  1.00  0.00     0.054 A 
BRANCH  55  56
ATOM     56  S   UNL A   1      46.035  38.832  31.260  1.00  0.00     0.124 S 
ATOM     57  O   UNL A   1      46.390  40.211  31.578  1.00  0.00    -0.237 OA
ATOM     58  O   UNL A   1      47.154  37.897  31.165  1.00  0.00    -0.237 OA
ATOM     59  O   UNL A   1      45.012  38.668  30.226  1.00  0.00    -0.744 OA
ENDBRANCH  55  56
ENDBRANCH  27  50
BRANCH  39  60
ATOM     60  C   UNL A   1      43.502  37.583  41.675  1.00  0.00    -0.014 A 
ATOM     61  C   UNL A   1      44.687  36.969  42.114  1.00  0.00     0.010 A 
ATOM     62  C   UNL A   1      43.147  38.851  42.168  1.00  0.00     0.010 A 
ATOM     63  C   UNL A   1      45.490  37.603  43.061  1.00  0.00     0.020 A 
ATOM     64  C   UNL A   1      43.960  39.496  43.098  1.00  0.00     0.020 A 
ATOM     65  C   UNL A   1      45.118  38.860  43.551  1.00  0.00     0.054 A 
BRANCH  65  66
ATOM     66  S   UNL A   1      46.182  39.676  44.768  1.00  0.00     0.124 S 
ATOM     67  O   UNL A   1      47.483  39.638  44.106  1.00  0.00    -0.237 OA
ATOM     68  O   UNL A   1      45.576  40.999  44.891  1.00  0.00    -0.237 OA
ATOM     69  O   UNL A   1      46.060  38.829  45.953  1.00  0.00    -0.744 OA
ENDBRANCH  65  66
ENDBRANCH  39  60
ENDBRANCH  13  14
ENDBRANCH   6   8
ENDBRANCH   5   6
ENDBRANCH   4   5
ENDBRANCH   3   4
ENDBRANCH   2   3
ENDBRANCH   1   2
BRANCH   1  70
ATOM     70  C   UNL A   1      34.898  29.552  27.381  1.00  0.00     0.188 C 
BRANCH  70  71
ATOM     71  O   UNL A   1      34.377  28.596  26.457  1.00  0.00    -0.376 OA
BRANCH  71  72
ATOM     72  C   UNL A   1      33.339  29.031  25.586  1.00  0.00     0.202 C 
BRANCH  72  73
ATOM     73  C   UNL A   1      32.939  28.107  24.428  1.00  0.00     0.261 C 
BRANCH  73  74
ATOM     74  O   UNL A   1      33.632  26.851  24.374  1.00  0.00    -0.460 OA
BRANCH  74  75
ATOM     75  C   UNL A   1      33.723  26.337  23.121  1.00  0.00     0.338 C 
ATOM     76  O   UNL A   1      33.846  26.961  22.079  1.00  0.00    -0.246 OA
BRANCH  75  77
ATOM     77  C   UNL A   1      33.511  24.880  23.129  1.00  0.00     0.060 A 
ATOM     78  C   UNL A   1      33.032  24.147  22.045  1.00  0.00     0.018 A 
ATOM     79  C   UNL A   1      33.757  24.246  24.340  1.00  0.00     0.022 A 
ATOM     80  C   UNL A   1      32.765  22.774  22.205  1.00  0.00     0.027 A 
ATOM     81  C   UNL A   1      33.545  22.868  24.481  1.00  0.00    -0.017 A 
ATOM     82  C   UNL A   1      32.987  22.121  23.429  1.00  0.00     0.038 A 
ATOM     83  C   UNL A   1      33.980  22.206  25.766  1.00  0.00     0.049 C 
ATOM     84  N   UNL A   1      32.774  20.748  23.541  1.00  0.00    -0.378 N 
ATOM     85  C   UNL A   1      35.407  22.541  26.103  1.00  0.00    -0.023 C 
ATOM     86  C   UNL A   1      34.102  20.692  25.611  1.00  0.00     0.031 C 
ATOM     87  C   UNL A   1      32.942  20.079  24.835  1.00  0.00     0.114 C 
ATOM     88  H   UNL A   1      32.508  20.227  22.749  1.00  0.00     0.161 HD
ATOM     89  C   UNL A   1      36.232  21.596  25.646  1.00  0.00    -0.030 C 
ATOM     90  C   UNL A   1      35.482  20.484  24.988  1.00  0.00     0.034 C 
BRANCH  87  91
ATOM     91  C   UNL A   1      33.090  18.557  24.740  1.00  0.00    -0.022 A 
ATOM     92  C   UNL A   1      33.622  17.991  23.565  1.00  0.00     0.026 A 
ATOM     93  C   UNL A   1      32.707  17.668  25.750  1.00  0.00     0.026 A 
ATOM     94  C   UNL A   1      33.732  16.613  23.448  1.00  0.00     0.111 A 
ATOM     95  C   UNL A   1      32.879  16.302  25.549  1.00  0.00     0.111 A 
ATOM     96  N   UNL A   1      33.391  15.755  24.427  1.00  0.00    -0.265 NA
ENDBRANCH  87  91
ENDBRANCH  75  77
ENDBRANCH  74  75
ENDBRANCH  73  74
ENDBRANCH  72  73
ENDBRANCH  71  72
ENDBRANCH  70  71
ENDBRANCH   1  70
TORSDOF 21
ENDMDL
