MODEL 1
REMARK VINA RESULT:     -10.1      0.000      0.000
REMARK SMILES Cc1cc2c(c(C)c1Cl)C=C(C(=O)OCCOCCOCCOC(=O)c1ccc(-c3c4nc(c(-c5ccc(S(=O)(=O)[O-])cc5)c5ccc([nH]5)c(-c5ccc(S(=O)(=O)[O-])cc5)c5nc(c(-c6ccc(S(=O)(=O)[O-])cc6)c6ccc3[nH]6)C=C5)C=C4)cc1)[C@H](C(F)(F)F)O2
REMARK SMILES IDX 19 1 18 2 17 3 16 4 15 5 14 6 12 7 13 8 11 9 1 10 2 11 3 12
REMARK SMILES IDX 8 13 4 14 6 15 9 16 5 17 91 18 7 19 10 20 86 21 87 22 88 23
REMARK SMILES IDX 89 24 90 25 20 26 21 27 22 28 23 29 24 30 25 31 26 32 27 33
REMARK SMILES IDX 85 34 28 35 84 36 29 37 30 38 31 39 78 40 32 41 83 42 77 43
REMARK SMILES IDX 79 44 33 45 82 46 76 47 75 48 34 50 64 51 45 52 63 53 46 54
REMARK SMILES IDX 49 55 62 56 80 57 47 58 48 59 61 61 81 62 50 63 35 64 36 65
REMARK SMILES IDX 44 66 37 67 43 68 38 69 39 70 40 71 41 72 42 73 65 74 66 75
REMARK SMILES IDX 74 76 67 77 73 78 68 79 69 80 70 81 71 82 72 83 51 84 52 85
REMARK SMILES IDX 60 86 53 87 59 88 54 89 55 90 56 91 57 92 58 93
REMARK H PARENT 79 49 49 60
REMARK Flexibility Score: inf
ROOT
ATOM      1  C   UNL A   1      31.331  28.508  24.559  1.00  0.00     0.188 C 
ENDROOT
BRANCH   1   2
ATOM      2  C   UNL A   1      31.129  28.506  23.031  1.00  0.00     0.188 C 
BRANCH   2   3
ATOM      3  O   UNL A   1      30.728  27.309  22.371  1.00  0.00    -0.376 OA
BRANCH   3   4
ATOM      4  C   UNL A   1      31.700  26.483  21.745  1.00  0.00     0.202 C 
BRANCH   4   5
ATOM      5  C   UNL A   1      33.192  26.696  22.049  1.00  0.00     0.261 C 
BRANCH   5   6
ATOM      6  O   UNL A   1      33.901  25.523  22.491  1.00  0.00    -0.460 OA
BRANCH   6   7
ATOM      7  C   UNL A   1      34.045  25.392  23.827  1.00  0.00     0.338 C 
ATOM      8  O   UNL A   1      33.975  26.290  24.652  1.00  0.00    -0.246 OA
BRANCH   7   9
ATOM      9  C   UNL A   1      34.212  23.976  24.214  1.00  0.00     0.087 C 
ATOM     10  C   UNL A   1      32.818  17.847  25.820  1.00  0.00     0.046 C 
ATOM     11  C   UNL A   1      33.009  19.181  25.150  1.00  0.00    -0.028 A 
ATOM     12  C   UNL A   1      33.679  20.196  25.844  1.00  0.00     0.052 A 
ATOM     13  C   UNL A   1      32.511  19.447  23.858  1.00  0.00     0.047 A 
ATOM     14  C   UNL A   1      33.840  21.459  25.279  1.00  0.00     0.128 A 
ATOM     15  C   UNL A   1      32.671  20.722  23.263  1.00  0.00    -0.021 A 
ATOM     16  Cl  UNL A   1      31.667  18.178  23.023  1.00  0.00    -0.084 Cl
ATOM     17  C   UNL A   1      33.353  21.731  23.993  1.00  0.00     0.022 A 
ATOM     18  O   UNL A   1      34.406  22.402  26.102  1.00  0.00    -0.475 OA
ATOM     19  C   UNL A   1      32.094  21.037  21.900  1.00  0.00     0.047 C 
ATOM     20  C   UNL A   1      33.479  23.104  23.507  1.00  0.00     0.027 C 
ATOM     21  C   UNL A   1      34.918  23.619  25.489  1.00  0.00     0.316 C 
BRANCH  21  22
ATOM     22  C   UNL A   1      36.456  23.524  25.456  1.00  0.00     0.430 C 
ATOM     23  F   UNL A   1      36.934  22.336  25.872  1.00  0.00    -0.167 F 
ATOM     24  F   UNL A   1      36.904  23.680  24.180  1.00  0.00    -0.167 F 
ATOM     25  F   UNL A   1      37.051  24.481  26.203  1.00  0.00    -0.167 F 
ENDBRANCH  21  22
ENDBRANCH   7   9
ENDBRANCH   6   7
ENDBRANCH   5   6
ENDBRANCH   4   5
ENDBRANCH   3   4
ENDBRANCH   2   3
ENDBRANCH   1   2
BRANCH   1  26
ATOM     26  O   UNL A   1      31.854  29.716  25.055  1.00  0.00    -0.376 OA
BRANCH  26  27
ATOM     27  C   UNL A   1      33.149  29.738  25.621  1.00  0.00     0.202 C 
BRANCH  27  28
ATOM     28  C   UNL A   1      33.493  29.061  26.961  1.00  0.00     0.261 C 
BRANCH  28  29
ATOM     29  O   UNL A   1      33.731  29.900  28.096  1.00  0.00    -0.460 OA
BRANCH  29  30
ATOM     30  C   UNL A   1      34.659  30.873  27.959  1.00  0.00     0.338 C 
ATOM     31  O   UNL A   1      34.458  32.072  27.837  1.00  0.00    -0.246 OA
BRANCH  30  32
ATOM     32  C   UNL A   1      35.981  30.257  28.190  1.00  0.00     0.060 A 
ATOM     33  C   UNL A   1      36.227  29.598  29.402  1.00  0.00     0.016 A 
ATOM     34  C   UNL A   1      36.964  30.311  27.199  1.00  0.00     0.016 A 
ATOM     35  C   UNL A   1      37.464  28.996  29.630  1.00  0.00     0.010 A 
ATOM     36  C   UNL A   1      38.211  29.731  27.440  1.00  0.00     0.010 A 
ATOM     37  C   UNL A   1      38.474  29.087  28.663  1.00  0.00    -0.014 A 
BRANCH  37  38
ATOM     38  C   UNL A   1      39.860  28.683  28.999  1.00  0.00     0.031 A 
ATOM     39  C   UNL A   1      40.744  29.688  29.686  1.00  0.00     0.074 A 
ATOM     40  C   UNL A   1      40.320  27.451  28.719  1.00  0.00     0.049 A 
ATOM     41  N   UNL A   1      42.005  29.594  30.013  1.00  0.00    -0.248 NA
ATOM     42  C   UNL A   1      40.118  30.970  30.057  1.00  0.00     0.031 C 
ATOM     43  C   UNL A   1      39.543  26.369  28.117  1.00  0.00     0.029 A 
ATOM     44  N   UNL A   1      41.568  26.905  28.905  1.00  0.00    -0.354 N 
ATOM     45  C   UNL A   1      42.325  30.800  30.626  1.00  0.00     0.074 A 
ATOM     46  C   UNL A   1      41.135  31.622  30.600  1.00  0.00     0.031 C 
ATOM     47  C   UNL A   1      40.334  25.289  27.977  1.00  0.00     0.029 A 
ATOM     48  C   UNL A   1      41.682  25.615  28.440  1.00  0.00     0.049 A 
ATOM     49  H   UNL A   1      42.310  27.391  29.331  1.00  0.00     0.167 HD
ATOM     50  C   UNL A   1      43.502  31.185  31.168  1.00  0.00     0.031 A 
ATOM     51  C   UNL A   1      42.758  24.804  28.373  1.00  0.00     0.031 A 
ATOM     52  C   UNL A   1      44.687  30.372  31.178  1.00  0.00     0.049 A 
ATOM     53  C   UNL A   1      44.089  25.302  28.884  1.00  0.00     0.074 A 
ATOM     54  C   UNL A   1      45.933  30.680  31.698  1.00  0.00     0.029 A 
ATOM     55  N   UNL A   1      44.778  29.095  30.647  1.00  0.00    -0.354 N 
ATOM     56  N   UNL A   1      44.379  26.445  29.459  1.00  0.00    -0.248 NA
ATOM     57  C   UNL A   1      45.240  24.397  28.740  1.00  0.00     0.031 C 
ATOM     58  C   UNL A   1      46.793  29.613  31.424  1.00  0.00     0.029 A 
ATOM     59  C   UNL A   1      46.066  28.612  30.800  1.00  0.00     0.049 A 
ATOM     60  H   UNL A   1      44.037  28.605  30.223  1.00  0.00     0.167 HD
ATOM     61  C   UNL A   1      45.734  26.382  29.772  1.00  0.00     0.074 A 
ATOM     62  C   UNL A   1      46.204  25.084  29.336  1.00  0.00     0.031 C 
ATOM     63  C   UNL A   1      46.518  27.314  30.370  1.00  0.00     0.031 A 
BRANCH  50  64
ATOM     64  C   UNL A   1      43.579  32.557  31.781  1.00  0.00    -0.014 A 
ATOM     65  C   UNL A   1      43.943  33.674  31.008  1.00  0.00     0.010 A 
ATOM     66  C   UNL A   1      43.199  32.743  33.122  1.00  0.00     0.010 A 
ATOM     67  C   UNL A   1      43.937  34.952  31.572  1.00  0.00     0.020 A 
ATOM     68  C   UNL A   1      43.165  34.023  33.681  1.00  0.00     0.020 A 
ATOM     69  C   UNL A   1      43.540  35.120  32.902  1.00  0.00     0.054 A 
BRANCH  69  70
ATOM     70  S   UNL A   1      43.478  36.800  33.582  1.00  0.00     0.124 S 
ATOM     71  O   UNL A   1      42.213  36.784  34.312  1.00  0.00    -0.237 OA
ATOM     72  O   UNL A   1      44.680  36.851  34.411  1.00  0.00    -0.237 OA
ATOM     73  O   UNL A   1      43.502  37.656  32.398  1.00  0.00    -0.744 OA
ENDBRANCH  69  70
ENDBRANCH  50  64
BRANCH  51  74
ATOM     74  C   UNL A   1      42.639  23.442  27.780  1.00  0.00    -0.014 A 
ATOM     75  C   UNL A   1      42.854  23.236  26.406  1.00  0.00     0.010 A 
ATOM     76  C   UNL A   1      42.286  22.343  28.585  1.00  0.00     0.010 A 
ATOM     77  C   UNL A   1      42.696  21.965  25.844  1.00  0.00     0.020 A 
ATOM     78  C   UNL A   1      42.158  21.064  28.033  1.00  0.00     0.020 A 
ATOM     79  C   UNL A   1      42.352  20.886  26.663  1.00  0.00     0.054 A 
BRANCH  79  80
ATOM     80  S   UNL A   1      42.187  19.241  25.913  1.00  0.00     0.124 S 
ATOM     81  O   UNL A   1      42.999  19.372  24.708  1.00  0.00    -0.237 OA
ATOM     82  O   UNL A   1      42.730  18.369  26.951  1.00  0.00    -0.237 OA
ATOM     83  O   UNL A   1      40.749  19.111  25.688  1.00  0.00    -0.744 OA
ENDBRANCH  79  80
ENDBRANCH  51  74
BRANCH  63  84
ATOM     84  C   UNL A   1      47.962  26.965  30.628  1.00  0.00    -0.014 A 
ATOM     85  C   UNL A   1      48.985  27.399  29.767  1.00  0.00     0.010 A 
ATOM     86  C   UNL A   1      48.306  26.270  31.804  1.00  0.00     0.010 A 
ATOM     87  C   UNL A   1      50.323  27.124  30.064  1.00  0.00     0.020 A 
ATOM     88  C   UNL A   1      49.644  26.021  32.120  1.00  0.00     0.020 A 
ATOM     89  C   UNL A   1      50.644  26.441  31.243  1.00  0.00     0.054 A 
BRANCH  89  90
ATOM     90  S   UNL A   1      52.392  26.149  31.628  1.00  0.00     0.124 S 
ATOM     91  O   UNL A   1      52.752  27.365  32.353  1.00  0.00    -0.237 OA
ATOM     92  O   UNL A   1      52.341  24.930  32.431  1.00  0.00    -0.237 OA
ATOM     93  O   UNL A   1      53.018  26.000  30.316  1.00  0.00    -0.744 OA
ENDBRANCH  89  90
ENDBRANCH  63  84
ENDBRANCH  37  38
ENDBRANCH  30  32
ENDBRANCH  29  30
ENDBRANCH  28  29
ENDBRANCH  27  28
ENDBRANCH  26  27
ENDBRANCH   1  26
TORSDOF 21
ENDMDL
MODEL 2
REMARK VINA RESULT:      -9.6      3.115      4.087
REMARK SMILES Cc1cc2c(c(C)c1Cl)C=C(C(=O)OCCOCCOCCOC(=O)c1ccc(-c3c4nc(c(-c5ccc(S(=O)(=O)[O-])cc5)c5ccc([nH]5)c(-c5ccc(S(=O)(=O)[O-])cc5)c5nc(c(-c6ccc(S(=O)(=O)[O-])cc6)c6ccc3[nH]6)C=C5)C=C4)cc1)[C@H](C(F)(F)F)O2
REMARK SMILES IDX 19 1 18 2 17 3 16 4 15 5 14 6 12 7 13 8 11 9 1 10 2 11 3 12
REMARK SMILES IDX 8 13 4 14 6 15 9 16 5 17 91 18 7 19 10 20 86 21 87 22 88 23
REMARK SMILES IDX 89 24 90 25 20 26 21 27 22 28 23 29 24 30 25 31 26 32 27 33
REMARK SMILES IDX 85 34 28 35 84 36 29 37 30 38 31 39 78 40 32 41 83 42 77 43
REMARK SMILES IDX 79 44 33 45 82 46 76 47 75 48 34 50 64 51 45 52 63 53 46 54
REMARK SMILES IDX 49 55 62 56 80 57 47 58 48 59 61 61 81 62 50 63 35 64 36 65
REMARK SMILES IDX 44 66 37 67 43 68 38 69 39 70 40 71 41 72 42 73 65 74 66 75
REMARK SMILES IDX 74 76 67 77 73 78 68 79 69 80 70 81 71 82 72 83 51 84 52 85
REMARK SMILES IDX 60 86 53 87 59 88 54 89 55 90 56 91 57 92 58 93
REMARK H PARENT 79 49 49 60
REMARK Flexibility Score: inf
ROOT
ATOM      1  C   UNL A   1      33.904  30.674  27.407  1.00  0.00     0.188 C 
ENDROOT
BRANCH   1   2
ATOM      2  C   UNL A   1      32.445  30.950  26.995  1.00  0.00     0.188 C 
BRANCH   2   3
ATOM      3  O   UNL A   1      31.948  30.441  25.762  1.00  0.00    -0.376 OA
BRANCH   3   4
ATOM      4  C   UNL A   1      32.494  29.250  25.212  1.00  0.00     0.202 C 
BRANCH   4   5
ATOM      5  C   UNL A   1      31.836  27.895  25.524  1.00  0.00     0.261 C 
BRANCH   5   6
ATOM      6  O   UNL A   1      31.918  26.917  24.470  1.00  0.00    -0.460 OA
BRANCH   6   7
ATOM      7  C   UNL A   1      33.133  26.361  24.278  1.00  0.00     0.338 C 
ATOM      8  O   UNL A   1      34.142  26.942  23.911  1.00  0.00    -0.246 OA
BRANCH   7   9
ATOM      9  C   UNL A   1      33.139  24.936  24.666  1.00  0.00     0.087 C 
ATOM     10  C   UNL A   1      34.395  18.570  24.631  1.00  0.00     0.046 C 
ATOM     11  C   UNL A   1      34.434  20.074  24.698  1.00  0.00    -0.028 A 
ATOM     12  C   UNL A   1      33.232  20.787  24.610  1.00  0.00     0.052 A 
ATOM     13  C   UNL A   1      35.646  20.785  24.818  1.00  0.00     0.047 A 
ATOM     14  C   UNL A   1      33.227  22.179  24.624  1.00  0.00     0.128 A 
ATOM     15  C   UNL A   1      35.661  22.201  24.843  1.00  0.00    -0.021 A 
ATOM     16  Cl  UNL A   1      37.127  19.880  24.907  1.00  0.00    -0.084 Cl
ATOM     17  C   UNL A   1      34.426  22.894  24.750  1.00  0.00     0.022 A 
ATOM     18  O   UNL A   1      32.002  22.763  24.412  1.00  0.00    -0.475 OA
ATOM     19  C   UNL A   1      36.958  22.977  24.917  1.00  0.00     0.047 C 
ATOM     20  C   UNL A   1      34.347  24.352  24.664  1.00  0.00     0.027 C 
ATOM     21  C   UNL A   1      31.852  24.171  24.752  1.00  0.00     0.316 C 
BRANCH  21  22
ATOM     22  C   UNL A   1      31.051  24.258  26.066  1.00  0.00     0.430 C 
ATOM     23  F   UNL A   1      30.976  23.092  26.734  1.00  0.00    -0.167 F 
ATOM     24  F   UNL A   1      31.648  25.137  26.916  1.00  0.00    -0.167 F 
ATOM     25  F   UNL A   1      29.785  24.694  25.873  1.00  0.00    -0.167 F 
ENDBRANCH  21  22
ENDBRANCH   7   9
ENDBRANCH   6   7
ENDBRANCH   5   6
ENDBRANCH   4   5
ENDBRANCH   3   4
ENDBRANCH   2   3
ENDBRANCH   1   2
BRANCH   1  26
ATOM     26  O   UNL A   1      34.673  31.840  27.570  1.00  0.00    -0.376 OA
BRANCH  26  27
ATOM     27  C   UNL A   1      34.417  32.702  28.660  1.00  0.00     0.202 C 
BRANCH  27  28
ATOM     28  C   UNL A   1      34.887  32.403  30.096  1.00  0.00     0.261 C 
BRANCH  28  29
ATOM     29  O   UNL A   1      36.245  31.991  30.286  1.00  0.00    -0.460 OA
BRANCH  29  30
ATOM     30  C   UNL A   1      36.463  30.676  30.508  1.00  0.00     0.338 C 
ATOM     31  O   UNL A   1      35.631  29.829  30.800  1.00  0.00    -0.246 OA
BRANCH  30  32
ATOM     32  C   UNL A   1      37.863  30.391  30.133  1.00  0.00     0.060 A 
ATOM     33  C   UNL A   1      38.189  30.230  28.779  1.00  0.00     0.016 A 
ATOM     34  C   UNL A   1      38.851  30.309  31.116  1.00  0.00     0.016 A 
ATOM     35  C   UNL A   1      39.509  29.978  28.406  1.00  0.00     0.010 A 
ATOM     36  C   UNL A   1      40.168  30.031  30.743  1.00  0.00     0.010 A 
ATOM     37  C   UNL A   1      40.500  29.845  29.389  1.00  0.00    -0.014 A 
BRANCH  37  38
ATOM     38  C   UNL A   1      41.838  29.323  29.024  1.00  0.00     0.031 A 
ATOM     39  C   UNL A   1      43.002  30.276  29.056  1.00  0.00     0.074 A 
ATOM     40  C   UNL A   1      42.024  28.033  28.690  1.00  0.00     0.049 A 
ATOM     41  N   UNL A   1      44.246  30.074  28.711  1.00  0.00    -0.248 NA
ATOM     42  C   UNL A   1      42.724  31.638  29.545  1.00  0.00     0.031 C 
ATOM     43  C   UNL A   1      40.991  26.999  28.687  1.00  0.00     0.029 A 
ATOM     44  N   UNL A   1      43.159  27.375  28.283  1.00  0.00    -0.354 N 
ATOM     45  C   UNL A   1      44.899  31.280  28.940  1.00  0.00     0.074 A 
ATOM     46  C   UNL A   1      43.910  32.217  29.425  1.00  0.00     0.031 C 
ATOM     47  C   UNL A   1      41.539  25.836  28.290  1.00  0.00     0.029 A 
ATOM     48  C   UNL A   1      42.950  26.052  27.971  1.00  0.00     0.049 A 
ATOM     49  H   UNL A   1      44.040  27.810  28.220  1.00  0.00     0.167 HD
ATOM     50  C   UNL A   1      46.207  31.577  28.770  1.00  0.00     0.031 A 
ATOM     51  C   UNL A   1      43.794  25.131  27.463  1.00  0.00     0.031 A 
ATOM     52  C   UNL A   1      47.185  30.648  28.273  1.00  0.00     0.049 A 
ATOM     53  C   UNL A   1      45.224  25.522  27.175  1.00  0.00     0.074 A 
ATOM     54  C   UNL A   1      48.536  30.860  28.056  1.00  0.00     0.029 A 
ATOM     55  N   UNL A   1      46.922  29.335  27.915  1.00  0.00    -0.354 N 
ATOM     56  N   UNL A   1      45.829  26.666  27.394  1.00  0.00    -0.248 NA
ATOM     57  C   UNL A   1      46.089  24.495  26.573  1.00  0.00     0.031 C 
ATOM     58  C   UNL A   1      49.076  29.694  27.508  1.00  0.00     0.029 A 
ATOM     59  C   UNL A   1      48.078  28.733  27.452  1.00  0.00     0.049 A 
ATOM     60  H   UNL A   1      46.043  28.897  27.979  1.00  0.00     0.167 HD
ATOM     61  C   UNL A   1      47.148  26.484  26.987  1.00  0.00     0.074 A 
ATOM     62  C   UNL A   1      47.258  25.118  26.522  1.00  0.00     0.031 C 
ATOM     63  C   UNL A   1      48.176  27.369  27.000  1.00  0.00     0.031 A 
BRANCH  50  64
ATOM     64  C   UNL A   1      46.660  32.972  29.103  1.00  0.00    -0.014 A 
ATOM     65  C   UNL A   1      47.111  33.297  30.395  1.00  0.00     0.010 A 
ATOM     66  C   UNL A   1      46.717  33.946  28.090  1.00  0.00     0.010 A 
ATOM     67  C   UNL A   1      47.600  34.576  30.669  1.00  0.00     0.020 A 
ATOM     68  C   UNL A   1      47.232  35.218  28.354  1.00  0.00     0.020 A 
ATOM     69  C   UNL A   1      47.665  35.526  29.645  1.00  0.00     0.054 A 
BRANCH  69  70
ATOM     70  S   UNL A   1      48.369  37.155  30.019  1.00  0.00     0.124 S 
ATOM     71  O   UNL A   1      49.785  36.840  30.191  1.00  0.00    -0.237 OA
ATOM     72  O   UNL A   1      48.038  37.925  28.822  1.00  0.00    -0.237 OA
ATOM     73  O   UNL A   1      47.672  37.565  31.236  1.00  0.00    -0.744 OA
ENDBRANCH  69  70
ENDBRANCH  50  64
BRANCH  51  74
ATOM     74  C   UNL A   1      43.316  23.750  27.167  1.00  0.00    -0.014 A 
ATOM     75  C   UNL A   1      43.354  22.751  28.156  1.00  0.00     0.010 A 
ATOM     76  C   UNL A   1      42.841  23.420  25.885  1.00  0.00     0.010 A 
ATOM     77  C   UNL A   1      42.948  21.445  27.861  1.00  0.00     0.020 A 
ATOM     78  C   UNL A   1      42.404  22.124  25.595  1.00  0.00     0.020 A 
ATOM     79  C   UNL A   1      42.472  21.141  26.583  1.00  0.00     0.054 A 
BRANCH  79  80
ATOM     80  S   UNL A   1      41.921  19.446  26.239  1.00  0.00     0.124 S 
ATOM     81  O   UNL A   1      42.686  19.113  25.042  1.00  0.00    -0.237 OA
ATOM     82  O   UNL A   1      42.309  18.738  27.455  1.00  0.00    -0.237 OA
ATOM     83  O   UNL A   1      40.480  19.589  26.041  1.00  0.00    -0.744 OA
ENDBRANCH  79  80
ENDBRANCH  51  74
BRANCH  63  84
ATOM     84  C   UNL A   1      49.528  26.890  26.534  1.00  0.00    -0.014 A 
ATOM     85  C   UNL A   1      50.413  26.235  27.409  1.00  0.00     0.010 A 
ATOM     86  C   UNL A   1      49.876  27.015  25.175  1.00  0.00     0.010 A 
ATOM     87  C   UNL A   1      51.631  25.736  26.938  1.00  0.00     0.020 A 
ATOM     88  C   UNL A   1      51.078  26.491  24.695  1.00  0.00     0.020 A 
ATOM     89  C   UNL A   1      51.953  25.862  25.581  1.00  0.00     0.054 A 
BRANCH  89  90
ATOM     90  S   UNL A   1      53.515  25.155  24.990  1.00  0.00     0.124 S 
ATOM     91  O   UNL A   1      53.306  23.726  25.212  1.00  0.00    -0.237 OA
ATOM     92  O   UNL A   1      53.546  25.576  23.592  1.00  0.00    -0.237 OA
ATOM     93  O   UNL A   1      54.525  25.775  25.846  1.00  0.00    -0.744 OA
ENDBRANCH  89  90
ENDBRANCH  63  84
ENDBRANCH  37  38
ENDBRANCH  30  32
ENDBRANCH  29  30
ENDBRANCH  28  29
ENDBRANCH  27  28
ENDBRANCH  26  27
ENDBRANCH   1  26
TORSDOF 21
ENDMDL
MODEL 3
REMARK VINA RESULT:      -9.4      3.411      4.600
REMARK SMILES Cc1cc2c(c(C)c1Cl)C=C(C(=O)OCCOCCOCCOC(=O)c1ccc(-c3c4nc(c(-c5ccc(S(=O)(=O)[O-])cc5)c5ccc([nH]5)c(-c5ccc(S(=O)(=O)[O-])cc5)c5nc(c(-c6ccc(S(=O)(=O)[O-])cc6)c6ccc3[nH]6)C=C5)C=C4)cc1)[C@H](C(F)(F)F)O2
REMARK SMILES IDX 19 1 18 2 17 3 16 4 15 5 14 6 12 7 13 8 11 9 1 10 2 11 3 12
REMARK SMILES IDX 8 13 4 14 6 15 9 16 5 17 91 18 7 19 10 20 86 21 87 22 88 23
REMARK SMILES IDX 89 24 90 25 20 26 21 27 22 28 23 29 24 30 25 31 26 32 27 33
REMARK SMILES IDX 85 34 28 35 84 36 29 37 30 38 31 39 78 40 32 41 83 42 77 43
REMARK SMILES IDX 79 44 33 45 82 46 76 47 75 48 34 50 64 51 45 52 63 53 46 54
REMARK SMILES IDX 49 55 62 56 80 57 47 58 48 59 61 61 81 62 50 63 35 64 36 65
REMARK SMILES IDX 44 66 37 67 43 68 38 69 39 70 40 71 41 72 42 73 65 74 66 75
REMARK SMILES IDX 74 76 67 77 73 78 68 79 69 80 70 81 71 82 72 83 51 84 52 85
REMARK SMILES IDX 60 86 53 87 59 88 54 89 55 90 56 91 57 92 58 93
REMARK H PARENT 79 49 49 60
REMARK Flexibility Score: inf
ROOT
ATOM      1  C   UNL A   1      34.811  32.432  28.162  1.00  0.00     0.188 C 
ENDROOT
BRANCH   1   2
ATOM      2  C   UNL A   1      34.119  31.136  27.696  1.00  0.00     0.188 C 
BRANCH   2   3
ATOM      3  O   UNL A   1      33.179  31.181  26.628  1.00  0.00    -0.376 OA
BRANCH   3   4
ATOM      4  C   UNL A   1      32.229  30.134  26.473  1.00  0.00     0.202 C 
BRANCH   4   5
ATOM      5  C   UNL A   1      32.077  29.440  25.109  1.00  0.00     0.261 C 
BRANCH   5   6
ATOM      6  O   UNL A   1      33.258  28.770  24.628  1.00  0.00    -0.460 OA
BRANCH   6   7
ATOM      7  C   UNL A   1      33.138  28.156  23.432  1.00  0.00     0.338 C 
ATOM      8  O   UNL A   1      33.450  28.622  22.347  1.00  0.00    -0.246 OA
BRANCH   7   9
ATOM      9  C   UNL A   1      32.658  26.767  23.586  1.00  0.00     0.087 C 
ATOM     10  C   UNL A   1      32.371  20.295  23.229  1.00  0.00     0.046 C 
ATOM     11  C   UNL A   1      32.703  21.737  23.511  1.00  0.00    -0.028 A 
ATOM     12  C   UNL A   1      31.858  22.735  23.011  1.00  0.00     0.052 A 
ATOM     13  C   UNL A   1      33.852  22.111  24.238  1.00  0.00     0.047 A 
ATOM     14  C   UNL A   1      32.150  24.082  23.211  1.00  0.00     0.128 A 
ATOM     15  C   UNL A   1      34.163  23.474  24.458  1.00  0.00    -0.021 A 
ATOM     16  Cl  UNL A   1      34.896  20.854  24.832  1.00  0.00    -0.084 Cl
ATOM     17  C   UNL A   1      33.287  24.463  23.938  1.00  0.00     0.022 A 
ATOM     18  O   UNL A   1      31.314  24.964  22.573  1.00  0.00    -0.475 OA
ATOM     19  C   UNL A   1      35.421  23.891  25.189  1.00  0.00     0.047 C 
ATOM     20  C   UNL A   1      33.576  25.894  24.025  1.00  0.00     0.027 C 
ATOM     21  C   UNL A   1      31.338  26.356  23.004  1.00  0.00     0.316 C 
BRANCH  21  22
ATOM     22  C   UNL A   1      30.071  26.614  23.843  1.00  0.00     0.430 C 
ATOM     23  F   UNL A   1      29.352  27.673  23.426  1.00  0.00    -0.167 F 
ATOM     24  F   UNL A   1      29.236  25.542  23.766  1.00  0.00    -0.167 F 
ATOM     25  F   UNL A   1      30.347  26.806  25.153  1.00  0.00    -0.167 F 
ENDBRANCH  21  22
ENDBRANCH   7   9
ENDBRANCH   6   7
ENDBRANCH   5   6
ENDBRANCH   4   5
ENDBRANCH   3   4
ENDBRANCH   2   3
ENDBRANCH   1   2
BRANCH   1  26
ATOM     26  O   UNL A   1      34.004  33.234  28.990  1.00  0.00    -0.376 OA
BRANCH  26  27
ATOM     27  C   UNL A   1      34.529  33.744  30.199  1.00  0.00     0.202 C 
BRANCH  27  28
ATOM     28  C   UNL A   1      35.237  32.862  31.246  1.00  0.00     0.261 C 
BRANCH  28  29
ATOM     29  O   UNL A   1      36.630  32.590  31.063  1.00  0.00    -0.460 OA
BRANCH  29  30
ATOM     30  C   UNL A   1      37.240  31.842  32.009  1.00  0.00     0.338 C 
ATOM     31  O   UNL A   1      36.837  31.611  33.139  1.00  0.00    -0.246 OA
BRANCH  30  32
ATOM     32  C   UNL A   1      38.392  31.175  31.369  1.00  0.00     0.060 A 
ATOM     33  C   UNL A   1      39.274  30.425  32.159  1.00  0.00     0.016 A 
ATOM     34  C   UNL A   1      38.582  31.272  29.989  1.00  0.00     0.016 A 
ATOM     35  C   UNL A   1      40.357  29.774  31.568  1.00  0.00     0.010 A 
ATOM     36  C   UNL A   1      39.682  30.641  29.403  1.00  0.00     0.010 A 
ATOM     37  C   UNL A   1      40.585  29.906  30.192  1.00  0.00    -0.014 A 
BRANCH  37  38
ATOM     38  C   UNL A   1      41.864  29.441  29.605  1.00  0.00     0.031 A 
ATOM     39  C   UNL A   1      42.998  30.425  29.508  1.00  0.00     0.074 A 
ATOM     40  C   UNL A   1      42.025  28.173  29.185  1.00  0.00     0.049 A 
ATOM     41  N   UNL A   1      44.179  30.275  28.971  1.00  0.00    -0.248 NA
ATOM     42  C   UNL A   1      42.767  31.755  30.099  1.00  0.00     0.031 C 
ATOM     43  C   UNL A   1      41.027  27.110  29.286  1.00  0.00     0.029 A 
ATOM     44  N   UNL A   1      43.100  27.567  28.579  1.00  0.00    -0.354 N 
ATOM     45  C   UNL A   1      44.833  31.488  29.157  1.00  0.00     0.074 A 
ATOM     46  C   UNL A   1      43.908  32.373  29.831  1.00  0.00     0.031 C 
ATOM     47  C   UNL A   1      41.534  25.982  28.755  1.00  0.00     0.029 A 
ATOM     48  C   UNL A   1      42.875  26.254  28.239  1.00  0.00     0.049 A 
ATOM     49  H   UNL A   1      43.951  28.030  28.407  1.00  0.00     0.167 HD
ATOM     50  C   UNL A   1      46.093  31.830  28.807  1.00  0.00     0.031 A 
ATOM     51  C   UNL A   1      43.653  25.382  27.565  1.00  0.00     0.031 A 
ATOM     52  C   UNL A   1      47.005  30.954  28.124  1.00  0.00     0.049 A 
ATOM     53  C   UNL A   1      45.014  25.826  27.085  1.00  0.00     0.074 A 
ATOM     54  C   UNL A   1      48.302  31.215  27.717  1.00  0.00     0.029 A 
ATOM     55  N   UNL A   1      46.719  29.651  27.746  1.00  0.00    -0.354 N 
ATOM     56  N   UNL A   1      45.620  26.977  27.265  1.00  0.00    -0.248 NA
ATOM     57  C   UNL A   1      45.800  24.854  26.310  1.00  0.00     0.031 C 
ATOM     58  C   UNL A   1      48.778  30.091  27.038  1.00  0.00     0.029 A 
ATOM     59  C   UNL A   1      47.805  29.104  27.085  1.00  0.00     0.049 A 
ATOM     60  H   UNL A   1      45.870  29.185  27.920  1.00  0.00     0.167 HD
ATOM     61  C   UNL A   1      46.865  26.852  26.657  1.00  0.00     0.074 A 
ATOM     62  C   UNL A   1      46.934  25.512  26.115  1.00  0.00     0.031 C 
ATOM     63  C   UNL A   1      47.864  27.765  26.558  1.00  0.00     0.031 A 
BRANCH  50  64
ATOM     64  C   UNL A   1      46.561  33.222  29.136  1.00  0.00    -0.014 A 
ATOM     65  C   UNL A   1      46.350  34.285  28.240  1.00  0.00     0.010 A 
ATOM     66  C   UNL A   1      47.140  33.484  30.390  1.00  0.00     0.010 A 
ATOM     67  C   UNL A   1      46.722  35.585  28.591  1.00  0.00     0.020 A 
ATOM     68  C   UNL A   1      47.487  34.787  30.755  1.00  0.00     0.020 A 
ATOM     69  C   UNL A   1      47.281  35.830  29.849  1.00  0.00     0.054 A 
BRANCH  69  70
ATOM     70  S   UNL A   1      47.689  37.538  30.298  1.00  0.00     0.124 S 
ATOM     71  O   UNL A   1      46.525  38.267  29.800  1.00  0.00    -0.237 OA
ATOM     72  O   UNL A   1      47.808  37.464  31.752  1.00  0.00    -0.237 OA
ATOM     73  O   UNL A   1      48.937  37.798  29.584  1.00  0.00    -0.744 OA
ENDBRANCH  69  70
ENDBRANCH  50  64
BRANCH  51  74
ATOM     74  C   UNL A   1      43.166  24.002  27.278  1.00  0.00    -0.014 A 
ATOM     75  C   UNL A   1      43.321  22.975  28.225  1.00  0.00     0.010 A 
ATOM     76  C   UNL A   1      42.565  23.702  26.041  1.00  0.00     0.010 A 
ATOM     77  C   UNL A   1      42.905  21.671  27.934  1.00  0.00     0.020 A 
ATOM     78  C   UNL A   1      42.119  22.407  25.758  1.00  0.00     0.020 A 
ATOM     79  C   UNL A   1      42.303  21.397  26.703  1.00  0.00     0.054 A 
BRANCH  79  80
ATOM     80  S   UNL A   1      41.743  19.704  26.365  1.00  0.00     0.124 S 
ATOM     81  O   UNL A   1      42.140  19.002  27.581  1.00  0.00    -0.237 OA
ATOM     82  O   UNL A   1      40.306  19.882  26.178  1.00  0.00    -0.237 OA
ATOM     83  O   UNL A   1      42.481  19.333  25.160  1.00  0.00    -0.744 OA
ENDBRANCH  79  80
ENDBRANCH  51  74
BRANCH  63  84
ATOM     84  C   UNL A   1      49.139  27.347  25.871  1.00  0.00    -0.014 A 
ATOM     85  C   UNL A   1      49.260  27.380  24.471  1.00  0.00     0.010 A 
ATOM     86  C   UNL A   1      50.264  27.007  26.647  1.00  0.00     0.010 A 
ATOM     87  C   UNL A   1      50.474  27.057  23.859  1.00  0.00     0.020 A 
ATOM     88  C   UNL A   1      51.488  26.714  26.041  1.00  0.00     0.020 A 
ATOM     89  C   UNL A   1      51.583  26.731  24.649  1.00  0.00     0.054 A 
BRANCH  89  90
ATOM     90  S   UNL A   1      53.160  26.372  23.827  1.00  0.00     0.124 S 
ATOM     91  O   UNL A   1      52.821  26.565  22.419  1.00  0.00    -0.237 OA
ATOM     92  O   UNL A   1      54.053  27.373  24.402  1.00  0.00    -0.237 OA
ATOM     93  O   UNL A   1      53.447  24.991  24.213  1.00  0.00    -0.744 OA
ENDBRANCH  89  90
ENDBRANCH  63  84
ENDBRANCH  37  38
ENDBRANCH  30  32
ENDBRANCH  29  30
ENDBRANCH  28  29
ENDBRANCH  27  28
ENDBRANCH  26  27
ENDBRANCH   1  26
TORSDOF 21
ENDMDL
