MODEL 1
REMARK VINA RESULT:     -10.1      0.000      0.000
REMARK SMILES C[C@H](CC(=O)OCCOCCOCCOC(=O)c1ccc(-c2c3nc(c(-c4ccc(S(=O)(=O)[O-])cc4)c4ccc([nH]4)c(-c4ccc(S(=O)(=O)[O-])cc4)c4nc(c(-c5ccc(S(=O)(=O)[O-])cc5)c5ccc2[nH]5)C=C4)C=C3)cc1)N1C(=O)S/C(=C\c2ccc(Cl)cc2)C1=O
REMARK SMILES IDX 10 1 9 2 8 3 7 4 6 5 4 6 5 7 3 8 2 9 1 10 78 11 79 12 91 13
REMARK SMILES IDX 80 14 81 15 82 16 92 17 83 18 84 19 85 20 90 21 86 22 89 23
REMARK SMILES IDX 87 24 88 25 11 26 12 27 13 28 14 29 15 30 16 31 17 32 18 33
REMARK SMILES IDX 19 34 77 35 20 36 76 37 21 38 22 39 23 40 70 41 24 42 75 43
REMARK SMILES IDX 69 44 71 45 25 46 74 47 68 48 67 49 26 51 56 52 37 53 55 54
REMARK SMILES IDX 38 55 41 56 54 57 72 58 39 59 40 60 53 62 73 63 42 64 27 65
REMARK SMILES IDX 28 66 36 67 29 68 35 69 30 70 31 71 32 72 33 73 34 74 57 75
REMARK SMILES IDX 58 76 66 77 59 78 65 79 60 80 61 81 62 82 63 83 64 84 43 85
REMARK SMILES IDX 44 86 52 87 45 88 51 89 46 90 47 91 48 92 49 93 50 94
REMARK H PARENT 71 50 41 61
REMARK Flexibility Score: inf
ROOT
ATOM      1  C   UNL A   1      36.122  21.342  24.700  1.00  0.00     0.188 C 
ENDROOT
BRANCH   1   2
ATOM      2  O   UNL A   1      35.668  20.083  25.168  1.00  0.00    -0.376 OA
BRANCH   2   3
ATOM      3  C   UNL A   1      34.352  19.711  24.778  1.00  0.00     0.202 C 
BRANCH   3   4
ATOM      4  C   UNL A   1      33.181  20.597  25.248  1.00  0.00     0.261 C 
BRANCH   4   5
ATOM      5  O   UNL A   1      32.066  20.753  24.333  1.00  0.00    -0.463 OA
BRANCH   5   6
ATOM      6  C   UNL A   1      32.328  21.498  23.229  1.00  0.00     0.307 C 
ATOM      7  O   UNL A   1      32.014  21.156  22.091  1.00  0.00    -0.252 OA
BRANCH   6   8
ATOM      8  C   UNL A   1      32.974  22.856  23.452  1.00  0.00     0.148 C 
BRANCH   8   9
ATOM      9  C   UNL A   1      32.313  24.231  23.178  1.00  0.00     0.102 C 
ATOM     10  C   UNL A   1      30.806  24.162  23.437  1.00  0.00     0.032 C 
BRANCH   9  11
ATOM     11  N   UNL A   1      32.944  25.466  23.710  1.00  0.00    -0.265 N 
ATOM     12  C   UNL A   1      33.188  26.579  22.938  1.00  0.00     0.293 C 
ATOM     13  C   UNL A   1      32.864  25.749  25.065  1.00  0.00     0.268 C 
ATOM     14  O   UNL A   1      32.956  26.753  21.758  1.00  0.00    -0.261 OA
ATOM     15  S   UNL A   1      33.809  27.899  23.921  1.00  0.00    -0.022 SA
ATOM     16  C   UNL A   1      33.404  27.096  25.371  1.00  0.00     0.083 C 
ATOM     17  O   UNL A   1      32.320  25.083  25.934  1.00  0.00    -0.268 OA
ATOM     18  C   UNL A   1      33.446  27.557  26.628  1.00  0.00     0.029 C 
BRANCH  18  19
ATOM     19  C   UNL A   1      33.785  28.930  26.999  1.00  0.00    -0.024 A 
ATOM     20  C   UNL A   1      32.814  29.934  26.994  1.00  0.00     0.009 A 
ATOM     21  C   UNL A   1      35.104  29.238  27.357  1.00  0.00     0.009 A 
ATOM     22  C   UNL A   1      33.154  31.233  27.385  1.00  0.00     0.021 A 
ATOM     23  C   UNL A   1      35.442  30.533  27.751  1.00  0.00     0.021 A 
ATOM     24  C   UNL A   1      34.464  31.522  27.771  1.00  0.00     0.041 A 
ATOM     25  Cl  UNL A   1      34.874  33.113  28.280  1.00  0.00    -0.084 Cl
ENDBRANCH  18  19
ENDBRANCH   9  11
ENDBRANCH   8   9
ENDBRANCH   6   8
ENDBRANCH   5   6
ENDBRANCH   4   5
ENDBRANCH   3   4
ENDBRANCH   2   3
ENDBRANCH   1   2
BRANCH   1  26
ATOM     26  C   UNL A   1      36.236  22.464  25.736  1.00  0.00     0.188 C 
BRANCH  26  27
ATOM     27  O   UNL A   1      37.449  23.210  25.720  1.00  0.00    -0.376 OA
BRANCH  27  28
ATOM     28  C   UNL A   1      38.657  22.455  25.897  1.00  0.00     0.202 C 
BRANCH  28  29
ATOM     29  C   UNL A   1      39.807  23.109  26.690  1.00  0.00     0.261 C 
BRANCH  29  30
ATOM     30  O   UNL A   1      39.444  24.305  27.416  1.00  0.00    -0.460 OA
BRANCH  30  31
ATOM     31  C   UNL A   1      40.115  25.443  27.107  1.00  0.00     0.338 C 
ATOM     32  O   UNL A   1      40.577  25.726  26.015  1.00  0.00    -0.246 OA
BRANCH  31  33
ATOM     33  C   UNL A   1      39.969  26.410  28.234  1.00  0.00     0.060 A 
ATOM     34  C   UNL A   1      40.718  27.595  28.191  1.00  0.00     0.016 A 
ATOM     35  C   UNL A   1      39.071  26.204  29.285  1.00  0.00     0.016 A 
ATOM     36  C   UNL A   1      40.609  28.544  29.215  1.00  0.00     0.010 A 
ATOM     37  C   UNL A   1      38.969  27.152  30.316  1.00  0.00     0.010 A 
ATOM     38  C   UNL A   1      39.765  28.313  30.309  1.00  0.00    -0.014 A 
BRANCH  38  39
ATOM     39  C   UNL A   1      39.849  29.187  31.515  1.00  0.00     0.031 A 
ATOM     40  C   UNL A   1      40.980  28.970  32.492  1.00  0.00     0.074 A 
ATOM     41  C   UNL A   1      38.972  30.184  31.742  1.00  0.00     0.049 A 
ATOM     42  N   UNL A   1      41.254  29.609  33.602  1.00  0.00    -0.248 NA
ATOM     43  C   UNL A   1      41.924  27.889  32.172  1.00  0.00     0.031 C 
ATOM     44  C   UNL A   1      37.849  30.543  30.877  1.00  0.00     0.029 A 
ATOM     45  N   UNL A   1      38.892  31.082  32.782  1.00  0.00    -0.354 N 
ATOM     46  C   UNL A   1      42.395  29.001  34.117  1.00  0.00     0.074 A 
ATOM     47  C   UNL A   1      42.739  27.922  33.215  1.00  0.00     0.031 C 
ATOM     48  C   UNL A   1      37.192  31.581  31.423  1.00  0.00     0.029 A 
ATOM     49  C   UNL A   1      37.824  31.944  32.693  1.00  0.00     0.049 A 
ATOM     50  H   UNL A   1      39.540  31.104  33.524  1.00  0.00     0.167 HD
ATOM     51  C   UNL A   1      43.100  29.309  35.233  1.00  0.00     0.031 A 
ATOM     52  C   UNL A   1      37.390  32.903  33.539  1.00  0.00     0.031 A 
ATOM     53  C   UNL A   1      42.760  30.368  36.148  1.00  0.00     0.049 A 
ATOM     54  C   UNL A   1      38.150  33.185  34.812  1.00  0.00     0.074 A 
ATOM     55  C   UNL A   1      43.436  30.766  37.290  1.00  0.00     0.029 A 
ATOM     56  N   UNL A   1      41.648  31.188  36.040  1.00  0.00    -0.354 N 
ATOM     57  N   UNL A   1      39.246  32.623  35.264  1.00  0.00    -0.248 NA
ATOM     58  C   UNL A   1      37.617  34.243  35.684  1.00  0.00     0.031 C 
ATOM     59  C   UNL A   1      42.694  31.776  37.911  1.00  0.00     0.029 A 
ATOM     60  C   UNL A   1      41.598  32.064  37.114  1.00  0.00     0.049 A 
ATOM     61  H   UNL A   1      40.990  31.154  35.308  1.00  0.00     0.167 HD
ATOM     62  C   UNL A   1      39.548  33.280  36.456  1.00  0.00     0.074 A 
ATOM     63  C   UNL A   1      38.530  34.292  36.644  1.00  0.00     0.031 C 
ATOM     64  C   UNL A   1      40.578  33.064  37.313  1.00  0.00     0.031 A 
BRANCH  51  65
ATOM     65  C   UNL A   1      44.298  28.450  35.555  1.00  0.00    -0.014 A 
ATOM     66  C   UNL A   1      45.573  28.741  35.037  1.00  0.00     0.010 A 
ATOM     67  C   UNL A   1      44.147  27.350  36.420  1.00  0.00     0.010 A 
ATOM     68  C   UNL A   1      46.664  27.920  35.339  1.00  0.00     0.020 A 
ATOM     69  C   UNL A   1      45.242  26.546  36.750  1.00  0.00     0.020 A 
ATOM     70  C   UNL A   1      46.490  26.826  36.191  1.00  0.00     0.054 A 
BRANCH  70  71
ATOM     71  S   UNL A   1      47.925  25.783  36.572  1.00  0.00     0.124 S 
ATOM     72  O   UNL A   1      48.211  25.180  35.272  1.00  0.00    -0.237 OA
ATOM     73  O   UNL A   1      48.909  26.753  37.045  1.00  0.00    -0.237 OA
ATOM     74  O   UNL A   1      47.424  24.860  37.588  1.00  0.00    -0.744 OA
ENDBRANCH  70  71
ENDBRANCH  51  65
BRANCH  52  75
ATOM     75  C   UNL A   1      36.150  33.669  33.219  1.00  0.00    -0.014 A 
ATOM     76  C   UNL A   1      36.217  34.944  32.629  1.00  0.00     0.010 A 
ATOM     77  C   UNL A   1      34.887  33.122  33.516  1.00  0.00     0.010 A 
ATOM     78  C   UNL A   1      35.048  35.659  32.348  1.00  0.00     0.020 A 
ATOM     79  C   UNL A   1      33.716  33.820  33.207  1.00  0.00     0.020 A 
ATOM     80  C   UNL A   1      33.804  35.089  32.631  1.00  0.00     0.054 A 
BRANCH  80  81
ATOM     81  S   UNL A   1      32.301  36.005  32.191  1.00  0.00     0.124 S 
ATOM     82  O   UNL A   1      32.512  36.275  30.773  1.00  0.00    -0.237 OA
ATOM     83  O   UNL A   1      31.246  35.043  32.503  1.00  0.00    -0.237 OA
ATOM     84  O   UNL A   1      32.345  37.174  33.065  1.00  0.00    -0.744 OA
ENDBRANCH  80  81
ENDBRANCH  52  75
BRANCH  64  85
ATOM     85  C   UNL A   1      40.685  33.963  38.523  1.00  0.00    -0.014 A 
ATOM     86  C   UNL A   1      40.317  33.520  39.807  1.00  0.00     0.010 A 
ATOM     87  C   UNL A   1      41.190  35.269  38.376  1.00  0.00     0.010 A 
ATOM     88  C   UNL A   1      40.401  34.381  40.907  1.00  0.00     0.020 A 
ATOM     89  C   UNL A   1      41.307  36.121  39.478  1.00  0.00     0.020 A 
ATOM     90  C   UNL A   1      40.892  35.680  40.734  1.00  0.00     0.054 A 
BRANCH  90  91
ATOM     91  S   UNL A   1      40.996  36.775  42.177  1.00  0.00     0.124 S 
ATOM     92  O   UNL A   1      41.419  35.854  43.228  1.00  0.00    -0.237 OA
ATOM     93  O   UNL A   1      41.992  37.759  41.762  1.00  0.00    -0.237 OA
ATOM     94  O   UNL A   1      39.636  37.295  42.315  1.00  0.00    -0.744 OA
ENDBRANCH  90  91
ENDBRANCH  64  85
ENDBRANCH  38  39
ENDBRANCH  31  33
ENDBRANCH  30  31
ENDBRANCH  29  30
ENDBRANCH  28  29
ENDBRANCH  27  28
ENDBRANCH  26  27
ENDBRANCH   1  26
TORSDOF 23
ENDMDL
MODEL 2
REMARK VINA RESULT:      -9.4      2.713      9.714
REMARK SMILES C[C@H](CC(=O)OCCOCCOCCOC(=O)c1ccc(-c2c3nc(c(-c4ccc(S(=O)(=O)[O-])cc4)c4ccc([nH]4)c(-c4ccc(S(=O)(=O)[O-])cc4)c4nc(c(-c5ccc(S(=O)(=O)[O-])cc5)c5ccc2[nH]5)C=C4)C=C3)cc1)N1C(=O)S/C(=C\c2ccc(Cl)cc2)C1=O
REMARK SMILES IDX 10 1 9 2 8 3 7 4 6 5 4 6 5 7 3 8 2 9 1 10 78 11 79 12 91 13
REMARK SMILES IDX 80 14 81 15 82 16 92 17 83 18 84 19 85 20 90 21 86 22 89 23
REMARK SMILES IDX 87 24 88 25 11 26 12 27 13 28 14 29 15 30 16 31 17 32 18 33
REMARK SMILES IDX 19 34 77 35 20 36 76 37 21 38 22 39 23 40 70 41 24 42 75 43
REMARK SMILES IDX 69 44 71 45 25 46 74 47 68 48 67 49 26 51 56 52 37 53 55 54
REMARK SMILES IDX 38 55 41 56 54 57 72 58 39 59 40 60 53 62 73 63 42 64 27 65
REMARK SMILES IDX 28 66 36 67 29 68 35 69 30 70 31 71 32 72 33 73 34 74 57 75
REMARK SMILES IDX 58 76 66 77 59 78 65 79 60 80 61 81 62 82 63 83 64 84 43 85
REMARK SMILES IDX 44 86 52 87 45 88 51 89 46 90 47 91 48 92 49 93 50 94
REMARK H PARENT 71 50 41 61
REMARK Flexibility Score: inf
ROOT
ATOM      1  C   UNL A   1      34.775  33.019  29.110  1.00  0.00     0.188 C 
ENDROOT
BRANCH   1   2
ATOM      2  O   UNL A   1      34.511  31.705  28.649  1.00  0.00    -0.376 OA
BRANCH   2   3
ATOM      3  C   UNL A   1      33.806  31.607  27.417  1.00  0.00     0.202 C 
BRANCH   3   4
ATOM      4  C   UNL A   1      32.889  30.386  27.204  1.00  0.00     0.261 C 
BRANCH   4   5
ATOM      5  O   UNL A   1      32.217  30.285  25.922  1.00  0.00    -0.463 OA
BRANCH   5   6
ATOM      6  C   UNL A   1      32.654  29.281  25.120  1.00  0.00     0.307 C 
ATOM      7  O   UNL A   1      33.790  28.813  25.179  1.00  0.00    -0.252 OA
BRANCH   6   8
ATOM      8  C   UNL A   1      31.641  28.672  24.164  1.00  0.00     0.148 C 
BRANCH   8   9
ATOM      9  C   UNL A   1      30.666  27.513  24.494  1.00  0.00     0.102 C 
ATOM     10  C   UNL A   1      29.516  27.477  23.486  1.00  0.00     0.032 C 
BRANCH   9  11
ATOM     11  N   UNL A   1      31.209  26.168  24.813  1.00  0.00    -0.265 N 
ATOM     12  C   UNL A   1      30.663  25.343  25.771  1.00  0.00     0.293 C 
ATOM     13  C   UNL A   1      31.948  25.482  23.861  1.00  0.00     0.268 C 
ATOM     14  O   UNL A   1      29.705  25.543  26.491  1.00  0.00    -0.261 OA
ATOM     15  S   UNL A   1      31.466  23.778  25.783  1.00  0.00    -0.022 SA
ATOM     16  C   UNL A   1      32.256  24.101  24.304  1.00  0.00     0.083 C 
ATOM     17  O   UNL A   1      32.237  25.854  22.733  1.00  0.00    -0.268 OA
ATOM     18  C   UNL A   1      32.987  23.274  23.543  1.00  0.00     0.029 C 
BRANCH  18  19
ATOM     19  C   UNL A   1      33.180  21.851  23.812  1.00  0.00    -0.024 A 
ATOM     20  C   UNL A   1      34.215  21.413  24.642  1.00  0.00     0.009 A 
ATOM     21  C   UNL A   1      32.318  20.917  23.222  1.00  0.00     0.009 A 
ATOM     22  C   UNL A   1      34.361  20.048  24.911  1.00  0.00     0.021 A 
ATOM     23  C   UNL A   1      32.461  19.557  23.495  1.00  0.00     0.021 A 
ATOM     24  C   UNL A   1      33.477  19.130  24.344  1.00  0.00     0.041 A 
ATOM     25  Cl  UNL A   1      33.638  17.455  24.701  1.00  0.00    -0.084 Cl
ENDBRANCH  18  19
ENDBRANCH   9  11
ENDBRANCH   8   9
ENDBRANCH   6   8
ENDBRANCH   5   6
ENDBRANCH   4   5
ENDBRANCH   3   4
ENDBRANCH   2   3
ENDBRANCH   1   2
BRANCH   1  26
ATOM     26  C   UNL A   1      33.848  34.128  28.604  1.00  0.00     0.188 C 
BRANCH  26  27
ATOM     27  O   UNL A   1      34.450  35.402  28.399  1.00  0.00    -0.376 OA
BRANCH  27  28
ATOM     28  C   UNL A   1      33.665  36.540  28.786  1.00  0.00     0.202 C 
BRANCH  28  29
ATOM     29  C   UNL A   1      32.554  36.328  29.835  1.00  0.00     0.261 C 
BRANCH  29  30
ATOM     30  O   UNL A   1      32.944  36.602  31.199  1.00  0.00    -0.460 OA
BRANCH  30  31
ATOM     31  C   UNL A   1      32.717  35.626  32.114  1.00  0.00     0.338 C 
ATOM     32  O   UNL A   1      31.627  35.287  32.541  1.00  0.00    -0.246 OA
BRANCH  31  33
ATOM     33  C   UNL A   1      33.977  34.852  32.317  1.00  0.00     0.060 A 
ATOM     34  C   UNL A   1      33.881  33.557  32.847  1.00  0.00     0.016 A 
ATOM     35  C   UNL A   1      35.228  35.347  31.938  1.00  0.00     0.016 A 
ATOM     36  C   UNL A   1      35.029  32.781  33.044  1.00  0.00     0.010 A 
ATOM     37  C   UNL A   1      36.380  34.571  32.145  1.00  0.00     0.010 A 
ATOM     38  C   UNL A   1      36.295  33.296  32.734  1.00  0.00    -0.014 A 
BRANCH  38  39
ATOM     39  C   UNL A   1      37.523  32.582  33.189  1.00  0.00     0.031 A 
ATOM     40  C   UNL A   1      38.167  32.998  34.490  1.00  0.00     0.074 A 
ATOM     41  C   UNL A   1      38.056  31.557  32.496  1.00  0.00     0.049 A 
ATOM     42  N   UNL A   1      39.233  32.520  35.081  1.00  0.00    -0.248 NA
ATOM     43  C   UNL A   1      37.520  34.101  35.217  1.00  0.00     0.031 C 
ATOM     44  C   UNL A   1      37.532  31.014  31.243  1.00  0.00     0.029 A 
ATOM     45  N   UNL A   1      39.167  30.787  32.755  1.00  0.00    -0.354 N 
ATOM     46  C   UNL A   1      39.390  33.269  36.243  1.00  0.00     0.074 A 
ATOM     47  C   UNL A   1      38.329  34.255  36.254  1.00  0.00     0.031 C 
ATOM     48  C   UNL A   1      38.322  30.002  30.843  1.00  0.00     0.029 A 
ATOM     49  C   UNL A   1      39.428  29.842  31.789  1.00  0.00     0.049 A 
ATOM     50  H   UNL A   1      39.725  30.903  33.558  1.00  0.00     0.167 HD
ATOM     51  C   UNL A   1      40.324  33.151  37.219  1.00  0.00     0.031 A 
ATOM     52  C   UNL A   1      40.444  28.962  31.666  1.00  0.00     0.031 A 
ATOM     53  C   UNL A   1      41.394  32.187  37.213  1.00  0.00     0.049 A 
ATOM     54  C   UNL A   1      41.514  28.893  32.729  1.00  0.00     0.074 A 
ATOM     55  C   UNL A   1      42.369  31.981  38.176  1.00  0.00     0.029 A 
ATOM     56  N   UNL A   1      41.644  31.279  36.197  1.00  0.00    -0.354 N 
ATOM     57  N   UNL A   1      41.625  29.585  33.838  1.00  0.00    -0.248 NA
ATOM     58  C   UNL A   1      42.590  27.911  32.526  1.00  0.00     0.031 C 
ATOM     59  C   UNL A   1      43.249  31.000  37.707  1.00  0.00     0.029 A 
ATOM     60  C   UNL A   1      42.778  30.537  36.490  1.00  0.00     0.049 A 
ATOM     61  H   UNL A   1      41.095  31.176  35.384  1.00  0.00     0.167 HD
ATOM     62  C   UNL A   1      42.765  29.101  34.477  1.00  0.00     0.074 A 
ATOM     63  C   UNL A   1      43.296  28.046  33.640  1.00  0.00     0.031 C 
ATOM     64  C   UNL A   1      43.318  29.495  35.652  1.00  0.00     0.031 A 
BRANCH  51  65
ATOM     65  C   UNL A   1      40.256  34.130  38.366  1.00  0.00    -0.014 A 
ATOM     66  C   UNL A   1      40.969  35.343  38.340  1.00  0.00     0.010 A 
ATOM     67  C   UNL A   1      39.438  33.842  39.473  1.00  0.00     0.010 A 
ATOM     68  C   UNL A   1      40.901  36.225  39.423  1.00  0.00     0.020 A 
ATOM     69  C   UNL A   1      39.342  34.736  40.542  1.00  0.00     0.020 A 
ATOM     70  C   UNL A   1      40.091  35.914  40.519  1.00  0.00     0.054 A 
BRANCH  70  71
ATOM     71  S   UNL A   1      40.016  37.082  41.905  1.00  0.00     0.124 S 
ATOM     72  O   UNL A   1      39.304  36.302  42.915  1.00  0.00    -0.237 OA
ATOM     73  O   UNL A   1      41.426  37.336  42.186  1.00  0.00    -0.237 OA
ATOM     74  O   UNL A   1      39.275  38.219  41.363  1.00  0.00    -0.744 OA
ENDBRANCH  70  71
ENDBRANCH  51  65
BRANCH  52  75
ATOM     75  C   UNL A   1      40.515  28.073  30.470  1.00  0.00    -0.014 A 
ATOM     76  C   UNL A   1      41.659  28.050  29.652  1.00  0.00     0.010 A 
ATOM     77  C   UNL A   1      39.424  27.247  30.139  1.00  0.00     0.010 A 
ATOM     78  C   UNL A   1      41.708  27.224  28.524  1.00  0.00     0.020 A 
ATOM     79  C   UNL A   1      39.482  26.397  29.031  1.00  0.00     0.020 A 
ATOM     80  C   UNL A   1      40.622  26.395  28.225  1.00  0.00     0.054 A 
BRANCH  80  81
ATOM     81  S   UNL A   1      40.738  25.281  26.799  1.00  0.00     0.124 S 
ATOM     82  O   UNL A   1      42.073  24.714  26.961  1.00  0.00    -0.237 OA
ATOM     83  O   UNL A   1      39.627  24.361  27.029  1.00  0.00    -0.237 OA
ATOM     84  O   UNL A   1      40.571  26.172  25.653  1.00  0.00    -0.744 OA
ENDBRANCH  80  81
ENDBRANCH  52  75
BRANCH  64  85
ATOM     85  C   UNL A   1      44.548  28.759  36.132  1.00  0.00    -0.014 A 
ATOM     86  C   UNL A   1      45.845  29.204  35.819  1.00  0.00     0.010 A 
ATOM     87  C   UNL A   1      44.401  27.612  36.936  1.00  0.00     0.010 A 
ATOM     88  C   UNL A   1      46.967  28.489  36.253  1.00  0.00     0.020 A 
ATOM     89  C   UNL A   1      45.520  26.914  37.401  1.00  0.00     0.020 A 
ATOM     90  C   UNL A   1      46.796  27.344  37.038  1.00  0.00     0.054 A 
BRANCH  90  91
ATOM     91  S   UNL A   1      48.266  26.438  37.594  1.00  0.00     0.124 S 
ATOM     92  O   UNL A   1      47.909  26.089  38.966  1.00  0.00    -0.237 OA
ATOM     93  O   UNL A   1      48.328  25.320  36.656  1.00  0.00    -0.237 OA
ATOM     94  O   UNL A   1      49.346  27.414  37.461  1.00  0.00    -0.744 OA
ENDBRANCH  90  91
ENDBRANCH  64  85
ENDBRANCH  38  39
ENDBRANCH  31  33
ENDBRANCH  30  31
ENDBRANCH  29  30
ENDBRANCH  28  29
ENDBRANCH  27  28
ENDBRANCH  26  27
ENDBRANCH   1  26
TORSDOF 23
ENDMDL
MODEL 3
REMARK VINA RESULT:      -9.2      6.956      9.150
REMARK SMILES C[C@H](CC(=O)OCCOCCOCCOC(=O)c1ccc(-c2c3nc(c(-c4ccc(S(=O)(=O)[O-])cc4)c4ccc([nH]4)c(-c4ccc(S(=O)(=O)[O-])cc4)c4nc(c(-c5ccc(S(=O)(=O)[O-])cc5)c5ccc2[nH]5)C=C4)C=C3)cc1)N1C(=O)S/C(=C\c2ccc(Cl)cc2)C1=O
REMARK SMILES IDX 10 1 9 2 8 3 7 4 6 5 4 6 5 7 3 8 2 9 1 10 78 11 79 12 91 13
REMARK SMILES IDX 80 14 81 15 82 16 92 17 83 18 84 19 85 20 90 21 86 22 89 23
REMARK SMILES IDX 87 24 88 25 11 26 12 27 13 28 14 29 15 30 16 31 17 32 18 33
REMARK SMILES IDX 19 34 77 35 20 36 76 37 21 38 22 39 23 40 70 41 24 42 75 43
REMARK SMILES IDX 69 44 71 45 25 46 74 47 68 48 67 49 26 51 56 52 37 53 55 54
REMARK SMILES IDX 38 55 41 56 54 57 72 58 39 59 40 60 53 62 73 63 42 64 27 65
REMARK SMILES IDX 28 66 36 67 29 68 35 69 30 70 31 71 32 72 33 73 34 74 57 75
REMARK SMILES IDX 58 76 66 77 59 78 65 79 60 80 61 81 62 82 63 83 64 84 43 85
REMARK SMILES IDX 44 86 52 87 45 88 51 89 46 90 47 91 48 92 49 93 50 94
REMARK H PARENT 71 50 41 61
REMARK Flexibility Score: inf
ROOT
ATOM      1  C   UNL A   1      39.384  22.558  26.392  1.00  0.00     0.188 C 
ENDROOT
BRANCH   1   2
ATOM      2  O   UNL A   1      38.073  22.026  26.303  1.00  0.00    -0.376 OA
BRANCH   2   3
ATOM      3  C   UNL A   1      37.696  21.506  25.033  1.00  0.00     0.202 C 
BRANCH   3   4
ATOM      4  C   UNL A   1      36.819  22.386  24.123  1.00  0.00     0.261 C 
BRANCH   4   5
ATOM      5  O   UNL A   1      35.817  23.211  24.773  1.00  0.00    -0.463 OA
BRANCH   5   6
ATOM      6  C   UNL A   1      34.918  22.533  25.530  1.00  0.00     0.307 C 
ATOM      7  O   UNL A   1      34.724  22.764  26.722  1.00  0.00    -0.252 OA
BRANCH   6   8
ATOM      8  C   UNL A   1      34.064  21.493  24.821  1.00  0.00     0.148 C 
BRANCH   8   9
ATOM      9  C   UNL A   1      33.094  21.766  23.643  1.00  0.00     0.102 C 
ATOM     10  C   UNL A   1      32.322  20.496  23.280  1.00  0.00     0.032 C 
BRANCH   9  11
ATOM     11  N   UNL A   1      32.245  22.984  23.662  1.00  0.00    -0.265 N 
ATOM     12  C   UNL A   1      31.300  23.229  24.632  1.00  0.00     0.293 C 
ATOM     13  C   UNL A   1      32.682  24.136  23.024  1.00  0.00     0.268 C 
ATOM     14  O   UNL A   1      30.997  22.544  25.588  1.00  0.00    -0.261 OA
ATOM     15  S   UNL A   1      30.586  24.823  24.424  1.00  0.00    -0.022 SA
ATOM     16  C   UNL A   1      31.781  25.281  23.295  1.00  0.00     0.083 C 
ATOM     17  O   UNL A   1      33.727  24.295  22.408  1.00  0.00    -0.268 OA
ATOM     18  C   UNL A   1      32.006  26.485  22.751  1.00  0.00     0.029 C 
BRANCH  18  19
ATOM     19  C   UNL A   1      31.285  27.706  23.106  1.00  0.00    -0.024 A 
ATOM     20  C   UNL A   1      31.716  28.510  24.165  1.00  0.00     0.009 A 
ATOM     21  C   UNL A   1      30.146  28.068  22.376  1.00  0.00     0.009 A 
ATOM     22  C   UNL A   1      31.030  29.691  24.465  1.00  0.00     0.021 A 
ATOM     23  C   UNL A   1      29.464  29.248  22.673  1.00  0.00     0.021 A 
ATOM     24  C   UNL A   1      29.915  30.058  23.711  1.00  0.00     0.041 A 
ATOM     25  Cl  UNL A   1      29.090  31.527  24.062  1.00  0.00    -0.084 Cl
ENDBRANCH  18  19
ENDBRANCH   9  11
ENDBRANCH   8   9
ENDBRANCH   6   8
ENDBRANCH   5   6
ENDBRANCH   4   5
ENDBRANCH   3   4
ENDBRANCH   2   3
ENDBRANCH   1   2
BRANCH   1  26
ATOM     26  C   UNL A   1      40.543  21.565  26.265  1.00  0.00     0.188 C 
BRANCH  26  27
ATOM     27  O   UNL A   1      40.726  20.673  27.359  1.00  0.00    -0.376 OA
BRANCH  27  28
ATOM     28  C   UNL A   1      41.953  19.929  27.369  1.00  0.00     0.202 C 
BRANCH  28  29
ATOM     29  C   UNL A   1      42.252  19.013  26.164  1.00  0.00     0.261 C 
BRANCH  29  30
ATOM     30  O   UNL A   1      42.799  19.686  25.008  1.00  0.00    -0.460 OA
BRANCH  30  31
ATOM     31  C   UNL A   1      44.147  19.827  24.955  1.00  0.00     0.338 C 
ATOM     32  O   UNL A   1      44.939  18.985  24.567  1.00  0.00    -0.246 OA
BRANCH  31  33
ATOM     33  C   UNL A   1      44.492  21.259  25.191  1.00  0.00     0.060 A 
ATOM     34  C   UNL A   1      45.284  21.575  26.305  1.00  0.00     0.016 A 
ATOM     35  C   UNL A   1      44.111  22.276  24.310  1.00  0.00     0.016 A 
ATOM     36  C   UNL A   1      45.650  22.901  26.566  1.00  0.00     0.010 A 
ATOM     37  C   UNL A   1      44.472  23.606  24.578  1.00  0.00     0.010 A 
ATOM     38  C   UNL A   1      45.212  23.935  25.729  1.00  0.00    -0.014 A 
BRANCH  38  39
ATOM     39  C   UNL A   1      45.374  25.357  26.151  1.00  0.00     0.031 A 
ATOM     40  C   UNL A   1      46.745  25.986  26.074  1.00  0.00     0.074 A 
ATOM     41  C   UNL A   1      44.334  26.107  26.564  1.00  0.00     0.049 A 
ATOM     42  N   UNL A   1      47.121  27.201  26.383  1.00  0.00    -0.248 NA
ATOM     43  C   UNL A   1      47.833  25.126  25.583  1.00  0.00     0.031 C 
ATOM     44  C   UNL A   1      42.946  25.658  26.660  1.00  0.00     0.029 A 
ATOM     45  N   UNL A   1      44.291  27.417  26.985  1.00  0.00    -0.354 N 
ATOM     46  C   UNL A   1      48.490  27.250  26.134  1.00  0.00     0.074 A 
ATOM     47  C   UNL A   1      48.880  25.931  25.682  1.00  0.00     0.031 C 
ATOM     48  C   UNL A   1      42.189  26.673  27.112  1.00  0.00     0.029 A 
ATOM     49  C   UNL A   1      43.039  27.837  27.371  1.00  0.00     0.049 A 
ATOM     50  H   UNL A   1      45.084  28.000  27.008  1.00  0.00     0.167 HD
ATOM     51  C   UNL A   1      49.347  28.291  26.263  1.00  0.00     0.031 A 
ATOM     52  C   UNL A   1      42.622  29.012  27.890  1.00  0.00     0.031 A 
ATOM     53  C   UNL A   1      48.976  29.603  26.727  1.00  0.00     0.049 A 
ATOM     54  C   UNL A   1      43.607  30.139  28.090  1.00  0.00     0.074 A 
ATOM     55  C   UNL A   1      49.778  30.725  26.863  1.00  0.00     0.029 A 
ATOM     56  N   UNL A   1      47.707  29.971  27.146  1.00  0.00    -0.354 N 
ATOM     57  N   UNL A   1      44.889  30.176  27.815  1.00  0.00    -0.248 NA
ATOM     58  C   UNL A   1      43.080  31.387  28.661  1.00  0.00     0.031 C 
ATOM     59  C   UNL A   1      49.011  31.747  27.431  1.00  0.00     0.029 A 
ATOM     60  C   UNL A   1      47.712  31.290  27.575  1.00  0.00     0.049 A 
ATOM     61  H   UNL A   1      46.918  29.382  27.140  1.00  0.00     0.167 HD
ATOM     62  C   UNL A   1      45.314  31.460  28.153  1.00  0.00     0.074 A 
ATOM     63  C   UNL A   1      44.148  32.172  28.633  1.00  0.00     0.031 C 
ATOM     64  C   UNL A   1      46.557  31.998  28.068  1.00  0.00     0.031 A 
BRANCH  51  65
ATOM     65  C   UNL A   1      50.799  28.039  25.935  1.00  0.00    -0.014 A 
ATOM     66  C   UNL A   1      51.710  27.605  26.916  1.00  0.00     0.010 A 
ATOM     67  C   UNL A   1      51.249  28.208  24.613  1.00  0.00     0.010 A 
ATOM     68  C   UNL A   1      53.053  27.394  26.590  1.00  0.00     0.020 A 
ATOM     69  C   UNL A   1      52.583  27.966  24.276  1.00  0.00     0.020 A 
ATOM     70  C   UNL A   1      53.481  27.579  25.272  1.00  0.00     0.054 A 
BRANCH  70  71
ATOM     71  S   UNL A   1      55.227  27.289  24.876  1.00  0.00     0.124 S 
ATOM     72  O   UNL A   1      55.514  28.390  23.959  1.00  0.00    -0.237 OA
ATOM     73  O   UNL A   1      55.871  27.376  26.184  1.00  0.00    -0.237 OA
ATOM     74  O   UNL A   1      55.230  25.959  24.269  1.00  0.00    -0.744 OA
ENDBRANCH  70  71
ENDBRANCH  51  65
BRANCH  52  75
ATOM     75  C   UNL A   1      41.193  29.186  28.279  1.00  0.00    -0.014 A 
ATOM     76  C   UNL A   1      40.808  29.214  29.632  1.00  0.00     0.010 A 
ATOM     77  C   UNL A   1      40.202  29.315  27.287  1.00  0.00     0.010 A 
ATOM     78  C   UNL A   1      39.463  29.362  29.984  1.00  0.00     0.020 A 
ATOM     79  C   UNL A   1      38.860  29.494  27.637  1.00  0.00     0.020 A 
ATOM     80  C   UNL A   1      38.497  29.510  28.984  1.00  0.00     0.054 A 
BRANCH  80  81
ATOM     81  S   UNL A   1      36.769  29.772  29.468  1.00  0.00     0.124 S 
ATOM     82  O   UNL A   1      36.660  28.952  30.669  1.00  0.00    -0.237 OA
ATOM     83  O   UNL A   1      36.719  31.217  29.680  1.00  0.00    -0.237 OA
ATOM     84  O   UNL A   1      36.014  29.294  28.312  1.00  0.00    -0.744 OA
ENDBRANCH  80  81
ENDBRANCH  52  75
BRANCH  64  85
ATOM     85  C   UNL A   1      46.724  33.446  28.469  1.00  0.00    -0.014 A 
ATOM     86  C   UNL A   1      46.549  34.493  27.546  1.00  0.00     0.010 A 
ATOM     87  C   UNL A   1      47.037  33.765  29.804  1.00  0.00     0.010 A 
ATOM     88  C   UNL A   1      46.736  35.824  27.936  1.00  0.00     0.020 A 
ATOM     89  C   UNL A   1      47.191  35.095  30.207  1.00  0.00     0.020 A 
ATOM     90  C   UNL A   1      47.061  36.116  29.265  1.00  0.00     0.054 A 
BRANCH  90  91
ATOM     91  S   UNL A   1      47.293  37.850  29.748  1.00  0.00     0.124 S 
ATOM     92  O   UNL A   1      48.477  38.224  28.980  1.00  0.00    -0.237 OA
ATOM     93  O   UNL A   1      46.042  38.472  29.320  1.00  0.00    -0.237 OA
ATOM     94  O   UNL A   1      47.485  37.783  31.195  1.00  0.00    -0.744 OA
ENDBRANCH  90  91
ENDBRANCH  64  85
ENDBRANCH  38  39
ENDBRANCH  31  33
ENDBRANCH  30  31
ENDBRANCH  29  30
ENDBRANCH  28  29
ENDBRANCH  27  28
ENDBRANCH  26  27
ENDBRANCH   1  26
TORSDOF 23
ENDMDL
