MODEL 1
REMARK VINA RESULT:     -10.4      0.000      0.000
REMARK SMILES CC(C)CC(=O)Nc1ccc(NC(=O)[C@@H]2CCCC[C@@H]2C(=O)OCCOCCOCCOC(=O)c2ccc(-c3c4nc(c(-c5ccc(S(=O)(=O)[O-])cc5)c5ccc([nH]5)c(-c5ccc(S(=O)(=O)[O-])cc5)c5nc(c(-c6ccc(S(=O)(=O)[O-])cc6)c6ccc3[nH]6)C=C5)C=C4)cc2)cc1
REMARK SMILES IDX 27 1 26 2 25 3 24 4 23 5 21 6 22 7 20 8 15 9 16 10 17 11
REMARK SMILES IDX 19 12 18 13 13 14 12 15 14 17 11 18 8 19 9 20 96 21 10 22
REMARK SMILES IDX 95 23 7 24 5 25 6 26 4 28 2 29 1 30 3 31 28 32 29 33 30 34
REMARK SMILES IDX 31 35 32 36 33 37 34 38 35 39 36 40 94 41 37 42 93 43 38 44
REMARK SMILES IDX 39 45 40 46 87 47 41 48 92 49 86 50 88 51 42 52 91 53 85 54
REMARK SMILES IDX 84 55 43 57 73 58 54 59 72 60 55 61 58 62 71 63 89 64 56 65
REMARK SMILES IDX 57 66 70 68 90 69 59 70 44 71 45 72 53 73 46 74 52 75 47 76
REMARK SMILES IDX 48 77 49 78 50 79 51 80 74 81 75 82 83 83 76 84 82 85 77 86
REMARK SMILES IDX 78 87 79 88 80 89 81 90 60 91 61 92 69 93 62 94 68 95 63 96
REMARK SMILES IDX 64 97 65 98 66 99 67 100
REMARK H PARENT 12 16 7 27 88 56 58 67
REMARK Flexibility Score: inf
ROOT
ATOM      1  C   UNL A   1      38.573  21.808  25.713  1.00  0.00     0.188 C 
ENDROOT
BRANCH   1   2
ATOM      2  O   UNL A   1      37.403  21.093  25.332  1.00  0.00    -0.376 OA
BRANCH   2   3
ATOM      3  C   UNL A   1      36.126  21.610  25.679  1.00  0.00     0.202 C 
BRANCH   3   4
ATOM      4  C   UNL A   1      34.920  20.960  24.995  1.00  0.00     0.261 C 
BRANCH   4   5
ATOM      5  O   UNL A   1      33.742  20.855  25.831  1.00  0.00    -0.463 OA
BRANCH   5   6
ATOM      6  C   UNL A   1      32.573  20.765  25.164  1.00  0.00     0.309 C 
ATOM      7  O   UNL A   1      32.142  19.719  24.682  1.00  0.00    -0.252 OA
BRANCH   6   8
ATOM      8  C   UNL A   1      31.781  22.058  24.992  1.00  0.00     0.111 C 
ATOM      9  C   UNL A   1      32.258  23.287  24.206  1.00  0.00     0.093 C 
ATOM     10  C   UNL A   1      33.134  24.291  24.932  1.00  0.00     0.014 C 
ATOM     11  C   UNL A   1      32.329  24.802  26.126  1.00  0.00     0.001 C 
ATOM     12  C   UNL A   1      31.156  22.496  26.331  1.00  0.00     0.016 C 
ATOM     13  C   UNL A   1      31.845  23.668  27.030  1.00  0.00     0.001 C 
BRANCH   9  14
ATOM     14  C   UNL A   1      32.594  23.015  22.771  1.00  0.00     0.228 C 
ATOM     15  N   UNL A   1      32.752  24.078  21.917  1.00  0.00    -0.326 N 
ATOM     16  H   UNL A   1      33.052  23.803  21.020  1.00  0.00     0.169 HD
ATOM     17  O   UNL A   1      32.786  21.874  22.350  1.00  0.00    -0.274 OA
BRANCH  15  18
ATOM     18  C   UNL A   1      32.583  25.481  22.033  1.00  0.00     0.041 A 
ATOM     19  C   UNL A   1      31.970  28.168  22.587  1.00  0.00     0.041 A 
ATOM     20  C   UNL A   1      33.288  27.804  22.445  1.00  0.00     0.028 A 
ATOM     21  C   UNL A   1      30.966  27.262  22.270  1.00  0.00     0.028 A 
ATOM     22  C   UNL A   1      33.578  26.460  22.194  1.00  0.00     0.028 A 
ATOM     23  C   UNL A   1      31.263  25.924  22.017  1.00  0.00     0.028 A 
BRANCH  19  24
ATOM     24  N   UNL A   1      31.645  29.404  23.141  1.00  0.00    -0.326 N 
ATOM     25  C   UNL A   1      31.133  29.572  24.409  1.00  0.00     0.224 C 
ATOM     26  O   UNL A   1      30.538  30.609  24.707  1.00  0.00    -0.275 OA
ATOM     27  H   UNL A   1      31.788  30.207  22.592  1.00  0.00     0.169 HD
BRANCH  25  28
ATOM     28  C   UNL A   1      31.529  28.540  25.474  1.00  0.00     0.103 C 
BRANCH  28  29
ATOM     29  C   UNL A   1      31.918  29.087  26.857  1.00  0.00    -0.008 C 
ATOM     30  C   UNL A   1      31.632  28.105  27.997  1.00  0.00     0.008 C 
ATOM     31  C   UNL A   1      33.420  29.392  26.875  1.00  0.00     0.008 C 
ENDBRANCH  28  29
ENDBRANCH  25  28
ENDBRANCH  19  24
ENDBRANCH  15  18
ENDBRANCH   9  14
ENDBRANCH   6   8
ENDBRANCH   5   6
ENDBRANCH   4   5
ENDBRANCH   3   4
ENDBRANCH   2   3
ENDBRANCH   1   2
BRANCH   1  32
ATOM     32  C   UNL A   1      39.723  21.041  26.359  1.00  0.00     0.188 C 
BRANCH  32  33
ATOM     33  O   UNL A   1      40.990  21.630  26.108  1.00  0.00    -0.376 OA
BRANCH  33  34
ATOM     34  C   UNL A   1      41.471  22.408  27.201  1.00  0.00     0.202 C 
BRANCH  34  35
ATOM     35  C   UNL A   1      41.663  23.836  26.689  1.00  0.00     0.261 C 
BRANCH  35  36
ATOM     36  O   UNL A   1      40.539  24.688  26.993  1.00  0.00    -0.460 OA
BRANCH  36  37
ATOM     37  C   UNL A   1      40.679  25.978  26.606  1.00  0.00     0.338 C 
ATOM     38  O   UNL A   1      40.810  26.377  25.463  1.00  0.00    -0.246 OA
BRANCH  37  39
ATOM     39  C   UNL A   1      40.403  26.868  27.757  1.00  0.00     0.060 A 
ATOM     40  C   UNL A   1      40.977  28.140  27.728  1.00  0.00     0.016 A 
ATOM     41  C   UNL A   1      39.630  26.484  28.851  1.00  0.00     0.016 A 
ATOM     42  C   UNL A   1      40.786  29.044  28.770  1.00  0.00     0.010 A 
ATOM     43  C   UNL A   1      39.471  27.373  29.925  1.00  0.00     0.010 A 
ATOM     44  C   UNL A   1      40.060  28.653  29.898  1.00  0.00    -0.014 A 
BRANCH  44  45
ATOM     45  C   UNL A   1      40.111  29.495  31.120  1.00  0.00     0.031 A 
ATOM     46  C   UNL A   1      41.271  29.308  32.060  1.00  0.00     0.074 A 
ATOM     47  C   UNL A   1      39.196  30.449  31.372  1.00  0.00     0.049 A 
ATOM     48  N   UNL A   1      41.477  29.833  33.240  1.00  0.00    -0.248 NA
ATOM     49  C   UNL A   1      42.347  28.415  31.599  1.00  0.00     0.031 C 
ATOM     50  C   UNL A   1      38.089  30.822  30.492  1.00  0.00     0.029 A 
ATOM     51  N   UNL A   1      39.061  31.286  32.453  1.00  0.00    -0.354 N 
ATOM     52  C   UNL A   1      42.687  29.305  33.678  1.00  0.00     0.074 A 
ATOM     53  C   UNL A   1      43.168  28.422  32.638  1.00  0.00     0.031 C 
ATOM     54  C   UNL A   1      37.381  31.807  31.075  1.00  0.00     0.029 A 
ATOM     55  C   UNL A   1      37.952  32.097  32.391  1.00  0.00     0.049 A 
ATOM     56  H   UNL A   1      39.698  31.303  33.204  1.00  0.00     0.167 HD
ATOM     57  C   UNL A   1      43.336  29.527  34.845  1.00  0.00     0.031 A 
ATOM     58  C   UNL A   1      37.434  32.945  33.306  1.00  0.00     0.031 A 
ATOM     59  C   UNL A   1      42.857  30.402  35.881  1.00  0.00     0.049 A 
ATOM     60  C   UNL A   1      38.117  33.099  34.643  1.00  0.00     0.074 A 
ATOM     61  C   UNL A   1      43.428  30.668  37.113  1.00  0.00     0.029 A 
ATOM     62  N   UNL A   1      41.697  31.155  35.805  1.00  0.00    -0.354 N 
ATOM     63  N   UNL A   1      39.231  32.552  35.070  1.00  0.00    -0.248 NA
ATOM     64  C   UNL A   1      37.466  33.980  35.625  1.00  0.00     0.031 C 
ATOM     65  C   UNL A   1      42.585  31.547  37.802  1.00  0.00     0.029 A 
ATOM     66  C   UNL A   1      41.522  31.873  36.975  1.00  0.00     0.049 A 
ATOM     67  H   UNL A   1      41.087  31.177  35.032  1.00  0.00     0.167 HD
ATOM     68  C   UNL A   1      39.423  33.040  36.360  1.00  0.00     0.074 A 
ATOM     69  C   UNL A   1      38.322  33.937  36.638  1.00  0.00     0.031 C 
ATOM     70  C   UNL A   1      40.423  32.768  37.237  1.00  0.00     0.031 A 
BRANCH  57  71
ATOM     71  C   UNL A   1      44.602  28.752  35.085  1.00  0.00    -0.014 A 
ATOM     72  C   UNL A   1      44.575  27.416  35.522  1.00  0.00     0.010 A 
ATOM     73  C   UNL A   1      45.843  29.378  34.864  1.00  0.00     0.010 A 
ATOM     74  C   UNL A   1      45.768  26.733  35.773  1.00  0.00     0.020 A 
ATOM     75  C   UNL A   1      47.037  28.689  35.087  1.00  0.00     0.020 A 
ATOM     76  C   UNL A   1      46.991  27.377  35.561  1.00  0.00     0.054 A 
BRANCH  76  77
ATOM     77  S   UNL A   1      48.525  26.467  35.892  1.00  0.00     0.124 S 
ATOM     78  O   UNL A   1      48.908  26.028  34.553  1.00  0.00    -0.237 OA
ATOM     79  O   UNL A   1      49.382  27.490  36.486  1.00  0.00    -0.237 OA
ATOM     80  O   UNL A   1      48.108  25.403  36.802  1.00  0.00    -0.744 OA
ENDBRANCH  76  77
ENDBRANCH  57  71
BRANCH  58  81
ATOM     81  C   UNL A   1      36.166  33.675  33.020  1.00  0.00    -0.014 A 
ATOM     82  C   UNL A   1      34.919  33.042  33.168  1.00  0.00     0.010 A 
ATOM     83  C   UNL A   1      36.203  35.007  32.570  1.00  0.00     0.010 A 
ATOM     84  C   UNL A   1      33.736  33.722  32.858  1.00  0.00     0.020 A 
ATOM     85  C   UNL A   1      35.021  35.700  32.285  1.00  0.00     0.020 A 
ATOM     86  C   UNL A   1      33.795  35.047  32.420  1.00  0.00     0.054 A 
BRANCH  86  87
ATOM     87  S   UNL A   1      32.246  35.926  32.068  1.00  0.00     0.124 S 
ATOM     88  O   UNL A   1      31.252  35.039  32.664  1.00  0.00    -0.237 OA
ATOM     89  O   UNL A   1      32.446  37.202  32.750  1.00  0.00    -0.237 OA
ATOM     90  O   UNL A   1      32.222  36.005  30.609  1.00  0.00    -0.744 OA
ENDBRANCH  86  87
ENDBRANCH  58  81
BRANCH  70  91
ATOM     91  C   UNL A   1      40.403  33.478  38.565  1.00  0.00    -0.014 A 
ATOM     92  C   UNL A   1      41.221  34.593  38.811  1.00  0.00     0.010 A 
ATOM     93  C   UNL A   1      39.498  33.059  39.559  1.00  0.00     0.010 A 
ATOM     94  C   UNL A   1      41.156  35.261  40.039  1.00  0.00     0.020 A 
ATOM     95  C   UNL A   1      39.411  33.740  40.777  1.00  0.00     0.020 A 
ATOM     96  C   UNL A   1      40.250  34.830  41.014  1.00  0.00     0.054 A 
BRANCH  96  97
ATOM     97  S   UNL A   1      40.149  35.741  42.579  1.00  0.00     0.124 S 
ATOM     98  O   UNL A   1      41.537  36.145  42.786  1.00  0.00    -0.237 OA
ATOM     99  O   UNL A   1      39.220  36.823  42.263  1.00  0.00    -0.237 OA
ATOM    100  O   UNL A   1      39.643  34.749  43.526  1.00  0.00    -0.744 OA
ENDBRANCH  96  97
ENDBRANCH  70  91
ENDBRANCH  44  45
ENDBRANCH  37  39
ENDBRANCH  36  37
ENDBRANCH  35  36
ENDBRANCH  34  35
ENDBRANCH  33  34
ENDBRANCH  32  33
ENDBRANCH   1  32
TORSDOF 25
ENDMDL
MODEL 2
REMARK VINA RESULT:     -10.2      1.868      7.945
REMARK SMILES CC(C)CC(=O)Nc1ccc(NC(=O)[C@@H]2CCCC[C@@H]2C(=O)OCCOCCOCCOC(=O)c2ccc(-c3c4nc(c(-c5ccc(S(=O)(=O)[O-])cc5)c5ccc([nH]5)c(-c5ccc(S(=O)(=O)[O-])cc5)c5nc(c(-c6ccc(S(=O)(=O)[O-])cc6)c6ccc3[nH]6)C=C5)C=C4)cc2)cc1
REMARK SMILES IDX 27 1 26 2 25 3 24 4 23 5 21 6 22 7 20 8 15 9 16 10 17 11
REMARK SMILES IDX 19 12 18 13 13 14 12 15 14 17 11 18 8 19 9 20 96 21 10 22
REMARK SMILES IDX 95 23 7 24 5 25 6 26 4 28 2 29 1 30 3 31 28 32 29 33 30 34
REMARK SMILES IDX 31 35 32 36 33 37 34 38 35 39 36 40 94 41 37 42 93 43 38 44
REMARK SMILES IDX 39 45 40 46 87 47 41 48 92 49 86 50 88 51 42 52 91 53 85 54
REMARK SMILES IDX 84 55 43 57 73 58 54 59 72 60 55 61 58 62 71 63 89 64 56 65
REMARK SMILES IDX 57 66 70 68 90 69 59 70 44 71 45 72 53 73 46 74 52 75 47 76
REMARK SMILES IDX 48 77 49 78 50 79 51 80 74 81 75 82 83 83 76 84 82 85 77 86
REMARK SMILES IDX 78 87 79 88 80 89 81 90 60 91 61 92 69 93 62 94 68 95 63 96
REMARK SMILES IDX 64 97 65 98 66 99 67 100
REMARK H PARENT 12 16 7 27 88 56 58 67
REMARK Flexibility Score: inf
ROOT
ATOM      1  C   UNL A   1      39.722  21.712  26.517  1.00  0.00     0.188 C 
ENDROOT
BRANCH   1   2
ATOM      2  O   UNL A   1      38.834  21.785  25.407  1.00  0.00    -0.376 OA
BRANCH   2   3
ATOM      3  C   UNL A   1      37.530  22.319  25.593  1.00  0.00     0.202 C 
BRANCH   3   4
ATOM      4  C   UNL A   1      36.884  22.974  24.369  1.00  0.00     0.261 C 
BRANCH   4   5
ATOM      5  O   UNL A   1      35.789  22.220  23.794  1.00  0.00    -0.463 OA
BRANCH   5   6
ATOM      6  C   UNL A   1      34.708  22.951  23.451  1.00  0.00     0.309 C 
ATOM      7  O   UNL A   1      34.764  23.962  22.754  1.00  0.00    -0.252 OA
BRANCH   6   8
ATOM      8  C   UNL A   1      33.363  22.484  23.999  1.00  0.00     0.111 C 
ATOM      9  C   UNL A   1      33.176  21.569  25.216  1.00  0.00     0.093 C 
ATOM     10  C   UNL A   1      33.248  20.070  24.989  1.00  0.00     0.014 C 
ATOM     11  C   UNL A   1      32.149  19.719  23.987  1.00  0.00     0.001 C 
ATOM     12  C   UNL A   1      32.434  22.037  22.853  1.00  0.00     0.016 C 
ATOM     13  C   UNL A   1      32.263  20.526  22.693  1.00  0.00     0.001 C 
BRANCH   9  14
ATOM     14  C   UNL A   1      33.788  22.087  26.483  1.00  0.00     0.228 C 
ATOM     15  N   UNL A   1      33.473  23.356  26.898  1.00  0.00    -0.326 N 
ATOM     16  H   UNL A   1      33.857  23.575  27.777  1.00  0.00     0.169 HD
ATOM     17  O   UNL A   1      34.521  21.390  27.187  1.00  0.00    -0.274 OA
BRANCH  15  18
ATOM     18  C   UNL A   1      32.719  24.424  26.348  1.00  0.00     0.041 A 
ATOM     19  C   UNL A   1      31.453  26.469  24.892  1.00  0.00     0.041 A 
ATOM     20  C   UNL A   1      30.679  25.591  25.612  1.00  0.00     0.028 A 
ATOM     21  C   UNL A   1      32.834  26.456  25.044  1.00  0.00     0.028 A 
ATOM     22  C   UNL A   1      31.321  24.564  26.310  1.00  0.00     0.028 A 
ATOM     23  C   UNL A   1      33.467  25.431  25.745  1.00  0.00     0.028 A 
BRANCH  19  24
ATOM     24  N   UNL A   1      30.864  27.299  23.942  1.00  0.00    -0.326 N 
ATOM     25  C   UNL A   1      30.863  28.676  24.011  1.00  0.00     0.224 C 
ATOM     26  O   UNL A   1      30.043  29.330  23.366  1.00  0.00    -0.275 OA
ATOM     27  H   UNL A   1      30.420  26.877  23.172  1.00  0.00     0.169 HD
BRANCH  25  28
ATOM     28  C   UNL A   1      32.044  29.348  24.724  1.00  0.00     0.103 C 
BRANCH  28  29
ATOM     29  C   UNL A   1      31.809  29.805  26.173  1.00  0.00    -0.008 C 
ATOM     30  C   UNL A   1      33.087  29.824  27.016  1.00  0.00     0.008 C 
ATOM     31  C   UNL A   1      31.238  31.228  26.166  1.00  0.00     0.008 C 
ENDBRANCH  28  29
ENDBRANCH  25  28
ENDBRANCH  19  24
ENDBRANCH  15  18
ENDBRANCH   9  14
ENDBRANCH   6   8
ENDBRANCH   5   6
ENDBRANCH   4   5
ENDBRANCH   3   4
ENDBRANCH   2   3
ENDBRANCH   1   2
BRANCH   1  32
ATOM     32  C   UNL A   1      40.939  20.796  26.423  1.00  0.00     0.188 C 
BRANCH  32  33
ATOM     33  O   UNL A   1      42.086  21.453  25.904  1.00  0.00    -0.376 OA
BRANCH  33  34
ATOM     34  C   UNL A   1      42.574  22.484  26.759  1.00  0.00     0.202 C 
BRANCH  34  35
ATOM     35  C   UNL A   1      42.606  23.774  25.940  1.00  0.00     0.261 C 
BRANCH  35  36
ATOM     36  O   UNL A   1      41.473  24.627  26.209  1.00  0.00    -0.460 OA
BRANCH  36  37
ATOM     37  C   UNL A   1      41.701  25.951  26.034  1.00  0.00     0.338 C 
ATOM     38  O   UNL A   1      41.682  26.551  24.974  1.00  0.00    -0.246 OA
BRANCH  37  39
ATOM     39  C   UNL A   1      41.737  26.620  27.354  1.00  0.00     0.060 A 
ATOM     40  C   UNL A   1      40.783  26.224  28.293  1.00  0.00     0.016 A 
ATOM     41  C   UNL A   1      42.651  27.621  27.678  1.00  0.00     0.016 A 
ATOM     42  C   UNL A   1      40.729  26.804  29.558  1.00  0.00     0.010 A 
ATOM     43  C   UNL A   1      42.573  28.241  28.934  1.00  0.00     0.010 A 
ATOM     44  C   UNL A   1      41.602  27.847  29.876  1.00  0.00    -0.014 A 
BRANCH  44  45
ATOM     45  C   UNL A   1      41.349  28.657  31.095  1.00  0.00     0.031 A 
ATOM     46  C   UNL A   1      40.210  29.641  31.067  1.00  0.00     0.074 A 
ATOM     47  C   UNL A   1      42.057  28.491  32.227  1.00  0.00     0.049 A 
ATOM     48  N   UNL A   1      39.865  30.539  31.952  1.00  0.00    -0.248 NA
ATOM     49  C   UNL A   1      39.339  29.596  29.880  1.00  0.00     0.031 C 
ATOM     50  C   UNL A   1      43.107  27.494  32.437  1.00  0.00     0.029 A 
ATOM     51  N   UNL A   1      41.993  29.166  33.422  1.00  0.00    -0.354 N 
ATOM     52  C   UNL A   1      38.761  31.190  31.414  1.00  0.00     0.074 A 
ATOM     53  C   UNL A   1      38.494  30.584  30.129  1.00  0.00     0.031 C 
ATOM     54  C   UNL A   1      43.594  27.631  33.683  1.00  0.00     0.029 A 
ATOM     55  C   UNL A   1      42.932  28.758  34.340  1.00  0.00     0.049 A 
ATOM     56  H   UNL A   1      41.337  29.877  33.604  1.00  0.00     0.167 HD
ATOM     57  C   UNL A   1      38.039  32.209  31.939  1.00  0.00     0.031 A 
ATOM     58  C   UNL A   1      43.246  29.260  35.553  1.00  0.00     0.031 A 
ATOM     59  C   UNL A   1      38.306  32.815  33.215  1.00  0.00     0.049 A 
ATOM     60  C   UNL A   1      42.497  30.462  36.074  1.00  0.00     0.074 A 
ATOM     61  C   UNL A   1      37.651  33.873  33.818  1.00  0.00     0.029 A 
ATOM     62  N   UNL A   1      39.307  32.413  34.086  1.00  0.00    -0.354 N 
ATOM     63  N   UNL A   1      41.491  31.108  35.533  1.00  0.00    -0.248 NA
ATOM     64  C   UNL A   1      42.934  31.009  37.369  1.00  0.00     0.031 C 
ATOM     65  C   UNL A   1      38.287  34.143  35.035  1.00  0.00     0.029 A 
ATOM     66  C   UNL A   1      39.300  33.214  35.215  1.00  0.00     0.049 A 
ATOM     67  H   UNL A   1      39.930  31.668  33.925  1.00  0.00     0.167 HD
ATOM     68  C   UNL A   1      41.163  32.121  36.430  1.00  0.00     0.074 A 
ATOM     69  C   UNL A   1      42.065  31.994  37.555  1.00  0.00     0.031 C 
ATOM     70  C   UNL A   1      40.200  33.073  36.331  1.00  0.00     0.031 A 
BRANCH  57  71
ATOM     71  C   UNL A   1      36.933  32.775  31.091  1.00  0.00    -0.014 A 
ATOM     72  C   UNL A   1      35.608  32.325  31.216  1.00  0.00     0.010 A 
ATOM     73  C   UNL A   1      37.233  33.781  30.153  1.00  0.00     0.010 A 
ATOM     74  C   UNL A   1      34.608  32.843  30.388  1.00  0.00     0.020 A 
ATOM     75  C   UNL A   1      36.231  34.320  29.343  1.00  0.00     0.020 A 
ATOM     76  C   UNL A   1      34.928  33.832  29.452  1.00  0.00     0.054 A 
BRANCH  76  77
ATOM     77  S   UNL A   1      33.611  34.488  28.391  1.00  0.00     0.124 S 
ATOM     78  O   UNL A   1      34.345  35.433  27.554  1.00  0.00    -0.237 OA
ATOM     79  O   UNL A   1      33.123  33.292  27.709  1.00  0.00    -0.237 OA
ATOM     80  O   UNL A   1      32.673  35.090  29.335  1.00  0.00    -0.744 OA
ENDBRANCH  76  77
ENDBRANCH  57  71
BRANCH  58  81
ATOM     81  C   UNL A   1      44.364  28.669  36.344  1.00  0.00    -0.014 A 
ATOM     82  C   UNL A   1      45.673  29.171  36.229  1.00  0.00     0.010 A 
ATOM     83  C   UNL A   1      44.127  27.578  37.200  1.00  0.00     0.010 A 
ATOM     84  C   UNL A   1      46.723  28.584  36.943  1.00  0.00     0.020 A 
ATOM     85  C   UNL A   1      45.169  27.006  37.937  1.00  0.00     0.020 A 
ATOM     86  C   UNL A   1      46.464  27.506  37.794  1.00  0.00     0.054 A 
BRANCH  86  87
ATOM     87  S   UNL A   1      47.833  26.789  38.746  1.00  0.00     0.124 S 
ATOM     88  O   UNL A   1      47.127  25.920  39.683  1.00  0.00    -0.237 OA
ATOM     89  O   UNL A   1      48.611  26.108  37.715  1.00  0.00    -0.237 OA
ATOM     90  O   UNL A   1      48.483  27.954  39.341  1.00  0.00    -0.744 OA
ENDBRANCH  86  87
ENDBRANCH  58  81
BRANCH  70  91
ATOM     91  C   UNL A   1      40.038  34.028  37.484  1.00  0.00    -0.014 A 
ATOM     92  C   UNL A   1      40.696  35.269  37.504  1.00  0.00     0.010 A 
ATOM     93  C   UNL A   1      39.156  33.703  38.532  1.00  0.00     0.010 A 
ATOM     94  C   UNL A   1      40.498  36.157  38.567  1.00  0.00     0.020 A 
ATOM     95  C   UNL A   1      38.936  34.598  39.583  1.00  0.00     0.020 A 
ATOM     96  C   UNL A   1      39.619  35.815  39.600  1.00  0.00     0.054 A 
BRANCH  96  97
ATOM     97  S   UNL A   1      39.341  37.003  40.942  1.00  0.00     0.124 S 
ATOM     98  O   UNL A   1      38.465  37.983  40.306  1.00  0.00    -0.237 OA
ATOM     99  O   UNL A   1      38.719  36.182  41.977  1.00  0.00    -0.237 OA
ATOM    100  O   UNL A   1      40.684  37.485  41.261  1.00  0.00    -0.744 OA
ENDBRANCH  96  97
ENDBRANCH  70  91
ENDBRANCH  44  45
ENDBRANCH  37  39
ENDBRANCH  36  37
ENDBRANCH  35  36
ENDBRANCH  34  35
ENDBRANCH  33  34
ENDBRANCH  32  33
ENDBRANCH   1  32
TORSDOF 25
ENDMDL
MODEL 3
REMARK VINA RESULT:      -9.2      2.322      8.096
REMARK SMILES CC(C)CC(=O)Nc1ccc(NC(=O)[C@@H]2CCCC[C@@H]2C(=O)OCCOCCOCCOC(=O)c2ccc(-c3c4nc(c(-c5ccc(S(=O)(=O)[O-])cc5)c5ccc([nH]5)c(-c5ccc(S(=O)(=O)[O-])cc5)c5nc(c(-c6ccc(S(=O)(=O)[O-])cc6)c6ccc3[nH]6)C=C5)C=C4)cc2)cc1
REMARK SMILES IDX 27 1 26 2 25 3 24 4 23 5 21 6 22 7 20 8 15 9 16 10 17 11
REMARK SMILES IDX 19 12 18 13 13 14 12 15 14 17 11 18 8 19 9 20 96 21 10 22
REMARK SMILES IDX 95 23 7 24 5 25 6 26 4 28 2 29 1 30 3 31 28 32 29 33 30 34
REMARK SMILES IDX 31 35 32 36 33 37 34 38 35 39 36 40 94 41 37 42 93 43 38 44
REMARK SMILES IDX 39 45 40 46 87 47 41 48 92 49 86 50 88 51 42 52 91 53 85 54
REMARK SMILES IDX 84 55 43 57 73 58 54 59 72 60 55 61 58 62 71 63 89 64 56 65
REMARK SMILES IDX 57 66 70 68 90 69 59 70 44 71 45 72 53 73 46 74 52 75 47 76
REMARK SMILES IDX 48 77 49 78 50 79 51 80 74 81 75 82 83 83 76 84 82 85 77 86
REMARK SMILES IDX 78 87 79 88 80 89 81 90 60 91 61 92 69 93 62 94 68 95 63 96
REMARK SMILES IDX 64 97 65 98 66 99 67 100
REMARK H PARENT 12 16 7 27 88 56 58 67
REMARK Flexibility Score: inf
ROOT
ATOM      1  C   UNL A   1      40.819  24.453  26.982  1.00  0.00     0.188 C 
ENDROOT
BRANCH   1   2
ATOM      2  O   UNL A   1      39.508  24.682  26.480  1.00  0.00    -0.376 OA
BRANCH   2   3
ATOM      3  C   UNL A   1      38.512  23.683  26.651  1.00  0.00     0.202 C 
BRANCH   3   4
ATOM      4  C   UNL A   1      37.695  23.320  25.408  1.00  0.00     0.261 C 
BRANCH   4   5
ATOM      5  O   UNL A   1      36.349  23.856  25.398  1.00  0.00    -0.463 OA
BRANCH   5   6
ATOM      6  C   UNL A   1      35.369  22.946  25.575  1.00  0.00     0.309 C 
ATOM      7  O   UNL A   1      35.529  21.878  26.161  1.00  0.00    -0.252 OA
BRANCH   6   8
ATOM      8  C   UNL A   1      34.006  23.283  24.977  1.00  0.00     0.111 C 
ATOM      9  C   UNL A   1      32.654  22.869  25.575  1.00  0.00     0.093 C 
ATOM     10  C   UNL A   1      32.118  21.495  25.220  1.00  0.00     0.014 C 
ATOM     11  C   UNL A   1      31.973  21.453  23.699  1.00  0.00     0.001 C 
ATOM     12  C   UNL A   1      34.006  23.048  23.455  1.00  0.00     0.016 C 
ATOM     13  C   UNL A   1      33.280  21.789  22.980  1.00  0.00     0.001 C 
BRANCH   9  14
ATOM     14  C   UNL A   1      32.426  23.337  26.981  1.00  0.00     0.228 C 
ATOM     15  N   UNL A   1      31.640  24.443  27.189  1.00  0.00    -0.326 N 
ATOM     16  H   UNL A   1      31.483  24.622  28.145  1.00  0.00     0.169 HD
ATOM     17  O   UNL A   1      32.877  22.729  27.952  1.00  0.00    -0.274 OA
BRANCH  15  18
ATOM     18  C   UNL A   1      31.003  25.385  26.342  1.00  0.00     0.041 A 
ATOM     19  C   UNL A   1      30.142  27.343  24.518  1.00  0.00     0.041 A 
ATOM     20  C   UNL A   1      29.488  26.135  24.551  1.00  0.00     0.028 A 
ATOM     21  C   UNL A   1      31.078  27.649  25.499  1.00  0.00     0.028 A 
ATOM     22  C   UNL A   1      29.943  25.162  25.446  1.00  0.00     0.028 A 
ATOM     23  C   UNL A   1      31.524  26.675  26.390  1.00  0.00     0.028 A 
BRANCH  19  24
ATOM     24  N   UNL A   1      29.941  28.214  23.450  1.00  0.00    -0.326 N 
ATOM     25  C   UNL A   1      30.868  28.447  22.457  1.00  0.00     0.224 C 
ATOM     26  O   UNL A   1      30.795  29.462  21.764  1.00  0.00    -0.275 OA
ATOM     27  H   UNL A   1      29.084  28.694  23.401  1.00  0.00     0.169 HD
BRANCH  25  28
ATOM     28  C   UNL A   1      31.831  27.303  22.107  1.00  0.00     0.103 C 
BRANCH  28  29
ATOM     29  C   UNL A   1      33.333  27.587  22.278  1.00  0.00    -0.008 C 
ATOM     30  C   UNL A   1      33.623  28.747  23.234  1.00  0.00     0.008 C 
ATOM     31  C   UNL A   1      34.020  26.338  22.841  1.00  0.00     0.008 C 
ENDBRANCH  28  29
ENDBRANCH  25  28
ENDBRANCH  19  24
ENDBRANCH  15  18
ENDBRANCH   9  14
ENDBRANCH   6   8
ENDBRANCH   5   6
ENDBRANCH   4   5
ENDBRANCH   3   4
ENDBRANCH   2   3
ENDBRANCH   1   2
BRANCH   1  32
ATOM     32  C   UNL A   1      41.618  23.274  26.434  1.00  0.00     0.188 C 
BRANCH  32  33
ATOM     33  O   UNL A   1      42.512  23.647  25.397  1.00  0.00    -0.376 OA
BRANCH  33  34
ATOM     34  C   UNL A   1      42.637  25.059  25.247  1.00  0.00     0.202 C 
BRANCH  34  35
ATOM     35  C   UNL A   1      44.128  25.369  25.114  1.00  0.00     0.261 C 
BRANCH  35  36
ATOM     36  O   UNL A   1      44.617  26.203  26.186  1.00  0.00    -0.460 OA
BRANCH  36  37
ATOM     37  C   UNL A   1      44.693  25.596  27.394  1.00  0.00     0.338 C 
ATOM     38  O   UNL A   1      45.369  24.620  27.668  1.00  0.00    -0.246 OA
BRANCH  37  39
ATOM     39  C   UNL A   1      44.019  26.437  28.409  1.00  0.00     0.060 A 
ATOM     40  C   UNL A   1      44.312  27.803  28.396  1.00  0.00     0.016 A 
ATOM     41  C   UNL A   1      43.144  25.926  29.365  1.00  0.00     0.016 A 
ATOM     42  C   UNL A   1      43.737  28.673  29.320  1.00  0.00     0.010 A 
ATOM     43  C   UNL A   1      42.598  26.790  30.326  1.00  0.00     0.010 A 
ATOM     44  C   UNL A   1      42.902  28.167  30.319  1.00  0.00    -0.014 A 
BRANCH  44  45
ATOM     45  C   UNL A   1      42.538  29.035  31.467  1.00  0.00     0.031 A 
ATOM     46  C   UNL A   1      41.283  29.859  31.360  1.00  0.00     0.074 A 
ATOM     47  C   UNL A   1      43.252  29.054  32.607  1.00  0.00     0.049 A 
ATOM     48  N   UNL A   1      40.819  30.776  32.169  1.00  0.00    -0.248 NA
ATOM     49  C   UNL A   1      40.435  29.606  30.183  1.00  0.00     0.031 C 
ATOM     50  C   UNL A   1      44.418  28.220  32.896  1.00  0.00     0.029 A 
ATOM     51  N   UNL A   1      43.092  29.812  33.742  1.00  0.00    -0.354 N 
ATOM     52  C   UNL A   1      39.646  31.235  31.581  1.00  0.00     0.074 A 
ATOM     53  C   UNL A   1      39.468  30.496  30.350  1.00  0.00     0.031 C 
ATOM     54  C   UNL A   1      44.874  28.520  34.126  1.00  0.00     0.029 A 
ATOM     55  C   UNL A   1      44.067  29.603  34.689  1.00  0.00     0.049 A 
ATOM     56  H   UNL A   1      42.349  30.445  33.866  1.00  0.00     0.167 HD
ATOM     57  C   UNL A   1      38.795  32.192  32.021  1.00  0.00     0.031 A 
ATOM     58  C   UNL A   1      44.304  30.239  35.856  1.00  0.00     0.031 A 
ATOM     59  C   UNL A   1      38.972  32.930  33.243  1.00  0.00     0.049 A 
ATOM     60  C   UNL A   1      43.404  31.375  36.278  1.00  0.00     0.074 A 
ATOM     61  C   UNL A   1      38.182  33.942  33.758  1.00  0.00     0.029 A 
ATOM     62  N   UNL A   1      40.008  32.732  34.141  1.00  0.00    -0.354 N 
ATOM     63  N   UNL A   1      42.329  31.840  35.687  1.00  0.00    -0.248 NA
ATOM     64  C   UNL A   1      43.757  32.077  37.522  1.00  0.00     0.031 C 
ATOM     65  C   UNL A   1      38.768  34.389  34.947  1.00  0.00     0.029 A 
ATOM     66  C   UNL A   1      39.890  33.615  35.201  1.00  0.00     0.049 A 
ATOM     67  H   UNL A   1      40.723  32.062  34.042  1.00  0.00     0.167 HD
ATOM     68  C   UNL A   1      41.866  32.873  36.498  1.00  0.00     0.074 A 
ATOM     69  C   UNL A   1      42.767  32.955  37.628  1.00  0.00     0.031 C 
ATOM     70  C   UNL A   1      40.791  33.683  36.322  1.00  0.00     0.031 A 
BRANCH  57  71
ATOM     71  C   UNL A   1      37.633  32.540  31.132  1.00  0.00    -0.014 A 
ATOM     72  C   UNL A   1      36.332  32.091  31.413  1.00  0.00     0.010 A 
ATOM     73  C   UNL A   1      37.855  33.339  29.994  1.00  0.00     0.010 A 
ATOM     74  C   UNL A   1      35.278  32.399  30.547  1.00  0.00     0.020 A 
ATOM     75  C   UNL A   1      36.799  33.671  29.142  1.00  0.00     0.020 A 
ATOM     76  C   UNL A   1      35.521  33.181  29.414  1.00  0.00     0.054 A 
BRANCH  76  77
ATOM     77  S   UNL A   1      34.136  33.569  28.308  1.00  0.00     0.124 S 
ATOM     78  O   UNL A   1      33.829  32.257  27.743  1.00  0.00    -0.237 OA
ATOM     79  O   UNL A   1      33.134  34.107  29.226  1.00  0.00    -0.237 OA
ATOM     80  O   UNL A   1      34.701  34.535  27.370  1.00  0.00    -0.744 OA
ENDBRANCH  76  77
ENDBRANCH  57  71
BRANCH  58  81
ATOM     81  C   UNL A   1      45.482  29.863  36.691  1.00  0.00    -0.014 A 
ATOM     82  C   UNL A   1      46.738  30.460  36.477  1.00  0.00     0.010 A 
ATOM     83  C   UNL A   1      45.357  28.881  37.690  1.00  0.00     0.010 A 
ATOM     84  C   UNL A   1      47.846  30.071  37.237  1.00  0.00     0.020 A 
ATOM     85  C   UNL A   1      46.456  28.510  38.471  1.00  0.00     0.020 A 
ATOM     86  C   UNL A   1      47.698  29.099  38.230  1.00  0.00     0.054 A 
BRANCH  86  87
ATOM     87  S   UNL A   1      49.139  28.643  39.236  1.00  0.00     0.124 S 
ATOM     88  O   UNL A   1      49.854  27.734  38.345  1.00  0.00    -0.237 OA
ATOM     89  O   UNL A   1      49.780  29.934  39.472  1.00  0.00    -0.237 OA
ATOM     90  O   UNL A   1      48.547  28.023  40.419  1.00  0.00    -0.744 OA
ENDBRANCH  86  87
ENDBRANCH  58  81
BRANCH  70  91
ATOM     91  C   UNL A   1      40.498  34.701  37.393  1.00  0.00    -0.014 A 
ATOM     92  C   UNL A   1      40.973  36.020  37.298  1.00  0.00     0.010 A 
ATOM     93  C   UNL A   1      39.676  34.345  38.479  1.00  0.00     0.010 A 
ATOM     94  C   UNL A   1      40.654  36.959  38.285  1.00  0.00     0.020 A 
ATOM     95  C   UNL A   1      39.334  35.287  39.454  1.00  0.00     0.020 A 
ATOM     96  C   UNL A   1      39.836  36.586  39.357  1.00  0.00     0.054 A 
BRANCH  96  97
ATOM     97  S   UNL A   1      39.397  37.833  40.598  1.00  0.00     0.124 S 
ATOM     98  O   UNL A   1      38.220  38.457  40.000  1.00  0.00    -0.237 OA
ATOM     99  O   UNL A   1      39.145  37.028  41.790  1.00  0.00    -0.237 OA
ATOM    100  O   UNL A   1      40.584  38.684  40.669  1.00  0.00    -0.744 OA
ENDBRANCH  96  97
ENDBRANCH  70  91
ENDBRANCH  44  45
ENDBRANCH  37  39
ENDBRANCH  36  37
ENDBRANCH  35  36
ENDBRANCH  34  35
ENDBRANCH  33  34
ENDBRANCH  32  33
ENDBRANCH   1  32
TORSDOF 25
ENDMDL
