MODEL 1
REMARK VINA RESULT:      -8.3      0.000      0.000
REMARK SMILES C[C@H](C(=O)OCCOCCOCCOC(=O)c1ccc(-c2c3nc(c(-c4ccc(S(=O)(=O)[O-])cc4)c4ccc([nH]4)c(-c4ccc(S(=O)(=O)[O-])cc4)c4nc(c(-c5ccc(S(=O)(=O)[O-])cc5)c5ccc2[nH]5)C=C4)C=C3)cc1)c1ccc2c(c1)[nH]c1ccc(Cl)cc12
REMARK SMILES IDX 10 1 9 2 8 3 7 4 6 5 5 6 3 7 4 8 2 9 1 10 77 11 78 12 82 13
REMARK SMILES IDX 79 14 81 15 80 16 83 17 90 18 84 19 89 21 85 22 87 23 86 24
REMARK SMILES IDX 88 25 11 26 12 27 13 28 14 29 15 30 16 31 17 32 18 33 76 34
REMARK SMILES IDX 19 35 75 36 20 37 21 38 22 39 69 40 23 41 74 42 68 43 70 44
REMARK SMILES IDX 24 45 73 46 67 47 66 48 25 50 55 51 36 52 54 53 37 54 40 55
REMARK SMILES IDX 53 56 71 57 38 58 39 59 52 61 72 62 41 63 26 64 27 65 35 66
REMARK SMILES IDX 28 67 34 68 29 69 30 70 31 71 32 72 33 73 56 74 57 75 65 76
REMARK SMILES IDX 58 77 64 78 59 79 60 80 61 81 62 82 63 83 42 84 43 85 51 86
REMARK SMILES IDX 44 87 50 88 45 89 46 90 47 91 48 92 49 93
REMARK H PARENT 83 20 70 49 40 60
REMARK Flexibility Score: inf
ROOT
ATOM      1  C   UNL A   1      33.733  35.564  31.091  1.00  0.00     0.188 C 
ENDROOT
BRANCH   1   2
ATOM      2  C   UNL A   1      34.021  35.153  32.547  1.00  0.00     0.188 C 
BRANCH   2   3
ATOM      3  O   UNL A   1      33.692  33.827  32.959  1.00  0.00    -0.376 OA
BRANCH   3   4
ATOM      4  C   UNL A   1      34.534  32.773  32.516  1.00  0.00     0.202 C 
BRANCH   4   5
ATOM      5  C   UNL A   1      35.743  32.498  33.410  1.00  0.00     0.261 C 
BRANCH   5   6
ATOM      6  O   UNL A   1      36.863  31.961  32.675  1.00  0.00    -0.463 OA
BRANCH   6   7
ATOM      7  C   UNL A   1      37.557  31.004  33.331  1.00  0.00     0.313 C 
ATOM      8  O   UNL A   1      37.290  29.807  33.239  1.00  0.00    -0.252 OA
BRANCH   7   9
ATOM      9  C   UNL A   1      38.736  31.497  34.168  1.00  0.00     0.126 C 
ATOM     10  C   UNL A   1      38.332  31.333  35.642  1.00  0.00     0.025 C 
BRANCH   9  11
ATOM     11  C   UNL A   1      40.162  31.000  33.878  1.00  0.00    -0.032 A 
ATOM     12  C   UNL A   1      41.263  31.812  34.207  1.00  0.00     0.005 A 
ATOM     13  C   UNL A   1      40.421  29.689  33.429  1.00  0.00     0.031 A 
ATOM     14  C   UNL A   1      42.592  31.347  34.108  1.00  0.00     0.011 A 
ATOM     15  C   UNL A   1      41.753  29.240  33.341  1.00  0.00     0.047 A 
ATOM     16  C   UNL A   1      42.849  30.038  33.653  1.00  0.00     0.007 A 
ATOM     17  N   UNL A   1      42.250  28.011  32.970  1.00  0.00    -0.355 N 
ATOM     18  C   UNL A   1      44.032  29.270  33.371  1.00  0.00     0.009 A 
ATOM     19  C   UNL A   1      43.614  28.054  32.831  1.00  0.00     0.047 A 
ATOM     20  H   UNL A   1      41.699  27.208  32.825  1.00  0.00     0.167 HD
ATOM     21  C   UNL A   1      45.421  29.507  33.470  1.00  0.00     0.031 A 
ATOM     22  C   UNL A   1      44.491  27.109  32.286  1.00  0.00     0.028 A 
ATOM     23  C   UNL A   1      46.313  28.555  32.955  1.00  0.00     0.041 A 
ATOM     24  C   UNL A   1      45.857  27.390  32.343  1.00  0.00     0.022 A 
ATOM     25  Cl  UNL A   1      48.009  28.841  33.070  1.00  0.00    -0.084 Cl
ENDBRANCH   9  11
ENDBRANCH   7   9
ENDBRANCH   6   7
ENDBRANCH   5   6
ENDBRANCH   4   5
ENDBRANCH   3   4
ENDBRANCH   2   3
ENDBRANCH   1   2
BRANCH   1  26
ATOM     26  O   UNL A   1      34.271  34.636  30.152  1.00  0.00    -0.376 OA
BRANCH  26  27
ATOM     27  C   UNL A   1      33.725  34.763  28.847  1.00  0.00     0.202 C 
BRANCH  27  28
ATOM     28  C   UNL A   1      34.034  33.516  28.021  1.00  0.00     0.261 C 
BRANCH  28  29
ATOM     29  O   UNL A   1      34.630  32.460  28.797  1.00  0.00    -0.460 OA
BRANCH  29  30
ATOM     30  C   UNL A   1      34.456  31.208  28.320  1.00  0.00     0.338 C 
ATOM     31  O   UNL A   1      33.451  30.746  27.818  1.00  0.00    -0.246 OA
BRANCH  30  32
ATOM     32  C   UNL A   1      35.726  30.473  28.469  1.00  0.00     0.060 A 
ATOM     33  C   UNL A   1      36.179  30.134  29.744  1.00  0.00     0.016 A 
ATOM     34  C   UNL A   1      36.512  30.201  27.355  1.00  0.00     0.016 A 
ATOM     35  C   UNL A   1      37.455  29.598  29.925  1.00  0.00     0.010 A 
ATOM     36  C   UNL A   1      37.780  29.635  27.532  1.00  0.00     0.010 A 
ATOM     37  C   UNL A   1      38.284  29.380  28.821  1.00  0.00    -0.014 A 
BRANCH  37  38
ATOM     38  C   UNL A   1      39.718  29.026  29.003  1.00  0.00     0.031 A 
ATOM     39  C   UNL A   1      40.672  30.085  29.497  1.00  0.00     0.074 A 
ATOM     40  C   UNL A   1      40.180  27.783  28.762  1.00  0.00     0.049 A 
ATOM     41  N   UNL A   1      41.978  30.071  29.542  1.00  0.00    -0.248 NA
ATOM     42  C   UNL A   1      40.065  31.326  30.011  1.00  0.00     0.031 C 
ATOM     43  C   UNL A   1      39.365  26.630  28.379  1.00  0.00     0.029 A 
ATOM     44  N   UNL A   1      41.462  27.291  28.793  1.00  0.00    -0.354 N 
ATOM     45  C   UNL A   1      42.353  31.316  30.038  1.00  0.00     0.074 A 
ATOM     46  C   UNL A   1      41.135  32.058  30.284  1.00  0.00     0.031 C 
ATOM     47  C   UNL A   1      40.168  25.567  28.205  1.00  0.00     0.029 A 
ATOM     48  C   UNL A   1      41.557  25.979  28.389  1.00  0.00     0.049 A 
ATOM     49  H   UNL A   1      42.239  27.825  29.078  1.00  0.00     0.167 HD
ATOM     50  C   UNL A   1      43.598  31.803  30.257  1.00  0.00     0.031 A 
ATOM     51  C   UNL A   1      42.638  25.213  28.139  1.00  0.00     0.031 A 
ATOM     52  C   UNL A   1      44.808  31.063  30.019  1.00  0.00     0.049 A 
ATOM     53  C   UNL A   1      44.015  25.799  28.301  1.00  0.00     0.074 A 
ATOM     54  C   UNL A   1      46.119  31.476  30.187  1.00  0.00     0.029 A 
ATOM     55  N   UNL A   1      44.856  29.754  29.565  1.00  0.00    -0.354 N 
ATOM     56  N   UNL A   1      44.358  27.000  28.703  1.00  0.00    -0.248 NA
ATOM     57  C   UNL A   1      45.151  24.929  27.963  1.00  0.00     0.031 C 
ATOM     58  C   UNL A   1      46.960  30.429  29.794  1.00  0.00     0.029 A 
ATOM     59  C   UNL A   1      46.173  29.347  29.434  1.00  0.00     0.049 A 
ATOM     60  H   UNL A   1      44.070  29.195  29.368  1.00  0.00     0.167 HD
ATOM     61  C   UNL A   1      45.749  27.024  28.682  1.00  0.00     0.074 A 
ATOM     62  C   UNL A   1      46.184  25.714  28.242  1.00  0.00     0.031 C 
ATOM     63  C   UNL A   1      46.590  28.040  28.996  1.00  0.00     0.031 A 
BRANCH  50  64
ATOM     64  C   UNL A   1      43.710  33.230  30.721  1.00  0.00    -0.014 A 
ATOM     65  C   UNL A   1      43.782  34.297  29.808  1.00  0.00     0.010 A 
ATOM     66  C   UNL A   1      43.729  33.505  32.101  1.00  0.00     0.010 A 
ATOM     67  C   UNL A   1      43.914  35.611  30.268  1.00  0.00     0.020 A 
ATOM     68  C   UNL A   1      43.837  34.819  32.565  1.00  0.00     0.020 A 
ATOM     69  C   UNL A   1      43.949  35.862  31.644  1.00  0.00     0.054 A 
BRANCH  69  70
ATOM     70  S   UNL A   1      44.118  37.575  32.216  1.00  0.00     0.124 S 
ATOM     71  O   UNL A   1      43.723  38.327  31.028  1.00  0.00    -0.237 OA
ATOM     72  O   UNL A   1      43.184  37.634  33.336  1.00  0.00    -0.237 OA
ATOM     73  O   UNL A   1      45.530  37.681  32.579  1.00  0.00    -0.744 OA
ENDBRANCH  69  70
ENDBRANCH  50  64
BRANCH  51  74
ATOM     74  C   UNL A   1      42.459  23.821  27.640  1.00  0.00    -0.014 A 
ATOM     75  C   UNL A   1      42.376  23.557  26.262  1.00  0.00     0.010 A 
ATOM     76  C   UNL A   1      42.378  22.749  28.548  1.00  0.00     0.010 A 
ATOM     77  C   UNL A   1      42.211  22.246  25.802  1.00  0.00     0.020 A 
ATOM     78  C   UNL A   1      42.243  21.436  28.091  1.00  0.00     0.020 A 
ATOM     79  C   UNL A   1      42.150  21.193  26.719  1.00  0.00     0.054 A 
BRANCH  79  80
ATOM     80  S   UNL A   1      42.006  19.494  26.099  1.00  0.00     0.124 S 
ATOM     81  O   UNL A   1      42.503  18.717  27.231  1.00  0.00    -0.237 OA
ATOM     82  O   UNL A   1      40.575  19.376  25.830  1.00  0.00    -0.237 OA
ATOM     83  O   UNL A   1      42.858  19.491  24.912  1.00  0.00    -0.744 OA
ENDBRANCH  79  80
ENDBRANCH  51  74
BRANCH  63  84
ATOM     84  C   UNL A   1      48.069  27.768  28.914  1.00  0.00    -0.014 A 
ATOM     85  C   UNL A   1      48.805  28.086  27.760  1.00  0.00     0.010 A 
ATOM     86  C   UNL A   1      48.738  27.241  30.033  1.00  0.00     0.010 A 
ATOM     87  C   UNL A   1      50.183  27.853  27.717  1.00  0.00     0.020 A 
ATOM     88  C   UNL A   1      50.119  27.029  30.002  1.00  0.00     0.020 A 
ATOM     89  C   UNL A   1      50.831  27.325  28.837  1.00  0.00     0.054 A 
BRANCH  89  90
ATOM     90  S   UNL A   1      52.626  27.073  28.774  1.00  0.00     0.124 S 
ATOM     91  O   UNL A   1      52.821  26.626  27.399  1.00  0.00    -0.237 OA
ATOM     92  O   UNL A   1      53.149  28.402  29.083  1.00  0.00    -0.237 OA
ATOM     93  O   UNL A   1      52.870  26.063  29.801  1.00  0.00    -0.744 OA
ENDBRANCH  89  90
ENDBRANCH  63  84
ENDBRANCH  37  38
ENDBRANCH  30  32
ENDBRANCH  29  30
ENDBRANCH  28  29
ENDBRANCH  27  28
ENDBRANCH  26  27
ENDBRANCH   1  26
TORSDOF 21
ENDMDL
MODEL 2
REMARK VINA RESULT:      -8.0      5.146     11.336
REMARK SMILES C[C@H](C(=O)OCCOCCOCCOC(=O)c1ccc(-c2c3nc(c(-c4ccc(S(=O)(=O)[O-])cc4)c4ccc([nH]4)c(-c4ccc(S(=O)(=O)[O-])cc4)c4nc(c(-c5ccc(S(=O)(=O)[O-])cc5)c5ccc2[nH]5)C=C4)C=C3)cc1)c1ccc2c(c1)[nH]c1ccc(Cl)cc12
REMARK SMILES IDX 10 1 9 2 8 3 7 4 6 5 5 6 3 7 4 8 2 9 1 10 77 11 78 12 82 13
REMARK SMILES IDX 79 14 81 15 80 16 83 17 90 18 84 19 89 21 85 22 87 23 86 24
REMARK SMILES IDX 88 25 11 26 12 27 13 28 14 29 15 30 16 31 17 32 18 33 76 34
REMARK SMILES IDX 19 35 75 36 20 37 21 38 22 39 69 40 23 41 74 42 68 43 70 44
REMARK SMILES IDX 24 45 73 46 67 47 66 48 25 50 55 51 36 52 54 53 37 54 40 55
REMARK SMILES IDX 53 56 71 57 38 58 39 59 52 61 72 62 41 63 26 64 27 65 35 66
REMARK SMILES IDX 28 67 34 68 29 69 30 70 31 71 32 72 33 73 56 74 57 75 65 76
REMARK SMILES IDX 58 77 64 78 59 79 60 80 61 81 62 82 63 83 42 84 43 85 51 86
REMARK SMILES IDX 44 87 50 88 45 89 46 90 47 91 48 92 49 93
REMARK H PARENT 83 20 70 49 40 60
REMARK Flexibility Score: inf
ROOT
ATOM      1  C   UNL A   1      32.015  28.996  23.844  1.00  0.00     0.188 C 
ENDROOT
BRANCH   1   2
ATOM      2  C   UNL A   1      31.149  29.268  22.600  1.00  0.00     0.188 C 
BRANCH   2   3
ATOM      3  O   UNL A   1      30.160  28.306  22.233  1.00  0.00    -0.376 OA
BRANCH   3   4
ATOM      4  C   UNL A   1      30.272  27.004  22.791  1.00  0.00     0.202 C 
BRANCH   4   5
ATOM      5  C   UNL A   1      29.278  26.698  23.910  1.00  0.00     0.261 C 
BRANCH   5   6
ATOM      6  O   UNL A   1      29.724  25.627  24.768  1.00  0.00    -0.463 OA
BRANCH   6   7
ATOM      7  C   UNL A   1      30.739  25.959  25.598  1.00  0.00     0.313 C 
ATOM      8  O   UNL A   1      30.573  26.625  26.618  1.00  0.00    -0.252 OA
BRANCH   7   9
ATOM      9  C   UNL A   1      32.114  25.415  25.213  1.00  0.00     0.126 C 
ATOM     10  C   UNL A   1      33.139  26.138  26.100  1.00  0.00     0.025 C 
BRANCH   9  11
ATOM     11  C   UNL A   1      32.358  23.900  25.126  1.00  0.00    -0.032 A 
ATOM     12  C   UNL A   1      32.628  23.169  26.296  1.00  0.00     0.005 A 
ATOM     13  C   UNL A   1      32.173  23.180  23.927  1.00  0.00     0.031 A 
ATOM     14  C   UNL A   1      32.707  21.760  26.298  1.00  0.00     0.011 A 
ATOM     15  C   UNL A   1      32.250  21.775  23.947  1.00  0.00     0.047 A 
ATOM     16  C   UNL A   1      32.527  21.043  25.097  1.00  0.00     0.007 A 
ATOM     17  N   UNL A   1      32.073  20.864  22.931  1.00  0.00    -0.355 N 
ATOM     18  C   UNL A   1      32.599  19.657  24.717  1.00  0.00     0.009 A 
ATOM     19  C   UNL A   1      32.430  19.602  23.334  1.00  0.00     0.047 A 
ATOM     20  H   UNL A   1      31.735  21.089  22.033  1.00  0.00     0.167 HD
ATOM     21  C   UNL A   1      32.844  18.447  25.401  1.00  0.00     0.031 A 
ATOM     22  C   UNL A   1      32.599  18.433  22.581  1.00  0.00     0.028 A 
ATOM     23  C   UNL A   1      32.985  17.263  24.664  1.00  0.00     0.041 A 
ATOM     24  C   UNL A   1      32.897  17.259  23.274  1.00  0.00     0.022 A 
ATOM     25  Cl  UNL A   1      33.288  15.783  25.495  1.00  0.00    -0.084 Cl
ENDBRANCH   9  11
ENDBRANCH   7   9
ENDBRANCH   6   7
ENDBRANCH   5   6
ENDBRANCH   4   5
ENDBRANCH   3   4
ENDBRANCH   2   3
ENDBRANCH   1   2
BRANCH   1  26
ATOM     26  O   UNL A   1      31.338  29.322  25.055  1.00  0.00    -0.376 OA
BRANCH  26  27
ATOM     27  C   UNL A   1      31.922  30.408  25.760  1.00  0.00     0.202 C 
BRANCH  27  28
ATOM     28  C   UNL A   1      32.334  29.966  27.163  1.00  0.00     0.261 C 
BRANCH  28  29
ATOM     29  O   UNL A   1      33.746  29.711  27.281  1.00  0.00    -0.460 OA
BRANCH  29  30
ATOM     30  C   UNL A   1      34.449  30.608  28.005  1.00  0.00     0.338 C 
ATOM     31  O   UNL A   1      34.057  31.676  28.433  1.00  0.00    -0.246 OA
BRANCH  30  32
ATOM     32  C   UNL A   1      35.798  30.060  28.242  1.00  0.00     0.060 A 
ATOM     33  C   UNL A   1      36.138  29.594  29.513  1.00  0.00     0.016 A 
ATOM     34  C   UNL A   1      36.754  30.094  27.233  1.00  0.00     0.016 A 
ATOM     35  C   UNL A   1      37.455  29.238  29.809  1.00  0.00     0.010 A 
ATOM     36  C   UNL A   1      38.068  29.707  27.520  1.00  0.00     0.010 A 
ATOM     37  C   UNL A   1      38.442  29.328  28.824  1.00  0.00    -0.014 A 
BRANCH  37  38
ATOM     38  C   UNL A   1      39.881  29.173  29.170  1.00  0.00     0.031 A 
ATOM     39  C   UNL A   1      40.575  27.877  28.833  1.00  0.00     0.074 A 
ATOM     40  C   UNL A   1      40.582  30.165  29.753  1.00  0.00     0.049 A 
ATOM     41  N   UNL A   1      41.748  27.440  29.210  1.00  0.00    -0.248 NA
ATOM     42  C   UNL A   1      39.843  26.952  27.950  1.00  0.00     0.031 C 
ATOM     43  C   UNL A   1      40.080  31.507  30.047  1.00  0.00     0.029 A 
ATOM     44  N   UNL A   1      41.876  30.184  30.217  1.00  0.00    -0.354 N 
ATOM     45  C   UNL A   1      41.875  26.170  28.656  1.00  0.00     0.074 A 
ATOM     46  C   UNL A   1      40.661  25.910  27.912  1.00  0.00     0.031 C 
ATOM     47  C   UNL A   1      41.051  32.216  30.645  1.00  0.00     0.029 A 
ATOM     48  C   UNL A   1      42.217  31.358  30.847  1.00  0.00     0.049 A 
ATOM     49  H   UNL A   1      42.500  29.429  30.108  1.00  0.00     0.167 HD
ATOM     50  C   UNL A   1      42.902  25.294  28.765  1.00  0.00     0.031 A 
ATOM     51  C   UNL A   1      43.315  31.689  31.553  1.00  0.00     0.031 A 
ATOM     52  C   UNL A   1      44.112  25.557  29.498  1.00  0.00     0.049 A 
ATOM     53  C   UNL A   1      44.410  30.672  31.742  1.00  0.00     0.074 A 
ATOM     54  C   UNL A   1      45.202  24.725  29.689  1.00  0.00     0.029 A 
ATOM     55  N   UNL A   1      44.393  26.742  30.159  1.00  0.00    -0.354 N 
ATOM     56  N   UNL A   1      44.488  29.449  31.272  1.00  0.00    -0.248 NA
ATOM     57  C   UNL A   1      45.558  31.076  32.566  1.00  0.00     0.031 C 
ATOM     58  C   UNL A   1      46.125  25.394  30.501  1.00  0.00     0.029 A 
ATOM     59  C   UNL A   1      45.632  26.661  30.769  1.00  0.00     0.049 A 
ATOM     60  H   UNL A   1      43.800  27.528  30.187  1.00  0.00     0.167 HD
ATOM     61  C   UNL A   1      45.701  28.945  31.730  1.00  0.00     0.074 A 
ATOM     62  C   UNL A   1      46.329  29.999  32.502  1.00  0.00     0.031 C 
ATOM     63  C   UNL A   1      46.244  27.718  31.533  1.00  0.00     0.031 A 
BRANCH  50  64
ATOM     64  C   UNL A   1      42.731  23.944  28.125  1.00  0.00    -0.014 A 
ATOM     65  C   UNL A   1      43.123  23.705  26.796  1.00  0.00     0.010 A 
ATOM     66  C   UNL A   1      42.178  22.891  28.877  1.00  0.00     0.010 A 
ATOM     67  C   UNL A   1      42.925  22.447  26.218  1.00  0.00     0.020 A 
ATOM     68  C   UNL A   1      42.000  21.626  28.310  1.00  0.00     0.020 A 
ATOM     69  C   UNL A   1      42.357  21.419  26.977  1.00  0.00     0.054 A 
BRANCH  69  70
ATOM     70  S   UNL A   1      42.113  19.795  26.205  1.00  0.00     0.124 S 
ATOM     71  O   UNL A   1      43.002  19.878  25.049  1.00  0.00    -0.237 OA
ATOM     72  O   UNL A   1      42.533  18.873  27.255  1.00  0.00    -0.237 OA
ATOM     73  O   UNL A   1      40.685  19.771  25.893  1.00  0.00    -0.744 OA
ENDBRANCH  69  70
ENDBRANCH  50  64
BRANCH  51  74
ATOM     74  C   UNL A   1      43.405  33.029  32.199  1.00  0.00    -0.014 A 
ATOM     75  C   UNL A   1      42.801  33.268  33.445  1.00  0.00     0.010 A 
ATOM     76  C   UNL A   1      44.106  34.073  31.567  1.00  0.00     0.010 A 
ATOM     77  C   UNL A   1      42.893  34.529  34.045  1.00  0.00     0.020 A 
ATOM     78  C   UNL A   1      44.225  35.324  32.176  1.00  0.00     0.020 A 
ATOM     79  C   UNL A   1      43.608  35.547  33.409  1.00  0.00     0.054 A 
BRANCH  79  80
ATOM     80  S   UNL A   1      43.775  37.154  34.236  1.00  0.00     0.124 S 
ATOM     81  O   UNL A   1      44.723  37.844  33.367  1.00  0.00    -0.237 OA
ATOM     82  O   UNL A   1      42.406  37.664  34.213  1.00  0.00    -0.237 OA
ATOM     83  O   UNL A   1      44.279  36.803  35.562  1.00  0.00    -0.744 OA
ENDBRANCH  79  80
ENDBRANCH  51  74
BRANCH  63  84
ATOM     84  C   UNL A   1      47.603  27.457  32.127  1.00  0.00    -0.014 A 
ATOM     85  C   UNL A   1      47.744  26.836  33.379  1.00  0.00     0.010 A 
ATOM     86  C   UNL A   1      48.755  27.787  31.390  1.00  0.00     0.010 A 
ATOM     87  C   UNL A   1      49.015  26.575  33.898  1.00  0.00     0.020 A 
ATOM     88  C   UNL A   1      50.027  27.506  31.894  1.00  0.00     0.020 A 
ATOM     89  C   UNL A   1      50.149  26.913  33.153  1.00  0.00     0.054 A 
BRANCH  89  90
ATOM     90  S   UNL A   1      51.789  26.524  33.826  1.00  0.00     0.124 S 
ATOM     91  O   UNL A   1      52.330  27.854  34.091  1.00  0.00    -0.237 OA
ATOM     92  O   UNL A   1      51.471  25.727  35.008  1.00  0.00    -0.237 OA
ATOM     93  O   UNL A   1      52.441  25.789  32.745  1.00  0.00    -0.744 OA
ENDBRANCH  89  90
ENDBRANCH  63  84
ENDBRANCH  37  38
ENDBRANCH  30  32
ENDBRANCH  29  30
ENDBRANCH  28  29
ENDBRANCH  27  28
ENDBRANCH  26  27
ENDBRANCH   1  26
TORSDOF 21
ENDMDL
MODEL 3
REMARK VINA RESULT:      -7.9      5.623     11.533
REMARK SMILES C[C@H](C(=O)OCCOCCOCCOC(=O)c1ccc(-c2c3nc(c(-c4ccc(S(=O)(=O)[O-])cc4)c4ccc([nH]4)c(-c4ccc(S(=O)(=O)[O-])cc4)c4nc(c(-c5ccc(S(=O)(=O)[O-])cc5)c5ccc2[nH]5)C=C4)C=C3)cc1)c1ccc2c(c1)[nH]c1ccc(Cl)cc12
REMARK SMILES IDX 10 1 9 2 8 3 7 4 6 5 5 6 3 7 4 8 2 9 1 10 77 11 78 12 82 13
REMARK SMILES IDX 79 14 81 15 80 16 83 17 90 18 84 19 89 21 85 22 87 23 86 24
REMARK SMILES IDX 88 25 11 26 12 27 13 28 14 29 15 30 16 31 17 32 18 33 76 34
REMARK SMILES IDX 19 35 75 36 20 37 21 38 22 39 69 40 23 41 74 42 68 43 70 44
REMARK SMILES IDX 24 45 73 46 67 47 66 48 25 50 55 51 36 52 54 53 37 54 40 55
REMARK SMILES IDX 53 56 71 57 38 58 39 59 52 61 72 62 41 63 26 64 27 65 35 66
REMARK SMILES IDX 28 67 34 68 29 69 30 70 31 71 32 72 33 73 56 74 57 75 65 76
REMARK SMILES IDX 58 77 64 78 59 79 60 80 61 81 62 82 63 83 42 84 43 85 51 86
REMARK SMILES IDX 44 87 50 88 45 89 46 90 47 91 48 92 49 93
REMARK H PARENT 83 20 70 49 40 60
REMARK Flexibility Score: inf
ROOT
ATOM      1  C   UNL A   1      32.051  28.959  23.951  1.00  0.00     0.188 C 
ENDROOT
BRANCH   1   2
ATOM      2  C   UNL A   1      31.357  29.085  22.582  1.00  0.00     0.188 C 
BRANCH   2   3
ATOM      3  O   UNL A   1      30.450  28.058  22.180  1.00  0.00    -0.376 OA
BRANCH   3   4
ATOM      4  C   UNL A   1      30.563  26.795  22.819  1.00  0.00     0.202 C 
BRANCH   4   5
ATOM      5  C   UNL A   1      29.586  26.570  23.972  1.00  0.00     0.261 C 
BRANCH   5   6
ATOM      6  O   UNL A   1      29.924  25.412  24.764  1.00  0.00    -0.463 OA
BRANCH   6   7
ATOM      7  C   UNL A   1      30.982  25.585  25.588  1.00  0.00     0.313 C 
ATOM      8  O   UNL A   1      30.901  26.184  26.658  1.00  0.00    -0.252 OA
BRANCH   7   9
ATOM      9  C   UNL A   1      32.292  24.946  25.127  1.00  0.00     0.126 C 
ATOM     10  C   UNL A   1      33.428  25.727  25.804  1.00  0.00     0.025 C 
BRANCH   9  11
ATOM     11  C   UNL A   1      32.485  23.422  25.198  1.00  0.00    -0.032 A 
ATOM     12  C   UNL A   1      31.388  22.594  25.492  1.00  0.00     0.005 A 
ATOM     13  C   UNL A   1      33.698  22.804  24.830  1.00  0.00     0.031 A 
ATOM     14  C   UNL A   1      31.471  21.187  25.419  1.00  0.00     0.011 A 
ATOM     15  C   UNL A   1      33.762  21.399  24.757  1.00  0.00     0.047 A 
ATOM     16  C   UNL A   1      32.686  20.570  25.056  1.00  0.00     0.007 A 
ATOM     17  N   UNL A   1      34.805  20.578  24.392  1.00  0.00    -0.355 N 
ATOM     18  C   UNL A   1      33.147  19.212  24.944  1.00  0.00     0.009 A 
ATOM     19  C   UNL A   1      34.508  19.263  24.646  1.00  0.00     0.047 A 
ATOM     20  H   UNL A   1      35.652  20.894  24.000  1.00  0.00     0.167 HD
ATOM     21  C   UNL A   1      32.556  17.942  25.118  1.00  0.00     0.031 A 
ATOM     22  C   UNL A   1      35.336  18.135  24.620  1.00  0.00     0.028 A 
ATOM     23  C   UNL A   1      33.367  16.799  25.065  1.00  0.00     0.041 A 
ATOM     24  C   UNL A   1      34.740  16.894  24.852  1.00  0.00     0.022 A 
ATOM     25  Cl  UNL A   1      32.651  15.246  25.280  1.00  0.00    -0.084 Cl
ENDBRANCH   9  11
ENDBRANCH   7   9
ENDBRANCH   6   7
ENDBRANCH   5   6
ENDBRANCH   4   5
ENDBRANCH   3   4
ENDBRANCH   2   3
ENDBRANCH   1   2
BRANCH   1  26
ATOM     26  O   UNL A   1      31.185  29.306  25.029  1.00  0.00    -0.376 OA
BRANCH  26  27
ATOM     27  C   UNL A   1      31.527  30.529  25.664  1.00  0.00     0.202 C 
BRANCH  27  28
ATOM     28  C   UNL A   1      32.262  30.257  26.974  1.00  0.00     0.261 C 
BRANCH  28  29
ATOM     29  O   UNL A   1      33.687  30.439  26.869  1.00  0.00    -0.460 OA
BRANCH  29  30
ATOM     30  C   UNL A   1      34.215  31.411  27.644  1.00  0.00     0.338 C 
ATOM     31  O   UNL A   1      33.687  32.453  27.978  1.00  0.00    -0.246 OA
BRANCH  30  32
ATOM     32  C   UNL A   1      35.561  30.985  28.072  1.00  0.00     0.060 A 
ATOM     33  C   UNL A   1      35.747  29.698  28.579  1.00  0.00     0.016 A 
ATOM     34  C   UNL A   1      36.618  31.888  28.059  1.00  0.00     0.016 A 
ATOM     35  C   UNL A   1      36.965  29.330  29.153  1.00  0.00     0.010 A 
ATOM     36  C   UNL A   1      37.850  31.510  28.606  1.00  0.00     0.010 A 
ATOM     37  C   UNL A   1      38.018  30.248  29.207  1.00  0.00    -0.014 A 
BRANCH  37  38
ATOM     38  C   UNL A   1      39.238  29.960  30.009  1.00  0.00     0.031 A 
ATOM     39  C   UNL A   1      40.155  28.848  29.564  1.00  0.00     0.074 A 
ATOM     40  C   UNL A   1      39.557  30.681  31.102  1.00  0.00     0.049 A 
ATOM     41  N   UNL A   1      41.153  28.290  30.198  1.00  0.00    -0.248 NA
ATOM     42  C   UNL A   1      39.910  28.294  28.221  1.00  0.00     0.031 C 
ATOM     43  C   UNL A   1      38.827  31.848  31.596  1.00  0.00     0.029 A 
ATOM     44  N   UNL A   1      40.580  30.519  32.004  1.00  0.00    -0.354 N 
ATOM     45  C   UNL A   1      41.621  27.286  29.358  1.00  0.00     0.074 A 
ATOM     46  C   UNL A   1      40.802  27.316  28.164  1.00  0.00     0.031 C 
ATOM     47  C   UNL A   1      39.423  32.294  32.715  1.00  0.00     0.029 A 
ATOM     48  C   UNL A   1      40.527  31.401  33.059  1.00  0.00     0.049 A 
ATOM     49  H   UNL A   1      41.285  29.838  31.905  1.00  0.00     0.167 HD
ATOM     50  C   UNL A   1      42.634  26.410  29.563  1.00  0.00     0.031 A 
ATOM     51  C   UNL A   1      41.245  31.451  34.198  1.00  0.00     0.031 A 
ATOM     52  C   UNL A   1      43.453  26.385  30.745  1.00  0.00     0.049 A 
ATOM     53  C   UNL A   1      42.307  30.414  34.452  1.00  0.00     0.074 A 
ATOM     54  C   UNL A   1      44.488  25.522  31.060  1.00  0.00     0.029 A 
ATOM     55  N   UNL A   1      43.332  27.268  31.808  1.00  0.00    -0.354 N 
ATOM     56  N   UNL A   1      42.695  29.426  33.681  1.00  0.00    -0.248 NA
ATOM     57  C   UNL A   1      43.019  30.493  35.736  1.00  0.00     0.031 C 
ATOM     58  C   UNL A   1      44.965  25.857  32.332  1.00  0.00     0.029 A 
ATOM     59  C   UNL A   1      44.263  26.962  32.784  1.00  0.00     0.049 A 
ATOM     60  H   UNL A   1      42.681  28.005  31.858  1.00  0.00     0.167 HD
ATOM     61  C   UNL A   1      43.707  28.776  34.380  1.00  0.00     0.074 A 
ATOM     62  C   UNL A   1      43.881  29.491  35.628  1.00  0.00     0.031 C 
ATOM     63  C   UNL A   1      44.426  27.683  34.021  1.00  0.00     0.031 A 
BRANCH  50  64
ATOM     64  C   UNL A   1      42.868  25.363  28.508  1.00  0.00    -0.014 A 
ATOM     65  C   UNL A   1      42.182  24.136  28.524  1.00  0.00     0.010 A 
ATOM     66  C   UNL A   1      43.784  25.624  27.471  1.00  0.00     0.010 A 
ATOM     67  C   UNL A   1      42.440  23.171  27.546  1.00  0.00     0.020 A 
ATOM     68  C   UNL A   1      44.027  24.671  26.479  1.00  0.00     0.020 A 
ATOM     69  C   UNL A   1      43.367  23.442  26.534  1.00  0.00     0.054 A 
BRANCH  69  70
ATOM     70  S   UNL A   1      43.683  22.174  25.275  1.00  0.00     0.124 S 
ATOM     71  O   UNL A   1      43.675  22.965  24.048  1.00  0.00    -0.237 OA
ATOM     72  O   UNL A   1      44.984  21.644  25.672  1.00  0.00    -0.237 OA
ATOM     73  O   UNL A   1      42.563  21.248  25.428  1.00  0.00    -0.744 OA
ENDBRANCH  69  70
ENDBRANCH  50  64
BRANCH  51  74
ATOM     74  C   UNL A   1      40.935  32.487  35.224  1.00  0.00    -0.014 A 
ATOM     75  C   UNL A   1      39.967  32.249  36.215  1.00  0.00     0.010 A 
ATOM     76  C   UNL A   1      41.617  33.718  35.215  1.00  0.00     0.010 A 
ATOM     77  C   UNL A   1      39.684  33.226  37.176  1.00  0.00     0.020 A 
ATOM     78  C   UNL A   1      41.358  34.684  36.190  1.00  0.00     0.020 A 
ATOM     79  C   UNL A   1      40.385  34.436  37.159  1.00  0.00     0.054 A 
BRANCH  79  80
ATOM     80  S   UNL A   1      40.053  35.662  38.456  1.00  0.00     0.124 S 
ATOM     81  O   UNL A   1      39.836  36.875  37.675  1.00  0.00    -0.237 OA
ATOM     82  O   UNL A   1      38.870  35.113  39.114  1.00  0.00    -0.237 OA
ATOM     83  O   UNL A   1      41.271  35.642  39.263  1.00  0.00    -0.744 OA
ENDBRANCH  79  80
ENDBRANCH  51  74
BRANCH  63  84
ATOM     84  C   UNL A   1      45.495  27.213  34.971  1.00  0.00    -0.014 A 
ATOM     85  C   UNL A   1      45.206  26.298  35.997  1.00  0.00     0.010 A 
ATOM     86  C   UNL A   1      46.819  27.651  34.793  1.00  0.00     0.010 A 
ATOM     87  C   UNL A   1      46.221  25.851  36.849  1.00  0.00     0.020 A 
ATOM     88  C   UNL A   1      47.840  27.188  35.627  1.00  0.00     0.020 A 
ATOM     89  C   UNL A   1      47.531  26.299  36.659  1.00  0.00     0.054 A 
BRANCH  89  90
ATOM     90  S   UNL A   1      48.839  25.672  37.748  1.00  0.00     0.124 S 
ATOM     91  O   UNL A   1      48.079  25.240  38.917  1.00  0.00    -0.237 OA
ATOM     92  O   UNL A   1      49.433  24.599  36.953  1.00  0.00    -0.237 OA
ATOM     93  O   UNL A   1      49.702  26.832  37.957  1.00  0.00    -0.744 OA
ENDBRANCH  89  90
ENDBRANCH  63  84
ENDBRANCH  37  38
ENDBRANCH  30  32
ENDBRANCH  29  30
ENDBRANCH  28  29
ENDBRANCH  27  28
ENDBRANCH  26  27
ENDBRANCH   1  26
TORSDOF 21
ENDMDL
