MODEL 1
REMARK VINA RESULT:     -10.8      0.000      0.000
REMARK SMILES CC(=O)Nc1cnc(N2CC=C(c3ccccc3C)CC2)c(C(=O)OCCOCCOCCOC(=O)c2ccc(-c3c4nc(c(-c5ccc(S(=O)(=O)[O-])cc5)c5ccc([nH]5)c(-c5ccc(S(=O)(=O)[O-])cc5)c5nc(c(-c6ccc(S(=O)(=O)[O-])cc6)c6ccc3[nH]6)C=C5)C=C4)cc2)c1
REMARK SMILES IDX 30 1 29 2 28 3 27 4 26 5 25 6 23 7 24 8 22 9 5 10 6 11 97 12
REMARK SMILES IDX 7 13 8 14 4 15 1 16 2 17 3 18 9 20 10 21 21 22 11 23 20 24
REMARK SMILES IDX 12 25 13 26 14 27 18 28 15 29 17 30 19 31 16 32 31 33 32 34
REMARK SMILES IDX 33 35 34 36 35 37 36 38 37 39 38 40 96 41 39 42 95 43 40 44
REMARK SMILES IDX 41 45 42 46 89 47 43 48 94 49 88 50 90 51 44 52 93 53 87 54
REMARK SMILES IDX 86 55 45 57 75 58 56 59 74 60 57 61 60 62 73 63 91 64 58 65
REMARK SMILES IDX 59 66 72 68 92 69 61 70 46 71 47 72 55 73 48 74 54 75 49 76
REMARK SMILES IDX 50 77 51 78 52 79 53 80 76 81 77 82 85 83 78 84 84 85 79 86
REMARK SMILES IDX 80 87 81 88 82 89 83 90 62 91 63 92 71 93 64 94 70 95 65 96
REMARK SMILES IDX 66 97 67 98 68 99 69 100
REMARK H PARENT 4 19 90 56 60 67
REMARK Flexibility Score: inf
ROOT
ATOM      1  C   UNL A   1      41.576  26.585  28.057  1.00  0.00     0.188 C 
ENDROOT
BRANCH   1   2
ATOM      2  C   UNL A   1      41.154  25.110  28.092  1.00  0.00     0.188 C 
BRANCH   2   3
ATOM      3  O   UNL A   1      40.521  24.464  26.962  1.00  0.00    -0.376 OA
BRANCH   3   4
ATOM      4  C   UNL A   1      39.314  23.681  26.991  1.00  0.00     0.202 C 
BRANCH   4   5
ATOM      5  C   UNL A   1      37.909  23.763  25.998  1.00  0.00     0.261 C 
BRANCH   5   6
ATOM      6  O   UNL A   1      36.647  22.537  25.547  1.00  0.00    -0.460 OA
BRANCH   6   7
ATOM      7  C   UNL A   1      35.377  21.913  26.024  1.00  0.00     0.342 C 
ATOM      8  O   UNL A   1      35.012  21.703  27.184  1.00  0.00    -0.246 OA
BRANCH   7   9
ATOM      9  C   UNL A   1      34.428  21.218  25.147  1.00  0.00     0.104 A 
ATOM     10  C   UNL A   1      33.534  18.998  24.949  1.00  0.00     0.060 A 
ATOM     11  C   UNL A   1      32.386  19.561  24.418  1.00  0.00     0.139 A 
ATOM     12  C   UNL A   1      34.590  19.836  25.256  1.00  0.00     0.047 A 
ATOM     13  N   UNL A   1      32.179  20.889  24.304  1.00  0.00    -0.236 NA
ATOM     14  C   UNL A   1      33.145  21.746  24.734  1.00  0.00     0.143 A 
BRANCH  10  15
ATOM     15  N   UNL A   1      33.605  17.620  25.172  1.00  0.00    -0.325 N 
ATOM     16  C   UNL A   1      34.082  16.962  22.823  1.00  0.00     0.114 C 
ATOM     17  C   UNL A   1      33.655  16.621  24.234  1.00  0.00     0.221 C 
ATOM     18  O   UNL A   1      33.449  15.459  24.584  1.00  0.00    -0.275 OA
ATOM     19  H   UNL A   1      33.622  17.334  26.113  1.00  0.00     0.169 HD
ENDBRANCH  10  15
BRANCH  14  20
ATOM     20  N   UNL A   1      32.762  23.103  24.643  1.00  0.00    -0.352 N 
ATOM     21  C   UNL A   1      33.777  24.044  24.117  1.00  0.00     0.146 C 
ATOM     22  C   UNL A   1      31.986  23.533  25.810  1.00  0.00     0.123 C 
ATOM     23  C   UNL A   1      33.498  25.518  24.423  1.00  0.00    -0.002 C 
ATOM     24  C   UNL A   1      32.329  24.899  26.429  1.00  0.00     0.057 C 
ATOM     25  C   UNL A   1      32.817  25.975  25.498  1.00  0.00    -0.041 C 
BRANCH  25  26
ATOM     26  C   UNL A   1      32.444  27.431  25.769  1.00  0.00    -0.020 A 
ATOM     27  C   UNL A   1      33.190  28.168  26.721  1.00  0.00     0.008 A 
ATOM     28  C   UNL A   1      31.481  28.183  25.039  1.00  0.00    -0.044 A 
ATOM     29  C   UNL A   1      33.099  29.566  26.854  1.00  0.00     0.001 A 
ATOM     30  C   UNL A   1      31.404  29.594  25.182  1.00  0.00     0.004 A 
ATOM     31  C   UNL A   1      30.523  27.599  24.039  1.00  0.00     0.045 C 
ATOM     32  C   UNL A   1      32.219  30.284  26.066  1.00  0.00     0.000 A 
ENDBRANCH  25  26
ENDBRANCH  14  20
ENDBRANCH   7   9
ENDBRANCH   6   7
ENDBRANCH   5   6
ENDBRANCH   4   5
ENDBRANCH   3   4
ENDBRANCH   2   3
ENDBRANCH   1   2
BRANCH   1  33
ATOM     33  O   UNL A   1      41.293  27.206  29.294  1.00  0.00    -0.376 OA
BRANCH  33  34
ATOM     34  C   UNL A   1      40.543  28.398  29.267  1.00  0.00     0.202 C 
BRANCH  34  35
ATOM     35  C   UNL A   1      39.181  28.228  28.587  1.00  0.00     0.261 C 
BRANCH  35  36
ATOM     36  O   UNL A   1      38.066  28.171  29.510  1.00  0.00    -0.460 OA
BRANCH  36  37
ATOM     37  C   UNL A   1      37.218  29.258  29.557  1.00  0.00     0.338 C 
ATOM     38  O   UNL A   1      36.089  29.230  29.090  1.00  0.00    -0.246 OA
BRANCH  37  39
ATOM     39  C   UNL A   1      37.714  30.286  30.510  1.00  0.00     0.060 A 
ATOM     40  C   UNL A   1      38.053  31.623  30.292  1.00  0.00     0.016 A 
ATOM     41  C   UNL A   1      37.978  29.816  31.740  1.00  0.00     0.016 A 
ATOM     42  C   UNL A   1      38.797  32.442  31.271  1.00  0.00     0.010 A 
ATOM     43  C   UNL A   1      38.888  30.549  32.490  1.00  0.00     0.010 A 
ATOM     44  C   UNL A   1      39.369  31.928  32.434  1.00  0.00    -0.014 A 
BRANCH  44  45
ATOM     45  C   UNL A   1      40.503  32.774  33.537  1.00  0.00     0.031 A 
ATOM     46  C   UNL A   1      40.260  33.986  34.884  1.00  0.00     0.074 A 
ATOM     47  C   UNL A   1      41.844  32.614  33.373  1.00  0.00     0.049 A 
ATOM     48  N   UNL A   1      41.186  34.790  35.394  1.00  0.00    -0.248 NA
ATOM     49  C   UNL A   1      38.986  34.399  35.641  1.00  0.00     0.031 C 
ATOM     50  C   UNL A   1      42.867  32.931  34.374  1.00  0.00     0.029 A 
ATOM     51  N   UNL A   1      42.615  32.232  32.280  1.00  0.00    -0.354 N 
ATOM     52  C   UNL A   1      40.680  35.471  36.527  1.00  0.00     0.074 A 
ATOM     53  C   UNL A   1      39.292  35.327  36.513  1.00  0.00     0.031 C 
ATOM     54  C   UNL A   1      44.052  33.062  33.768  1.00  0.00     0.029 A 
ATOM     55  C   UNL A   1      43.821  32.946  32.348  1.00  0.00     0.049 A 
ATOM     56  H   UNL A   1      42.361  31.582  31.585  1.00  0.00     0.167 HD
ATOM     57  C   UNL A   1      41.430  36.008  37.529  1.00  0.00     0.031 A 
ATOM     58  C   UNL A   1      44.317  33.771  31.381  1.00  0.00     0.031 A 
ATOM     59  C   UNL A   1      42.802  36.087  37.113  1.00  0.00     0.049 A 
ATOM     60  C   UNL A   1      44.693  35.160  31.883  1.00  0.00     0.074 A 
ATOM     61  C   UNL A   1      43.976  35.426  37.403  1.00  0.00     0.029 A 
ATOM     62  N   UNL A   1      43.036  36.807  35.965  1.00  0.00    -0.354 N 
ATOM     63  N   UNL A   1      44.775  35.499  33.141  1.00  0.00    -0.248 NA
ATOM     64  C   UNL A   1      44.908  36.315  31.001  1.00  0.00     0.031 C 
ATOM     65  C   UNL A   1      44.938  35.810  36.419  1.00  0.00     0.029 A 
ATOM     66  C   UNL A   1      44.345  36.728  35.573  1.00  0.00     0.049 A 
ATOM     67  H   UNL A   1      42.345  37.316  35.483  1.00  0.00     0.167 HD
ATOM     68  C   UNL A   1      44.867  36.864  33.243  1.00  0.00     0.074 A 
ATOM     69  C   UNL A   1      45.020  37.328  31.881  1.00  0.00     0.031 C 
ATOM     70  C   UNL A   1      44.710  37.528  34.423  1.00  0.00     0.031 A 
BRANCH  57  71
ATOM     71  C   UNL A   1      40.919  36.280  38.960  1.00  0.00    -0.014 A 
ATOM     72  C   UNL A   1      40.497  37.580  39.297  1.00  0.00     0.010 A 
ATOM     73  C   UNL A   1      40.922  35.372  40.048  1.00  0.00     0.010 A 
ATOM     74  C   UNL A   1      40.249  37.978  40.630  1.00  0.00     0.020 A 
ATOM     75  C   UNL A   1      40.729  35.757  41.388  1.00  0.00     0.020 A 
ATOM     76  C   UNL A   1      40.414  37.073  41.676  1.00  0.00     0.054 A 
BRANCH  76  77
ATOM     77  S   UNL A   1      40.257  37.622  43.396  1.00  0.00     0.124 S 
ATOM     78  O   UNL A   1      39.159  36.798  43.896  1.00  0.00    -0.237 OA
ATOM     79  O   UNL A   1      41.576  37.322  43.945  1.00  0.00    -0.237 OA
ATOM     80  O   UNL A   1      39.945  39.047  43.279  1.00  0.00    -0.744 OA
ENDBRANCH  76  77
ENDBRANCH  57  71
BRANCH  58  81
ATOM     81  C   UNL A   1      43.845  33.420  30.011  1.00  0.00    -0.014 A 
ATOM     82  C   UNL A   1      43.139  34.410  29.289  1.00  0.00     0.010 A 
ATOM     83  C   UNL A   1      44.524  32.425  29.297  1.00  0.00     0.010 A 
ATOM     84  C   UNL A   1      43.266  34.514  27.897  1.00  0.00     0.020 A 
ATOM     85  C   UNL A   1      44.671  32.556  27.909  1.00  0.00     0.020 A 
ATOM     86  C   UNL A   1      44.097  33.626  27.224  1.00  0.00     0.054 A 
BRANCH  86  87
ATOM     87  S   UNL A   1      44.599  34.009  25.519  1.00  0.00     0.124 S 
ATOM     88  O   UNL A   1      44.991  32.708  24.990  1.00  0.00    -0.237 OA
ATOM     89  O   UNL A   1      43.359  34.561  24.970  1.00  0.00    -0.237 OA
ATOM     90  O   UNL A   1      45.677  34.980  25.672  1.00  0.00    -0.744 OA
ENDBRANCH  86  87
ENDBRANCH  58  81
BRANCH  70  91
ATOM     91  C   UNL A   1      44.779  39.026  34.611  1.00  0.00    -0.014 A 
ATOM     92  C   UNL A   1      43.708  39.856  34.255  1.00  0.00     0.010 A 
ATOM     93  C   UNL A   1      46.007  39.659  34.938  1.00  0.00     0.010 A 
ATOM     94  C   UNL A   1      43.868  41.252  34.204  1.00  0.00     0.020 A 
ATOM     95  C   UNL A   1      46.181  41.043  34.871  1.00  0.00     0.020 A 
ATOM     96  C   UNL A   1      45.106  41.834  34.499  1.00  0.00     0.054 A 
BRANCH  96  97
ATOM     97  S   UNL A   1      45.325  43.623  34.309  1.00  0.00     0.124 S 
ATOM     98  O   UNL A   1      45.562  44.063  35.682  1.00  0.00    -0.237 OA
ATOM     99  O   UNL A   1      46.481  43.691  33.420  1.00  0.00    -0.237 OA
ATOM    100  O   UNL A   1      44.064  44.072  33.726  1.00  0.00    -0.744 OA
ENDBRANCH  96  97
ENDBRANCH  70  91
ENDBRANCH  44  45
ENDBRANCH  37  39
ENDBRANCH  36  37
ENDBRANCH  35  36
ENDBRANCH  34  35
ENDBRANCH  33  34
ENDBRANCH   1  33
TORSDOF 23
ENDMDL
MODEL 2
REMARK VINA RESULT:     -10.8      5.306      8.576
REMARK SMILES CC(=O)Nc1cnc(N2CC=C(c3ccccc3C)CC2)c(C(=O)OCCOCCOCCOC(=O)c2ccc(-c3c4nc(c(-c5ccc(S(=O)(=O)[O-])cc5)c5ccc([nH]5)c(-c5ccc(S(=O)(=O)[O-])cc5)c5nc(c(-c6ccc(S(=O)(=O)[O-])cc6)c6ccc3[nH]6)C=C5)C=C4)cc2)c1
REMARK SMILES IDX 30 1 29 2 28 3 27 4 26 5 25 6 23 7 24 8 22 9 5 10 6 11 97 12
REMARK SMILES IDX 7 13 8 14 4 15 1 16 2 17 3 18 9 20 10 21 21 22 11 23 20 24
REMARK SMILES IDX 12 25 13 26 14 27 18 28 15 29 17 30 19 31 16 32 31 33 32 34
REMARK SMILES IDX 33 35 34 36 35 37 36 38 37 39 38 40 96 41 39 42 95 43 40 44
REMARK SMILES IDX 41 45 42 46 89 47 43 48 94 49 88 50 90 51 44 52 93 53 87 54
REMARK SMILES IDX 86 55 45 57 75 58 56 59 74 60 57 61 60 62 73 63 91 64 58 65
REMARK SMILES IDX 59 66 72 68 92 69 61 70 46 71 47 72 55 73 48 74 54 75 49 76
REMARK SMILES IDX 50 77 51 78 52 79 53 80 76 81 77 82 85 83 78 84 84 85 79 86
REMARK SMILES IDX 80 87 81 88 82 89 83 90 62 91 63 92 71 93 64 94 70 95 65 96
REMARK SMILES IDX 66 97 67 98 68 99 69 100
REMARK H PARENT 4 19 90 56 60 67
REMARK Flexibility Score: inf
ROOT
ATOM      1  C   UNL A   1      40.761  21.001  27.792  1.00  0.00     0.188 C 
ENDROOT
BRANCH   1   2
ATOM      2  C   UNL A   1      40.246  22.115  26.871  1.00  0.00     0.188 C 
BRANCH   2   3
ATOM      3  O   UNL A   1      39.353  21.847  25.764  1.00  0.00    -0.376 OA
BRANCH   3   4
ATOM      4  C   UNL A   1      37.970  22.229  25.670  1.00  0.00     0.202 C 
BRANCH   4   5
ATOM      5  C   UNL A   1      37.249  23.656  25.028  1.00  0.00     0.261 C 
BRANCH   5   6
ATOM      6  O   UNL A   1      35.557  24.047  24.494  1.00  0.00    -0.460 OA
BRANCH   6   7
ATOM      7  C   UNL A   1      34.386  24.918  24.811  1.00  0.00     0.342 C 
ATOM      8  O   UNL A   1      34.105  25.468  25.878  1.00  0.00    -0.246 OA
BRANCH   7   9
ATOM      9  C   UNL A   1      33.222  25.075  23.932  1.00  0.00     0.104 A 
ATOM     10  C   UNL A   1      32.219  26.846  22.657  1.00  0.00     0.060 A 
ATOM     11  C   UNL A   1      31.755  25.884  21.778  1.00  0.00     0.139 A 
ATOM     12  C   UNL A   1      32.906  26.426  23.781  1.00  0.00     0.047 A 
ATOM     13  N   UNL A   1      32.043  24.569  21.875  1.00  0.00    -0.236 NA
ATOM     14  C   UNL A   1      32.841  24.143  22.892  1.00  0.00     0.143 A 
BRANCH  10  15
ATOM     15  N   UNL A   1      32.000  28.202  22.398  1.00  0.00    -0.325 N 
ATOM     16  C   UNL A   1      29.683  28.306  23.292  1.00  0.00     0.114 C 
ATOM     17  C   UNL A   1      30.816  28.889  22.476  1.00  0.00     0.221 C 
ATOM     18  O   UNL A   1      30.737  30.007  21.966  1.00  0.00    -0.275 OA
ATOM     19  H   UNL A   1      32.789  28.725  22.129  1.00  0.00     0.169 HD
ENDBRANCH  10  15
BRANCH  14  20
ATOM     20  N   UNL A   1      33.138  22.763  22.822  1.00  0.00    -0.352 N 
ATOM     21  C   UNL A   1      32.061  21.877  22.327  1.00  0.00     0.146 C 
ATOM     22  C   UNL A   1      33.903  22.308  23.987  1.00  0.00     0.123 C 
ATOM     23  C   UNL A   1      32.252  20.395  22.658  1.00  0.00    -0.002 C 
ATOM     24  C   UNL A   1      33.485  20.977  24.637  1.00  0.00     0.057 C 
ATOM     25  C   UNL A   1      32.918  19.916  23.733  1.00  0.00    -0.041 C 
BRANCH  25  26
ATOM     26  C   UNL A   1      33.205  18.445  24.027  1.00  0.00    -0.020 A 
ATOM     27  C   UNL A   1      33.671  17.612  22.981  1.00  0.00     0.008 A 
ATOM     28  C   UNL A   1      33.179  17.844  25.317  1.00  0.00    -0.044 A 
ATOM     29  C   UNL A   1      34.205  16.328  23.201  1.00  0.00     0.001 A 
ATOM     30  C   UNL A   1      33.725  16.549  25.523  1.00  0.00     0.004 A 
ATOM     31  C   UNL A   1      32.648  18.507  26.556  1.00  0.00     0.045 C 
ATOM     32  C   UNL A   1      34.253  15.804  24.479  1.00  0.00     0.000 A 
ENDBRANCH  25  26
ENDBRANCH  14  20
ENDBRANCH   7   9
ENDBRANCH   6   7
ENDBRANCH   5   6
ENDBRANCH   4   5
ENDBRANCH   3   4
ENDBRANCH   2   3
ENDBRANCH   1   2
BRANCH   1  33
ATOM     33  O   UNL A   1      41.995  20.504  27.318  1.00  0.00    -0.376 OA
BRANCH  33  34
ATOM     34  C   UNL A   1      41.964  19.632  26.213  1.00  0.00     0.202 C 
BRANCH  34  35
ATOM     35  C   UNL A   1      43.216  19.735  25.337  1.00  0.00     0.261 C 
BRANCH  35  36
ATOM     36  O   UNL A   1      44.130  20.784  25.739  1.00  0.00    -0.460 OA
BRANCH  36  37
ATOM     37  C   UNL A   1      44.108  21.962  25.023  1.00  0.00     0.338 C 
ATOM     38  O   UNL A   1      44.297  22.001  23.816  1.00  0.00    -0.246 OA
BRANCH  37  39
ATOM     39  C   UNL A   1      43.507  23.064  25.820  1.00  0.00     0.060 A 
ATOM     40  C   UNL A   1      42.746  24.160  25.407  1.00  0.00     0.016 A 
ATOM     41  C   UNL A   1      43.850  23.055  27.119  1.00  0.00     0.016 A 
ATOM     42  C   UNL A   1      42.458  25.321  26.274  1.00  0.00     0.010 A 
ATOM     43  C   UNL A   1      43.766  24.274  27.780  1.00  0.00     0.010 A 
ATOM     44  C   UNL A   1      43.039  25.516  27.525  1.00  0.00    -0.014 A 
BRANCH  44  45
ATOM     45  C   UNL A   1      42.962  27.004  28.524  1.00  0.00     0.031 A 
ATOM     46  C   UNL A   1      41.702  28.317  28.710  1.00  0.00     0.074 A 
ATOM     47  C   UNL A   1      44.038  27.366  29.274  1.00  0.00     0.049 A 
ATOM     48  N   UNL A   1      41.900  29.529  29.214  1.00  0.00    -0.248 NA
ATOM     49  C   UNL A   1      40.227  28.356  28.274  1.00  0.00     0.031 C 
ATOM     50  C   UNL A   1      44.016  28.319  30.389  1.00  0.00     0.029 A 
ATOM     51  N   UNL A   1      45.391  27.062  29.178  1.00  0.00    -0.354 N 
ATOM     52  C   UNL A   1      40.669  30.214  29.351  1.00  0.00     0.074 A 
ATOM     53  C   UNL A   1      39.721  29.520  28.598  1.00  0.00     0.031 C 
ATOM     54  C   UNL A   1      45.258  28.758  30.618  1.00  0.00     0.029 A 
ATOM     55  C   UNL A   1      46.106  28.195  29.595  1.00  0.00     0.049 A 
ATOM     56  H   UNL A   1      45.777  26.208  28.873  1.00  0.00     0.167 HD
ATOM     57  C   UNL A   1      40.428  31.249  30.203  1.00  0.00     0.031 A 
ATOM     58  C   UNL A   1      47.036  28.869  28.859  1.00  0.00     0.031 A 
ATOM     59  C   UNL A   1      41.675  31.767  30.692  1.00  0.00     0.049 A 
ATOM     60  C   UNL A   1      46.784  30.368  28.762  1.00  0.00     0.074 A 
ATOM     61  C   UNL A   1      42.374  31.741  31.880  1.00  0.00     0.029 A 
ATOM     62  N   UNL A   1      42.560  32.196  29.732  1.00  0.00    -0.354 N 
ATOM     63  N   UNL A   1      45.918  31.025  29.486  1.00  0.00    -0.248 NA
ATOM     64  C   UNL A   1      47.418  31.240  27.763  1.00  0.00     0.031 C 
ATOM     65  C   UNL A   1      43.694  32.213  31.611  1.00  0.00     0.029 A 
ATOM     66  C   UNL A   1      43.764  32.557  30.274  1.00  0.00     0.049 A 
ATOM     67  H   UNL A   1      42.353  32.237  28.769  1.00  0.00     0.167 HD
ATOM     68  C   UNL A   1      45.750  32.285  28.970  1.00  0.00     0.074 A 
ATOM     69  C   UNL A   1      46.760  32.401  27.939  1.00  0.00     0.031 C 
ATOM     70  C   UNL A   1      44.733  33.109  29.350  1.00  0.00     0.031 A 
BRANCH  57  71
ATOM     71  C   UNL A   1      39.033  31.651  30.727  1.00  0.00    -0.014 A 
ATOM     72  C   UNL A   1      38.505  32.905  30.365  1.00  0.00     0.010 A 
ATOM     73  C   UNL A   1      38.232  30.929  31.647  1.00  0.00     0.010 A 
ATOM     74  C   UNL A   1      37.361  33.455  30.985  1.00  0.00     0.020 A 
ATOM     75  C   UNL A   1      37.120  31.476  32.313  1.00  0.00     0.020 A 
ATOM     76  C   UNL A   1      36.702  32.755  31.993  1.00  0.00     0.054 A 
BRANCH  76  77
ATOM     77  S   UNL A   1      35.335  33.527  32.901  1.00  0.00     0.124 S 
ATOM     78  O   UNL A   1      35.574  34.952  32.688  1.00  0.00    -0.237 OA
ATOM     79  O   UNL A   1      34.161  32.974  32.233  1.00  0.00    -0.237 OA
ATOM     80  O   UNL A   1      35.535  33.074  34.278  1.00  0.00    -0.744 OA
ENDBRANCH  76  77
ENDBRANCH  57  71
BRANCH  58  81
ATOM     81  C   UNL A   1      47.708  28.014  27.838  1.00  0.00    -0.014 A 
ATOM     82  C   UNL A   1      46.906  27.090  27.129  1.00  0.00     0.010 A 
ATOM     83  C   UNL A   1      48.887  28.477  27.239  1.00  0.00     0.010 A 
ATOM     84  C   UNL A   1      47.174  26.784  25.787  1.00  0.00     0.020 A 
ATOM     85  C   UNL A   1      49.128  28.190  25.889  1.00  0.00     0.020 A 
ATOM     86  C   UNL A   1      48.246  27.400  25.153  1.00  0.00     0.054 A 
BRANCH  86  87
ATOM     87  S   UNL A   1      48.346  27.347  23.338  1.00  0.00     0.124 S 
ATOM     88  O   UNL A   1      48.213  25.925  23.041  1.00  0.00    -0.237 OA
ATOM     89  O   UNL A   1      47.200  28.177  22.962  1.00  0.00    -0.237 OA
ATOM     90  O   UNL A   1      49.645  27.937  23.034  1.00  0.00    -0.744 OA
ENDBRANCH  86  87
ENDBRANCH  58  81
BRANCH  70  91
ATOM     91  C   UNL A   1      44.473  34.498  28.815  1.00  0.00    -0.014 A 
ATOM     92  C   UNL A   1      44.468  35.615  29.660  1.00  0.00     0.010 A 
ATOM     93  C   UNL A   1      44.003  34.687  27.489  1.00  0.00     0.010 A 
ATOM     94  C   UNL A   1      43.990  36.857  29.205  1.00  0.00     0.020 A 
ATOM     95  C   UNL A   1      43.507  35.911  27.034  1.00  0.00     0.020 A 
ATOM     96  C   UNL A   1      43.502  36.993  27.901  1.00  0.00     0.054 A 
BRANCH  96  97
ATOM     97  S   UNL A   1      42.777  38.567  27.372  1.00  0.00     0.124 S 
ATOM     98  O   UNL A   1      42.511  39.239  28.642  1.00  0.00    -0.237 OA
ATOM     99  O   UNL A   1      43.856  39.141  26.573  1.00  0.00    -0.237 OA
ATOM    100  O   UNL A   1      41.588  38.173  26.621  1.00  0.00    -0.744 OA
ENDBRANCH  96  97
ENDBRANCH  70  91
ENDBRANCH  44  45
ENDBRANCH  37  39
ENDBRANCH  36  37
ENDBRANCH  35  36
ENDBRANCH  34  35
ENDBRANCH  33  34
ENDBRANCH   1  33
TORSDOF 23
ENDMDL
MODEL 3
REMARK VINA RESULT:     -10.5      5.788     10.514
REMARK SMILES CC(=O)Nc1cnc(N2CC=C(c3ccccc3C)CC2)c(C(=O)OCCOCCOCCOC(=O)c2ccc(-c3c4nc(c(-c5ccc(S(=O)(=O)[O-])cc5)c5ccc([nH]5)c(-c5ccc(S(=O)(=O)[O-])cc5)c5nc(c(-c6ccc(S(=O)(=O)[O-])cc6)c6ccc3[nH]6)C=C5)C=C4)cc2)c1
REMARK SMILES IDX 30 1 29 2 28 3 27 4 26 5 25 6 23 7 24 8 22 9 5 10 6 11 97 12
REMARK SMILES IDX 7 13 8 14 4 15 1 16 2 17 3 18 9 20 10 21 21 22 11 23 20 24
REMARK SMILES IDX 12 25 13 26 14 27 18 28 15 29 17 30 19 31 16 32 31 33 32 34
REMARK SMILES IDX 33 35 34 36 35 37 36 38 37 39 38 40 96 41 39 42 95 43 40 44
REMARK SMILES IDX 41 45 42 46 89 47 43 48 94 49 88 50 90 51 44 52 93 53 87 54
REMARK SMILES IDX 86 55 45 57 75 58 56 59 74 60 57 61 60 62 73 63 91 64 58 65
REMARK SMILES IDX 59 66 72 68 92 69 61 70 46 71 47 72 55 73 48 74 54 75 49 76
REMARK SMILES IDX 50 77 51 78 52 79 53 80 76 81 77 82 85 83 78 84 84 85 79 86
REMARK SMILES IDX 80 87 81 88 82 89 83 90 62 91 63 92 71 93 64 94 70 95 65 96
REMARK SMILES IDX 66 97 67 98 68 99 69 100
REMARK H PARENT 4 19 90 56 60 67
REMARK Flexibility Score: inf
ROOT
ATOM      1  C   UNL A   1      37.154  31.241  30.177  1.00  0.00     0.188 C 
ENDROOT
BRANCH   1   2
ATOM      2  C   UNL A   1      35.940  31.281  29.240  1.00  0.00     0.188 C 
BRANCH   2   3
ATOM      3  O   UNL A   1      35.964  30.681  27.923  1.00  0.00    -0.376 OA
BRANCH   3   4
ATOM      4  C   UNL A   1      35.538  29.350  27.583  1.00  0.00     0.202 C 
BRANCH   4   5
ATOM      5  C   UNL A   1      34.242  28.817  26.581  1.00  0.00     0.261 C 
BRANCH   5   6
ATOM      6  O   UNL A   1      33.027  27.477  26.749  1.00  0.00    -0.460 OA
BRANCH   6   7
ATOM      7  C   UNL A   1      31.659  27.057  26.320  1.00  0.00     0.342 C 
ATOM      8  O   UNL A   1      30.798  26.462  26.973  1.00  0.00    -0.246 OA
BRANCH   7   9
ATOM      9  C   UNL A   1      31.194  27.084  24.929  1.00  0.00     0.104 A 
ATOM     10  C   UNL A   1      30.693  28.762  23.285  1.00  0.00     0.060 A 
ATOM     11  C   UNL A   1      31.049  27.845  22.312  1.00  0.00     0.139 A 
ATOM     12  C   UNL A   1      30.706  28.351  24.605  1.00  0.00     0.047 A 
ATOM     13  N   UNL A   1      31.538  26.614  22.576  1.00  0.00    -0.236 NA
ATOM     14  C   UNL A   1      31.699  26.234  23.872  1.00  0.00     0.143 A 
BRANCH  10  15
ATOM     15  N   UNL A   1      30.341  30.066  22.929  1.00  0.00    -0.325 N 
ATOM     16  C   UNL A   1      27.889  29.687  22.790  1.00  0.00     0.114 C 
ATOM     17  C   UNL A   1      29.120  30.517  22.498  1.00  0.00     0.221 C 
ATOM     18  O   UNL A   1      29.041  31.629  21.976  1.00  0.00    -0.275 OA
ATOM     19  H   UNL A   1      31.054  30.741  22.996  1.00  0.00     0.169 HD
ENDBRANCH  10  15
BRANCH  14  20
ATOM     20  N   UNL A   1      32.304  24.963  24.005  1.00  0.00    -0.352 N 
ATOM     21  C   UNL A   1      32.873  24.368  22.775  1.00  0.00     0.146 C 
ATOM     22  C   UNL A   1      31.535  24.080  24.888  1.00  0.00     0.123 C 
ATOM     23  C   UNL A   1      33.126  22.860  22.856  1.00  0.00    -0.002 C 
ATOM     24  C   UNL A   1      31.331  22.624  24.435  1.00  0.00     0.057 C 
ATOM     25  C   UNL A   1      32.430  21.993  23.625  1.00  0.00    -0.041 C 
BRANCH  25  26
ATOM     26  C   UNL A   1      32.730  20.505  23.794  1.00  0.00    -0.020 A 
ATOM     27  C   UNL A   1      32.180  19.582  22.871  1.00  0.00     0.008 A 
ATOM     28  C   UNL A   1      33.646  19.953  24.733  1.00  0.00    -0.044 A 
ATOM     29  C   UNL A   1      32.599  18.241  22.783  1.00  0.00     0.001 A 
ATOM     30  C   UNL A   1      34.061  18.598  24.628  1.00  0.00     0.004 A 
ATOM     31  C   UNL A   1      34.288  20.722  25.852  1.00  0.00     0.045 C 
ATOM     32  C   UNL A   1      33.559  17.754  23.650  1.00  0.00     0.000 A 
ENDBRANCH  25  26
ENDBRANCH  14  20
ENDBRANCH   7   9
ENDBRANCH   6   7
ENDBRANCH   5   6
ENDBRANCH   4   5
ENDBRANCH   3   4
ENDBRANCH   2   3
ENDBRANCH   1   2
BRANCH   1  33
ATOM     33  O   UNL A   1      36.843  31.855  31.410  1.00  0.00    -0.376 OA
BRANCH  33  34
ATOM     34  C   UNL A   1      36.324  33.165  31.372  1.00  0.00     0.202 C 
BRANCH  34  35
ATOM     35  C   UNL A   1      36.166  33.783  32.765  1.00  0.00     0.261 C 
BRANCH  35  36
ATOM     36  O   UNL A   1      36.118  32.811  33.838  1.00  0.00    -0.460 OA
BRANCH  36  37
ATOM     37  C   UNL A   1      36.995  32.974  34.889  1.00  0.00     0.338 C 
ATOM     38  O   UNL A   1      36.650  33.442  35.964  1.00  0.00    -0.246 OA
BRANCH  37  39
ATOM     39  C   UNL A   1      38.255  32.219  34.661  1.00  0.00     0.060 A 
ATOM     40  C   UNL A   1      39.434  32.611  34.023  1.00  0.00     0.016 A 
ATOM     41  C   UNL A   1      38.199  30.928  35.029  1.00  0.00     0.016 A 
ATOM     42  C   UNL A   1      40.494  31.663  33.623  1.00  0.00     0.010 A 
ATOM     43  C   UNL A   1      39.098  30.076  34.401  1.00  0.00     0.010 A 
ATOM     44  C   UNL A   1      40.363  30.278  33.698  1.00  0.00    -0.014 A 
BRANCH  44  45
ATOM     45  C   UNL A   1      41.473  29.055  32.998  1.00  0.00     0.031 A 
ATOM     46  C   UNL A   1      42.596  27.819  33.744  1.00  0.00     0.074 A 
ATOM     47  C   UNL A   1      41.651  29.002  31.650  1.00  0.00     0.049 A 
ATOM     48  N   UNL A   1      43.609  27.212  33.137  1.00  0.00    -0.248 NA
ATOM     49  C   UNL A   1      42.683  27.288  35.185  1.00  0.00     0.031 C 
ATOM     50  C   UNL A   1      42.220  27.871  30.910  1.00  0.00     0.029 A 
ATOM     51  N   UNL A   1      41.465  29.944  30.644  1.00  0.00    -0.354 N 
ATOM     52  C   UNL A   1      44.151  26.204  33.970  1.00  0.00     0.074 A 
ATOM     53  C   UNL A   1      43.665  26.424  35.260  1.00  0.00     0.031 C 
ATOM     54  C   UNL A   1      42.638  28.293  29.712  1.00  0.00     0.029 A 
ATOM     55  C   UNL A   1      42.458  29.724  29.676  1.00  0.00     0.049 A 
ATOM     56  H   UNL A   1      40.767  30.638  30.615  1.00  0.00     0.167 HD
ATOM     57  C   UNL A   1      44.865  25.124  33.546  1.00  0.00     0.031 A 
ATOM     58  C   UNL A   1      43.374  30.641  29.248  1.00  0.00     0.031 A 
ATOM     59  C   UNL A   1      45.280  25.328  32.187  1.00  0.00     0.049 A 
ATOM     60  C   UNL A   1      44.816  30.154  29.309  1.00  0.00     0.074 A 
ATOM     61  C   UNL A   1      44.935  24.829  30.949  1.00  0.00     0.029 A 
ATOM     62  N   UNL A   1      46.027  26.458  31.954  1.00  0.00    -0.354 N 
ATOM     63  N   UNL A   1      45.174  28.916  29.517  1.00  0.00    -0.248 NA
ATOM     64  C   UNL A   1      45.981  31.045  29.245  1.00  0.00     0.031 C 
ATOM     65  C   UNL A   1      45.540  25.670  29.965  1.00  0.00     0.029 A 
ATOM     66  C   UNL A   1      46.274  26.640  30.620  1.00  0.00     0.049 A 
ATOM     67  H   UNL A   1      46.345  27.065  32.662  1.00  0.00     0.167 HD
ATOM     68  C   UNL A   1      46.519  28.865  29.780  1.00  0.00     0.074 A 
ATOM     69  C   UNL A   1      46.997  30.208  29.527  1.00  0.00     0.031 C 
ATOM     70  C   UNL A   1      47.132  27.756  30.283  1.00  0.00     0.031 A 
BRANCH  57  71
ATOM     71  C   UNL A   1      45.012  23.803  34.332  1.00  0.00    -0.014 A 
ATOM     72  C   UNL A   1      46.131  23.629  35.168  1.00  0.00     0.010 A 
ATOM     73  C   UNL A   1      44.181  22.659  34.229  1.00  0.00     0.010 A 
ATOM     74  C   UNL A   1      46.474  22.378  35.727  1.00  0.00     0.020 A 
ATOM     75  C   UNL A   1      44.530  21.393  34.734  1.00  0.00     0.020 A 
ATOM     76  C   UNL A   1      45.695  21.254  35.466  1.00  0.00     0.054 A 
BRANCH  76  77
ATOM     77  S   UNL A   1      46.222  19.618  36.046  1.00  0.00     0.124 S 
ATOM     78  O   UNL A   1      47.531  19.894  36.633  1.00  0.00    -0.237 OA
ATOM     79  O   UNL A   1      45.167  19.263  36.989  1.00  0.00    -0.237 OA
ATOM     80  O   UNL A   1      46.260  18.812  34.826  1.00  0.00    -0.744 OA
ENDBRANCH  76  77
ENDBRANCH  57  71
BRANCH  58  81
ATOM     81  C   UNL A   1      42.905  32.050  29.393  1.00  0.00    -0.014 A 
ATOM     82  C   UNL A   1      42.765  32.560  30.704  1.00  0.00     0.010 A 
ATOM     83  C   UNL A   1      43.135  32.949  28.344  1.00  0.00     0.010 A 
ATOM     84  C   UNL A   1      43.035  33.906  30.986  1.00  0.00     0.020 A 
ATOM     85  C   UNL A   1      43.434  34.286  28.640  1.00  0.00     0.020 A 
ATOM     86  C   UNL A   1      43.443  34.745  29.956  1.00  0.00     0.054 A 
BRANCH  86  87
ATOM     87  S   UNL A   1      44.196  36.348  30.371  1.00  0.00     0.124 S 
ATOM     88  O   UNL A   1      43.450  37.288  29.542  1.00  0.00    -0.237 OA
ATOM     89  O   UNL A   1      43.928  36.429  31.808  1.00  0.00    -0.237 OA
ATOM     90  O   UNL A   1      45.604  36.182  30.027  1.00  0.00    -0.744 OA
ENDBRANCH  86  87
ENDBRANCH  58  81
BRANCH  70  91
ATOM     91  C   UNL A   1      48.601  27.630  30.614  1.00  0.00    -0.014 A 
ATOM     92  C   UNL A   1      49.437  26.760  29.903  1.00  0.00     0.010 A 
ATOM     93  C   UNL A   1      49.130  28.215  31.794  1.00  0.00     0.010 A 
ATOM     94  C   UNL A   1      50.732  26.469  30.367  1.00  0.00     0.020 A 
ATOM     95  C   UNL A   1      50.407  27.917  32.274  1.00  0.00     0.020 A 
ATOM     96  C   UNL A   1      51.203  27.039  31.555  1.00  0.00     0.054 A 
BRANCH  96  97
ATOM     97  S   UNL A   1      52.826  26.557  32.201  1.00  0.00     0.124 S 
ATOM     98  O   UNL A   1      53.720  26.880  31.091  1.00  0.00    -0.237 OA
ATOM     99  O   UNL A   1      52.949  27.416  33.376  1.00  0.00    -0.237 OA
ATOM    100  O   UNL A   1      52.683  25.132  32.484  1.00  0.00    -0.744 OA
ENDBRANCH  96  97
ENDBRANCH  70  91
ENDBRANCH  44  45
ENDBRANCH  37  39
ENDBRANCH  36  37
ENDBRANCH  35  36
ENDBRANCH  34  35
ENDBRANCH  33  34
ENDBRANCH   1  33
TORSDOF 23
ENDMDL
