MODEL 1
REMARK VINA RESULT:     -10.5      0.000      0.000
REMARK SMILES Cc1c(CC(=O)OCCOCCOCCOC(=O)c2ccc(-c3c4nc(c(-c5ccc(S(=O)(=O)[O-])cc5)c5ccc([nH]5)c(-c5ccc(S(=O)(=O)[O-])cc5)c5nc(c(-c6ccc(S(=O)(=O)[O-])cc6)c6ccc3[nH]6)C=C5)C=C4)cc2)c2cc(O)ccc2n1C(=O)c1ccc(Cl)cc1
REMARK SMILES IDX 11 1 10 2 9 3 8 4 7 5 5 6 6 7 4 8 3 9 1 10 2 11 86 12 79 13
REMARK SMILES IDX 85 14 80 15 84 16 81 17 83 18 87 19 88 20 89 21 90 22 95 23
REMARK SMILES IDX 91 24 94 25 92 26 93 27 82 28 12 30 13 31 14 32 15 33 16 34
REMARK SMILES IDX 17 35 18 36 19 37 20 38 78 39 21 40 77 41 22 42 23 43 24 44
REMARK SMILES IDX 71 45 25 46 76 47 70 48 72 49 26 50 75 51 69 52 68 53 27 55
REMARK SMILES IDX 57 56 38 57 56 58 39 59 42 60 55 61 73 62 40 63 41 64 54 66
REMARK SMILES IDX 74 67 43 68 28 69 29 70 37 71 30 72 36 73 31 74 32 75 33 76
REMARK SMILES IDX 34 77 35 78 58 79 59 80 67 81 60 82 66 83 61 84 62 85 63 86
REMARK SMILES IDX 64 87 65 88 44 89 45 90 53 91 46 92 52 93 47 94 48 95 49 96
REMARK SMILES IDX 50 97 51 98
REMARK H PARENT 82 29 72 54 42 65
REMARK Flexibility Score: inf
ROOT
ATOM      1  C   UNL A   1      41.302  21.721  27.615  1.00  0.00     0.188 C 
ENDROOT
BRANCH   1   2
ATOM      2  O   UNL A   1      40.722  22.535  26.630  1.00  0.00    -0.376 OA
BRANCH   2   3
ATOM      3  C   UNL A   1      39.356  22.868  26.748  1.00  0.00     0.202 C 
BRANCH   3   4
ATOM      4  C   UNL A   1      38.472  22.817  25.493  1.00  0.00     0.261 C 
BRANCH   4   5
ATOM      5  O   UNL A   1      37.040  23.020  25.730  1.00  0.00    -0.463 OA
BRANCH   5   6
ATOM      6  C   UNL A   1      36.298  22.871  24.607  1.00  0.00     0.310 C 
ATOM      7  O   UNL A   1      36.148  21.741  24.152  1.00  0.00    -0.252 OA
BRANCH   6   8
ATOM      8  C   UNL A   1      35.493  24.031  24.014  1.00  0.00     0.160 C 
BRANCH   8   9
ATOM      9  C   UNL A   1      34.155  24.588  24.485  1.00  0.00    -0.008 A 
ATOM     10  C   UNL A   1      33.608  25.935  22.320  1.00  0.00     0.065 C 
ATOM     11  C   UNL A   1      33.337  25.381  23.682  1.00  0.00     0.028 A 
ATOM     12  N   UNL A   1      32.122  25.581  24.334  1.00  0.00    -0.280 N 
ATOM     13  C   UNL A   1      33.285  24.129  25.567  1.00  0.00     0.008 A 
ATOM     14  C   UNL A   1      31.998  24.596  25.316  1.00  0.00     0.057 A 
ATOM     15  C   UNL A   1      33.388  23.309  26.717  1.00  0.00     0.056 A 
ATOM     16  C   UNL A   1      30.882  24.109  26.055  1.00  0.00     0.031 A 
ATOM     17  C   UNL A   1      32.299  22.792  27.424  1.00  0.00     0.116 A 
ATOM     18  C   UNL A   1      31.037  23.191  27.090  1.00  0.00     0.048 A 
BRANCH  12  19
ATOM     19  C   UNL A   1      31.171  26.602  24.089  1.00  0.00     0.262 C 
ATOM     20  O   UNL A   1      30.392  26.502  23.138  1.00  0.00    -0.268 OA
BRANCH  19  21
ATOM     21  C   UNL A   1      31.123  27.823  24.910  1.00  0.00     0.040 A 
ATOM     22  C   UNL A   1      30.972  29.060  24.265  1.00  0.00     0.015 A 
ATOM     23  C   UNL A   1      31.515  27.742  26.248  1.00  0.00     0.015 A 
ATOM     24  C   UNL A   1      31.293  30.229  24.954  1.00  0.00     0.021 A 
ATOM     25  C   UNL A   1      31.848  28.917  26.925  1.00  0.00     0.021 A 
ATOM     26  C   UNL A   1      31.753  30.150  26.270  1.00  0.00     0.041 A 
ATOM     27  Cl  UNL A   1      32.284  31.578  27.069  1.00  0.00    -0.084 Cl
ENDBRANCH  19  21
ENDBRANCH  12  19
BRANCH  17  28
ATOM     28  O   UNL A   1      32.429  21.895  28.444  1.00  0.00    -0.508 OA
ATOM     29  H   UNL A   1      31.809  21.891  29.147  1.00  0.00     0.293 HD
ENDBRANCH  17  28
ENDBRANCH   8   9
ENDBRANCH   6   8
ENDBRANCH   5   6
ENDBRANCH   4   5
ENDBRANCH   3   4
ENDBRANCH   2   3
ENDBRANCH   1   2
BRANCH   1  30
ATOM     30  C   UNL A   1      42.158  20.524  27.196  1.00  0.00     0.188 C 
BRANCH  30  31
ATOM     31  O   UNL A   1      42.233  20.116  25.854  1.00  0.00    -0.376 OA
BRANCH  31  32
ATOM     32  C   UNL A   1      42.914  18.894  25.638  1.00  0.00     0.202 C 
BRANCH  32  33
ATOM     33  C   UNL A   1      44.204  18.934  24.772  1.00  0.00     0.261 C 
BRANCH  33  34
ATOM     34  O   UNL A   1      45.398  19.434  25.469  1.00  0.00    -0.460 OA
BRANCH  34  35
ATOM     35  C   UNL A   1      45.983  20.573  24.980  1.00  0.00     0.338 C 
ATOM     36  O   UNL A   1      46.795  20.575  24.058  1.00  0.00    -0.246 OA
BRANCH  35  37
ATOM     37  C   UNL A   1      45.202  21.838  25.305  1.00  0.00     0.060 A 
ATOM     38  C   UNL A   1      44.397  22.644  24.504  1.00  0.00     0.016 A 
ATOM     39  C   UNL A   1      45.484  22.337  26.576  1.00  0.00     0.016 A 
ATOM     40  C   UNL A   1      44.047  23.964  24.959  1.00  0.00     0.010 A 
ATOM     41  C   UNL A   1      45.071  23.566  27.063  1.00  0.00     0.010 A 
ATOM     42  C   UNL A   1      44.454  24.467  26.220  1.00  0.00    -0.014 A 
BRANCH  42  43
ATOM     43  C   UNL A   1      43.993  25.708  26.903  1.00  0.00     0.031 A 
ATOM     44  C   UNL A   1      44.893  26.793  26.534  1.00  0.00     0.074 A 
ATOM     45  C   UNL A   1      42.902  26.079  27.622  1.00  0.00     0.049 A 
ATOM     46  N   UNL A   1      46.033  26.933  27.114  1.00  0.00    -0.248 NA
ATOM     47  C   UNL A   1      44.703  27.583  25.314  1.00  0.00     0.031 C 
ATOM     48  C   UNL A   1      41.843  25.253  28.136  1.00  0.00     0.029 A 
ATOM     49  N   UNL A   1      42.503  27.317  28.084  1.00  0.00    -0.354 N 
ATOM     50  C   UNL A   1      46.561  28.056  26.540  1.00  0.00     0.074 A 
ATOM     51  C   UNL A   1      45.892  28.191  25.267  1.00  0.00     0.031 C 
ATOM     52  C   UNL A   1      40.800  25.961  28.617  1.00  0.00     0.029 A 
ATOM     53  C   UNL A   1      41.217  27.353  28.650  1.00  0.00     0.049 A 
ATOM     54  H   UNL A   1      43.076  28.116  28.021  1.00  0.00     0.167 HD
ATOM     55  C   UNL A   1      47.204  28.953  27.328  1.00  0.00     0.031 A 
ATOM     56  C   UNL A   1      40.676  28.199  29.570  1.00  0.00     0.031 A 
ATOM     57  C   UNL A   1      47.385  28.444  28.678  1.00  0.00     0.049 A 
ATOM     58  C   UNL A   1      41.803  28.790  30.311  1.00  0.00     0.074 A 
ATOM     59  C   UNL A   1      48.002  27.337  29.229  1.00  0.00     0.029 A 
ATOM     60  N   UNL A   1      46.476  28.889  29.613  1.00  0.00    -0.354 N 
ATOM     61  N   UNL A   1      42.517  28.125  31.174  1.00  0.00    -0.248 NA
ATOM     62  C   UNL A   1      42.403  30.008  29.796  1.00  0.00     0.031 C 
ATOM     63  C   UNL A   1      47.192  26.951  30.337  1.00  0.00     0.029 A 
ATOM     64  C   UNL A   1      46.148  27.869  30.474  1.00  0.00     0.049 A 
ATOM     65  H   UNL A   1      46.115  29.804  29.659  1.00  0.00     0.167 HD
ATOM     66  C   UNL A   1      43.809  28.577  30.965  1.00  0.00     0.074 A 
ATOM     67  C   UNL A   1      43.659  29.814  30.202  1.00  0.00     0.031 C 
ATOM     68  C   UNL A   1      44.884  27.769  31.191  1.00  0.00     0.031 A 
BRANCH  55  69
ATOM     69  C   UNL A   1      47.281  30.410  26.996  1.00  0.00    -0.014 A 
ATOM     70  C   UNL A   1      46.162  31.203  26.670  1.00  0.00     0.010 A 
ATOM     71  C   UNL A   1      48.507  31.070  27.177  1.00  0.00     0.010 A 
ATOM     72  C   UNL A   1      46.262  32.573  26.460  1.00  0.00     0.020 A 
ATOM     73  C   UNL A   1      48.611  32.456  27.019  1.00  0.00     0.020 A 
ATOM     74  C   UNL A   1      47.490  33.190  26.636  1.00  0.00     0.054 A 
BRANCH  74  75
ATOM     75  S   UNL A   1      47.572  34.974  26.388  1.00  0.00     0.124 S 
ATOM     76  O   UNL A   1      46.176  35.295  26.099  1.00  0.00    -0.237 OA
ATOM     77  O   UNL A   1      48.073  35.444  27.675  1.00  0.00    -0.237 OA
ATOM     78  O   UNL A   1      48.493  35.119  25.266  1.00  0.00    -0.744 OA
ENDBRANCH  74  75
ENDBRANCH  55  69
BRANCH  56  79
ATOM     79  C   UNL A   1      39.343  28.858  29.486  1.00  0.00    -0.014 A 
ATOM     80  C   UNL A   1      38.799  29.223  28.239  1.00  0.00     0.010 A 
ATOM     81  C   UNL A   1      38.714  29.356  30.648  1.00  0.00     0.010 A 
ATOM     82  C   UNL A   1      37.768  30.167  28.151  1.00  0.00     0.020 A 
ATOM     83  C   UNL A   1      37.678  30.304  30.565  1.00  0.00     0.020 A 
ATOM     84  C   UNL A   1      37.254  30.744  29.312  1.00  0.00     0.054 A 
BRANCH  84  85
ATOM     85  S   UNL A   1      36.117  32.152  29.145  1.00  0.00     0.124 S 
ATOM     86  O   UNL A   1      36.642  33.081  30.144  1.00  0.00    -0.237 OA
ATOM     87  O   UNL A   1      36.308  32.554  27.755  1.00  0.00    -0.237 OA
ATOM     88  O   UNL A   1      34.807  31.582  29.452  1.00  0.00    -0.744 OA
ENDBRANCH  84  85
ENDBRANCH  56  79
BRANCH  68  89
ATOM     89  C   UNL A   1      44.719  26.568  32.106  1.00  0.00    -0.014 A 
ATOM     90  C   UNL A   1      45.065  26.760  33.457  1.00  0.00     0.010 A 
ATOM     91  C   UNL A   1      44.403  25.262  31.680  1.00  0.00     0.010 A 
ATOM     92  C   UNL A   1      45.160  25.686  34.343  1.00  0.00     0.020 A 
ATOM     93  C   UNL A   1      44.472  24.176  32.575  1.00  0.00     0.020 A 
ATOM     94  C   UNL A   1      44.881  24.395  33.894  1.00  0.00     0.054 A 
BRANCH  94  95
ATOM     95  S   UNL A   1      45.099  23.025  35.066  1.00  0.00     0.124 S 
ATOM     96  O   UNL A   1      44.262  21.980  34.481  1.00  0.00    -0.237 OA
ATOM     97  O   UNL A   1      46.538  22.773  35.005  1.00  0.00    -0.237 OA
ATOM     98  O   UNL A   1      44.622  23.564  36.337  1.00  0.00    -0.744 OA
ENDBRANCH  94  95
ENDBRANCH  68  89
ENDBRANCH  42  43
ENDBRANCH  35  37
ENDBRANCH  34  35
ENDBRANCH  33  34
ENDBRANCH  32  33
ENDBRANCH  31  32
ENDBRANCH  30  31
ENDBRANCH   1  30
TORSDOF 24
ENDMDL
MODEL 2
REMARK VINA RESULT:      -9.9      4.641     11.648
REMARK SMILES Cc1c(CC(=O)OCCOCCOCCOC(=O)c2ccc(-c3c4nc(c(-c5ccc(S(=O)(=O)[O-])cc5)c5ccc([nH]5)c(-c5ccc(S(=O)(=O)[O-])cc5)c5nc(c(-c6ccc(S(=O)(=O)[O-])cc6)c6ccc3[nH]6)C=C5)C=C4)cc2)c2cc(O)ccc2n1C(=O)c1ccc(Cl)cc1
REMARK SMILES IDX 11 1 10 2 9 3 8 4 7 5 5 6 6 7 4 8 3 9 1 10 2 11 86 12 79 13
REMARK SMILES IDX 85 14 80 15 84 16 81 17 83 18 87 19 88 20 89 21 90 22 95 23
REMARK SMILES IDX 91 24 94 25 92 26 93 27 82 28 12 30 13 31 14 32 15 33 16 34
REMARK SMILES IDX 17 35 18 36 19 37 20 38 78 39 21 40 77 41 22 42 23 43 24 44
REMARK SMILES IDX 71 45 25 46 76 47 70 48 72 49 26 50 75 51 69 52 68 53 27 55
REMARK SMILES IDX 57 56 38 57 56 58 39 59 42 60 55 61 73 62 40 63 41 64 54 66
REMARK SMILES IDX 74 67 43 68 28 69 29 70 37 71 30 72 36 73 31 74 32 75 33 76
REMARK SMILES IDX 34 77 35 78 58 79 59 80 67 81 60 82 66 83 61 84 62 85 63 86
REMARK SMILES IDX 64 87 65 88 44 89 45 90 53 91 46 92 52 93 47 94 48 95 49 96
REMARK SMILES IDX 50 97 51 98
REMARK H PARENT 82 29 72 54 42 65
REMARK Flexibility Score: inf
ROOT
ATOM      1  C   UNL A   1      45.397  30.951  26.472  1.00  0.00     0.188 C 
ENDROOT
BRANCH   1   2
ATOM      2  O   UNL A   1      46.173  30.269  25.524  1.00  0.00    -0.376 OA
BRANCH   2   3
ATOM      3  C   UNL A   1      46.504  28.918  25.768  1.00  0.00     0.202 C 
BRANCH   3   4
ATOM      4  C   UNL A   1      46.784  27.999  24.571  1.00  0.00     0.261 C 
BRANCH   4   5
ATOM      5  O   UNL A   1      46.158  26.675  24.641  1.00  0.00    -0.463 OA
BRANCH   5   6
ATOM      6  C   UNL A   1      47.063  25.668  24.637  1.00  0.00     0.310 C 
ATOM      7  O   UNL A   1      47.910  25.648  23.749  1.00  0.00    -0.252 OA
BRANCH   6   8
ATOM      8  C   UNL A   1      47.178  24.684  25.805  1.00  0.00     0.160 C 
BRANCH   8   9
ATOM      9  C   UNL A   1      46.112  23.745  26.356  1.00  0.00    -0.008 A 
ATOM     10  C   UNL A   1      44.806  25.537  27.727  1.00  0.00     0.065 C 
ATOM     11  C   UNL A   1      45.058  24.178  27.157  1.00  0.00     0.028 A 
ATOM     12  N   UNL A   1      44.172  23.121  27.348  1.00  0.00    -0.280 N 
ATOM     13  C   UNL A   1      45.704  22.422  25.883  1.00  0.00     0.008 A 
ATOM     14  C   UNL A   1      44.416  22.173  26.351  1.00  0.00     0.057 A 
ATOM     15  C   UNL A   1      46.223  21.401  25.050  1.00  0.00     0.056 A 
ATOM     16  C   UNL A   1      43.653  21.079  25.855  1.00  0.00     0.031 A 
ATOM     17  C   UNL A   1      45.471  20.347  24.524  1.00  0.00     0.116 A 
ATOM     18  C   UNL A   1      44.177  20.185  24.925  1.00  0.00     0.048 A 
BRANCH  12  19
ATOM     19  C   UNL A   1      43.201  22.984  28.371  1.00  0.00     0.262 C 
ATOM     20  O   UNL A   1      43.541  22.619  29.498  1.00  0.00    -0.268 OA
BRANCH  19  21
ATOM     21  C   UNL A   1      41.770  23.212  28.110  1.00  0.00     0.040 A 
ATOM     22  C   UNL A   1      41.012  22.165  27.565  1.00  0.00     0.015 A 
ATOM     23  C   UNL A   1      41.289  24.523  28.136  1.00  0.00     0.015 A 
ATOM     24  C   UNL A   1      39.784  22.452  26.971  1.00  0.00     0.021 A 
ATOM     25  C   UNL A   1      40.064  24.804  27.526  1.00  0.00     0.021 A 
ATOM     26  C   UNL A   1      39.329  23.772  26.931  1.00  0.00     0.041 A 
ATOM     27  Cl  UNL A   1      37.886  24.145  26.072  1.00  0.00    -0.084 Cl
ENDBRANCH  19  21
ENDBRANCH  12  19
BRANCH  17  28
ATOM     28  O   UNL A   1      45.966  19.457  23.615  1.00  0.00    -0.508 OA
ATOM     29  H   UNL A   1      45.910  18.537  23.781  1.00  0.00     0.293 HD
ENDBRANCH  17  28
ENDBRANCH   8   9
ENDBRANCH   6   8
ENDBRANCH   5   6
ENDBRANCH   4   5
ENDBRANCH   3   4
ENDBRANCH   2   3
ENDBRANCH   1   2
BRANCH   1  30
ATOM     30  C   UNL A   1      44.831  32.331  26.131  1.00  0.00     0.188 C 
BRANCH  30  31
ATOM     31  O   UNL A   1      44.600  32.715  24.800  1.00  0.00    -0.376 OA
BRANCH  31  32
ATOM     32  C   UNL A   1      44.199  34.062  24.628  1.00  0.00     0.202 C 
BRANCH  32  33
ATOM     33  C   UNL A   1      44.182  34.973  25.887  1.00  0.00     0.261 C 
BRANCH  33  34
ATOM     34  O   UNL A   1      42.939  35.735  26.077  1.00  0.00    -0.460 OA
BRANCH  34  35
ATOM     35  C   UNL A   1      42.926  36.682  27.068  1.00  0.00     0.338 C 
ATOM     36  O   UNL A   1      42.729  37.877  26.861  1.00  0.00    -0.246 OA
BRANCH  35  37
ATOM     37  C   UNL A   1      42.671  36.101  28.451  1.00  0.00     0.060 A 
ATOM     38  C   UNL A   1      43.468  36.082  29.593  1.00  0.00     0.016 A 
ATOM     39  C   UNL A   1      41.510  35.330  28.510  1.00  0.00     0.016 A 
ATOM     40  C   UNL A   1      43.141  35.179  30.666  1.00  0.00     0.010 A 
ATOM     41  C   UNL A   1      41.134  34.532  29.577  1.00  0.00     0.010 A 
ATOM     42  C   UNL A   1      42.005  34.333  30.628  1.00  0.00    -0.014 A 
BRANCH  42  43
ATOM     43  C   UNL A   1      41.431  33.520  31.737  1.00  0.00     0.031 A 
ATOM     44  C   UNL A   1      42.144  32.250  31.789  1.00  0.00     0.074 A 
ATOM     45  C   UNL A   1      40.556  33.735  32.753  1.00  0.00     0.049 A 
ATOM     46  N   UNL A   1      41.853  31.295  30.978  1.00  0.00    -0.248 NA
ATOM     47  C   UNL A   1      43.397  32.090  32.531  1.00  0.00     0.031 C 
ATOM     48  C   UNL A   1      39.706  34.874  32.979  1.00  0.00     0.029 A 
ATOM     49  N   UNL A   1      40.208  32.943  33.828  1.00  0.00    -0.354 N 
ATOM     50  C   UNL A   1      42.688  30.279  31.349  1.00  0.00     0.074 A 
ATOM     51  C   UNL A   1      43.791  30.914  32.032  1.00  0.00     0.031 C 
ATOM     52  C   UNL A   1      39.121  34.869  34.195  1.00  0.00     0.029 A 
ATOM     53  C   UNL A   1      39.388  33.567  34.784  1.00  0.00     0.049 A 
ATOM     54  H   UNL A   1      40.511  32.011  33.920  1.00  0.00     0.167 HD
ATOM     55  C   UNL A   1      42.201  29.013  31.393  1.00  0.00     0.031 A 
ATOM     56  C   UNL A   1      38.509  33.038  35.680  1.00  0.00     0.031 A 
ATOM     57  C   UNL A   1      40.863  28.937  30.831  1.00  0.00     0.049 A 
ATOM     58  C   UNL A   1      38.126  31.713  35.161  1.00  0.00     0.074 A 
ATOM     59  C   UNL A   1      40.300  29.240  29.606  1.00  0.00     0.029 A 
ATOM     60  N   UNL A   1      39.829  28.930  31.743  1.00  0.00    -0.354 N 
ATOM     61  N   UNL A   1      37.350  31.548  34.128  1.00  0.00    -0.248 NA
ATOM     62  C   UNL A   1      38.935  30.567  35.537  1.00  0.00     0.031 C 
ATOM     63  C   UNL A   1      38.998  29.747  29.890  1.00  0.00     0.029 A 
ATOM     64  C   UNL A   1      38.776  29.673  31.266  1.00  0.00     0.049 A 
ATOM     65  H   UNL A   1      39.843  28.461  32.608  1.00  0.00     0.167 HD
ATOM     66  C   UNL A   1      37.899  30.467  33.461  1.00  0.00     0.074 A 
ATOM     67  C   UNL A   1      38.787  29.833  34.433  1.00  0.00     0.031 C 
ATOM     68  C   UNL A   1      37.795  30.347  32.107  1.00  0.00     0.031 A 
BRANCH  55  69
ATOM     69  C   UNL A   1      42.756  27.966  32.307  1.00  0.00    -0.014 A 
ATOM     70  C   UNL A   1      42.269  27.719  33.607  1.00  0.00     0.010 A 
ATOM     71  C   UNL A   1      43.700  27.065  31.790  1.00  0.00     0.010 A 
ATOM     72  C   UNL A   1      42.749  26.675  34.389  1.00  0.00     0.020 A 
ATOM     73  C   UNL A   1      44.153  25.980  32.548  1.00  0.00     0.020 A 
ATOM     74  C   UNL A   1      43.689  25.811  33.852  1.00  0.00     0.054 A 
BRANCH  74  75
ATOM     75  S   UNL A   1      44.260  24.449  34.886  1.00  0.00     0.124 S 
ATOM     76  O   UNL A   1      45.590  24.199  34.336  1.00  0.00    -0.237 OA
ATOM     77  O   UNL A   1      44.231  25.040  36.221  1.00  0.00    -0.237 OA
ATOM     78  O   UNL A   1      43.274  23.401  34.643  1.00  0.00    -0.744 OA
ENDBRANCH  74  75
ENDBRANCH  55  69
BRANCH  56  79
ATOM     79  C   UNL A   1      38.398  33.393  37.122  1.00  0.00    -0.014 A 
ATOM     80  C   UNL A   1      39.508  33.902  37.823  1.00  0.00     0.010 A 
ATOM     81  C   UNL A   1      37.272  32.995  37.875  1.00  0.00     0.010 A 
ATOM     82  C   UNL A   1      39.552  33.873  39.224  1.00  0.00     0.020 A 
ATOM     83  C   UNL A   1      37.310  32.965  39.280  1.00  0.00     0.020 A 
ATOM     84  C   UNL A   1      38.475  33.351  39.941  1.00  0.00     0.054 A 
BRANCH  84  85
ATOM     85  S   UNL A   1      38.678  33.081  41.727  1.00  0.00     0.124 S 
ATOM     86  O   UNL A   1      39.724  34.046  42.059  1.00  0.00    -0.237 OA
ATOM     87  O   UNL A   1      37.351  33.391  42.249  1.00  0.00    -0.237 OA
ATOM     88  O   UNL A   1      39.071  31.677  41.825  1.00  0.00    -0.744 OA
ENDBRANCH  84  85
ENDBRANCH  56  79
BRANCH  68  89
ATOM     89  C   UNL A   1      36.698  31.111  31.386  1.00  0.00    -0.014 A 
ATOM     90  C   UNL A   1      36.896  31.340  30.010  1.00  0.00     0.010 A 
ATOM     91  C   UNL A   1      35.597  31.731  32.010  1.00  0.00     0.010 A 
ATOM     92  C   UNL A   1      36.072  32.206  29.291  1.00  0.00     0.020 A 
ATOM     93  C   UNL A   1      34.745  32.586  31.284  1.00  0.00     0.020 A 
ATOM     94  C   UNL A   1      35.009  32.841  29.935  1.00  0.00     0.054 A 
BRANCH  94  95
ATOM     95  S   UNL A   1      34.018  34.019  28.973  1.00  0.00     0.124 S 
ATOM     96  O   UNL A   1      35.028  34.962  28.501  1.00  0.00    -0.237 OA
ATOM     97  O   UNL A   1      33.426  33.173  27.937  1.00  0.00    -0.237 OA
ATOM     98  O   UNL A   1      33.068  34.561  29.942  1.00  0.00    -0.744 OA
ENDBRANCH  94  95
ENDBRANCH  68  89
ENDBRANCH  42  43
ENDBRANCH  35  37
ENDBRANCH  34  35
ENDBRANCH  33  34
ENDBRANCH  32  33
ENDBRANCH  31  32
ENDBRANCH  30  31
ENDBRANCH   1  30
TORSDOF 24
ENDMDL
MODEL 3
REMARK VINA RESULT:      -9.6      2.753      4.098
REMARK SMILES Cc1c(CC(=O)OCCOCCOCCOC(=O)c2ccc(-c3c4nc(c(-c5ccc(S(=O)(=O)[O-])cc5)c5ccc([nH]5)c(-c5ccc(S(=O)(=O)[O-])cc5)c5nc(c(-c6ccc(S(=O)(=O)[O-])cc6)c6ccc3[nH]6)C=C5)C=C4)cc2)c2cc(O)ccc2n1C(=O)c1ccc(Cl)cc1
REMARK SMILES IDX 11 1 10 2 9 3 8 4 7 5 5 6 6 7 4 8 3 9 1 10 2 11 86 12 79 13
REMARK SMILES IDX 85 14 80 15 84 16 81 17 83 18 87 19 88 20 89 21 90 22 95 23
REMARK SMILES IDX 91 24 94 25 92 26 93 27 82 28 12 30 13 31 14 32 15 33 16 34
REMARK SMILES IDX 17 35 18 36 19 37 20 38 78 39 21 40 77 41 22 42 23 43 24 44
REMARK SMILES IDX 71 45 25 46 76 47 70 48 72 49 26 50 75 51 69 52 68 53 27 55
REMARK SMILES IDX 57 56 38 57 56 58 39 59 42 60 55 61 73 62 40 63 41 64 54 66
REMARK SMILES IDX 74 67 43 68 28 69 29 70 37 71 30 72 36 73 31 74 32 75 33 76
REMARK SMILES IDX 34 77 35 78 58 79 59 80 67 81 60 82 66 83 61 84 62 85 63 86
REMARK SMILES IDX 64 87 65 88 44 89 45 90 53 91 46 92 52 93 47 94 48 95 49 96
REMARK SMILES IDX 50 97 51 98
REMARK H PARENT 82 29 72 54 42 65
REMARK Flexibility Score: inf
ROOT
ATOM      1  C   UNL A   1      41.299  23.021  27.920  1.00  0.00     0.188 C 
ENDROOT
BRANCH   1   2
ATOM      2  O   UNL A   1      40.755  23.821  26.904  1.00  0.00    -0.376 OA
BRANCH   2   3
ATOM      3  C   UNL A   1      39.381  24.138  26.957  1.00  0.00     0.202 C 
BRANCH   3   4
ATOM      4  C   UNL A   1      38.397  23.303  26.125  1.00  0.00     0.261 C 
BRANCH   4   5
ATOM      5  O   UNL A   1      37.353  24.069  25.438  1.00  0.00    -0.463 OA
BRANCH   5   6
ATOM      6  C   UNL A   1      36.532  23.288  24.699  1.00  0.00     0.310 C 
ATOM      7  O   UNL A   1      36.584  22.072  24.859  1.00  0.00    -0.252 OA
BRANCH   6   8
ATOM      8  C   UNL A   1      35.419  23.882  23.830  1.00  0.00     0.160 C 
BRANCH   8   9
ATOM      9  C   UNL A   1      34.116  24.531  24.279  1.00  0.00    -0.008 A 
ATOM     10  C   UNL A   1      33.653  25.842  22.073  1.00  0.00     0.065 C 
ATOM     11  C   UNL A   1      33.347  25.346  23.450  1.00  0.00     0.028 A 
ATOM     12  N   UNL A   1      32.145  25.635  24.091  1.00  0.00    -0.280 N 
ATOM     13  C   UNL A   1      33.219  24.155  25.371  1.00  0.00     0.008 A 
ATOM     14  C   UNL A   1      31.961  24.688  25.102  1.00  0.00     0.057 A 
ATOM     15  C   UNL A   1      33.271  23.365  26.545  1.00  0.00     0.056 A 
ATOM     16  C   UNL A   1      30.817  24.290  25.850  1.00  0.00     0.031 A 
ATOM     17  C   UNL A   1      32.152  22.933  27.262  1.00  0.00     0.116 A 
ATOM     18  C   UNL A   1      30.916  23.395  26.912  1.00  0.00     0.048 A 
BRANCH  12  19
ATOM     19  C   UNL A   1      31.256  26.702  23.812  1.00  0.00     0.262 C 
ATOM     20  O   UNL A   1      30.256  26.505  23.116  1.00  0.00    -0.268 OA
BRANCH  19  21
ATOM     21  C   UNL A   1      31.522  28.071  24.285  1.00  0.00     0.040 A 
ATOM     22  C   UNL A   1      32.425  28.253  25.342  1.00  0.00     0.015 A 
ATOM     23  C   UNL A   1      30.665  29.095  23.874  1.00  0.00     0.015 A 
ATOM     24  C   UNL A   1      32.415  29.456  26.045  1.00  0.00     0.021 A 
ATOM     25  C   UNL A   1      30.652  30.292  24.593  1.00  0.00     0.021 A 
ATOM     26  C   UNL A   1      31.512  30.459  25.684  1.00  0.00     0.041 A 
ATOM     27  Cl  UNL A   1      31.402  31.884  26.641  1.00  0.00    -0.084 Cl
ENDBRANCH  19  21
ENDBRANCH  12  19
BRANCH  17  28
ATOM     28  O   UNL A   1      32.226  22.061  28.309  1.00  0.00    -0.508 OA
ATOM     29  H   UNL A   1      32.703  22.295  29.082  1.00  0.00     0.293 HD
ENDBRANCH  17  28
ENDBRANCH   8   9
ENDBRANCH   6   8
ENDBRANCH   5   6
ENDBRANCH   4   5
ENDBRANCH   3   4
ENDBRANCH   2   3
ENDBRANCH   1   2
BRANCH   1  30
ATOM     30  C   UNL A   1      41.923  21.671  27.564  1.00  0.00     0.188 C 
BRANCH  30  31
ATOM     31  O   UNL A   1      41.487  20.938  26.448  1.00  0.00    -0.376 OA
BRANCH  31  32
ATOM     32  C   UNL A   1      41.651  19.535  26.553  1.00  0.00     0.202 C 
BRANCH  32  33
ATOM     33  C   UNL A   1      42.711  18.866  25.634  1.00  0.00     0.261 C 
BRANCH  33  34
ATOM     34  O   UNL A   1      44.064  19.430  25.743  1.00  0.00    -0.460 OA
BRANCH  34  35
ATOM     35  C   UNL A   1      44.522  20.179  24.690  1.00  0.00     0.338 C 
ATOM     36  O   UNL A   1      44.527  19.782  23.528  1.00  0.00    -0.246 OA
BRANCH  35  37
ATOM     37  C   UNL A   1      44.548  21.673  24.980  1.00  0.00     0.060 A 
ATOM     38  C   UNL A   1      43.826  22.724  24.420  1.00  0.00     0.016 A 
ATOM     39  C   UNL A   1      45.585  22.040  25.838  1.00  0.00     0.016 A 
ATOM     40  C   UNL A   1      44.275  24.076  24.626  1.00  0.00     0.010 A 
ATOM     41  C   UNL A   1      45.965  23.341  26.122  1.00  0.00     0.010 A 
ATOM     42  C   UNL A   1      45.405  24.389  25.421  1.00  0.00    -0.014 A 
BRANCH  42  43
ATOM     43  C   UNL A   1      45.850  25.731  25.893  1.00  0.00     0.031 A 
ATOM     44  C   UNL A   1      47.214  25.950  25.428  1.00  0.00     0.074 A 
ATOM     45  C   UNL A   1      45.261  26.802  26.485  1.00  0.00     0.049 A 
ATOM     46  N   UNL A   1      48.214  25.432  26.048  1.00  0.00    -0.248 NA
ATOM     47  C   UNL A   1      47.507  26.494  24.099  1.00  0.00     0.031 C 
ATOM     48  C   UNL A   1      43.941  26.903  27.047  1.00  0.00     0.029 A 
ATOM     49  N   UNL A   1      45.743  28.070  26.742  1.00  0.00    -0.354 N 
ATOM     50  C   UNL A   1      49.303  25.881  25.354  1.00  0.00     0.074 A 
ATOM     51  C   UNL A   1      48.812  26.214  24.037  1.00  0.00     0.031 C 
ATOM     52  C   UNL A   1      43.590  28.167  27.360  1.00  0.00     0.029 A 
ATOM     53  C   UNL A   1      44.786  28.982  27.220  1.00  0.00     0.049 A 
ATOM     54  H   UNL A   1      46.685  28.317  26.602  1.00  0.00     0.167 HD
ATOM     55  C   UNL A   1      50.399  26.286  26.044  1.00  0.00     0.031 A 
ATOM     56  C   UNL A   1      44.931  30.105  27.976  1.00  0.00     0.031 A 
ATOM     57  C   UNL A   1      50.280  25.982  27.461  1.00  0.00     0.049 A 
ATOM     58  C   UNL A   1      46.211  29.966  28.693  1.00  0.00     0.074 A 
ATOM     59  C   UNL A   1      50.093  24.829  28.199  1.00  0.00     0.029 A 
ATOM     60  N   UNL A   1      49.888  27.028  28.268  1.00  0.00    -0.354 N 
ATOM     61  N   UNL A   1      46.389  29.138  29.682  1.00  0.00    -0.248 NA
ATOM     62  C   UNL A   1      47.417  30.452  28.047  1.00  0.00     0.031 C 
ATOM     63  C   UNL A   1      49.267  25.201  29.300  1.00  0.00     0.029 A 
ATOM     64  C   UNL A   1      49.032  26.576  29.243  1.00  0.00     0.049 A 
ATOM     65  H   UNL A   1      50.179  27.962  28.162  1.00  0.00     0.167 HD
ATOM     66  C   UNL A   1      47.670  28.650  29.489  1.00  0.00     0.074 A 
ATOM     67  C   UNL A   1      48.293  29.580  28.550  1.00  0.00     0.031 C 
ATOM     68  C   UNL A   1      48.013  27.392  29.890  1.00  0.00     0.031 A 
BRANCH  55  69
ATOM     69  C   UNL A   1      51.355  27.308  25.514  1.00  0.00    -0.014 A 
ATOM     70  C   UNL A   1      52.558  26.991  24.851  1.00  0.00     0.010 A 
ATOM     71  C   UNL A   1      50.961  28.656  25.525  1.00  0.00     0.010 A 
ATOM     72  C   UNL A   1      53.372  27.968  24.290  1.00  0.00     0.020 A 
ATOM     73  C   UNL A   1      51.745  29.642  24.919  1.00  0.00     0.020 A 
ATOM     74  C   UNL A   1      52.958  29.290  24.329  1.00  0.00     0.054 A 
BRANCH  74  75
ATOM     75  S   UNL A   1      54.025  30.523  23.560  1.00  0.00     0.124 S 
ATOM     76  O   UNL A   1      53.182  31.714  23.610  1.00  0.00    -0.237 OA
ATOM     77  O   UNL A   1      55.181  30.531  24.451  1.00  0.00    -0.237 OA
ATOM     78  O   UNL A   1      54.266  29.981  22.227  1.00  0.00    -0.744 OA
ENDBRANCH  74  75
ENDBRANCH  55  69
BRANCH  56  79
ATOM     79  C   UNL A   1      44.299  31.429  27.721  1.00  0.00    -0.014 A 
ATOM     80  C   UNL A   1      44.530  32.114  26.513  1.00  0.00     0.010 A 
ATOM     81  C   UNL A   1      43.669  32.138  28.767  1.00  0.00     0.010 A 
ATOM     82  C   UNL A   1      44.283  33.489  26.404  1.00  0.00     0.020 A 
ATOM     83  C   UNL A   1      43.419  33.517  28.664  1.00  0.00     0.020 A 
ATOM     84  C   UNL A   1      43.783  34.193  27.500  1.00  0.00     0.054 A 
BRANCH  84  85
ATOM     85  S   UNL A   1      43.733  36.007  27.410  1.00  0.00     0.124 S 
ATOM     86  O   UNL A   1      44.839  36.293  26.498  1.00  0.00    -0.237 OA
ATOM     87  O   UNL A   1      42.399  36.264  26.876  1.00  0.00    -0.237 OA
ATOM     88  O   UNL A   1      43.940  36.431  28.792  1.00  0.00    -0.744 OA
ENDBRANCH  84  85
ENDBRANCH  56  79
BRANCH  68  89
ATOM     89  C   UNL A   1      47.173  26.708  30.955  1.00  0.00    -0.014 A 
ATOM     90  C   UNL A   1      47.698  26.710  32.262  1.00  0.00     0.010 A 
ATOM     91  C   UNL A   1      46.012  25.949  30.707  1.00  0.00     0.010 A 
ATOM     92  C   UNL A   1      47.131  25.936  33.275  1.00  0.00     0.020 A 
ATOM     93  C   UNL A   1      45.418  25.186  31.731  1.00  0.00     0.020 A 
ATOM     94  C   UNL A   1      46.003  25.162  33.001  1.00  0.00     0.054 A 
BRANCH  94  95
ATOM     95  S   UNL A   1      45.353  24.112  34.332  1.00  0.00     0.124 S 
ATOM     96  O   UNL A   1      45.134  22.841  33.645  1.00  0.00    -0.237 OA
ATOM     97  O   UNL A   1      46.445  24.110  35.305  1.00  0.00    -0.237 OA
ATOM     98  O   UNL A   1      44.140  24.799  34.768  1.00  0.00    -0.744 OA
ENDBRANCH  94  95
ENDBRANCH  68  89
ENDBRANCH  42  43
ENDBRANCH  35  37
ENDBRANCH  34  35
ENDBRANCH  33  34
ENDBRANCH  32  33
ENDBRANCH  31  32
ENDBRANCH  30  31
ENDBRANCH   1  30
TORSDOF 24
ENDMDL
