MODEL 1
REMARK VINA RESULT:      -9.9      0.000      0.000
REMARK SMILES O=CN[C@@H](CCS[C@H]1CCO[C@]2(CCOC2)C1)C(=O)OCCOCCOCCOC(=O)c1ccc(-c2c3nc(c(-c4ccc(S(=O)(=O)[O-])cc4)c4ccc([nH]4)c(-c4ccc(S(=O)(=O)[O-])cc4)c4nc(c(-c5ccc(S(=O)(=O)[O-])cc5)c5ccc2[nH]5)C=C4)C=C3)cc1
REMARK SMILES IDX 24 1 23 2 22 3 21 4 20 5 18 6 19 7 4 8 3 9 1 10 2 11 5 13
REMARK SMILES IDX 6 14 7 15 8 16 9 17 17 18 10 19 12 20 11 21 13 22 16 23
REMARK SMILES IDX 14 24 15 25 25 26 26 27 27 28 28 29 29 30 30 31 31 32 32 33
REMARK SMILES IDX 33 34 91 35 34 36 90 37 35 38 36 39 37 40 84 41 38 42 89 43
REMARK SMILES IDX 83 44 85 45 39 46 88 47 82 48 81 49 40 51 70 52 51 53 69 54
REMARK SMILES IDX 52 55 55 56 68 57 86 58 53 59 54 60 67 62 87 63 56 64 41 65
REMARK SMILES IDX 42 66 50 67 43 68 49 69 44 70 45 71 46 72 47 73 48 74 71 75
REMARK SMILES IDX 72 76 80 77 73 78 79 79 74 80 75 81 76 82 77 83 78 84 57 85
REMARK SMILES IDX 58 86 66 87 59 88 65 89 60 90 61 91 62 92 63 93 64 94
REMARK H PARENT 3 12 85 50 55 61
REMARK Flexibility Score: inf
ROOT
ATOM      1  C   UNL A   1      43.051  19.792  25.567  1.00  0.00     0.188 C 
ENDROOT
BRANCH   1   2
ATOM      2  O   UNL A   1      41.732  19.242  25.766  1.00  0.00    -0.376 OA
BRANCH   2   3
ATOM      3  C   UNL A   1      40.675  19.999  26.327  1.00  0.00     0.202 C 
BRANCH   3   4
ATOM      4  C   UNL A   1      39.267  19.877  25.560  1.00  0.00     0.261 C 
BRANCH   4   5
ATOM      5  O   UNL A   1      38.110  20.965  25.392  1.00  0.00    -0.462 OA
BRANCH   5   6
ATOM      6  C   UNL A   1      37.033  21.769  25.232  1.00  0.00     0.328 C 
ATOM      7  O   UNL A   1      37.158  22.951  25.573  1.00  0.00    -0.250 OA
BRANCH   6   8
ATOM      8  C   UNL A   1      35.583  21.325  24.701  1.00  0.00     0.192 C 
BRANCH   8   9
ATOM      9  N   UNL A   1      34.750  20.196  25.194  1.00  0.00    -0.345 N 
ATOM     10  O   UNL A   1      33.367  18.459  24.822  1.00  0.00    -0.279 OA
ATOM     11  C   UNL A   1      34.457  18.989  24.642  1.00  0.00     0.337 C 
ATOM     12  H   UNL A   1      34.338  20.350  26.074  1.00  0.00     0.164 HD
ENDBRANCH   8   9
BRANCH   8  13
ATOM     13  C   UNL A   1      34.710  22.523  24.871  1.00  0.00     0.048 C 
BRANCH  13  14
ATOM     14  C   UNL A   1      33.609  22.150  25.856  1.00  0.00     0.072 C 
BRANCH  14  15
ATOM     15  S   UNL A   1      32.626  23.496  26.799  1.00  0.00    -0.158 SA
BRANCH  15  16
ATOM     16  C   UNL A   1      31.853  25.184  25.715  1.00  0.00     0.052 C 
ATOM     17  C   UNL A   1      30.539  26.084  25.735  1.00  0.00     0.043 C 
ATOM     18  C   UNL A   1      32.877  25.730  24.694  1.00  0.00     0.052 C 
ATOM     19  C   UNL A   1      30.172  26.823  24.462  1.00  0.00     0.162 C 
ATOM     20  C   UNL A   1      32.262  26.400  23.456  1.00  0.00     0.095 C 
ATOM     21  O   UNL A   1      31.336  27.395  23.879  1.00  0.00    -0.372 OA
ATOM     22  C   UNL A   1      31.625  25.506  22.404  1.00  0.00     0.066 C 
ATOM     23  C   UNL A   1      33.397  27.019  22.644  1.00  0.00     0.195 C 
ATOM     24  C   UNL A   1      32.745  25.139  21.465  1.00  0.00     0.163 C 
ATOM     25  O   UNL A   1      33.859  25.983  21.765  1.00  0.00    -0.378 OA
ENDBRANCH  15  16
ENDBRANCH  14  15
ENDBRANCH  13  14
ENDBRANCH   8  13
ENDBRANCH   6   8
ENDBRANCH   5   6
ENDBRANCH   4   5
ENDBRANCH   3   4
ENDBRANCH   2   3
ENDBRANCH   1   2
BRANCH   1  26
ATOM     26  C   UNL A   1      43.305  21.304  25.741  1.00  0.00     0.188 C 
BRANCH  26  27
ATOM     27  O   UNL A   1      43.839  21.982  24.617  1.00  0.00    -0.376 OA
BRANCH  27  28
ATOM     28  C   UNL A   1      43.560  23.373  24.583  1.00  0.00     0.202 C 
BRANCH  28  29
ATOM     29  C   UNL A   1      43.010  24.001  25.878  1.00  0.00     0.261 C 
BRANCH  29  30
ATOM     30  O   UNL A   1      41.885  24.895  25.700  1.00  0.00    -0.460 OA
BRANCH  30  31
ATOM     31  C   UNL A   1      42.168  26.224  25.842  1.00  0.00     0.338 C 
ATOM     32  O   UNL A   1      42.297  27.036  24.938  1.00  0.00    -0.246 OA
BRANCH  31  33
ATOM     33  C   UNL A   1      42.167  26.633  27.267  1.00  0.00     0.060 A 
ATOM     34  C   UNL A   1      41.264  26.022  28.155  1.00  0.00     0.016 A 
ATOM     35  C   UNL A   1      42.940  27.710  27.696  1.00  0.00     0.016 A 
ATOM     36  C   UNL A   1      41.100  26.519  29.457  1.00  0.00     0.010 A 
ATOM     37  C   UNL A   1      42.764  28.213  28.992  1.00  0.00     0.010 A 
ATOM     38  C   UNL A   1      41.818  27.648  29.869  1.00  0.00    -0.014 A 
BRANCH  38  39
ATOM     39  C   UNL A   1      41.466  28.399  31.107  1.00  0.00     0.031 A 
ATOM     40  C   UNL A   1      40.312  29.366  31.043  1.00  0.00     0.074 A 
ATOM     41  C   UNL A   1      42.186  28.302  32.240  1.00  0.00     0.049 A 
ATOM     42  N   UNL A   1      39.982  30.326  31.868  1.00  0.00    -0.248 NA
ATOM     43  C   UNL A   1      39.418  29.234  29.881  1.00  0.00     0.031 C 
ATOM     44  C   UNL A   1      43.267  27.350  32.484  1.00  0.00     0.029 A 
ATOM     45  N   UNL A   1      42.129  29.051  33.393  1.00  0.00    -0.354 N 
ATOM     46  C   UNL A   1      38.868  30.940  31.305  1.00  0.00     0.074 A 
ATOM     47  C   UNL A   1      38.580  30.242  30.070  1.00  0.00     0.031 C 
ATOM     48  C   UNL A   1      43.798  27.598  33.696  1.00  0.00     0.029 A 
ATOM     49  C   UNL A   1      43.134  28.761  34.288  1.00  0.00     0.049 A 
ATOM     50  H   UNL A   1      41.437  29.730  33.561  1.00  0.00     0.167 HD
ATOM     51  C   UNL A   1      38.159  31.998  31.765  1.00  0.00     0.031 A 
ATOM     52  C   UNL A   1      43.508  29.389  35.422  1.00  0.00     0.031 A 
ATOM     53  C   UNL A   1      38.451  32.695  32.988  1.00  0.00     0.049 A 
ATOM     54  C   UNL A   1      42.767  30.629  35.871  1.00  0.00     0.074 A 
ATOM     55  C   UNL A   1      37.793  33.782  33.537  1.00  0.00     0.029 A 
ATOM     56  N   UNL A   1      39.486  32.377  33.852  1.00  0.00    -0.354 N 
ATOM     57  N   UNL A   1      41.736  31.220  35.317  1.00  0.00    -0.248 NA
ATOM     58  C   UNL A   1      43.251  31.290  37.094  1.00  0.00     0.031 C 
ATOM     59  C   UNL A   1      38.464  34.155  34.705  1.00  0.00     0.029 A 
ATOM     60  C   UNL A   1      39.500  33.260  34.918  1.00  0.00     0.049 A 
ATOM     61  H   UNL A   1      40.118  31.632  33.727  1.00  0.00     0.167 HD
ATOM     62  C   UNL A   1      41.427  32.299  36.143  1.00  0.00     0.074 A 
ATOM     63  C   UNL A   1      42.378  32.279  37.233  1.00  0.00     0.031 C 
ATOM     64  C   UNL A   1      40.440  33.220  36.010  1.00  0.00     0.031 A 
BRANCH  51  65
ATOM     65  C   UNL A   1      37.028  32.503  30.907  1.00  0.00    -0.014 A 
ATOM     66  C   UNL A   1      35.690  32.176  31.187  1.00  0.00     0.010 A 
ATOM     67  C   UNL A   1      37.313  33.348  29.818  1.00  0.00     0.010 A 
ATOM     68  C   UNL A   1      34.662  32.649  30.369  1.00  0.00     0.020 A 
ATOM     69  C   UNL A   1      36.285  33.847  29.015  1.00  0.00     0.020 A 
ATOM     70  C   UNL A   1      34.966  33.479  29.285  1.00  0.00     0.054 A 
BRANCH  70  71
ATOM     71  S   UNL A   1      33.611  34.093  28.247  1.00  0.00     0.124 S 
ATOM     72  O   UNL A   1      33.201  32.882  27.539  1.00  0.00    -0.237 OA
ATOM     73  O   UNL A   1      32.655  34.597  29.231  1.00  0.00    -0.237 OA
ATOM     74  O   UNL A   1      34.242  35.114  27.417  1.00  0.00    -0.744 OA
ENDBRANCH  70  71
ENDBRANCH  51  65
BRANCH  52  75
ATOM     75  C   UNL A   1      44.681  28.895  36.200  1.00  0.00    -0.014 A 
ATOM     76  C   UNL A   1      44.504  28.019  37.285  1.00  0.00     0.010 A 
ATOM     77  C   UNL A   1      45.984  29.314  35.868  1.00  0.00     0.010 A 
ATOM     78  C   UNL A   1      45.604  27.580  38.030  1.00  0.00     0.020 A 
ATOM     79  C   UNL A   1      47.088  28.854  36.593  1.00  0.00     0.020 A 
ATOM     80  C   UNL A   1      46.890  27.997  37.675  1.00  0.00     0.054 A 
BRANCH  80  81
ATOM     81  S   UNL A   1      48.306  27.370  38.622  1.00  0.00     0.124 S 
ATOM     82  O   UNL A   1      49.436  27.938  37.893  1.00  0.00    -0.237 OA
ATOM     83  O   UNL A   1      48.068  27.926  39.952  1.00  0.00    -0.237 OA
ATOM     84  O   UNL A   1      48.166  25.919  38.527  1.00  0.00    -0.744 OA
ENDBRANCH  80  81
ENDBRANCH  52  75
BRANCH  64  85
ATOM     85  C   UNL A   1      40.281  34.257  37.093  1.00  0.00    -0.014 A 
ATOM     86  C   UNL A   1      40.985  35.474  37.054  1.00  0.00     0.010 A 
ATOM     87  C   UNL A   1      39.330  34.049  38.109  1.00  0.00     0.010 A 
ATOM     88  C   UNL A   1      40.745  36.459  38.018  1.00  0.00     0.020 A 
ATOM     89  C   UNL A   1      39.070  35.041  39.059  1.00  0.00     0.020 A 
ATOM     90  C   UNL A   1      39.785  36.239  39.010  1.00  0.00     0.054 A 
BRANCH  90  91
ATOM     91  S   UNL A   1      39.434  37.565  40.199  1.00  0.00     0.124 S 
ATOM     92  O   UNL A   1      38.975  36.816  41.365  1.00  0.00    -0.237 OA
ATOM     93  O   UNL A   1      40.733  38.219  40.343  1.00  0.00    -0.237 OA
ATOM     94  O   UNL A   1      38.412  38.369  39.533  1.00  0.00    -0.744 OA
ENDBRANCH  90  91
ENDBRANCH  64  85
ENDBRANCH  38  39
ENDBRANCH  31  33
ENDBRANCH  30  31
ENDBRANCH  29  30
ENDBRANCH  28  29
ENDBRANCH  27  28
ENDBRANCH  26  27
ENDBRANCH   1  26
TORSDOF 25
ENDMDL
MODEL 2
REMARK VINA RESULT:      -9.0      1.363      2.060
REMARK SMILES O=CN[C@@H](CCS[C@H]1CCO[C@]2(CCOC2)C1)C(=O)OCCOCCOCCOC(=O)c1ccc(-c2c3nc(c(-c4ccc(S(=O)(=O)[O-])cc4)c4ccc([nH]4)c(-c4ccc(S(=O)(=O)[O-])cc4)c4nc(c(-c5ccc(S(=O)(=O)[O-])cc5)c5ccc2[nH]5)C=C4)C=C3)cc1
REMARK SMILES IDX 24 1 23 2 22 3 21 4 20 5 18 6 19 7 4 8 3 9 1 10 2 11 5 13
REMARK SMILES IDX 6 14 7 15 8 16 9 17 17 18 10 19 12 20 11 21 13 22 16 23
REMARK SMILES IDX 14 24 15 25 25 26 26 27 27 28 28 29 29 30 30 31 31 32 32 33
REMARK SMILES IDX 33 34 91 35 34 36 90 37 35 38 36 39 37 40 84 41 38 42 89 43
REMARK SMILES IDX 83 44 85 45 39 46 88 47 82 48 81 49 40 51 70 52 51 53 69 54
REMARK SMILES IDX 52 55 55 56 68 57 86 58 53 59 54 60 67 62 87 63 56 64 41 65
REMARK SMILES IDX 42 66 50 67 43 68 49 69 44 70 45 71 46 72 47 73 48 74 71 75
REMARK SMILES IDX 72 76 80 77 73 78 79 79 74 80 75 81 76 82 77 83 78 84 57 85
REMARK SMILES IDX 58 86 66 87 59 88 65 89 60 90 61 91 62 92 63 93 64 94
REMARK H PARENT 3 12 85 50 55 61
REMARK Flexibility Score: inf
ROOT
ATOM      1  C   UNL A   1      39.874  21.665  26.268  1.00  0.00     0.188 C 
ENDROOT
BRANCH   1   2
ATOM      2  O   UNL A   1      38.454  21.481  26.096  1.00  0.00    -0.376 OA
BRANCH   2   3
ATOM      3  C   UNL A   1      37.767  21.935  24.943  1.00  0.00     0.202 C 
BRANCH   3   4
ATOM      4  C   UNL A   1      36.496  22.876  25.233  1.00  0.00     0.261 C 
BRANCH   4   5
ATOM      5  O   UNL A   1      35.138  23.023  24.406  1.00  0.00    -0.462 OA
BRANCH   5   6
ATOM      6  C   UNL A   1      34.024  23.015  23.638  1.00  0.00     0.328 C 
ATOM      7  O   UNL A   1      33.899  23.933  22.819  1.00  0.00    -0.250 OA
BRANCH   6   8
ATOM      8  C   UNL A   1      32.812  21.964  23.727  1.00  0.00     0.192 C 
BRANCH   8   9
ATOM      9  N   UNL A   1      32.669  20.832  24.680  1.00  0.00    -0.345 N 
ATOM     10  O   UNL A   1      32.218  18.671  25.119  1.00  0.00    -0.279 OA
ATOM     11  C   UNL A   1      32.905  19.502  24.536  1.00  0.00     0.337 C 
ATOM     12  H   UNL A   1      32.347  21.092  25.574  1.00  0.00     0.164 HD
ENDBRANCH   8   9
BRANCH   8  13
ATOM     13  C   UNL A   1      31.585  22.785  23.950  1.00  0.00     0.048 C 
BRANCH  13  14
ATOM     14  C   UNL A   1      31.522  23.116  25.436  1.00  0.00     0.072 C 
BRANCH  14  15
ATOM     15  S   UNL A   1      30.387  24.512  26.091  1.00  0.00    -0.158 SA
BRANCH  15  16
ATOM     16  C   UNL A   1      30.170  26.316  24.941  1.00  0.00     0.052 C 
ATOM     17  C   UNL A   1      29.234  26.849  23.767  1.00  0.00     0.043 C 
ATOM     18  C   UNL A   1      31.120  27.430  25.434  1.00  0.00     0.052 C 
ATOM     19  C   UNL A   1      29.766  27.972  22.897  1.00  0.00     0.162 C 
ATOM     20  C   UNL A   1      31.563  28.429  24.355  1.00  0.00     0.095 C 
ATOM     21  O   UNL A   1      30.408  28.951  23.705  1.00  0.00    -0.372 OA
ATOM     22  C   UNL A   1      32.577  27.962  23.323  1.00  0.00     0.066 C 
ATOM     23  C   UNL A   1      32.353  29.541  25.039  1.00  0.00     0.195 C 
ATOM     24  C   UNL A   1      33.924  28.253  23.933  1.00  0.00     0.163 C 
ATOM     25  O   UNL A   1      33.714  29.088  25.074  1.00  0.00    -0.378 OA
ENDBRANCH  15  16
ENDBRANCH  14  15
ENDBRANCH  13  14
ENDBRANCH   8  13
ENDBRANCH   6   8
ENDBRANCH   5   6
ENDBRANCH   4   5
ENDBRANCH   3   4
ENDBRANCH   2   3
ENDBRANCH   1   2
BRANCH   1  26
ATOM     26  C   UNL A   1      40.427  22.959  26.902  1.00  0.00     0.188 C 
BRANCH  26  27
ATOM     27  O   UNL A   1      41.798  23.231  26.674  1.00  0.00    -0.376 OA
BRANCH  27  28
ATOM     28  C   UNL A   1      42.044  24.205  25.672  1.00  0.00     0.202 C 
BRANCH  28  29
ATOM     29  C   UNL A   1      41.032  25.362  25.566  1.00  0.00     0.261 C 
BRANCH  29  30
ATOM     30  O   UNL A   1      41.613  26.672  25.365  1.00  0.00    -0.460 OA
BRANCH  30  31
ATOM     31  C   UNL A   1      42.875  26.834  25.862  1.00  0.00     0.338 C 
ATOM     32  O   UNL A   1      43.918  26.756  25.229  1.00  0.00    -0.246 OA
BRANCH  31  33
ATOM     33  C   UNL A   1      42.852  27.269  27.279  1.00  0.00     0.060 A 
ATOM     34  C   UNL A   1      42.287  26.420  28.248  1.00  0.00     0.016 A 
ATOM     35  C   UNL A   1      43.246  28.558  27.632  1.00  0.00     0.016 A 
ATOM     36  C   UNL A   1      42.071  26.878  29.556  1.00  0.00     0.010 A 
ATOM     37  C   UNL A   1      43.015  29.017  28.936  1.00  0.00     0.010 A 
ATOM     38  C   UNL A   1      42.394  28.196  29.897  1.00  0.00    -0.014 A 
BRANCH  38  39
ATOM     39  C   UNL A   1      41.910  28.827  31.158  1.00  0.00     0.031 A 
ATOM     40  C   UNL A   1      40.669  29.680  31.091  1.00  0.00     0.074 A 
ATOM     41  C   UNL A   1      42.582  28.727  32.319  1.00  0.00     0.049 A 
ATOM     42  N   UNL A   1      40.206  30.548  31.953  1.00  0.00    -0.248 NA
ATOM     43  C   UNL A   1      39.849  29.538  29.876  1.00  0.00     0.031 C 
ATOM     44  C   UNL A   1      43.741  27.871  32.563  1.00  0.00     0.029 A 
ATOM     45  N   UNL A   1      42.396  29.390  33.511  1.00  0.00    -0.354 N 
ATOM     46  C   UNL A   1      39.064  31.085  31.370  1.00  0.00     0.074 A 
ATOM     47  C   UNL A   1      38.906  30.445  30.082  1.00  0.00     0.031 C 
ATOM     48  C   UNL A   1      44.186  28.089  33.814  1.00  0.00     0.029 A 
ATOM     49  C   UNL A   1      43.381  29.140  34.439  1.00  0.00     0.049 A 
ATOM     50  H   UNL A   1      41.632  29.986  33.682  1.00  0.00     0.167 HD
ATOM     51  C   UNL A   1      38.231  32.037  31.854  1.00  0.00     0.031 A 
ATOM     52  C   UNL A   1      43.637  29.727  35.627  1.00  0.00     0.031 A 
ATOM     53  C   UNL A   1      38.394  32.678  33.132  1.00  0.00     0.049 A 
ATOM     54  C   UNL A   1      42.755  30.856  36.110  1.00  0.00     0.074 A 
ATOM     55  C   UNL A   1      37.604  33.657  33.710  1.00  0.00     0.029 A 
ATOM     56  N   UNL A   1      39.414  32.406  34.028  1.00  0.00    -0.354 N 
ATOM     57  N   UNL A   1      41.697  31.380  35.539  1.00  0.00    -0.248 NA
ATOM     58  C   UNL A   1      43.112  31.480  37.395  1.00  0.00     0.031 C 
ATOM     59  C   UNL A   1      38.179  34.016  34.932  1.00  0.00     0.029 A 
ATOM     60  C   UNL A   1      39.289  33.214  35.145  1.00  0.00     0.049 A 
ATOM     61  H   UNL A   1      40.122  31.736  33.892  1.00  0.00     0.167 HD
ATOM     62  C   UNL A   1      41.242  32.367  36.411  1.00  0.00     0.074 A 
ATOM     63  C   UNL A   1      42.138  32.368  37.547  1.00  0.00     0.031 C 
ATOM     64  C   UNL A   1      40.175  33.194  36.282  1.00  0.00     0.031 A 
BRANCH  51  65
ATOM     65  C   UNL A   1      37.097  32.484  30.970  1.00  0.00    -0.014 A 
ATOM     66  C   UNL A   1      35.796  31.977  31.128  1.00  0.00     0.010 A 
ATOM     67  C   UNL A   1      37.337  33.458  29.981  1.00  0.00     0.010 A 
ATOM     68  C   UNL A   1      34.765  32.402  30.287  1.00  0.00     0.020 A 
ATOM     69  C   UNL A   1      36.302  33.907  29.157  1.00  0.00     0.020 A 
ATOM     70  C   UNL A   1      35.025  33.361  29.303  1.00  0.00     0.054 A 
BRANCH  70  71
ATOM     71  S   UNL A   1      33.666  33.907  28.234  1.00  0.00     0.124 S 
ATOM     72  O   UNL A   1      34.362  34.760  27.273  1.00  0.00    -0.237 OA
ATOM     73  O   UNL A   1      33.152  32.648  27.699  1.00  0.00    -0.237 OA
ATOM     74  O   UNL A   1      32.764  34.606  29.146  1.00  0.00    -0.744 OA
ENDBRANCH  70  71
ENDBRANCH  51  65
BRANCH  52  75
ATOM     75  C   UNL A   1      44.815  29.300  36.435  1.00  0.00    -0.014 A 
ATOM     76  C   UNL A   1      46.058  29.941  36.286  1.00  0.00     0.010 A 
ATOM     77  C   UNL A   1      44.704  28.235  37.350  1.00  0.00     0.010 A 
ATOM     78  C   UNL A   1      47.168  29.518  37.025  1.00  0.00     0.020 A 
ATOM     79  C   UNL A   1      45.806  27.829  38.111  1.00  0.00     0.020 A 
ATOM     80  C   UNL A   1      47.033  28.468  37.937  1.00  0.00     0.054 A 
BRANCH  80  81
ATOM     81  S   UNL A   1      48.474  27.975  38.924  1.00  0.00     0.124 S 
ATOM     82  O   UNL A   1      47.874  27.091  39.920  1.00  0.00    -0.237 OA
ATOM     83  O   UNL A   1      49.328  27.324  37.934  1.00  0.00    -0.237 OA
ATOM     84  O   UNL A   1      48.986  29.243  39.440  1.00  0.00    -0.744 OA
ENDBRANCH  80  81
ENDBRANCH  52  75
BRANCH  64  85
ATOM     85  C   UNL A   1      39.863  34.138  37.415  1.00  0.00    -0.014 A 
ATOM     86  C   UNL A   1      39.016  33.762  38.473  1.00  0.00     0.010 A 
ATOM     87  C   UNL A   1      40.515  35.384  37.471  1.00  0.00     0.010 A 
ATOM     88  C   UNL A   1      38.821  34.620  39.561  1.00  0.00     0.020 A 
ATOM     89  C   UNL A   1      40.342  36.233  38.568  1.00  0.00     0.020 A 
ATOM     90  C   UNL A   1      39.490  35.847  39.604  1.00  0.00     0.054 A 
BRANCH  90  91
ATOM     91  S   UNL A   1      39.285  36.905  41.065  1.00  0.00     0.124 S 
ATOM     92  O   UNL A   1      38.523  36.041  41.962  1.00  0.00    -0.237 OA
ATOM     93  O   UNL A   1      40.664  37.168  41.468  1.00  0.00    -0.237 OA
ATOM     94  O   UNL A   1      38.560  38.067  40.555  1.00  0.00    -0.744 OA
ENDBRANCH  90  91
ENDBRANCH  64  85
ENDBRANCH  38  39
ENDBRANCH  31  33
ENDBRANCH  30  31
ENDBRANCH  29  30
ENDBRANCH  28  29
ENDBRANCH  27  28
ENDBRANCH  26  27
ENDBRANCH   1  26
TORSDOF 25
ENDMDL
MODEL 3
REMARK VINA RESULT:      -8.4      5.457     10.237
REMARK SMILES O=CN[C@@H](CCS[C@H]1CCO[C@]2(CCOC2)C1)C(=O)OCCOCCOCCOC(=O)c1ccc(-c2c3nc(c(-c4ccc(S(=O)(=O)[O-])cc4)c4ccc([nH]4)c(-c4ccc(S(=O)(=O)[O-])cc4)c4nc(c(-c5ccc(S(=O)(=O)[O-])cc5)c5ccc2[nH]5)C=C4)C=C3)cc1
REMARK SMILES IDX 24 1 23 2 22 3 21 4 20 5 18 6 19 7 4 8 3 9 1 10 2 11 5 13
REMARK SMILES IDX 6 14 7 15 8 16 9 17 17 18 10 19 12 20 11 21 13 22 16 23
REMARK SMILES IDX 14 24 15 25 25 26 26 27 27 28 28 29 29 30 30 31 31 32 32 33
REMARK SMILES IDX 33 34 91 35 34 36 90 37 35 38 36 39 37 40 84 41 38 42 89 43
REMARK SMILES IDX 83 44 85 45 39 46 88 47 82 48 81 49 40 51 70 52 51 53 69 54
REMARK SMILES IDX 52 55 55 56 68 57 86 58 53 59 54 60 67 62 87 63 56 64 41 65
REMARK SMILES IDX 42 66 50 67 43 68 49 69 44 70 45 71 46 72 47 73 48 74 71 75
REMARK SMILES IDX 72 76 80 77 73 78 79 79 74 80 75 81 76 82 77 83 78 84 57 85
REMARK SMILES IDX 58 86 66 87 59 88 65 89 60 90 61 91 62 92 63 93 64 94
REMARK H PARENT 3 12 85 50 55 61
REMARK Flexibility Score: inf
ROOT
ATOM      1  C   UNL A   1      35.659  22.486  25.943  1.00  0.00     0.188 C 
ENDROOT
BRANCH   1   2
ATOM      2  O   UNL A   1      35.335  22.371  27.344  1.00  0.00    -0.376 OA
BRANCH   2   3
ATOM      3  C   UNL A   1      34.085  22.783  27.868  1.00  0.00     0.202 C 
BRANCH   3   4
ATOM      4  C   UNL A   1      32.800  22.110  27.174  1.00  0.00     0.261 C 
BRANCH   4   5
ATOM      5  O   UNL A   1      32.708  20.789  26.282  1.00  0.00    -0.462 OA
BRANCH   5   6
ATOM      6  C   UNL A   1      32.779  19.650  25.555  1.00  0.00     0.328 C 
ATOM      7  O   UNL A   1      32.428  18.604  26.112  1.00  0.00    -0.250 OA
BRANCH   6   8
ATOM      8  C   UNL A   1      33.339  19.511  24.055  1.00  0.00     0.192 C 
BRANCH   8   9
ATOM      9  N   UNL A   1      33.645  18.255  23.320  1.00  0.00    -0.345 N 
ATOM     10  O   UNL A   1      33.770  16.010  23.224  1.00  0.00    -0.279 OA
ATOM     11  C   UNL A   1      33.091  17.016  23.391  1.00  0.00     0.337 C 
ATOM     12  H   UNL A   1      34.377  18.335  22.668  1.00  0.00     0.164 HD
ENDBRANCH   8   9
BRANCH   8  13
ATOM     13  C   UNL A   1      32.341  20.206  23.189  1.00  0.00     0.048 C 
BRANCH  13  14
ATOM     14  C   UNL A   1      32.746  21.672  23.114  1.00  0.00     0.072 C 
BRANCH  14  15
ATOM     15  S   UNL A   1      31.459  23.068  23.369  1.00  0.00    -0.158 SA
BRANCH  15  16
ATOM     16  C   UNL A   1      32.017  25.100  22.945  1.00  0.00     0.052 C 
ATOM     17  C   UNL A   1      32.774  25.887  21.785  1.00  0.00     0.043 C 
ATOM     18  C   UNL A   1      31.469  26.081  24.006  1.00  0.00     0.052 C 
ATOM     19  C   UNL A   1      33.413  27.217  22.138  1.00  0.00     0.162 C 
ATOM     20  C   UNL A   1      32.317  27.343  24.222  1.00  0.00     0.095 C 
ATOM     21  O   UNL A   1      32.537  27.974  22.964  1.00  0.00    -0.372 OA
ATOM     22  C   UNL A   1      33.631  27.199  24.972  1.00  0.00     0.066 C 
ATOM     23  C   UNL A   1      31.555  28.265  25.169  1.00  0.00     0.195 C 
ATOM     24  C   UNL A   1      33.278  27.370  26.427  1.00  0.00     0.163 C 
ATOM     25  O   UNL A   1      31.940  27.868  26.494  1.00  0.00    -0.378 OA
ENDBRANCH  15  16
ENDBRANCH  14  15
ENDBRANCH  13  14
ENDBRANCH   8  13
ENDBRANCH   6   8
ENDBRANCH   5   6
ENDBRANCH   4   5
ENDBRANCH   3   4
ENDBRANCH   2   3
ENDBRANCH   1   2
BRANCH   1  26
ATOM     26  C   UNL A   1      36.657  23.557  25.453  1.00  0.00     0.188 C 
BRANCH  26  27
ATOM     27  O   UNL A   1      38.010  23.153  25.353  1.00  0.00    -0.376 OA
BRANCH  27  28
ATOM     28  C   UNL A   1      38.241  21.790  25.672  1.00  0.00     0.202 C 
BRANCH  28  29
ATOM     29  C   UNL A   1      39.525  21.471  26.463  1.00  0.00     0.261 C 
BRANCH  29  30
ATOM     30  O   UNL A   1      40.384  20.472  25.866  1.00  0.00    -0.460 OA
BRANCH  30  31
ATOM     31  C   UNL A   1      41.567  20.256  26.513  1.00  0.00     0.338 C 
ATOM     32  O   UNL A   1      41.994  19.179  26.902  1.00  0.00    -0.246 OA
BRANCH  31  33
ATOM     33  C   UNL A   1      42.384  21.492  26.582  1.00  0.00     0.060 A 
ATOM     34  C   UNL A   1      42.827  21.953  27.835  1.00  0.00     0.016 A 
ATOM     35  C   UNL A   1      42.589  22.270  25.445  1.00  0.00     0.016 A 
ATOM     36  C   UNL A   1      43.430  23.214  27.957  1.00  0.00     0.010 A 
ATOM     37  C   UNL A   1      43.178  23.536  25.572  1.00  0.00     0.010 A 
ATOM     38  C   UNL A   1      43.569  24.033  26.830  1.00  0.00    -0.014 A 
BRANCH  38  39
ATOM     39  C   UNL A   1      43.908  25.480  26.943  1.00  0.00     0.031 A 
ATOM     40  C   UNL A   1      45.312  25.906  26.598  1.00  0.00     0.074 A 
ATOM     41  C   UNL A   1      43.037  26.391  27.415  1.00  0.00     0.049 A 
ATOM     42  N   UNL A   1      45.936  27.023  26.871  1.00  0.00    -0.248 NA
ATOM     43  C   UNL A   1      46.123  24.929  25.852  1.00  0.00     0.031 C 
ATOM     44  C   UNL A   1      41.626  26.151  27.703  1.00  0.00     0.029 A 
ATOM     45  N   UNL A   1      43.236  27.707  27.767  1.00  0.00    -0.354 N 
ATOM     46  C   UNL A   1      47.223  26.869  26.368  1.00  0.00     0.074 A 
ATOM     47  C   UNL A   1      47.289  25.551  25.773  1.00  0.00     0.031 C 
ATOM     48  C   UNL A   1      41.093  27.272  28.225  1.00  0.00     0.029 A 
ATOM     49  C   UNL A   1      42.138  28.288  28.361  1.00  0.00     0.049 A 
ATOM     50  H   UNL A   1      44.081  28.186  27.610  1.00  0.00     0.167 HD
ATOM     51  C   UNL A   1      48.261  27.737  26.411  1.00  0.00     0.031 A 
ATOM     52  C   UNL A   1      42.005  29.476  28.988  1.00  0.00     0.031 A 
ATOM     53  C   UNL A   1      48.196  29.044  27.009  1.00  0.00     0.049 A 
ATOM     54  C   UNL A   1      43.200  30.393  29.114  1.00  0.00     0.074 A 
ATOM     55  C   UNL A   1      49.196  29.996  27.106  1.00  0.00     0.029 A 
ATOM     56  N   UNL A   1      47.071  29.582  27.613  1.00  0.00    -0.354 N 
ATOM     57  N   UNL A   1      44.421  30.227  28.664  1.00  0.00    -0.248 NA
ATOM     58  C   UNL A   1      42.999  31.655  29.844  1.00  0.00     0.031 C 
ATOM     59  C   UNL A   1      48.691  31.088  27.818  1.00  0.00     0.029 A 
ATOM     60  C   UNL A   1      47.358  30.844  28.106  1.00  0.00     0.049 A 
ATOM     61  H   UNL A   1      46.197  29.134  27.680  1.00  0.00     0.167 HD
ATOM     62  C   UNL A   1      45.120  31.377  29.025  1.00  0.00     0.074 A 
ATOM     63  C   UNL A   1      44.189  32.231  29.729  1.00  0.00     0.031 C 
ATOM     64  C   UNL A   1      46.417  31.696  28.788  1.00  0.00     0.031 A 
BRANCH  51  65
ATOM     65  C   UNL A   1      49.578  27.277  25.842  1.00  0.00    -0.014 A 
ATOM     66  C   UNL A   1      50.236  26.140  26.340  1.00  0.00     0.010 A 
ATOM     67  C   UNL A   1      50.148  27.983  24.765  1.00  0.00     0.010 A 
ATOM     68  C   UNL A   1      51.462  25.742  25.801  1.00  0.00     0.020 A 
ATOM     69  C   UNL A   1      51.359  27.570  24.204  1.00  0.00     0.020 A 
ATOM     70  C   UNL A   1      52.018  26.462  24.739  1.00  0.00     0.054 A 
BRANCH  70  71
ATOM     71  S   UNL A   1      53.603  25.915  24.047  1.00  0.00     0.124 S 
ATOM     72  O   UNL A   1      54.506  26.975  24.487  1.00  0.00    -0.237 OA
ATOM     73  O   UNL A   1      53.802  24.616  24.687  1.00  0.00    -0.237 OA
ATOM     74  O   UNL A   1      53.357  25.866  22.608  1.00  0.00    -0.744 OA
ENDBRANCH  70  71
ENDBRANCH  51  65
BRANCH  52  75
ATOM     75  C   UNL A   1      40.700  29.857  29.600  1.00  0.00    -0.014 A 
ATOM     76  C   UNL A   1      40.498  29.741  30.987  1.00  0.00     0.010 A 
ATOM     77  C   UNL A   1      39.645  30.325  28.795  1.00  0.00     0.010 A 
ATOM     78  C   UNL A   1      39.262  30.073  31.554  1.00  0.00     0.020 A 
ATOM     79  C   UNL A   1      38.418  30.685  29.363  1.00  0.00     0.020 A 
ATOM     80  C   UNL A   1      38.232  30.548  30.739  1.00  0.00     0.054 A 
BRANCH  80  81
ATOM     81  S   UNL A   1      36.657  31.025  31.505  1.00  0.00     0.124 S 
ATOM     82  O   UNL A   1      37.028  32.231  32.239  1.00  0.00    -0.237 OA
ATOM     83  O   UNL A   1      35.792  31.231  30.346  1.00  0.00    -0.237 OA
ATOM     84  O   UNL A   1      36.315  29.870  32.332  1.00  0.00    -0.744 OA
ENDBRANCH  80  81
ENDBRANCH  52  75
BRANCH  64  85
ATOM     85  C   UNL A   1      46.912  33.049  29.234  1.00  0.00    -0.014 A 
ATOM     86  C   UNL A   1      47.567  33.223  30.465  1.00  0.00     0.010 A 
ATOM     87  C   UNL A   1      46.809  34.142  28.353  1.00  0.00     0.010 A 
ATOM     88  C   UNL A   1      48.104  34.468  30.810  1.00  0.00     0.020 A 
ATOM     89  C   UNL A   1      47.365  35.381  28.684  1.00  0.00     0.020 A 
ATOM     90  C   UNL A   1      48.004  35.537  29.915  1.00  0.00     0.054 A 
BRANCH  90  91
ATOM     91  S   UNL A   1      48.780  37.119  30.351  1.00  0.00     0.124 S 
ATOM     92  O   UNL A   1      49.754  37.289  29.276  1.00  0.00    -0.237 OA
ATOM     93  O   UNL A   1      47.652  38.047  30.329  1.00  0.00    -0.237 OA
ATOM     94  O   UNL A   1      49.350  36.875  31.674  1.00  0.00    -0.744 OA
ENDBRANCH  90  91
ENDBRANCH  64  85
ENDBRANCH  38  39
ENDBRANCH  31  33
ENDBRANCH  30  31
ENDBRANCH  29  30
ENDBRANCH  28  29
ENDBRANCH  27  28
ENDBRANCH  26  27
ENDBRANCH   1  26
TORSDOF 25
ENDMDL
