MODEL 1
REMARK VINA RESULT:      -9.9      0.000      0.000
REMARK SMILES Cc1onc(-c2cccc(Br)c2)c1C(=O)OCCOCCOCCOC(=O)c1ccc(-c2c3nc(c(-c4ccc(S(=O)(=O)[O-])cc4)c4ccc([nH]4)c(-c4ccc(S(=O)(=O)[O-])cc4)c4nc(c(-c5ccc(S(=O)(=O)[O-])cc5)c5ccc2[nH]5)C=C4)C=C3)cc1
REMARK SMILES IDX 21 1 20 2 19 3 18 4 17 5 16 6 14 7 15 8 13 9 1 10 2 11 3 12
REMARK SMILES IDX 4 13 5 14 6 15 7 16 12 17 8 18 10 19 9 20 11 21 22 22 23 23
REMARK SMILES IDX 24 24 25 25 26 26 27 27 28 28 29 29 87 30 30 31 86 32 31 33
REMARK SMILES IDX 32 34 33 35 80 36 34 37 85 38 79 39 81 40 35 41 84 42 78 43
REMARK SMILES IDX 77 44 36 46 66 47 47 48 65 49 48 50 51 51 64 52 82 53 49 54
REMARK SMILES IDX 50 55 63 57 83 58 52 59 37 60 38 61 46 62 39 63 45 64 40 65
REMARK SMILES IDX 41 66 42 67 43 68 44 69 67 70 68 71 76 72 69 73 75 74 70 75
REMARK SMILES IDX 71 76 72 77 73 78 74 79 53 80 54 81 62 82 55 83 61 84 56 85
REMARK SMILES IDX 57 86 58 87 59 88 60 89
REMARK H PARENT 81 45 51 56
REMARK Flexibility Score: inf
ROOT
ATOM      1  C   UNL A   1      40.297  21.470  26.783  1.00  0.00     0.188 C 
ENDROOT
BRANCH   1   2
ATOM      2  C   UNL A   1      39.053  21.790  25.939  1.00  0.00     0.188 C 
BRANCH   2   3
ATOM      3  O   UNL A   1      38.449  23.033  26.294  1.00  0.00    -0.376 OA
BRANCH   3   4
ATOM      4  C   UNL A   1      37.516  23.540  25.346  1.00  0.00     0.202 C 
BRANCH   4   5
ATOM      5  C   UNL A   1      36.922  22.401  24.516  1.00  0.00     0.261 C 
BRANCH   5   6
ATOM      6  O   UNL A   1      35.605  22.005  24.937  1.00  0.00    -0.459 OA
BRANCH   6   7
ATOM      7  C   UNL A   1      34.563  22.490  24.209  1.00  0.00     0.344 C 
ATOM      8  O   UNL A   1      34.697  23.016  23.112  1.00  0.00    -0.246 OA
BRANCH   7   9
ATOM      9  C   UNL A   1      33.281  22.253  24.837  1.00  0.00     0.130 A 
ATOM     10  C   UNL A   1      32.816  24.367  26.354  1.00  0.00     0.092 C 
ATOM     11  C   UNL A   1      32.585  23.057  25.715  1.00  0.00     0.148 A 
ATOM     12  O   UNL A   1      31.409  22.454  26.038  1.00  0.00    -0.360 OA
ATOM     13  N   UNL A   1      31.335  21.216  25.431  1.00  0.00    -0.079 NA
ATOM     14  C   UNL A   1      32.475  21.078  24.745  1.00  0.00     0.128 A 
BRANCH  14  15
ATOM     15  C   UNL A   1      32.856  19.823  24.126  1.00  0.00     0.006 A 
ATOM     16  C   UNL A   1      32.313  19.518  22.873  1.00  0.00     0.010 A 
ATOM     17  C   UNL A   1      33.643  18.882  24.791  1.00  0.00     0.026 A 
ATOM     18  C   UNL A   1      32.434  18.239  22.349  1.00  0.00     0.002 A 
ATOM     19  C   UNL A   1      33.813  17.619  24.226  1.00  0.00     0.018 A 
ATOM     20  C   UNL A   1      33.185  17.283  23.027  1.00  0.00     0.016 A 
ATOM     21  Br  UNL A   1      34.869  16.325  25.110  1.00  0.00    -0.051 Br
ENDBRANCH  14  15
ENDBRANCH   7   9
ENDBRANCH   6   7
ENDBRANCH   5   6
ENDBRANCH   4   5
ENDBRANCH   3   4
ENDBRANCH   2   3
ENDBRANCH   1   2
BRANCH   1  22
ATOM     22  O   UNL A   1      41.539  21.198  26.138  1.00  0.00    -0.376 OA
BRANCH  22  23
ATOM     23  C   UNL A   1      42.584  22.152  26.241  1.00  0.00     0.202 C 
BRANCH  23  24
ATOM     24  C   UNL A   1      42.390  23.462  25.472  1.00  0.00     0.261 C 
BRANCH  24  25
ATOM     25  O   UNL A   1      42.803  24.629  26.200  1.00  0.00    -0.460 OA
BRANCH  25  26
ATOM     26  C   UNL A   1      41.893  25.633  26.225  1.00  0.00     0.338 C 
ATOM     27  O   UNL A   1      41.076  25.902  25.359  1.00  0.00    -0.246 OA
BRANCH  26  28
ATOM     28  C   UNL A   1      41.927  26.325  27.532  1.00  0.00     0.060 A 
ATOM     29  C   UNL A   1      40.838  26.147  28.395  1.00  0.00     0.016 A 
ATOM     30  C   UNL A   1      42.965  27.196  27.881  1.00  0.00     0.016 A 
ATOM     31  C   UNL A   1      40.763  26.871  29.584  1.00  0.00     0.010 A 
ATOM     32  C   UNL A   1      42.875  27.940  29.066  1.00  0.00     0.010 A 
ATOM     33  C   UNL A   1      41.758  27.804  29.907  1.00  0.00    -0.014 A 
BRANCH  33  34
ATOM     34  C   UNL A   1      41.538  28.737  31.042  1.00  0.00     0.031 A 
ATOM     35  C   UNL A   1      40.366  29.672  31.000  1.00  0.00     0.074 A 
ATOM     36  C   UNL A   1      42.350  28.736  32.115  1.00  0.00     0.049 A 
ATOM     37  N   UNL A   1      39.965  30.528  31.903  1.00  0.00    -0.248 NA
ATOM     38  C   UNL A   1      39.555  29.657  29.773  1.00  0.00     0.031 C 
ATOM     39  C   UNL A   1      43.537  27.908  32.253  1.00  0.00     0.029 A 
ATOM     40  N   UNL A   1      42.292  29.435  33.294  1.00  0.00    -0.354 N 
ATOM     41  C   UNL A   1      38.870  31.173  31.347  1.00  0.00     0.074 A 
ATOM     42  C   UNL A   1      38.667  30.606  30.031  1.00  0.00     0.031 C 
ATOM     43  C   UNL A   1      44.059  28.082  33.479  1.00  0.00     0.029 A 
ATOM     44  C   UNL A   1      43.270  29.078  34.194  1.00  0.00     0.049 A 
ATOM     45  H   UNL A   1      41.615  30.126  33.480  1.00  0.00     0.167 HD
ATOM     46  C   UNL A   1      38.117  32.167  31.876  1.00  0.00     0.031 A 
ATOM     47  C   UNL A   1      43.513  29.509  35.449  1.00  0.00     0.031 A 
ATOM     48  C   UNL A   1      38.343  32.758  33.167  1.00  0.00     0.049 A 
ATOM     49  C   UNL A   1      42.647  30.597  36.023  1.00  0.00     0.074 A 
ATOM     50  C   UNL A   1      37.647  33.786  33.776  1.00  0.00     0.029 A 
ATOM     51  N   UNL A   1      39.349  32.382  34.045  1.00  0.00    -0.354 N 
ATOM     52  N   UNL A   1      41.610  31.191  35.484  1.00  0.00    -0.248 NA
ATOM     53  C   UNL A   1      43.002  31.091  37.360  1.00  0.00     0.031 C 
ATOM     54  C   UNL A   1      38.257  34.062  35.005  1.00  0.00     0.029 A 
ATOM     55  C   UNL A   1      39.303  33.169  35.183  1.00  0.00     0.049 A 
ATOM     56  H   UNL A   1      40.000  31.661  33.883  1.00  0.00     0.167 HD
ATOM     57  C   UNL A   1      41.195  32.139  36.411  1.00  0.00     0.074 A 
ATOM     58  C   UNL A   1      42.069  32.013  37.559  1.00  0.00     0.031 C 
ATOM     59  C   UNL A   1      40.191  33.044  36.311  1.00  0.00     0.031 A 
BRANCH  46  60
ATOM     60  C   UNL A   1      37.015  32.714  31.015  1.00  0.00    -0.014 A 
ATOM     61  C   UNL A   1      37.269  33.698  30.043  1.00  0.00     0.010 A 
ATOM     62  C   UNL A   1      35.703  32.236  31.184  1.00  0.00     0.010 A 
ATOM     63  C   UNL A   1      36.222  34.224  29.283  1.00  0.00     0.020 A 
ATOM     64  C   UNL A   1      34.657  32.745  30.411  1.00  0.00     0.020 A 
ATOM     65  C   UNL A   1      34.921  33.750  29.479  1.00  0.00     0.054 A 
BRANCH  65  66
ATOM     66  S   UNL A   1      33.577  34.447  28.480  1.00  0.00     0.124 S 
ATOM     67  O   UNL A   1      34.242  35.575  27.831  1.00  0.00    -0.237 OA
ATOM     68  O   UNL A   1      33.220  33.338  27.600  1.00  0.00    -0.237 OA
ATOM     69  O   UNL A   1      32.563  34.806  29.468  1.00  0.00    -0.744 OA
ENDBRANCH  65  66
ENDBRANCH  46  60
BRANCH  47  70
ATOM     70  C   UNL A   1      44.632  28.928  36.241  1.00  0.00    -0.014 A 
ATOM     71  C   UNL A   1      44.419  27.804  37.059  1.00  0.00     0.010 A 
ATOM     72  C   UNL A   1      45.919  29.494  36.180  1.00  0.00     0.010 A 
ATOM     73  C   UNL A   1      45.468  27.265  37.811  1.00  0.00     0.020 A 
ATOM     74  C   UNL A   1      46.975  28.940  36.909  1.00  0.00     0.020 A 
ATOM     75  C   UNL A   1      46.740  27.837  37.732  1.00  0.00     0.054 A 
BRANCH  75  76
ATOM     76  S   UNL A   1      48.106  27.100  38.673  1.00  0.00     0.124 S 
ATOM     77  O   UNL A   1      47.430  26.650  39.886  1.00  0.00    -0.237 OA
ATOM     78  O   UNL A   1      48.581  26.043  37.783  1.00  0.00    -0.237 OA
ATOM     79  O   UNL A   1      49.032  28.217  38.849  1.00  0.00    -0.744 OA
ENDBRANCH  75  76
ENDBRANCH  47  70
BRANCH  59  80
ATOM     80  C   UNL A   1      39.987  33.976  37.473  1.00  0.00    -0.014 A 
ATOM     81  C   UNL A   1      40.518  35.278  37.456  1.00  0.00     0.010 A 
ATOM     82  C   UNL A   1      39.212  33.564  38.571  1.00  0.00     0.010 A 
ATOM     83  C   UNL A   1      40.301  36.143  38.531  1.00  0.00     0.020 A 
ATOM     84  C   UNL A   1      38.974  34.433  39.639  1.00  0.00     0.020 A 
ATOM     85  C   UNL A   1      39.531  35.714  39.618  1.00  0.00     0.054 A 
BRANCH  85  86
ATOM     86  S   UNL A   1      39.223  36.868  40.983  1.00  0.00     0.124 S 
ATOM     87  O   UNL A   1      40.576  37.287  41.337  1.00  0.00    -0.237 OA
ATOM     88  O   UNL A   1      38.392  37.894  40.358  1.00  0.00    -0.237 OA
ATOM     89  O   UNL A   1      38.542  36.048  41.982  1.00  0.00    -0.744 OA
ENDBRANCH  85  86
ENDBRANCH  59  80
ENDBRANCH  33  34
ENDBRANCH  26  28
ENDBRANCH  25  26
ENDBRANCH  24  25
ENDBRANCH  23  24
ENDBRANCH  22  23
ENDBRANCH   1  22
TORSDOF 21
ENDMDL
MODEL 2
REMARK VINA RESULT:      -9.7      2.199      8.810
REMARK SMILES Cc1onc(-c2cccc(Br)c2)c1C(=O)OCCOCCOCCOC(=O)c1ccc(-c2c3nc(c(-c4ccc(S(=O)(=O)[O-])cc4)c4ccc([nH]4)c(-c4ccc(S(=O)(=O)[O-])cc4)c4nc(c(-c5ccc(S(=O)(=O)[O-])cc5)c5ccc2[nH]5)C=C4)C=C3)cc1
REMARK SMILES IDX 21 1 20 2 19 3 18 4 17 5 16 6 14 7 15 8 13 9 1 10 2 11 3 12
REMARK SMILES IDX 4 13 5 14 6 15 7 16 12 17 8 18 10 19 9 20 11 21 22 22 23 23
REMARK SMILES IDX 24 24 25 25 26 26 27 27 28 28 29 29 87 30 30 31 86 32 31 33
REMARK SMILES IDX 32 34 33 35 80 36 34 37 85 38 79 39 81 40 35 41 84 42 78 43
REMARK SMILES IDX 77 44 36 46 66 47 47 48 65 49 48 50 51 51 64 52 82 53 49 54
REMARK SMILES IDX 50 55 63 57 83 58 52 59 37 60 38 61 46 62 39 63 45 64 40 65
REMARK SMILES IDX 41 66 42 67 43 68 44 69 67 70 68 71 76 72 69 73 75 74 70 75
REMARK SMILES IDX 71 76 72 77 73 78 74 79 53 80 54 81 62 82 55 83 61 84 56 85
REMARK SMILES IDX 57 86 58 87 59 88 60 89
REMARK H PARENT 81 45 51 56
REMARK Flexibility Score: inf
ROOT
ATOM      1  C   UNL A   1      37.317  21.104  24.612  1.00  0.00     0.188 C 
ENDROOT
BRANCH   1   2
ATOM      2  C   UNL A   1      35.997  21.742  25.073  1.00  0.00     0.188 C 
BRANCH   2   3
ATOM      3  O   UNL A   1      35.796  21.641  26.481  1.00  0.00    -0.376 OA
BRANCH   3   4
ATOM      4  C   UNL A   1      34.512  22.056  26.937  1.00  0.00     0.202 C 
BRANCH   4   5
ATOM      5  C   UNL A   1      34.131  23.400  26.314  1.00  0.00     0.261 C 
BRANCH   5   6
ATOM      6  O   UNL A   1      33.074  24.082  27.013  1.00  0.00    -0.459 OA
BRANCH   6   7
ATOM      7  C   UNL A   1      31.825  23.964  26.489  1.00  0.00     0.344 C 
ATOM      8  O   UNL A   1      30.817  23.843  27.173  1.00  0.00    -0.246 OA
BRANCH   7   9
ATOM      9  C   UNL A   1      31.809  24.070  25.045  1.00  0.00     0.130 A 
ATOM     10  C   UNL A   1      32.151  21.612  24.135  1.00  0.00     0.092 C 
ATOM     11  C   UNL A   1      31.940  23.072  24.102  1.00  0.00     0.148 A 
ATOM     12  O   UNL A   1      31.843  23.616  22.859  1.00  0.00    -0.360 OA
ATOM     13  N   UNL A   1      31.709  24.986  22.956  1.00  0.00    -0.079 NA
ATOM     14  C   UNL A   1      31.731  25.263  24.265  1.00  0.00     0.128 A 
BRANCH  14  15
ATOM     15  C   UNL A   1      31.808  26.622  24.766  1.00  0.00     0.006 A 
ATOM     16  C   UNL A   1      30.904  27.561  24.258  1.00  0.00     0.010 A 
ATOM     17  C   UNL A   1      32.820  27.030  25.637  1.00  0.00     0.026 A 
ATOM     18  C   UNL A   1      31.087  28.915  24.503  1.00  0.00     0.002 A 
ATOM     19  C   UNL A   1      32.958  28.386  25.928  1.00  0.00     0.018 A 
ATOM     20  C   UNL A   1      32.119  29.332  25.338  1.00  0.00     0.016 A 
ATOM     21  Br  UNL A   1      34.323  28.965  27.099  1.00  0.00    -0.051 Br
ENDBRANCH  14  15
ENDBRANCH   7   9
ENDBRANCH   6   7
ENDBRANCH   5   6
ENDBRANCH   4   5
ENDBRANCH   3   4
ENDBRANCH   2   3
ENDBRANCH   1   2
BRANCH   1  22
ATOM     22  O   UNL A   1      38.429  21.056  25.503  1.00  0.00    -0.376 OA
BRANCH  22  23
ATOM     23  C   UNL A   1      38.889  22.265  26.085  1.00  0.00     0.202 C 
BRANCH  23  24
ATOM     24  C   UNL A   1      40.378  22.329  26.439  1.00  0.00     0.261 C 
BRANCH  24  25
ATOM     25  O   UNL A   1      40.696  23.312  27.436  1.00  0.00    -0.460 OA
BRANCH  25  26
ATOM     26  C   UNL A   1      41.213  24.467  26.949  1.00  0.00     0.338 C 
ATOM     27  O   UNL A   1      41.828  24.611  25.904  1.00  0.00    -0.246 OA
BRANCH  26  28
ATOM     28  C   UNL A   1      40.828  25.606  27.811  1.00  0.00     0.060 A 
ATOM     29  C   UNL A   1      41.687  26.711  27.858  1.00  0.00     0.016 A 
ATOM     30  C   UNL A   1      39.689  25.567  28.622  1.00  0.00     0.016 A 
ATOM     31  C   UNL A   1      41.434  27.756  28.746  1.00  0.00     0.010 A 
ATOM     32  C   UNL A   1      39.450  26.607  29.530  1.00  0.00     0.010 A 
ATOM     33  C   UNL A   1      40.339  27.691  29.619  1.00  0.00    -0.014 A 
BRANCH  33  34
ATOM     34  C   UNL A   1      40.227  28.685  30.718  1.00  0.00     0.031 A 
ATOM     35  C   UNL A   1      41.213  28.635  31.848  1.00  0.00     0.074 A 
ATOM     36  C   UNL A   1      39.282  29.641  30.703  1.00  0.00     0.049 A 
ATOM     37  N   UNL A   1      41.324  29.433  32.877  1.00  0.00    -0.248 NA
ATOM     38  C   UNL A   1      42.183  27.530  31.827  1.00  0.00     0.031 C 
ATOM     39  C   UNL A   1      38.249  29.766  29.687  1.00  0.00     0.029 A 
ATOM     40  N   UNL A   1      39.046  30.694  31.550  1.00  0.00    -0.354 N 
ATOM     41  C   UNL A   1      42.359  28.916  33.642  1.00  0.00     0.074 A 
ATOM     42  C   UNL A   1      42.847  27.738  32.955  1.00  0.00     0.031 C 
ATOM     43  C   UNL A   1      37.533  30.879  29.918  1.00  0.00     0.029 A 
ATOM     44  C   UNL A   1      38.024  31.518  31.133  1.00  0.00     0.049 A 
ATOM     45  H   UNL A   1      39.558  30.848  32.377  1.00  0.00     0.167 HD
ATOM     46  C   UNL A   1      42.845  29.367  34.823  1.00  0.00     0.031 A 
ATOM     47  C   UNL A   1      37.532  32.652  31.671  1.00  0.00     0.031 A 
ATOM     48  C   UNL A   1      42.335  30.514  35.525  1.00  0.00     0.049 A 
ATOM     49  C   UNL A   1      38.103  33.146  32.972  1.00  0.00     0.074 A 
ATOM     50  C   UNL A   1      42.747  31.031  36.739  1.00  0.00     0.029 A 
ATOM     51  N   UNL A   1      41.293  31.315  35.082  1.00  0.00    -0.354 N 
ATOM     52  N   UNL A   1      39.089  32.646  33.678  1.00  0.00    -0.248 NA
ATOM     53  C   UNL A   1      37.478  34.338  33.561  1.00  0.00     0.031 C 
ATOM     54  C   UNL A   1      41.926  32.122  37.052  1.00  0.00     0.029 A 
ATOM     55  C   UNL A   1      41.036  32.313  36.006  1.00  0.00     0.049 A 
ATOM     56  H   UNL A   1      40.807  31.192  34.234  1.00  0.00     0.167 HD
ATOM     57  C   UNL A   1      39.195  33.456  34.802  1.00  0.00     0.074 A 
ATOM     58  C   UNL A   1      38.198  34.499  34.664  1.00  0.00     0.031 C 
ATOM     59  C   UNL A   1      40.030  33.334  35.863  1.00  0.00     0.031 A 
BRANCH  46  60
ATOM     60  C   UNL A   1      43.948  28.567  35.453  1.00  0.00    -0.014 A 
ATOM     61  C   UNL A   1      45.299  28.861  35.200  1.00  0.00     0.010 A 
ATOM     62  C   UNL A   1      43.624  27.500  36.311  1.00  0.00     0.010 A 
ATOM     63  C   UNL A   1      46.308  28.076  35.763  1.00  0.00     0.020 A 
ATOM     64  C   UNL A   1      44.631  26.726  36.893  1.00  0.00     0.020 A 
ATOM     65  C   UNL A   1      45.967  27.008  36.599  1.00  0.00     0.054 A 
BRANCH  65  66
ATOM     66  S   UNL A   1      47.293  26.003  37.319  1.00  0.00     0.124 S 
ATOM     67  O   UNL A   1      47.718  26.832  38.445  1.00  0.00    -0.237 OA
ATOM     68  O   UNL A   1      46.604  24.766  37.676  1.00  0.00    -0.237 OA
ATOM     69  O   UNL A   1      48.263  25.881  36.234  1.00  0.00    -0.744 OA
ENDBRANCH  65  66
ENDBRANCH  46  60
BRANCH  47  70
ATOM     70  C   UNL A   1      36.428  33.387  30.996  1.00  0.00    -0.014 A 
ATOM     71  C   UNL A   1      35.211  33.619  31.664  1.00  0.00     0.010 A 
ATOM     72  C   UNL A   1      36.586  33.865  29.682  1.00  0.00     0.010 A 
ATOM     73  C   UNL A   1      34.170  34.301  31.026  1.00  0.00     0.020 A 
ATOM     74  C   UNL A   1      35.557  34.571  29.052  1.00  0.00     0.020 A 
ATOM     75  C   UNL A   1      34.349  34.773  29.723  1.00  0.00     0.054 A 
BRANCH  75  76
ATOM     76  S   UNL A   1      33.011  35.700  28.922  1.00  0.00     0.124 S 
ATOM     77  O   UNL A   1      32.432  34.694  28.037  1.00  0.00    -0.237 OA
ATOM     78  O   UNL A   1      32.176  36.107  30.050  1.00  0.00    -0.237 OA
ATOM     79  O   UNL A   1      33.714  36.793  28.253  1.00  0.00    -0.744 OA
ENDBRANCH  75  76
ENDBRANCH  47  70
BRANCH  59  80
ATOM     80  C   UNL A   1      39.899  34.352  36.962  1.00  0.00    -0.014 A 
ATOM     81  C   UNL A   1      40.507  35.615  36.852  1.00  0.00     0.010 A 
ATOM     82  C   UNL A   1      39.117  34.061  38.093  1.00  0.00     0.010 A 
ATOM     83  C   UNL A   1      40.357  36.561  37.869  1.00  0.00     0.020 A 
ATOM     84  C   UNL A   1      38.947  35.012  39.102  1.00  0.00     0.020 A 
ATOM     85  C   UNL A   1      39.579  36.253  38.990  1.00  0.00     0.054 A 
BRANCH  85  86
ATOM     86  S   UNL A   1      39.360  37.511  40.278  1.00  0.00     0.124 S 
ATOM     87  O   UNL A   1      38.758  36.737  41.360  1.00  0.00    -0.237 OA
ATOM     88  O   UNL A   1      40.726  37.968  40.518  1.00  0.00    -0.237 OA
ATOM     89  O   UNL A   1      38.482  38.497  39.653  1.00  0.00    -0.744 OA
ENDBRANCH  85  86
ENDBRANCH  59  80
ENDBRANCH  33  34
ENDBRANCH  26  28
ENDBRANCH  25  26
ENDBRANCH  24  25
ENDBRANCH  23  24
ENDBRANCH  22  23
ENDBRANCH   1  22
TORSDOF 21
ENDMDL
MODEL 3
REMARK VINA RESULT:      -9.4      6.624      9.291
REMARK SMILES Cc1onc(-c2cccc(Br)c2)c1C(=O)OCCOCCOCCOC(=O)c1ccc(-c2c3nc(c(-c4ccc(S(=O)(=O)[O-])cc4)c4ccc([nH]4)c(-c4ccc(S(=O)(=O)[O-])cc4)c4nc(c(-c5ccc(S(=O)(=O)[O-])cc5)c5ccc2[nH]5)C=C4)C=C3)cc1
REMARK SMILES IDX 21 1 20 2 19 3 18 4 17 5 16 6 14 7 15 8 13 9 1 10 2 11 3 12
REMARK SMILES IDX 4 13 5 14 6 15 7 16 12 17 8 18 10 19 9 20 11 21 22 22 23 23
REMARK SMILES IDX 24 24 25 25 26 26 27 27 28 28 29 29 87 30 30 31 86 32 31 33
REMARK SMILES IDX 32 34 33 35 80 36 34 37 85 38 79 39 81 40 35 41 84 42 78 43
REMARK SMILES IDX 77 44 36 46 66 47 47 48 65 49 48 50 51 51 64 52 82 53 49 54
REMARK SMILES IDX 50 55 63 57 83 58 52 59 37 60 38 61 46 62 39 63 45 64 40 65
REMARK SMILES IDX 41 66 42 67 43 68 44 69 67 70 68 71 76 72 69 73 75 74 70 75
REMARK SMILES IDX 71 76 72 77 73 78 74 79 53 80 54 81 62 82 55 83 61 84 56 85
REMARK SMILES IDX 57 86 58 87 59 88 60 89
REMARK H PARENT 81 45 51 56
REMARK Flexibility Score: inf
ROOT
ATOM      1  C   UNL A   1      39.479  22.066  26.500  1.00  0.00     0.188 C 
ENDROOT
BRANCH   1   2
ATOM      2  C   UNL A   1      38.265  21.578  25.692  1.00  0.00     0.188 C 
BRANCH   2   3
ATOM      3  O   UNL A   1      37.416  22.644  25.272  1.00  0.00    -0.376 OA
BRANCH   3   4
ATOM      4  C   UNL A   1      36.021  22.362  25.333  1.00  0.00     0.202 C 
BRANCH   4   5
ATOM      5  C   UNL A   1      35.319  22.854  24.067  1.00  0.00     0.261 C 
BRANCH   5   6
ATOM      6  O   UNL A   1      34.596  24.085  24.248  1.00  0.00    -0.459 OA
BRANCH   6   7
ATOM      7  C   UNL A   1      33.248  24.028  24.079  1.00  0.00     0.344 C 
ATOM      8  O   UNL A   1      32.707  24.032  22.980  1.00  0.00    -0.246 OA
BRANCH   7   9
ATOM      9  C   UNL A   1      32.530  23.891  25.328  1.00  0.00     0.130 A 
ATOM     10  C   UNL A   1      32.294  21.293  25.748  1.00  0.00     0.092 C 
ATOM     11  C   UNL A   1      32.160  22.741  25.993  1.00  0.00     0.148 A 
ATOM     12  O   UNL A   1      31.520  23.078  27.145  1.00  0.00    -0.360 OA
ATOM     13  N   UNL A   1      31.402  24.450  27.233  1.00  0.00    -0.079 NA
ATOM     14  C   UNL A   1      31.970  24.937  26.124  1.00  0.00     0.128 A 
BRANCH  14  15
ATOM     15  C   UNL A   1      31.874  26.337  25.756  1.00  0.00     0.006 A 
ATOM     16  C   UNL A   1      32.459  27.280  26.608  1.00  0.00     0.010 A 
ATOM     17  C   UNL A   1      31.125  26.760  24.657  1.00  0.00     0.026 A 
ATOM     18  C   UNL A   1      32.186  28.631  26.450  1.00  0.00     0.002 A 
ATOM     19  C   UNL A   1      30.909  28.124  24.469  1.00  0.00     0.018 A 
ATOM     20  C   UNL A   1      31.406  29.058  25.378  1.00  0.00     0.016 A 
ATOM     21  Br  UNL A   1      29.894  28.724  22.992  1.00  0.00    -0.051 Br
ENDBRANCH  14  15
ENDBRANCH   7   9
ENDBRANCH   6   7
ENDBRANCH   5   6
ENDBRANCH   4   5
ENDBRANCH   3   4
ENDBRANCH   2   3
ENDBRANCH   1   2
BRANCH   1  22
ATOM     22  O   UNL A   1      40.692  21.319  26.476  1.00  0.00    -0.376 OA
BRANCH  22  23
ATOM     23  C   UNL A   1      40.620  19.905  26.385  1.00  0.00     0.202 C 
BRANCH  23  24
ATOM     24  C   UNL A   1      41.952  19.160  26.264  1.00  0.00     0.261 C 
BRANCH  24  25
ATOM     25  O   UNL A   1      42.601  19.333  24.994  1.00  0.00    -0.460 OA
BRANCH  25  26
ATOM     26  C   UNL A   1      43.897  19.724  25.069  1.00  0.00     0.338 C 
ATOM     27  O   UNL A   1      44.879  19.070  24.757  1.00  0.00    -0.246 OA
BRANCH  26  28
ATOM     28  C   UNL A   1      43.981  21.143  25.481  1.00  0.00     0.060 A 
ATOM     29  C   UNL A   1      43.911  22.120  24.480  1.00  0.00     0.016 A 
ATOM     30  C   UNL A   1      44.206  21.515  26.811  1.00  0.00     0.016 A 
ATOM     31  C   UNL A   1      44.107  23.463  24.798  1.00  0.00     0.010 A 
ATOM     32  C   UNL A   1      44.427  22.863  27.124  1.00  0.00     0.010 A 
ATOM     33  C   UNL A   1      44.410  23.839  26.115  1.00  0.00    -0.014 A 
BRANCH  33  34
ATOM     34  C   UNL A   1      44.858  25.230  26.388  1.00  0.00     0.031 A 
ATOM     35  C   UNL A   1      43.889  26.201  26.994  1.00  0.00     0.074 A 
ATOM     36  C   UNL A   1      46.118  25.622  26.130  1.00  0.00     0.049 A 
ATOM     37  N   UNL A   1      44.086  27.441  27.356  1.00  0.00    -0.248 NA
ATOM     38  C   UNL A   1      42.513  25.720  27.198  1.00  0.00     0.031 C 
ATOM     39  C   UNL A   1      47.133  24.787  25.508  1.00  0.00     0.029 A 
ATOM     40  N   UNL A   1      46.765  26.807  26.374  1.00  0.00    -0.354 N 
ATOM     41  C   UNL A   1      42.857  27.900  27.807  1.00  0.00     0.074 A 
ATOM     42  C   UNL A   1      41.922  26.803  27.678  1.00  0.00     0.031 C 
ATOM     43  C   UNL A   1      48.301  25.450  25.485  1.00  0.00     0.029 A 
ATOM     44  C   UNL A   1      48.101  26.782  26.045  1.00  0.00     0.049 A 
ATOM     45  H   UNL A   1      46.317  27.600  26.748  1.00  0.00     0.167 HD
ATOM     46  C   UNL A   1      42.532  29.132  28.265  1.00  0.00     0.031 A 
ATOM     47  C   UNL A   1      49.057  27.726  26.169  1.00  0.00     0.031 A 
ATOM     48  C   UNL A   1      43.452  30.234  28.356  1.00  0.00     0.049 A 
ATOM     49  C   UNL A   1      48.675  29.079  26.702  1.00  0.00     0.074 A 
ATOM     50  C   UNL A   1      43.206  31.526  28.784  1.00  0.00     0.029 A 
ATOM     51  N   UNL A   1      44.792  30.178  28.002  1.00  0.00    -0.354 N 
ATOM     52  N   UNL A   1      47.507  29.494  27.131  1.00  0.00    -0.248 NA
ATOM     53  C   UNL A   1      49.732  30.099  26.741  1.00  0.00     0.031 C 
ATOM     54  C   UNL A   1      44.388  32.264  28.650  1.00  0.00     0.029 A 
ATOM     55  C   UNL A   1      45.383  31.416  28.186  1.00  0.00     0.049 A 
ATOM     56  H   UNL A   1      45.255  29.375  27.669  1.00  0.00     0.167 HD
ATOM     57  C   UNL A   1      47.685  30.827  27.479  1.00  0.00     0.074 A 
ATOM     58  C   UNL A   1      49.080  31.139  27.246  1.00  0.00     0.031 C 
ATOM     59  C   UNL A   1      46.769  31.717  27.934  1.00  0.00     0.031 A 
BRANCH  46  60
ATOM     60  C   UNL A   1      41.095  29.359  28.639  1.00  0.00    -0.014 A 
ATOM     61  C   UNL A   1      40.708  29.515  29.981  1.00  0.00     0.010 A 
ATOM     62  C   UNL A   1      40.118  29.414  27.630  1.00  0.00     0.010 A 
ATOM     63  C   UNL A   1      39.360  29.681  30.311  1.00  0.00     0.020 A 
ATOM     64  C   UNL A   1      38.772  29.602  27.953  1.00  0.00     0.020 A 
ATOM     65  C   UNL A   1      38.400  29.715  29.294  1.00  0.00     0.054 A 
BRANCH  65  66
ATOM     66  S   UNL A   1      36.657  29.933  29.744  1.00  0.00     0.124 S 
ATOM     67  O   UNL A   1      36.556  31.387  29.851  1.00  0.00    -0.237 OA
ATOM     68  O   UNL A   1      35.954  29.337  28.611  1.00  0.00    -0.237 OA
ATOM     69  O   UNL A   1      36.532  29.205  31.004  1.00  0.00    -0.744 OA
ENDBRANCH  65  66
ENDBRANCH  46  60
BRANCH  47  70
ATOM     70  C   UNL A   1      50.460  27.434  25.765  1.00  0.00    -0.014 A 
ATOM     71  C   UNL A   1      50.901  27.719  24.460  1.00  0.00     0.010 A 
ATOM     72  C   UNL A   1      51.366  26.872  26.684  1.00  0.00     0.010 A 
ATOM     73  C   UNL A   1      52.216  27.436  24.078  1.00  0.00     0.020 A 
ATOM     74  C   UNL A   1      52.688  26.613  26.313  1.00  0.00     0.020 A 
ATOM     75  C   UNL A   1      53.102  26.884  25.007  1.00  0.00     0.054 A 
BRANCH  75  76
ATOM     76  S   UNL A   1      54.820  26.565  24.516  1.00  0.00     0.124 S 
ATOM     77  O   UNL A   1      54.752  26.704  23.065  1.00  0.00    -0.237 OA
ATOM     78  O   UNL A   1      55.558  27.611  25.219  1.00  0.00    -0.237 OA
ATOM     79  O   UNL A   1      55.062  25.208  25.005  1.00  0.00    -0.744 OA
ENDBRANCH  75  76
ENDBRANCH  47  70
BRANCH  59  80
ATOM     80  C   UNL A   1      47.246  33.117  28.204  1.00  0.00    -0.014 A 
ATOM     81  C   UNL A   1      47.216  34.097  27.195  1.00  0.00     0.010 A 
ATOM     82  C   UNL A   1      47.680  33.470  29.493  1.00  0.00     0.010 A 
ATOM     83  C   UNL A   1      47.638  35.401  27.466  1.00  0.00     0.020 A 
ATOM     84  C   UNL A   1      48.083  34.779  29.773  1.00  0.00     0.020 A 
ATOM     85  C   UNL A   1      48.071  35.733  28.753  1.00  0.00     0.054 A 
BRANCH  85  86
ATOM     86  S   UNL A   1      48.573  37.443  29.094  1.00  0.00     0.124 S 
ATOM     87  O   UNL A   1      48.293  38.101  27.821  1.00  0.00    -0.237 OA
ATOM     88  O   UNL A   1      47.698  37.821  30.201  1.00  0.00    -0.237 OA
ATOM     89  O   UNL A   1      49.987  37.326  29.439  1.00  0.00    -0.744 OA
ENDBRANCH  85  86
ENDBRANCH  59  80
ENDBRANCH  33  34
ENDBRANCH  26  28
ENDBRANCH  25  26
ENDBRANCH  24  25
ENDBRANCH  23  24
ENDBRANCH  22  23
ENDBRANCH   1  22
TORSDOF 21
ENDMDL
