MODEL 1
REMARK VINA RESULT:      -7.7      0.000      0.000
REMARK SMILES O=C(OCCOCCOCCOC(=O)c1cc(NC(=O)c2ccccc2Cl)ccc1N1CCC[C@H](C[NH+]2CCCC2)C1)c1ccc(-c2c3nc(c(-c4ccc(S(=O)(=O)[O-])cc4)c4ccc([nH]4)c(-c4ccc(S(=O)(=O)[O-])cc4)c4nc(c(-c5ccc(S(=O)(=O)[O-])cc5)c5ccc2[nH]5)C=C4)C=C3)cc1
REMARK SMILES IDX 7 1 6 2 5 3 4 4 3 5 2 6 1 7 43 8 44 9 102 10 45 11 101 12
REMARK SMILES IDX 46 13 47 14 48 15 95 16 49 17 100 18 94 19 96 20 50 21 99 22
REMARK SMILES IDX 93 23 92 24 51 26 81 27 62 28 80 29 63 30 66 31 79 32 97 33
REMARK SMILES IDX 64 34 65 35 78 37 98 38 67 39 52 40 53 41 61 42 54 43 60 44
REMARK SMILES IDX 55 45 56 46 57 47 58 48 59 49 82 50 83 51 91 52 84 53 90 54
REMARK SMILES IDX 85 55 86 56 87 57 88 58 89 59 68 60 69 61 77 62 70 63 76 64
REMARK SMILES IDX 71 65 72 66 73 67 74 68 75 69 8 70 9 71 10 72 11 73 12 74
REMARK SMILES IDX 13 75 14 76 15 77 16 78 30 79 17 80 29 81 28 82 31 83 32 84
REMARK SMILES IDX 42 85 33 86 35 87 34 88 36 89 37 90 38 91 41 92 39 94 40 95
REMARK SMILES IDX 18 96 19 97 20 99 21 100 22 101 26 102 23 103 25 104 27 105
REMARK SMILES IDX 24 106
REMARK H PARENT 96 25 66 36 37 93 18 98
REMARK Flexibility Score: inf
ROOT
ATOM      1  C   UNL A   1      40.226  23.497  27.406  1.00  0.00     0.188 C 
ENDROOT
BRANCH   1   2
ATOM      2  O   UNL A   1      39.610  22.631  26.457  1.00  0.00    -0.376 OA
BRANCH   2   3
ATOM      3  C   UNL A   1      39.936  21.248  26.626  1.00  0.00     0.202 C 
BRANCH   3   4
ATOM      4  C   UNL A   1      41.261  20.966  27.355  1.00  0.00     0.261 C 
BRANCH   4   5
ATOM      5  O   UNL A   1      42.135  20.094  26.620  1.00  0.00    -0.460 OA
BRANCH   5   6
ATOM      6  C   UNL A   1      43.101  20.403  25.723  1.00  0.00     0.338 C 
ATOM      7  O   UNL A   1      43.325  19.586  24.829  1.00  0.00    -0.246 OA
BRANCH   6   8
ATOM      8  C   UNL A   1      43.947  21.644  25.761  1.00  0.00     0.060 A 
ATOM      9  C   UNL A   1      45.282  21.713  26.154  1.00  0.00     0.016 A 
ATOM     10  C   UNL A   1      43.340  22.843  25.330  1.00  0.00     0.016 A 
ATOM     11  C   UNL A   1      45.954  22.929  26.235  1.00  0.00     0.010 A 
ATOM     12  C   UNL A   1      44.025  24.065  25.358  1.00  0.00     0.010 A 
ATOM     13  C   UNL A   1      45.319  24.118  25.880  1.00  0.00    -0.014 A 
BRANCH  13  14
ATOM     14  C   UNL A   1      45.969  25.381  26.296  1.00  0.00     0.031 A 
ATOM     15  C   UNL A   1      45.658  25.913  27.666  1.00  0.00     0.074 A 
ATOM     16  C   UNL A   1      46.957  25.911  25.552  1.00  0.00     0.049 A 
ATOM     17  N   UNL A   1      46.242  26.876  28.326  1.00  0.00    -0.248 NA
ATOM     18  C   UNL A   1      44.542  25.278  28.390  1.00  0.00     0.031 C 
ATOM     19  C   UNL A   1      47.333  25.456  24.215  1.00  0.00     0.029 A 
ATOM     20  N   UNL A   1      47.869  26.897  25.838  1.00  0.00    -0.354 N 
ATOM     21  C   UNL A   1      45.544  26.984  29.523  1.00  0.00     0.074 A 
ATOM     22  C   UNL A   1      44.492  25.996  29.500  1.00  0.00     0.031 C 
ATOM     23  C   UNL A   1      48.445  26.107  23.834  1.00  0.00     0.029 A 
ATOM     24  C   UNL A   1      48.862  27.014  24.893  1.00  0.00     0.049 A 
ATOM     25  H   UNL A   1      47.816  27.464  26.641  1.00  0.00     0.167 HD
ATOM     26  C   UNL A   1      45.757  27.841  30.547  1.00  0.00     0.031 A 
ATOM     27  C   UNL A   1      49.999  27.740  24.900  1.00  0.00     0.031 A 
ATOM     28  C   UNL A   1      46.799  28.827  30.548  1.00  0.00     0.049 A 
ATOM     29  C   UNL A   1      50.248  28.640  26.081  1.00  0.00     0.074 A 
ATOM     30  C   UNL A   1      47.055  29.818  31.477  1.00  0.00     0.029 A 
ATOM     31  N   UNL A   1      47.773  28.932  29.565  1.00  0.00    -0.354 N 
ATOM     32  N   UNL A   1      49.546  28.761  27.184  1.00  0.00    -0.248 NA
ATOM     33  C   UNL A   1      51.422  29.519  26.011  1.00  0.00     0.031 C 
ATOM     34  C   UNL A   1      48.169  30.543  31.039  1.00  0.00     0.029 A 
ATOM     35  C   UNL A   1      48.635  29.970  29.865  1.00  0.00     0.049 A 
ATOM     36  H   UNL A   1      47.840  28.353  28.772  1.00  0.00     0.167 HD
ATOM     37  C   UNL A   1      50.172  29.759  27.920  1.00  0.00     0.074 A 
ATOM     38  C   UNL A   1      51.353  30.149  27.175  1.00  0.00     0.031 C 
ATOM     39  C   UNL A   1      49.789  30.336  29.086  1.00  0.00     0.031 A 
BRANCH  26  40
ATOM     40  C   UNL A   1      44.792  27.776  31.697  1.00  0.00    -0.014 A 
ATOM     41  C   UNL A   1      45.035  26.951  32.810  1.00  0.00     0.010 A 
ATOM     42  C   UNL A   1      43.602  28.523  31.643  1.00  0.00     0.010 A 
ATOM     43  C   UNL A   1      44.085  26.842  33.828  1.00  0.00     0.020 A 
ATOM     44  C   UNL A   1      42.660  28.436  32.672  1.00  0.00     0.020 A 
ATOM     45  C   UNL A   1      42.900  27.580  33.749  1.00  0.00     0.054 A 
BRANCH  45  46
ATOM     46  S   UNL A   1      41.684  27.421  35.085  1.00  0.00     0.124 S 
ATOM     47  O   UNL A   1      41.160  26.077  34.856  1.00  0.00    -0.237 OA
ATOM     48  O   UNL A   1      42.502  27.580  36.284  1.00  0.00    -0.237 OA
ATOM     49  O   UNL A   1      40.742  28.509  34.828  1.00  0.00    -0.744 OA
ENDBRANCH  45  46
ENDBRANCH  26  40
BRANCH  27  50
ATOM     50  C   UNL A   1      50.985  27.658  23.779  1.00  0.00    -0.014 A 
ATOM     51  C   UNL A   1      52.129  26.844  23.885  1.00  0.00     0.010 A 
ATOM     52  C   UNL A   1      50.809  28.420  22.609  1.00  0.00     0.010 A 
ATOM     53  C   UNL A   1      53.096  26.828  22.871  1.00  0.00     0.020 A 
ATOM     54  C   UNL A   1      51.752  28.378  21.576  1.00  0.00     0.020 A 
ATOM     55  C   UNL A   1      52.905  27.605  21.727  1.00  0.00     0.054 A 
BRANCH  55  56
ATOM     56  S   UNL A   1      54.153  27.593  20.410  1.00  0.00     0.124 S 
ATOM     57  O   UNL A   1      54.894  28.820  20.685  1.00  0.00    -0.237 OA
ATOM     58  O   UNL A   1      54.881  26.350  20.656  1.00  0.00    -0.237 OA
ATOM     59  O   UNL A   1      53.344  27.602  19.194  1.00  0.00    -0.744 OA
ENDBRANCH  55  56
ENDBRANCH  27  50
BRANCH  39  60
ATOM     60  C   UNL A   1      50.641  31.464  29.592  1.00  0.00    -0.014 A 
ATOM     61  C   UNL A   1      50.363  32.791  29.219  1.00  0.00     0.010 A 
ATOM     62  C   UNL A   1      51.704  31.199  30.471  1.00  0.00     0.010 A 
ATOM     63  C   UNL A   1      51.164  33.835  29.685  1.00  0.00     0.020 A 
ATOM     64  C   UNL A   1      52.490  32.244  30.961  1.00  0.00     0.020 A 
ATOM     65  C   UNL A   1      52.225  33.553  30.549  1.00  0.00     0.054 A 
BRANCH  65  66
ATOM     66  S   UNL A   1      53.238  34.926  31.160  1.00  0.00     0.124 S 
ATOM     67  O   UNL A   1      54.044  35.251  29.987  1.00  0.00    -0.237 OA
ATOM     68  O   UNL A   1      52.239  35.923  31.534  1.00  0.00    -0.237 OA
ATOM     69  O   UNL A   1      53.974  34.340  32.279  1.00  0.00    -0.744 OA
ENDBRANCH  65  66
ENDBRANCH  39  60
ENDBRANCH  13  14
ENDBRANCH   6   8
ENDBRANCH   5   6
ENDBRANCH   4   5
ENDBRANCH   3   4
ENDBRANCH   2   3
ENDBRANCH   1   2
BRANCH   1  70
ATOM     70  C   UNL A   1      40.247  24.998  27.089  1.00  0.00     0.188 C 
BRANCH  70  71
ATOM     71  O   UNL A   1      40.054  25.926  28.144  1.00  0.00    -0.376 OA
BRANCH  71  72
ATOM     72  C   UNL A   1      41.139  26.785  28.474  1.00  0.00     0.202 C 
BRANCH  72  73
ATOM     73  C   UNL A   1      40.868  28.248  28.826  1.00  0.00     0.261 C 
BRANCH  73  74
ATOM     74  O   UNL A   1      39.485  28.628  28.907  1.00  0.00    -0.460 OA
BRANCH  74  75
ATOM     75  C   UNL A   1      39.128  29.220  30.078  1.00  0.00     0.340 C 
ATOM     76  O   UNL A   1      39.122  28.694  31.181  1.00  0.00    -0.246 OA
BRANCH  75  77
ATOM     77  C   UNL A   1      38.754  30.633  29.890  1.00  0.00     0.085 A 
ATOM     78  C   UNL A   1      37.517  30.859  29.248  1.00  0.00     0.044 A 
ATOM     79  C   UNL A   1      39.625  31.689  30.214  1.00  0.00     0.051 A 
ATOM     80  C   UNL A   1      37.122  32.146  28.895  1.00  0.00     0.042 A 
ATOM     81  C   UNL A   1      39.210  32.972  29.814  1.00  0.00     0.029 A 
ATOM     82  C   UNL A   1      37.995  33.199  29.154  1.00  0.00     0.028 A 
BRANCH  79  83
ATOM     83  N   UNL A   1      40.852  31.552  30.832  1.00  0.00    -0.370 N 
ATOM     84  C   UNL A   1      40.962  31.675  32.284  1.00  0.00     0.116 C 
ATOM     85  C   UNL A   1      42.059  31.114  30.146  1.00  0.00     0.126 C 
ATOM     86  C   UNL A   1      42.060  32.675  32.624  1.00  0.00     0.022 C 
ATOM     87  C   UNL A   1      43.223  32.073  30.426  1.00  0.00     0.064 C 
ATOM     88  C   UNL A   1      43.372  32.274  31.947  1.00  0.00     0.013 C 
BRANCH  87  89
ATOM     89  C   UNL A   1      43.031  33.360  29.586  1.00  0.00     0.267 C 
BRANCH  89  90
ATOM     90  N   UNL A   1      44.008  33.678  28.544  1.00  0.00    -0.335 N 
ATOM     91  C   UNL A   1      44.360  32.598  27.634  1.00  0.00     0.262 C 
ATOM     92  C   UNL A   1      45.254  34.274  29.039  1.00  0.00     0.262 C 
ATOM     93  H   UNL A   1      43.479  34.370  28.014  1.00  0.00     0.348 HD
ATOM     94  C   UNL A   1      45.690  32.066  28.129  1.00  0.00     0.067 C 
ATOM     95  C   UNL A   1      46.372  33.286  28.722  1.00  0.00     0.067 C 
ENDBRANCH  89  90
ENDBRANCH  87  89
ENDBRANCH  79  83
BRANCH  80  96
ATOM     96  N   UNL A   1      35.931  32.447  28.208  1.00  0.00    -0.322 N 
ATOM     97  C   UNL A   1      34.686  32.802  28.671  1.00  0.00     0.257 C 
ATOM     98  H   UNL A   1      36.003  32.396  27.227  1.00  0.00     0.170 HD
ATOM     99  O   UNL A   1      33.698  32.753  27.939  1.00  0.00    -0.269 OA
BRANCH  97 100
ATOM    100  C   UNL A   1      34.516  33.339  30.029  1.00  0.00     0.058 A 
ATOM    101  C   UNL A   1      34.754  32.482  31.113  1.00  0.00     0.015 A 
ATOM    102  C   UNL A   1      34.057  34.641  30.249  1.00  0.00     0.053 A 
ATOM    103  C   UNL A   1      34.598  32.949  32.419  1.00  0.00     0.001 A 
ATOM    104  C   UNL A   1      33.884  35.090  31.559  1.00  0.00     0.021 A 
ATOM    105  Cl  UNL A   1      33.646  35.720  28.966  1.00  0.00    -0.083 Cl
ATOM    106  C   UNL A   1      34.167  34.255  32.641  1.00  0.00     0.002 A 
ENDBRANCH  97 100
ENDBRANCH  80  96
ENDBRANCH  75  77
ENDBRANCH  74  75
ENDBRANCH  73  74
ENDBRANCH  72  73
ENDBRANCH  71  72
ENDBRANCH  70  71
ENDBRANCH   1  70
TORSDOF 25
ENDMDL
MODEL 2
REMARK VINA RESULT:      -7.5      4.423      9.770
REMARK SMILES O=C(OCCOCCOCCOC(=O)c1cc(NC(=O)c2ccccc2Cl)ccc1N1CCC[C@H](C[NH+]2CCCC2)C1)c1ccc(-c2c3nc(c(-c4ccc(S(=O)(=O)[O-])cc4)c4ccc([nH]4)c(-c4ccc(S(=O)(=O)[O-])cc4)c4nc(c(-c5ccc(S(=O)(=O)[O-])cc5)c5ccc2[nH]5)C=C4)C=C3)cc1
REMARK SMILES IDX 7 1 6 2 5 3 4 4 3 5 2 6 1 7 43 8 44 9 102 10 45 11 101 12
REMARK SMILES IDX 46 13 47 14 48 15 95 16 49 17 100 18 94 19 96 20 50 21 99 22
REMARK SMILES IDX 93 23 92 24 51 26 81 27 62 28 80 29 63 30 66 31 79 32 97 33
REMARK SMILES IDX 64 34 65 35 78 37 98 38 67 39 52 40 53 41 61 42 54 43 60 44
REMARK SMILES IDX 55 45 56 46 57 47 58 48 59 49 82 50 83 51 91 52 84 53 90 54
REMARK SMILES IDX 85 55 86 56 87 57 88 58 89 59 68 60 69 61 77 62 70 63 76 64
REMARK SMILES IDX 71 65 72 66 73 67 74 68 75 69 8 70 9 71 10 72 11 73 12 74
REMARK SMILES IDX 13 75 14 76 15 77 16 78 30 79 17 80 29 81 28 82 31 83 32 84
REMARK SMILES IDX 42 85 33 86 35 87 34 88 36 89 37 90 38 91 41 92 39 94 40 95
REMARK SMILES IDX 18 96 19 97 20 99 21 100 22 101 26 102 23 103 25 104 27 105
REMARK SMILES IDX 24 106
REMARK H PARENT 96 25 66 36 37 93 18 98
REMARK Flexibility Score: inf
ROOT
ATOM      1  C   UNL A   1      34.876  32.330  30.604  1.00  0.00     0.188 C 
ENDROOT
BRANCH   1   2
ATOM      2  O   UNL A   1      34.898  33.454  31.480  1.00  0.00    -0.376 OA
BRANCH   2   3
ATOM      3  C   UNL A   1      35.183  33.130  32.843  1.00  0.00     0.202 C 
BRANCH   3   4
ATOM      4  C   UNL A   1      36.571  33.561  33.349  1.00  0.00     0.261 C 
BRANCH   4   5
ATOM      5  O   UNL A   1      37.551  32.514  33.271  1.00  0.00    -0.460 OA
BRANCH   5   6
ATOM      6  C   UNL A   1      38.862  32.537  33.608  1.00  0.00     0.338 C 
ATOM      7  O   UNL A   1      39.136  32.552  34.809  1.00  0.00    -0.246 OA
BRANCH   6   8
ATOM      8  C   UNL A   1      40.002  32.587  32.632  1.00  0.00     0.060 A 
ATOM      9  C   UNL A   1      41.342  32.334  32.924  1.00  0.00     0.016 A 
ATOM     10  C   UNL A   1      39.682  32.888  31.291  1.00  0.00     0.016 A 
ATOM     11  C   UNL A   1      42.337  32.491  31.963  1.00  0.00     0.010 A 
ATOM     12  C   UNL A   1      40.671  32.997  30.305  1.00  0.00     0.010 A 
ATOM     13  C   UNL A   1      42.015  32.865  30.659  1.00  0.00    -0.014 A 
BRANCH  13  14
ATOM     14  C   UNL A   1      43.125  33.325  29.795  1.00  0.00     0.031 A 
ATOM     15  C   UNL A   1      43.533  34.768  29.886  1.00  0.00     0.074 A 
ATOM     16  C   UNL A   1      43.869  32.433  29.116  1.00  0.00     0.049 A 
ATOM     17  N   UNL A   1      44.587  35.356  29.388  1.00  0.00    -0.248 NA
ATOM     18  C   UNL A   1      42.638  35.668  30.634  1.00  0.00     0.031 C 
ATOM     19  C   UNL A   1      43.554  31.012  28.980  1.00  0.00     0.029 A 
ATOM     20  N   UNL A   1      45.075  32.571  28.474  1.00  0.00    -0.354 N 
ATOM     21  C   UNL A   1      44.462  36.697  29.733  1.00  0.00     0.074 A 
ATOM     22  C   UNL A   1      43.233  36.840  30.476  1.00  0.00     0.031 C 
ATOM     23  C   UNL A   1      44.580  30.399  28.367  1.00  0.00     0.029 A 
ATOM     24  C   UNL A   1      45.621  31.372  28.075  1.00  0.00     0.049 A 
ATOM     25  H   UNL A   1      45.505  33.442  28.314  1.00  0.00     0.167 HD
ATOM     26  C   UNL A   1      45.297  37.722  29.445  1.00  0.00     0.031 A 
ATOM     27  C   UNL A   1      46.839  31.089  27.568  1.00  0.00     0.031 A 
ATOM     28  C   UNL A   1      46.508  37.566  28.693  1.00  0.00     0.049 A 
ATOM     29  C   UNL A   1      47.777  32.239  27.315  1.00  0.00     0.074 A 
ATOM     30  C   UNL A   1      47.385  38.537  28.249  1.00  0.00     0.029 A 
ATOM     31  N   UNL A   1      47.020  36.342  28.286  1.00  0.00    -0.354 N 
ATOM     32  N   UNL A   1      47.617  33.509  27.606  1.00  0.00    -0.248 NA
ATOM     33  C   UNL A   1      49.045  31.926  26.643  1.00  0.00     0.031 C 
ATOM     34  C   UNL A   1      48.414  37.901  27.545  1.00  0.00     0.029 A 
ATOM     35  C   UNL A   1      48.203  36.531  27.596  1.00  0.00     0.049 A 
ATOM     36  H   UNL A   1      46.602  35.468  28.461  1.00  0.00     0.167 HD
ATOM     37  C   UNL A   1      48.747  34.152  27.116  1.00  0.00     0.074 A 
ATOM     38  C   UNL A   1      49.617  33.121  26.585  1.00  0.00     0.031 C 
ATOM     39  C   UNL A   1      49.028  35.477  27.067  1.00  0.00     0.031 A 
BRANCH  26  40
ATOM     40  C   UNL A   1      44.868  39.091  29.891  1.00  0.00    -0.014 A 
ATOM     41  C   UNL A   1      44.112  39.929  29.052  1.00  0.00     0.010 A 
ATOM     42  C   UNL A   1      45.262  39.562  31.156  1.00  0.00     0.010 A 
ATOM     43  C   UNL A   1      43.795  41.230  29.454  1.00  0.00     0.020 A 
ATOM     44  C   UNL A   1      44.926  40.852  31.572  1.00  0.00     0.020 A 
ATOM     45  C   UNL A   1      44.210  41.685  30.709  1.00  0.00     0.054 A 
BRANCH  45  46
ATOM     46  S   UNL A   1      43.786  43.376  31.207  1.00  0.00     0.124 S 
ATOM     47  O   UNL A   1      42.326  43.338  31.185  1.00  0.00    -0.237 OA
ATOM     48  O   UNL A   1      44.391  43.482  32.532  1.00  0.00    -0.237 OA
ATOM     49  O   UNL A   1      44.403  44.207  30.176  1.00  0.00    -0.744 OA
ENDBRANCH  45  46
ENDBRANCH  26  40
BRANCH  27  50
ATOM     50  C   UNL A   1      47.251  29.683  27.268  1.00  0.00    -0.014 A 
ATOM     51  C   UNL A   1      48.031  28.951  28.184  1.00  0.00     0.010 A 
ATOM     52  C   UNL A   1      46.901  29.075  26.049  1.00  0.00     0.010 A 
ATOM     53  C   UNL A   1      48.488  27.664  27.871  1.00  0.00     0.020 A 
ATOM     54  C   UNL A   1      47.323  27.776  25.747  1.00  0.00     0.020 A 
ATOM     55  C   UNL A   1      48.139  27.090  26.648  1.00  0.00     0.054 A 
BRANCH  55  56
ATOM     56  S   UNL A   1      48.729  25.425  26.232  1.00  0.00     0.124 S 
ATOM     57  O   UNL A   1      50.160  25.649  26.049  1.00  0.00    -0.237 OA
ATOM     58  O   UNL A   1      48.361  24.641  27.409  1.00  0.00    -0.237 OA
ATOM     59  O   UNL A   1      47.979  25.106  25.021  1.00  0.00    -0.744 OA
ENDBRANCH  55  56
ENDBRANCH  27  50
BRANCH  39  60
ATOM     60  C   UNL A   1      50.309  35.870  26.388  1.00  0.00    -0.014 A 
ATOM     61  C   UNL A   1      51.521  35.878  27.102  1.00  0.00     0.010 A 
ATOM     62  C   UNL A   1      50.306  36.199  25.023  1.00  0.00     0.010 A 
ATOM     63  C   UNL A   1      52.707  36.252  26.468  1.00  0.00     0.020 A 
ATOM     64  C   UNL A   1      51.496  36.548  24.380  1.00  0.00     0.020 A 
ATOM     65  C   UNL A   1      52.684  36.589  25.113  1.00  0.00     0.054 A 
BRANCH  65  66
ATOM     66  S   UNL A   1      54.240  37.050  24.305  1.00  0.00     0.124 S 
ATOM     67  O   UNL A   1      55.112  37.298  25.450  1.00  0.00    -0.237 OA
ATOM     68  O   UNL A   1      54.559  35.863  23.516  1.00  0.00    -0.237 OA
ATOM     69  O   UNL A   1      53.885  38.233  23.524  1.00  0.00    -0.744 OA
ENDBRANCH  65  66
ENDBRANCH  39  60
ENDBRANCH  13  14
ENDBRANCH   6   8
ENDBRANCH   5   6
ENDBRANCH   4   5
ENDBRANCH   3   4
ENDBRANCH   2   3
ENDBRANCH   1   2
BRANCH   1  70
ATOM     70  C   UNL A   1      36.137  32.050  29.775  1.00  0.00     0.188 C 
BRANCH  70  71
ATOM     71  O   UNL A   1      37.099  31.136  30.276  1.00  0.00    -0.376 OA
BRANCH  71  72
ATOM     72  C   UNL A   1      36.727  29.765  30.356  1.00  0.00     0.202 C 
BRANCH  72  73
ATOM     73  C   UNL A   1      37.807  28.694  30.506  1.00  0.00     0.261 C 
BRANCH  73  74
ATOM     74  O   UNL A   1      39.089  29.155  30.961  1.00  0.00    -0.460 OA
BRANCH  74  75
ATOM     75  C   UNL A   1      40.031  29.262  29.987  1.00  0.00     0.340 C 
ATOM     76  O   UNL A   1      39.965  29.967  28.991  1.00  0.00    -0.246 OA
BRANCH  75  77
ATOM     77  C   UNL A   1      41.214  28.429  30.269  1.00  0.00     0.085 A 
ATOM     78  C   UNL A   1      42.026  28.861  31.340  1.00  0.00     0.044 A 
ATOM     79  C   UNL A   1      41.581  27.346  29.451  1.00  0.00     0.051 A 
ATOM     80  C   UNL A   1      43.239  28.235  31.612  1.00  0.00     0.042 A 
ATOM     81  C   UNL A   1      42.827  26.756  29.733  1.00  0.00     0.029 A 
ATOM     82  C   UNL A   1      43.649  27.197  30.779  1.00  0.00     0.028 A 
BRANCH  79  83
ATOM     83  N   UNL A   1      40.850  26.867  28.382  1.00  0.00    -0.370 N 
ATOM     84  C   UNL A   1      39.636  26.086  28.612  1.00  0.00     0.116 C 
ATOM     85  C   UNL A   1      41.108  27.232  26.996  1.00  0.00     0.126 C 
ATOM     86  C   UNL A   1      39.709  24.793  27.812  1.00  0.00     0.022 C 
ATOM     87  C   UNL A   1      41.206  25.983  26.113  1.00  0.00     0.064 C 
ATOM     88  C   UNL A   1      39.966  25.094  26.335  1.00  0.00     0.013 C 
BRANCH  87  89
ATOM     89  C   UNL A   1      42.578  25.304  26.348  1.00  0.00     0.267 C 
BRANCH  89  90
ATOM     90  N   UNL A   1      42.686  23.853  26.195  1.00  0.00    -0.335 N 
ATOM     91  C   UNL A   1      43.428  23.146  27.229  1.00  0.00     0.262 C 
ATOM     92  C   UNL A   1      43.198  23.415  24.892  1.00  0.00     0.262 C 
ATOM     93  H   UNL A   1      41.704  23.593  26.287  1.00  0.00     0.348 HD
ATOM     94  C   UNL A   1      44.800  22.888  26.639  1.00  0.00     0.067 C 
ATOM     95  C   UNL A   1      44.533  22.723  25.154  1.00  0.00     0.067 C 
ENDBRANCH  89  90
ENDBRANCH  87  89
ENDBRANCH  79  83
BRANCH  80  96
ATOM     96  N   UNL A   1      44.128  28.638  32.626  1.00  0.00    -0.322 N 
ATOM     97  C   UNL A   1      44.154  28.354  33.972  1.00  0.00     0.257 C 
ATOM     98  H   UNL A   1      44.856  29.226  32.319  1.00  0.00     0.170 HD
ATOM     99  O   UNL A   1      44.838  29.018  34.748  1.00  0.00    -0.269 OA
BRANCH  97 100
ATOM    100  C   UNL A   1      43.437  27.185  34.504  1.00  0.00     0.058 A 
ATOM    101  C   UNL A   1      44.029  25.923  34.355  1.00  0.00     0.015 A 
ATOM    102  C   UNL A   1      42.167  27.305  35.075  1.00  0.00     0.053 A 
ATOM    103  C   UNL A   1      43.379  24.787  34.840  1.00  0.00     0.001 A 
ATOM    104  C   UNL A   1      41.517  26.159  35.536  1.00  0.00     0.021 A 
ATOM    105  Cl  UNL A   1      41.332  28.810  35.199  1.00  0.00    -0.083 Cl
ATOM    106  C   UNL A   1      42.125  24.906  35.435  1.00  0.00     0.002 A 
ENDBRANCH  97 100
ENDBRANCH  80  96
ENDBRANCH  75  77
ENDBRANCH  74  75
ENDBRANCH  73  74
ENDBRANCH  72  73
ENDBRANCH  71  72
ENDBRANCH  70  71
ENDBRANCH   1  70
TORSDOF 25
ENDMDL
MODEL 3
REMARK VINA RESULT:      -7.3      4.570     11.198
REMARK SMILES O=C(OCCOCCOCCOC(=O)c1cc(NC(=O)c2ccccc2Cl)ccc1N1CCC[C@H](C[NH+]2CCCC2)C1)c1ccc(-c2c3nc(c(-c4ccc(S(=O)(=O)[O-])cc4)c4ccc([nH]4)c(-c4ccc(S(=O)(=O)[O-])cc4)c4nc(c(-c5ccc(S(=O)(=O)[O-])cc5)c5ccc2[nH]5)C=C4)C=C3)cc1
REMARK SMILES IDX 7 1 6 2 5 3 4 4 3 5 2 6 1 7 43 8 44 9 102 10 45 11 101 12
REMARK SMILES IDX 46 13 47 14 48 15 95 16 49 17 100 18 94 19 96 20 50 21 99 22
REMARK SMILES IDX 93 23 92 24 51 26 81 27 62 28 80 29 63 30 66 31 79 32 97 33
REMARK SMILES IDX 64 34 65 35 78 37 98 38 67 39 52 40 53 41 61 42 54 43 60 44
REMARK SMILES IDX 55 45 56 46 57 47 58 48 59 49 82 50 83 51 91 52 84 53 90 54
REMARK SMILES IDX 85 55 86 56 87 57 88 58 89 59 68 60 69 61 77 62 70 63 76 64
REMARK SMILES IDX 71 65 72 66 73 67 74 68 75 69 8 70 9 71 10 72 11 73 12 74
REMARK SMILES IDX 13 75 14 76 15 77 16 78 30 79 17 80 29 81 28 82 31 83 32 84
REMARK SMILES IDX 42 85 33 86 35 87 34 88 36 89 37 90 38 91 41 92 39 94 40 95
REMARK SMILES IDX 18 96 19 97 20 99 21 100 22 101 26 102 23 103 25 104 27 105
REMARK SMILES IDX 24 106
REMARK H PARENT 96 25 66 36 37 93 18 98
REMARK Flexibility Score: inf
ROOT
ATOM      1  C   UNL A   1      35.139  32.458  30.544  1.00  0.00     0.188 C 
ENDROOT
BRANCH   1   2
ATOM      2  O   UNL A   1      34.884  33.462  31.523  1.00  0.00    -0.376 OA
BRANCH   2   3
ATOM      3  C   UNL A   1      34.740  32.960  32.854  1.00  0.00     0.202 C 
BRANCH   3   4
ATOM      4  C   UNL A   1      36.023  32.963  33.704  1.00  0.00     0.261 C 
BRANCH   4   5
ATOM      5  O   UNL A   1      36.844  31.804  33.489  1.00  0.00    -0.460 OA
BRANCH   5   6
ATOM      6  C   UNL A   1      38.037  31.481  34.044  1.00  0.00     0.338 C 
ATOM      7  O   UNL A   1      38.017  30.945  35.153  1.00  0.00    -0.246 OA
BRANCH   6   8
ATOM      8  C   UNL A   1      39.378  31.763  33.430  1.00  0.00     0.060 A 
ATOM      9  C   UNL A   1      40.581  31.148  33.772  1.00  0.00     0.016 A 
ATOM     10  C   UNL A   1      39.415  32.715  32.389  1.00  0.00     0.016 A 
ATOM     11  C   UNL A   1      41.787  31.543  33.201  1.00  0.00     0.010 A 
ATOM     12  C   UNL A   1      40.619  33.082  31.771  1.00  0.00     0.010 A 
ATOM     13  C   UNL A   1      41.821  32.541  32.228  1.00  0.00    -0.014 A 
BRANCH  13  14
ATOM     14  C   UNL A   1      43.142  33.129  31.910  1.00  0.00     0.031 A 
ATOM     15  C   UNL A   1      43.989  32.436  30.881  1.00  0.00     0.074 A 
ATOM     16  C   UNL A   1      43.469  34.348  32.376  1.00  0.00     0.049 A 
ATOM     17  N   UNL A   1      45.077  32.857  30.295  1.00  0.00    -0.248 NA
ATOM     18  C   UNL A   1      43.555  31.094  30.453  1.00  0.00     0.031 C 
ATOM     19  C   UNL A   1      42.704  35.097  33.370  1.00  0.00     0.029 A 
ATOM     20  N   UNL A   1      44.488  35.200  32.026  1.00  0.00    -0.354 N 
ATOM     21  C   UNL A   1      45.475  31.819  29.460  1.00  0.00     0.074 A 
ATOM     22  C   UNL A   1      44.519  30.749  29.615  1.00  0.00     0.031 C 
ATOM     23  C   UNL A   1      43.236  36.325  33.488  1.00  0.00     0.029 A 
ATOM     24  C   UNL A   1      44.367  36.453  32.581  1.00  0.00     0.049 A 
ATOM     25  H   UNL A   1      45.232  34.939  31.436  1.00  0.00     0.167 HD
ATOM     26  C   UNL A   1      46.551  31.762  28.642  1.00  0.00     0.031 A 
ATOM     27  C   UNL A   1      45.064  37.585  32.354  1.00  0.00     0.031 A 
ATOM     28  C   UNL A   1      47.500  32.829  28.510  1.00  0.00     0.049 A 
ATOM     29  C   UNL A   1      46.219  37.514  31.390  1.00  0.00     0.074 A 
ATOM     30  C   UNL A   1      48.682  32.855  27.796  1.00  0.00     0.029 A 
ATOM     31  N   UNL A   1      47.358  34.076  29.104  1.00  0.00    -0.354 N 
ATOM     32  N   UNL A   1      46.607  36.505  30.646  1.00  0.00    -0.248 NA
ATOM     33  C   UNL A   1      47.046  38.720  31.255  1.00  0.00     0.031 C 
ATOM     34  C   UNL A   1      49.273  34.111  27.982  1.00  0.00     0.029 A 
ATOM     35  C   UNL A   1      48.431  34.881  28.771  1.00  0.00     0.049 A 
ATOM     36  H   UNL A   1      46.606  34.346  29.678  1.00  0.00     0.167 HD
ATOM     37  C   UNL A   1      47.747  36.943  29.984  1.00  0.00     0.074 A 
ATOM     38  C   UNL A   1      47.937  38.331  30.354  1.00  0.00     0.031 C 
ATOM     39  C   UNL A   1      48.590  36.253  29.176  1.00  0.00     0.031 A 
BRANCH  26  40
ATOM     40  C   UNL A   1      46.771  30.473  27.902  1.00  0.00    -0.014 A 
ATOM     41  C   UNL A   1      47.408  29.379  28.514  1.00  0.00     0.010 A 
ATOM     42  C   UNL A   1      46.369  30.370  26.558  1.00  0.00     0.010 A 
ATOM     43  C   UNL A   1      47.678  28.219  27.781  1.00  0.00     0.020 A 
ATOM     44  C   UNL A   1      46.614  29.203  25.830  1.00  0.00     0.020 A 
ATOM     45  C   UNL A   1      47.285  28.142  26.442  1.00  0.00     0.054 A 
BRANCH  45  46
ATOM     46  S   UNL A   1      47.646  26.626  25.514  1.00  0.00     0.124 S 
ATOM     47  O   UNL A   1      47.315  25.591  26.490  1.00  0.00    -0.237 OA
ATOM     48  O   UNL A   1      46.739  26.725  24.373  1.00  0.00    -0.237 OA
ATOM     49  O   UNL A   1      49.065  26.747  25.190  1.00  0.00    -0.744 OA
ENDBRANCH  45  46
ENDBRANCH  26  40
BRANCH  27  50
ATOM     50  C   UNL A   1      44.708  38.871  33.028  1.00  0.00    -0.014 A 
ATOM     51  C   UNL A   1      45.281  39.216  34.267  1.00  0.00     0.010 A 
ATOM     52  C   UNL A   1      43.763  39.745  32.459  1.00  0.00     0.010 A 
ATOM     53  C   UNL A   1      44.888  40.380  34.941  1.00  0.00     0.020 A 
ATOM     54  C   UNL A   1      43.396  40.927  33.109  1.00  0.00     0.020 A 
ATOM     55  C   UNL A   1      43.938  41.222  34.361  1.00  0.00     0.054 A 
BRANCH  55  56
ATOM     56  S   UNL A   1      43.420  42.731  35.228  1.00  0.00     0.124 S 
ATOM     57  O   UNL A   1      43.669  42.377  36.622  1.00  0.00    -0.237 OA
ATOM     58  O   UNL A   1      44.305  43.752  34.671  1.00  0.00    -0.237 OA
ATOM     59  O   UNL A   1      42.016  42.859  34.849  1.00  0.00    -0.744 OA
ENDBRANCH  55  56
ENDBRANCH  27  50
BRANCH  39  60
ATOM     60  C   UNL A   1      49.799  36.990  28.677  1.00  0.00    -0.014 A 
ATOM     61  C   UNL A   1      50.932  37.140  29.497  1.00  0.00     0.010 A 
ATOM     62  C   UNL A   1      49.817  37.505  27.371  1.00  0.00     0.010 A 
ATOM     63  C   UNL A   1      52.050  37.834  29.032  1.00  0.00     0.020 A 
ATOM     64  C   UNL A   1      50.945  38.177  26.893  1.00  0.00     0.020 A 
ATOM     65  C   UNL A   1      52.046  38.352  27.735  1.00  0.00     0.054 A 
BRANCH  65  66
ATOM     66  S   UNL A   1      53.517  39.229  27.143  1.00  0.00     0.124 S 
ATOM     67  O   UNL A   1      53.203  39.429  25.732  1.00  0.00    -0.237 OA
ATOM     68  O   UNL A   1      53.525  40.437  27.965  1.00  0.00    -0.237 OA
ATOM     69  O   UNL A   1      54.607  38.294  27.413  1.00  0.00    -0.744 OA
ENDBRANCH  65  66
ENDBRANCH  39  60
ENDBRANCH  13  14
ENDBRANCH   6   8
ENDBRANCH   5   6
ENDBRANCH   4   5
ENDBRANCH   3   4
ENDBRANCH   2   3
ENDBRANCH   1   2
BRANCH   1  70
ATOM     70  C   UNL A   1      36.588  32.278  30.071  1.00  0.00     0.188 C 
BRANCH  70  71
ATOM     71  O   UNL A   1      37.323  31.153  30.524  1.00  0.00    -0.376 OA
BRANCH  71  72
ATOM     72  C   UNL A   1      36.892  29.867  30.095  1.00  0.00     0.202 C 
BRANCH  72  73
ATOM     73  C   UNL A   1      37.835  28.670  30.222  1.00  0.00     0.261 C 
BRANCH  73  74
ATOM     74  O   UNL A   1      39.068  28.914  30.918  1.00  0.00    -0.460 OA
BRANCH  74  75
ATOM     75  C   UNL A   1      40.142  29.126  30.112  1.00  0.00     0.340 C 
ATOM     76  O   UNL A   1      40.252  30.007  29.272  1.00  0.00    -0.246 OA
BRANCH  75  77
ATOM     77  C   UNL A   1      41.228  28.165  30.374  1.00  0.00     0.085 A 
ATOM     78  C   UNL A   1      42.084  28.486  31.450  1.00  0.00     0.044 A 
ATOM     79  C   UNL A   1      41.475  27.065  29.533  1.00  0.00     0.051 A 
ATOM     80  C   UNL A   1      43.222  27.727  31.706  1.00  0.00     0.042 A 
ATOM     81  C   UNL A   1      42.651  26.339  29.799  1.00  0.00     0.029 A 
ATOM     82  C   UNL A   1      43.517  26.668  30.851  1.00  0.00     0.028 A 
BRANCH  79  83
ATOM     83  N   UNL A   1      40.695  26.689  28.458  1.00  0.00    -0.370 N 
ATOM     84  C   UNL A   1      39.384  26.080  28.676  1.00  0.00     0.116 C 
ATOM     85  C   UNL A   1      41.012  27.014  27.074  1.00  0.00     0.126 C 
ATOM     86  C   UNL A   1      39.288  24.788  27.877  1.00  0.00     0.022 C 
ATOM     87  C   UNL A   1      40.947  25.763  26.192  1.00  0.00     0.064 C 
ATOM     88  C   UNL A   1      39.597  25.051  26.402  1.00  0.00     0.013 C 
BRANCH  87  89
ATOM     89  C   UNL A   1      42.213  24.904  26.438  1.00  0.00     0.267 C 
BRANCH  89  90
ATOM     90  N   UNL A   1      42.700  24.036  25.365  1.00  0.00    -0.335 N 
ATOM     91  C   UNL A   1      42.783  22.615  25.669  1.00  0.00     0.262 C 
ATOM     92  C   UNL A   1      43.982  24.448  24.785  1.00  0.00     0.262 C 
ATOM     93  H   UNL A   1      41.953  24.164  24.683  1.00  0.00     0.348 HD
ATOM     94  C   UNL A   1      44.243  22.349  25.976  1.00  0.00     0.067 C 
ATOM     95  C   UNL A   1      44.985  23.343  25.102  1.00  0.00     0.067 C 
ENDBRANCH  89  90
ENDBRANCH  87  89
ENDBRANCH  79  83
BRANCH  80  96
ATOM     96  N   UNL A   1      44.151  28.013  32.724  1.00  0.00    -0.322 N 
ATOM     97  C   UNL A   1      44.197  27.620  34.041  1.00  0.00     0.257 C 
ATOM     98  H   UNL A   1      44.895  28.594  32.445  1.00  0.00     0.170 HD
ATOM     99  O   UNL A   1      44.926  28.192  34.850  1.00  0.00    -0.269 OA
BRANCH  97 100
ATOM    100  C   UNL A   1      43.446  26.441  34.498  1.00  0.00     0.058 A 
ATOM    101  C   UNL A   1      43.977  25.173  34.224  1.00  0.00     0.015 A 
ATOM    102  C   UNL A   1      42.200  26.564  35.120  1.00  0.00     0.053 A 
ATOM    103  C   UNL A   1      43.293  24.027  34.634  1.00  0.00     0.001 A 
ATOM    104  C   UNL A   1      41.515  25.410  35.504  1.00  0.00     0.021 A 
ATOM    105  Cl  UNL A   1      41.436  28.086  35.397  1.00  0.00    -0.083 Cl
ATOM    106  C   UNL A   1      42.064  24.147  35.278  1.00  0.00     0.002 A 
ENDBRANCH  97 100
ENDBRANCH  80  96
ENDBRANCH  75  77
ENDBRANCH  74  75
ENDBRANCH  73  74
ENDBRANCH  72  73
ENDBRANCH  71  72
ENDBRANCH  70  71
ENDBRANCH   1  70
TORSDOF 25
ENDMDL
