MODEL 1
REMARK VINA RESULT:     -10.3      0.000      0.000
REMARK SMILES CO[C@H]1CCC[C@H]1NC(=O)N[C@](C)(C(=O)OCCOCCOCCOC(=O)c1ccc(-c2c3nc(c(-c4ccc(S(=O)(=O)[O-])cc4)c4ccc([nH]4)c(-c4ccc(S(=O)(=O)[O-])cc4)c4nc(c(-c5ccc(S(=O)(=O)[O-])cc5)c5ccc2[nH]5)C=C4)C=C3)cc1)C(F)(F)F
REMARK SMILES IDX 20 1 19 2 18 3 17 4 16 5 14 6 15 7 12 8 13 9 11 10 8 11 9 12
REMARK SMILES IDX 10 14 7 16 3 17 4 18 5 19 6 20 2 21 1 22 88 23 89 24 90 25
REMARK SMILES IDX 91 26 21 27 22 28 23 29 24 30 25 31 26 32 27 33 28 34 29 35
REMARK SMILES IDX 87 36 30 37 86 38 31 39 32 40 33 41 80 42 34 43 85 44 79 45
REMARK SMILES IDX 81 46 35 47 84 48 78 49 77 50 36 52 66 53 47 54 65 55 48 56
REMARK SMILES IDX 51 57 64 58 82 59 49 60 50 61 63 63 83 64 52 65 37 66 38 67
REMARK SMILES IDX 46 68 39 69 45 70 40 71 41 72 42 73 43 74 44 75 67 76 68 77
REMARK SMILES IDX 76 78 69 79 75 80 70 81 71 82 72 83 73 84 74 85 53 86 54 87
REMARK SMILES IDX 62 88 55 89 61 90 56 91 57 92 58 93 59 94 60 95
REMARK H PARENT 8 13 11 15 81 51 51 62
REMARK Flexibility Score: inf
ROOT
ATOM      1  C   UNL A   1      36.941  23.657  26.318  1.00  0.00     0.188 C 
ENDROOT
BRANCH   1   2
ATOM      2  O   UNL A   1      36.029  22.642  25.906  1.00  0.00    -0.376 OA
BRANCH   2   3
ATOM      3  C   UNL A   1      34.704  22.718  26.445  1.00  0.00     0.202 C 
BRANCH   3   4
ATOM      4  C   UNL A   1      33.944  24.027  26.167  1.00  0.00     0.261 C 
BRANCH   4   5
ATOM      5  O   UNL A   1      32.975  23.826  25.119  1.00  0.00    -0.461 OA
BRANCH   5   6
ATOM      6  C   UNL A   1      33.316  24.185  23.850  1.00  0.00     0.341 C 
ATOM      7  O   UNL A   1      34.306  24.847  23.563  1.00  0.00    -0.249 OA
BRANCH   6   8
ATOM      8  C   UNL A   1      32.322  23.611  22.818  1.00  0.00     0.232 C 
ATOM      9  C   UNL A   1      30.907  24.120  23.192  1.00  0.00     0.058 C 
BRANCH   8  10
ATOM     10  N   UNL A   1      32.681  24.157  21.476  1.00  0.00    -0.315 N 
ATOM     11  N   UNL A   1      32.067  26.457  21.449  1.00  0.00    -0.333 N 
ATOM     12  C   UNL A   1      32.571  25.352  20.880  1.00  0.00     0.316 C 
ATOM     13  H   UNL A   1      32.200  27.249  20.881  1.00  0.00     0.165 HD
ATOM     14  O   UNL A   1      33.002  25.445  19.728  1.00  0.00    -0.249 OA
ATOM     15  H   UNL A   1      33.094  23.480  20.891  1.00  0.00     0.166 HD
BRANCH  11  16
ATOM     16  C   UNL A   1      31.377  26.792  22.684  1.00  0.00     0.112 C 
ATOM     17  C   UNL A   1      32.250  27.420  23.792  1.00  0.00     0.140 C 
ATOM     18  C   UNL A   1      31.170  27.825  24.796  1.00  0.00     0.034 C 
ATOM     19  C   UNL A   1      29.994  28.313  23.941  1.00  0.00     0.005 C 
ATOM     20  C   UNL A   1      30.277  27.840  22.511  1.00  0.00     0.028 C 
BRANCH  17  21
ATOM     21  O   UNL A   1      32.971  28.547  23.286  1.00  0.00    -0.379 OA
ATOM     22  C   UNL A   1      33.521  29.358  24.319  1.00  0.00     0.195 C 
ENDBRANCH  17  21
ENDBRANCH  11  16
ENDBRANCH   8  10
BRANCH   8  23
ATOM     23  C   UNL A   1      32.547  22.079  22.916  1.00  0.00     0.422 C 
ATOM     24  F   UNL A   1      33.817  21.783  23.290  1.00  0.00    -0.168 F 
ATOM     25  F   UNL A   1      31.741  21.493  23.833  1.00  0.00    -0.168 F 
ATOM     26  F   UNL A   1      32.320  21.427  21.754  1.00  0.00    -0.168 F 
ENDBRANCH   8  23
ENDBRANCH   6   8
ENDBRANCH   5   6
ENDBRANCH   4   5
ENDBRANCH   3   4
ENDBRANCH   2   3
ENDBRANCH   1   2
BRANCH   1  27
ATOM     27  C   UNL A   1      38.409  23.423  25.955  1.00  0.00     0.188 C 
BRANCH  27  28
ATOM     28  O   UNL A   1      38.950  22.182  26.400  1.00  0.00    -0.376 OA
BRANCH  28  29
ATOM     29  C   UNL A   1      40.205  22.272  27.089  1.00  0.00     0.202 C 
BRANCH  29  30
ATOM     30  C   UNL A   1      41.383  22.838  26.267  1.00  0.00     0.261 C 
BRANCH  30  31
ATOM     31  O   UNL A   1      42.060  23.948  26.892  1.00  0.00    -0.460 OA
BRANCH  31  32
ATOM     32  C   UNL A   1      41.898  25.161  26.313  1.00  0.00     0.338 C 
ATOM     33  O   UNL A   1      41.938  25.397  25.116  1.00  0.00    -0.246 OA
BRANCH  32  34
ATOM     34  C   UNL A   1      41.399  26.120  27.334  1.00  0.00     0.060 A 
ATOM     35  C   UNL A   1      42.090  27.330  27.472  1.00  0.00     0.016 A 
ATOM     36  C   UNL A   1      40.259  25.883  28.107  1.00  0.00     0.016 A 
ATOM     37  C   UNL A   1      41.686  28.274  28.415  1.00  0.00     0.010 A 
ATOM     38  C   UNL A   1      39.854  26.830  29.058  1.00  0.00     0.010 A 
ATOM     39  C   UNL A   1      40.590  28.013  29.245  1.00  0.00    -0.014 A 
BRANCH  39  40
ATOM     40  C   UNL A   1      40.350  28.892  30.418  1.00  0.00     0.031 A 
ATOM     41  C   UNL A   1      41.224  28.723  31.635  1.00  0.00     0.074 A 
ATOM     42  C   UNL A   1      39.431  29.875  30.392  1.00  0.00     0.049 A 
ATOM     43  N   UNL A   1      41.253  29.423  32.740  1.00  0.00    -0.248 NA
ATOM     44  C   UNL A   1      42.199  27.620  31.594  1.00  0.00     0.031 C 
ATOM     45  C   UNL A   1      38.543  30.180  29.271  1.00  0.00     0.029 A 
ATOM     46  N   UNL A   1      39.104  30.812  31.343  1.00  0.00    -0.354 N 
ATOM     47  C   UNL A   1      42.251  28.854  33.521  1.00  0.00     0.074 A 
ATOM     48  C   UNL A   1      42.777  27.726  32.782  1.00  0.00     0.031 C 
ATOM     49  C   UNL A   1      37.773  31.234  29.600  1.00  0.00     0.029 A 
ATOM     50  C   UNL A   1      38.101  31.668  30.957  1.00  0.00     0.049 A 
ATOM     51  H   UNL A   1      39.548  30.864  32.221  1.00  0.00     0.167 HD
ATOM     52  C   UNL A   1      42.704  29.236  34.739  1.00  0.00     0.031 A 
ATOM     53  C   UNL A   1      37.511  32.682  31.622  1.00  0.00     0.031 A 
ATOM     54  C   UNL A   1      42.177  30.339  35.494  1.00  0.00     0.049 A 
ATOM     55  C   UNL A   1      37.981  33.043  33.009  1.00  0.00     0.074 A 
ATOM     56  C   UNL A   1      42.579  30.802  36.736  1.00  0.00     0.029 A 
ATOM     57  N   UNL A   1      41.125  31.146  35.091  1.00  0.00    -0.354 N 
ATOM     58  N   UNL A   1      38.950  32.514  33.718  1.00  0.00    -0.248 NA
ATOM     59  C   UNL A   1      37.284  34.152  33.678  1.00  0.00     0.031 C 
ATOM     60  C   UNL A   1      41.736  31.855  37.106  1.00  0.00     0.029 A 
ATOM     61  C   UNL A   1      40.846  32.087  36.069  1.00  0.00     0.049 A 
ATOM     62  H   UNL A   1      40.645  31.063  34.234  1.00  0.00     0.167 HD
ATOM     63  C   UNL A   1      38.996  33.246  34.903  1.00  0.00     0.074 A 
ATOM     64  C   UNL A   1      37.971  34.263  34.806  1.00  0.00     0.031 C 
ATOM     65  C   UNL A   1      39.818  33.090  35.972  1.00  0.00     0.031 A 
BRANCH  52  66
ATOM     66  C   UNL A   1      43.817  28.423  35.343  1.00  0.00    -0.014 A 
ATOM     67  C   UNL A   1      45.165  28.752  35.112  1.00  0.00     0.010 A 
ATOM     68  C   UNL A   1      43.510  27.328  36.170  1.00  0.00     0.010 A 
ATOM     69  C   UNL A   1      46.186  27.975  35.664  1.00  0.00     0.020 A 
ATOM     70  C   UNL A   1      44.527  26.565  36.746  1.00  0.00     0.020 A 
ATOM     71  C   UNL A   1      45.860  26.883  36.474  1.00  0.00     0.054 A 
BRANCH  71  72
ATOM     72  S   UNL A   1      47.205  25.898  37.190  1.00  0.00     0.124 S 
ATOM     73  O   UNL A   1      46.512  24.664  37.552  1.00  0.00    -0.237 OA
ATOM     74  O   UNL A   1      48.147  25.786  36.080  1.00  0.00    -0.237 OA
ATOM     75  O   UNL A   1      47.665  26.707  38.316  1.00  0.00    -0.744 OA
ENDBRANCH  71  72
ENDBRANCH  52  66
BRANCH  53  76
ATOM     76  C   UNL A   1      36.390  33.436  30.992  1.00  0.00    -0.014 A 
ATOM     77  C   UNL A   1      36.339  33.622  29.600  1.00  0.00     0.010 A 
ATOM     78  C   UNL A   1      35.380  33.998  31.794  1.00  0.00     0.010 A 
ATOM     79  C   UNL A   1      35.311  34.375  29.023  1.00  0.00     0.020 A 
ATOM     80  C   UNL A   1      34.336  34.728  31.219  1.00  0.00     0.020 A 
ATOM     81  C   UNL A   1      34.315  34.922  29.837  1.00  0.00     0.054 A 
BRANCH  81  82
ATOM     82  S   UNL A   1      32.967  35.861  29.066  1.00  0.00     0.124 S 
ATOM     83  O   UNL A   1      33.671  37.025  28.539  1.00  0.00    -0.237 OA
ATOM     84  O   UNL A   1      32.459  34.922  28.068  1.00  0.00    -0.237 OA
ATOM     85  O   UNL A   1      32.058  36.128  30.179  1.00  0.00    -0.744 OA
ENDBRANCH  81  82
ENDBRANCH  53  76
BRANCH  65  86
ATOM     86  C   UNL A   1      39.664  34.064  37.114  1.00  0.00    -0.014 A 
ATOM     87  C   UNL A   1      40.218  35.356  37.056  1.00  0.00     0.010 A 
ATOM     88  C   UNL A   1      38.933  33.687  38.256  1.00  0.00     0.010 A 
ATOM     89  C   UNL A   1      40.089  36.232  38.138  1.00  0.00     0.020 A 
ATOM     90  C   UNL A   1      38.776  34.571  39.327  1.00  0.00     0.020 A 
ATOM     91  C   UNL A   1      39.375  35.831  39.271  1.00  0.00     0.054 A 
BRANCH  91  92
ATOM     92  S   UNL A   1      39.214  36.984  40.662  1.00  0.00     0.124 S 
ATOM     93  O   UNL A   1      38.326  38.004  40.110  1.00  0.00    -0.237 OA
ATOM     94  O   UNL A   1      38.633  36.146  41.709  1.00  0.00    -0.237 OA
ATOM     95  O   UNL A   1      40.586  37.420  40.911  1.00  0.00    -0.744 OA
ENDBRANCH  91  92
ENDBRANCH  65  86
ENDBRANCH  39  40
ENDBRANCH  32  34
ENDBRANCH  31  32
ENDBRANCH  30  31
ENDBRANCH  29  30
ENDBRANCH  28  29
ENDBRANCH  27  28
ENDBRANCH   1  27
TORSDOF 24
ENDMDL
MODEL 2
REMARK VINA RESULT:     -10.2      1.940      2.602
REMARK SMILES CO[C@H]1CCC[C@H]1NC(=O)N[C@](C)(C(=O)OCCOCCOCCOC(=O)c1ccc(-c2c3nc(c(-c4ccc(S(=O)(=O)[O-])cc4)c4ccc([nH]4)c(-c4ccc(S(=O)(=O)[O-])cc4)c4nc(c(-c5ccc(S(=O)(=O)[O-])cc5)c5ccc2[nH]5)C=C4)C=C3)cc1)C(F)(F)F
REMARK SMILES IDX 20 1 19 2 18 3 17 4 16 5 14 6 15 7 12 8 13 9 11 10 8 11 9 12
REMARK SMILES IDX 10 14 7 16 3 17 4 18 5 19 6 20 2 21 1 22 88 23 89 24 90 25
REMARK SMILES IDX 91 26 21 27 22 28 23 29 24 30 25 31 26 32 27 33 28 34 29 35
REMARK SMILES IDX 87 36 30 37 86 38 31 39 32 40 33 41 80 42 34 43 85 44 79 45
REMARK SMILES IDX 81 46 35 47 84 48 78 49 77 50 36 52 66 53 47 54 65 55 48 56
REMARK SMILES IDX 51 57 64 58 82 59 49 60 50 61 63 63 83 64 52 65 37 66 38 67
REMARK SMILES IDX 46 68 39 69 45 70 40 71 41 72 42 73 43 74 44 75 67 76 68 77
REMARK SMILES IDX 76 78 69 79 75 80 70 81 71 82 72 83 73 84 74 85 53 86 54 87
REMARK SMILES IDX 62 88 55 89 61 90 56 91 57 92 58 93 59 94 60 95
REMARK H PARENT 8 13 11 15 81 51 51 62
REMARK Flexibility Score: inf
ROOT
ATOM      1  C   UNL A   1      38.185  22.318  25.593  1.00  0.00     0.188 C 
ENDROOT
BRANCH   1   2
ATOM      2  O   UNL A   1      37.077  21.476  25.289  1.00  0.00    -0.376 OA
BRANCH   2   3
ATOM      3  C   UNL A   1      35.928  21.603  26.135  1.00  0.00     0.202 C 
BRANCH   3   4
ATOM      4  C   UNL A   1      34.573  21.301  25.471  1.00  0.00     0.261 C 
BRANCH   4   5
ATOM      5  O   UNL A   1      33.783  22.502  25.384  1.00  0.00    -0.461 OA
BRANCH   5   6
ATOM      6  C   UNL A   1      33.590  23.058  24.155  1.00  0.00     0.341 C 
ATOM      7  O   UNL A   1      34.000  22.572  23.106  1.00  0.00    -0.249 OA
BRANCH   6   8
ATOM      8  C   UNL A   1      32.749  24.348  24.248  1.00  0.00     0.232 C 
ATOM      9  C   UNL A   1      31.999  24.520  22.904  1.00  0.00     0.058 C 
BRANCH   8  10
ATOM     10  N   UNL A   1      31.740  24.166  25.333  1.00  0.00    -0.315 N 
ATOM     11  N   UNL A   1      30.273  26.040  25.269  1.00  0.00    -0.333 N 
ATOM     12  C   UNL A   1      30.696  24.876  25.782  1.00  0.00     0.316 C 
ATOM     13  H   UNL A   1      29.417  26.321  25.665  1.00  0.00     0.165 HD
ATOM     14  O   UNL A   1      30.055  24.395  26.720  1.00  0.00    -0.249 OA
ATOM     15  H   UNL A   1      31.873  23.331  25.836  1.00  0.00     0.166 HD
BRANCH  11  16
ATOM     16  C   UNL A   1      30.746  26.996  24.281  1.00  0.00     0.112 C 
ATOM     17  C   UNL A   1      29.752  27.343  23.152  1.00  0.00     0.140 C 
ATOM     18  C   UNL A   1      30.494  28.499  22.479  1.00  0.00     0.034 C 
ATOM     19  C   UNL A   1      31.138  29.283  23.628  1.00  0.00     0.005 C 
ATOM     20  C   UNL A   1      31.065  28.376  24.861  1.00  0.00     0.028 C 
BRANCH  17  21
ATOM     21  O   UNL A   1      28.493  27.750  23.697  1.00  0.00    -0.379 OA
ATOM     22  C   UNL A   1      27.808  28.679  22.865  1.00  0.00     0.195 C 
ENDBRANCH  17  21
ENDBRANCH  11  16
ENDBRANCH   8  10
BRANCH   8  23
ATOM     23  C   UNL A   1      33.799  25.437  24.592  1.00  0.00     0.422 C 
ATOM     24  F   UNL A   1      33.582  25.972  25.820  1.00  0.00    -0.168 F 
ATOM     25  F   UNL A   1      35.064  24.952  24.615  1.00  0.00    -0.168 F 
ATOM     26  F   UNL A   1      33.814  26.466  23.715  1.00  0.00    -0.168 F 
ENDBRANCH   8  23
ENDBRANCH   6   8
ENDBRANCH   5   6
ENDBRANCH   4   5
ENDBRANCH   3   4
ENDBRANCH   2   3
ENDBRANCH   1   2
BRANCH   1  27
ATOM     27  C   UNL A   1      39.425  21.615  26.151  1.00  0.00     0.188 C 
BRANCH  27  28
ATOM     28  O   UNL A   1      39.858  22.078  27.427  1.00  0.00    -0.376 OA
BRANCH  28  29
ATOM     29  C   UNL A   1      41.264  22.340  27.539  1.00  0.00     0.202 C 
BRANCH  29  30
ATOM     30  C   UNL A   1      41.791  23.536  26.717  1.00  0.00     0.261 C 
BRANCH  30  31
ATOM     31  O   UNL A   1      41.716  24.804  27.402  1.00  0.00    -0.460 OA
BRANCH  31  32
ATOM     32  C   UNL A   1      40.665  25.599  27.092  1.00  0.00     0.338 C 
ATOM     33  O   UNL A   1      39.914  25.459  26.140  1.00  0.00    -0.246 OA
BRANCH  32  34
ATOM     34  C   UNL A   1      40.402  26.515  28.233  1.00  0.00     0.060 A 
ATOM     35  C   UNL A   1      41.195  27.665  28.332  1.00  0.00     0.016 A 
ATOM     36  C   UNL A   1      39.376  26.300  29.159  1.00  0.00     0.016 A 
ATOM     37  C   UNL A   1      41.011  28.565  29.381  1.00  0.00     0.010 A 
ATOM     38  C   UNL A   1      39.193  27.203  30.215  1.00  0.00     0.010 A 
ATOM     39  C   UNL A   1      40.037  28.320  30.355  1.00  0.00    -0.014 A 
BRANCH  39  40
ATOM     40  C   UNL A   1      40.044  29.128  31.601  1.00  0.00     0.031 A 
ATOM     41  C   UNL A   1      41.154  28.905  32.597  1.00  0.00     0.074 A 
ATOM     42  C   UNL A   1      39.137  30.098  31.823  1.00  0.00     0.049 A 
ATOM     43  N   UNL A   1      41.410  29.543  33.710  1.00  0.00    -0.248 NA
ATOM     44  C   UNL A   1      42.102  27.821  32.291  1.00  0.00     0.031 C 
ATOM     45  C   UNL A   1      38.034  30.451  30.932  1.00  0.00     0.029 A 
ATOM     46  N   UNL A   1      39.013  30.975  32.874  1.00  0.00    -0.354 N 
ATOM     47  C   UNL A   1      42.552  28.946  34.232  1.00  0.00     0.074 A 
ATOM     48  C   UNL A   1      42.914  27.869  33.336  1.00  0.00     0.031 C 
ATOM     49  C   UNL A   1      37.346  31.473  31.473  1.00  0.00     0.029 A 
ATOM     50  C   UNL A   1      37.948  31.836  32.755  1.00  0.00     0.049 A 
ATOM     51  H   UNL A   1      39.630  30.985  33.641  1.00  0.00     0.167 HD
ATOM     52  C   UNL A   1      43.248  29.267  35.349  1.00  0.00     0.031 A 
ATOM     53  C   UNL A   1      37.507  32.802  33.586  1.00  0.00     0.031 A 
ATOM     54  C   UNL A   1      42.886  30.319  36.260  1.00  0.00     0.049 A 
ATOM     55  C   UNL A   1      38.256  33.093  34.863  1.00  0.00     0.074 A 
ATOM     56  C   UNL A   1      43.538  30.717  37.414  1.00  0.00     0.029 A 
ATOM     57  N   UNL A   1      41.770  31.130  36.131  1.00  0.00    -0.354 N 
ATOM     58  N   UNL A   1      39.354  32.539  35.322  1.00  0.00    -0.248 NA
ATOM     59  C   UNL A   1      37.711  34.153  35.724  1.00  0.00     0.031 C 
ATOM     60  C   UNL A   1      42.787  31.736  38.012  1.00  0.00     0.029 A 
ATOM     61  C   UNL A   1      41.700  32.011  37.198  1.00  0.00     0.049 A 
ATOM     62  H   UNL A   1      41.123  31.088  35.390  1.00  0.00     0.167 HD
ATOM     63  C   UNL A   1      39.643  33.205  36.512  1.00  0.00     0.074 A 
ATOM     64  C   UNL A   1      38.618  34.211  36.689  1.00  0.00     0.031 C 
ATOM     65  C   UNL A   1      40.670  33.002  37.376  1.00  0.00     0.031 A 
BRANCH  52  66
ATOM     66  C   UNL A   1      44.464  28.438  35.660  1.00  0.00    -0.014 A 
ATOM     67  C   UNL A   1      45.738  28.813  35.193  1.00  0.00     0.010 A 
ATOM     68  C   UNL A   1      44.336  27.281  36.448  1.00  0.00     0.010 A 
ATOM     69  C   UNL A   1      46.854  28.023  35.475  1.00  0.00     0.020 A 
ATOM     70  C   UNL A   1      45.454  26.501  36.754  1.00  0.00     0.020 A 
ATOM     71  C   UNL A   1      46.704  26.868  36.250  1.00  0.00     0.054 A 
BRANCH  71  72
ATOM     72  S   UNL A   1      48.171  25.866  36.612  1.00  0.00     0.124 S 
ATOM     73  O   UNL A   1      48.226  24.985  35.448  1.00  0.00    -0.237 OA
ATOM     74  O   UNL A   1      49.232  26.866  36.693  1.00  0.00    -0.237 OA
ATOM     75  O   UNL A   1      47.839  25.208  37.874  1.00  0.00    -0.744 OA
ENDBRANCH  71  72
ENDBRANCH  52  66
BRANCH  53  76
ATOM     76  C   UNL A   1      36.278  33.573  33.247  1.00  0.00    -0.014 A 
ATOM     77  C   UNL A   1      35.003  33.077  33.571  1.00  0.00     0.010 A 
ATOM     78  C   UNL A   1      36.381  34.802  32.570  1.00  0.00     0.010 A 
ATOM     79  C   UNL A   1      33.853  33.784  33.203  1.00  0.00     0.020 A 
ATOM     80  C   UNL A   1      35.235  35.525  32.225  1.00  0.00     0.020 A 
ATOM     81  C   UNL A   1      33.977  35.004  32.533  1.00  0.00     0.054 A 
BRANCH  81  82
ATOM     82  S   UNL A   1      32.475  35.927  32.102  1.00  0.00     0.124 S 
ATOM     83  O   UNL A   1      32.558  35.977  30.646  1.00  0.00    -0.237 OA
ATOM     84  O   UNL A   1      31.417  35.081  32.648  1.00  0.00    -0.237 OA
ATOM     85  O   UNL A   1      32.654  37.207  32.784  1.00  0.00    -0.744 OA
ENDBRANCH  81  82
ENDBRANCH  53  76
BRANCH  65  86
ATOM     86  C   UNL A   1      40.756  33.909  38.579  1.00  0.00    -0.014 A 
ATOM     87  C   UNL A   1      40.249  33.516  39.831  1.00  0.00     0.010 A 
ATOM     88  C   UNL A   1      41.374  35.167  38.458  1.00  0.00     0.010 A 
ATOM     89  C   UNL A   1      40.312  34.385  40.925  1.00  0.00     0.020 A 
ATOM     90  C   UNL A   1      41.466  36.026  39.557  1.00  0.00     0.020 A 
ATOM     91  C   UNL A   1      40.914  35.638  40.779  1.00  0.00     0.054 A 
BRANCH  91  92
ATOM     92  S   UNL A   1      40.991  36.748  42.212  1.00  0.00     0.124 S 
ATOM     93  O   UNL A   1      40.506  35.888  43.289  1.00  0.00    -0.237 OA
ATOM     94  O   UNL A   1      42.409  37.094  42.276  1.00  0.00    -0.237 OA
ATOM     95  O   UNL A   1      40.104  37.849  41.845  1.00  0.00    -0.744 OA
ENDBRANCH  91  92
ENDBRANCH  65  86
ENDBRANCH  39  40
ENDBRANCH  32  34
ENDBRANCH  31  32
ENDBRANCH  30  31
ENDBRANCH  29  30
ENDBRANCH  28  29
ENDBRANCH  27  28
ENDBRANCH   1  27
TORSDOF 24
ENDMDL
MODEL 3
REMARK VINA RESULT:     -10.2      2.439      3.758
REMARK SMILES CO[C@H]1CCC[C@H]1NC(=O)N[C@](C)(C(=O)OCCOCCOCCOC(=O)c1ccc(-c2c3nc(c(-c4ccc(S(=O)(=O)[O-])cc4)c4ccc([nH]4)c(-c4ccc(S(=O)(=O)[O-])cc4)c4nc(c(-c5ccc(S(=O)(=O)[O-])cc5)c5ccc2[nH]5)C=C4)C=C3)cc1)C(F)(F)F
REMARK SMILES IDX 20 1 19 2 18 3 17 4 16 5 14 6 15 7 12 8 13 9 11 10 8 11 9 12
REMARK SMILES IDX 10 14 7 16 3 17 4 18 5 19 6 20 2 21 1 22 88 23 89 24 90 25
REMARK SMILES IDX 91 26 21 27 22 28 23 29 24 30 25 31 26 32 27 33 28 34 29 35
REMARK SMILES IDX 87 36 30 37 86 38 31 39 32 40 33 41 80 42 34 43 85 44 79 45
REMARK SMILES IDX 81 46 35 47 84 48 78 49 77 50 36 52 66 53 47 54 65 55 48 56
REMARK SMILES IDX 51 57 64 58 82 59 49 60 50 61 63 63 83 64 52 65 37 66 38 67
REMARK SMILES IDX 46 68 39 69 45 70 40 71 41 72 42 73 43 74 44 75 67 76 68 77
REMARK SMILES IDX 76 78 69 79 75 80 70 81 71 82 72 83 73 84 74 85 53 86 54 87
REMARK SMILES IDX 62 88 55 89 61 90 56 91 57 92 58 93 59 94 60 95
REMARK H PARENT 8 13 11 15 81 51 51 62
REMARK Flexibility Score: inf
ROOT
ATOM      1  C   UNL A   1      39.517  22.318  26.701  1.00  0.00     0.188 C 
ENDROOT
BRANCH   1   2
ATOM      2  O   UNL A   1      39.051  21.166  26.006  1.00  0.00    -0.376 OA
BRANCH   2   3
ATOM      3  C   UNL A   1      38.090  21.392  24.968  1.00  0.00     0.202 C 
BRANCH   3   4
ATOM      4  C   UNL A   1      36.768  20.616  25.100  1.00  0.00     0.261 C 
BRANCH   4   5
ATOM      5  O   UNL A   1      35.683  21.387  24.550  1.00  0.00    -0.461 OA
BRANCH   5   6
ATOM      6  C   UNL A   1      34.805  21.971  25.414  1.00  0.00     0.341 C 
ATOM      7  O   UNL A   1      34.770  21.746  26.619  1.00  0.00    -0.249 OA
BRANCH   6   8
ATOM      8  C   UNL A   1      33.897  22.987  24.690  1.00  0.00     0.232 C 
ATOM      9  C   UNL A   1      33.756  22.528  23.217  1.00  0.00     0.058 C 
BRANCH   8  10
ATOM     10  N   UNL A   1      32.549  22.941  25.331  1.00  0.00    -0.315 N 
ATOM     11  N   UNL A   1      31.777  20.692  25.214  1.00  0.00    -0.333 N 
ATOM     12  C   UNL A   1      31.639  21.982  25.550  1.00  0.00     0.316 C 
ATOM     13  H   UNL A   1      31.049  20.142  25.583  1.00  0.00     0.165 HD
ATOM     14  O   UNL A   1      30.608  22.315  26.141  1.00  0.00    -0.249 OA
ATOM     15  H   UNL A   1      32.261  23.819  25.669  1.00  0.00     0.166 HD
BRANCH  11  16
ATOM     16  C   UNL A   1      32.720  19.891  24.450  1.00  0.00     0.112 C 
ATOM     17  C   UNL A   1      33.283  18.647  25.171  1.00  0.00     0.140 C 
ATOM     18  C   UNL A   1      34.022  17.972  24.014  1.00  0.00     0.034 C 
ATOM     19  C   UNL A   1      33.133  18.197  22.786  1.00  0.00     0.005 C 
ATOM     20  C   UNL A   1      32.125  19.282  23.179  1.00  0.00     0.028 C 
BRANCH  17  21
ATOM     21  O   UNL A   1      32.220  17.837  25.682  1.00  0.00    -0.379 OA
ATOM     22  C   UNL A   1      32.560  16.456  25.742  1.00  0.00     0.195 C 
ENDBRANCH  17  21
ENDBRANCH  11  16
ENDBRANCH   8  10
BRANCH   8  23
ATOM     23  C   UNL A   1      34.617  24.341  24.921  1.00  0.00     0.422 C 
ATOM     24  F   UNL A   1      34.278  24.892  26.114  1.00  0.00    -0.168 F 
ATOM     25  F   UNL A   1      35.966  24.217  24.937  1.00  0.00    -0.168 F 
ATOM     26  F   UNL A   1      34.344  25.264  23.973  1.00  0.00    -0.168 F 
ENDBRANCH   8  23
ENDBRANCH   6   8
ENDBRANCH   5   6
ENDBRANCH   4   5
ENDBRANCH   3   4
ENDBRANCH   2   3
ENDBRANCH   1   2
BRANCH   1  27
ATOM     27  C   UNL A   1      41.013  22.617  26.572  1.00  0.00     0.188 C 
BRANCH  27  28
ATOM     28  O   UNL A   1      41.688  21.884  25.554  1.00  0.00    -0.376 OA
BRANCH  28  29
ATOM     29  C   UNL A   1      42.956  22.421  25.151  1.00  0.00     0.202 C 
BRANCH  29  30
ATOM     30  C   UNL A   1      43.677  23.298  26.198  1.00  0.00     0.261 C 
BRANCH  30  31
ATOM     31  O   UNL A   1      43.509  24.717  25.997  1.00  0.00    -0.460 OA
BRANCH  31  32
ATOM     32  C   UNL A   1      44.389  25.527  26.630  1.00  0.00     0.338 C 
ATOM     33  O   UNL A   1      45.547  25.728  26.301  1.00  0.00    -0.246 OA
BRANCH  32  34
ATOM     34  C   UNL A   1      43.657  26.341  27.637  1.00  0.00     0.060 A 
ATOM     35  C   UNL A   1      44.002  27.694  27.744  1.00  0.00     0.016 A 
ATOM     36  C   UNL A   1      42.624  25.826  28.425  1.00  0.00     0.016 A 
ATOM     37  C   UNL A   1      43.365  28.517  28.672  1.00  0.00     0.010 A 
ATOM     38  C   UNL A   1      41.985  26.651  29.361  1.00  0.00     0.010 A 
ATOM     39  C   UNL A   1      42.381  27.992  29.517  1.00  0.00    -0.014 A 
BRANCH  39  40
ATOM     40  C   UNL A   1      41.920  28.800  30.675  1.00  0.00     0.031 A 
ATOM     41  C   UNL A   1      42.721  28.751  31.952  1.00  0.00     0.074 A 
ATOM     42  C   UNL A   1      40.860  29.624  30.588  1.00  0.00     0.049 A 
ATOM     43  N   UNL A   1      42.558  29.427  33.060  1.00  0.00    -0.248 NA
ATOM     44  C   UNL A   1      43.860  27.819  31.976  1.00  0.00     0.031 C 
ATOM     45  C   UNL A   1      40.016  29.803  29.407  1.00  0.00     0.029 A 
ATOM     46  N   UNL A   1      40.320  30.480  31.518  1.00  0.00    -0.354 N 
ATOM     47  C   UNL A   1      43.577  29.011  33.909  1.00  0.00     0.074 A 
ATOM     48  C   UNL A   1      44.327  27.994  33.203  1.00  0.00     0.031 C 
ATOM     49  C   UNL A   1      39.066  30.714  29.685  1.00  0.00     0.029 A 
ATOM     50  C   UNL A   1      39.222  31.171  31.065  1.00  0.00     0.049 A 
ATOM     51  H   UNL A   1      40.686  30.586  32.426  1.00  0.00     0.167 HD
ATOM     52  C   UNL A   1      43.875  29.438  35.159  1.00  0.00     0.031 A 
ATOM     53  C   UNL A   1      38.431  32.066  31.692  1.00  0.00     0.031 A 
ATOM     54  C   UNL A   1      43.125  30.430  35.880  1.00  0.00     0.049 A 
ATOM     55  C   UNL A   1      38.737  32.473  33.112  1.00  0.00     0.074 A 
ATOM     56  C   UNL A   1      43.358  30.929  37.150  1.00  0.00     0.029 A 
ATOM     57  N   UNL A   1      41.988  31.065  35.406  1.00  0.00    -0.354 N 
ATOM     58  N   UNL A   1      39.726  32.093  33.886  1.00  0.00    -0.248 NA
ATOM     59  C   UNL A   1      37.826  33.445  33.734  1.00  0.00     0.031 C 
ATOM     60  C   UNL A   1      42.332  31.828  37.465  1.00  0.00     0.029 A 
ATOM     61  C   UNL A   1      41.494  31.932  36.366  1.00  0.00     0.049 A 
ATOM     62  H   UNL A   1      41.591  30.923  34.516  1.00  0.00     0.167 HD
ATOM     63  C   UNL A   1      39.569  32.802  35.075  1.00  0.00     0.074 A 
ATOM     64  C   UNL A   1      38.404  33.644  34.910  1.00  0.00     0.031 C 
ATOM     65  C   UNL A   1      40.327  32.760  36.201  1.00  0.00     0.031 A 
BRANCH  52  66
ATOM     66  C   UNL A   1      45.058  28.803  35.838  1.00  0.00    -0.014 A 
ATOM     67  C   UNL A   1      46.346  29.357  35.722  1.00  0.00     0.010 A 
ATOM     68  C   UNL A   1      44.875  27.648  36.619  1.00  0.00     0.010 A 
ATOM     69  C   UNL A   1      47.436  28.743  36.343  1.00  0.00     0.020 A 
ATOM     70  C   UNL A   1      45.958  27.046  37.263  1.00  0.00     0.020 A 
ATOM     71  C   UNL A   1      47.236  27.588  37.106  1.00  0.00     0.054 A 
BRANCH  71  72
ATOM     72  S   UNL A   1      48.667  26.818  37.911  1.00  0.00     0.124 S 
ATOM     73  O   UNL A   1      48.060  26.238  39.107  1.00  0.00    -0.237 OA
ATOM     74  O   UNL A   1      49.122  25.859  36.909  1.00  0.00    -0.237 OA
ATOM     75  O   UNL A   1      49.572  27.939  38.155  1.00  0.00    -0.744 OA
ENDBRANCH  71  72
ENDBRANCH  52  66
BRANCH  53  76
ATOM     76  C   UNL A   1      37.252  32.643  30.986  1.00  0.00    -0.014 A 
ATOM     77  C   UNL A   1      35.980  32.056  31.107  1.00  0.00     0.010 A 
ATOM     78  C   UNL A   1      37.407  33.772  30.162  1.00  0.00     0.010 A 
ATOM     79  C   UNL A   1      34.890  32.575  30.400  1.00  0.00     0.020 A 
ATOM     80  C   UNL A   1      36.315  34.310  29.475  1.00  0.00     0.020 A 
ATOM     81  C   UNL A   1      35.065  33.699  29.589  1.00  0.00     0.054 A 
BRANCH  81  82
ATOM     82  S   UNL A   1      33.630  34.383  28.713  1.00  0.00     0.124 S 
ATOM     83  O   UNL A   1      34.215  35.526  28.020  1.00  0.00    -0.237 OA
ATOM     84  O   UNL A   1      33.220  33.269  27.862  1.00  0.00    -0.237 OA
ATOM     85  O   UNL A   1      32.698  34.712  29.789  1.00  0.00    -0.744 OA
ENDBRANCH  81  82
ENDBRANCH  53  76
BRANCH  65  86
ATOM     86  C   UNL A   1      39.938  33.677  37.335  1.00  0.00    -0.014 A 
ATOM     87  C   UNL A   1      40.353  35.021  37.366  1.00  0.00     0.010 A 
ATOM     88  C   UNL A   1      39.125  33.190  38.374  1.00  0.00     0.010 A 
ATOM     89  C   UNL A   1      40.006  35.844  38.442  1.00  0.00     0.020 A 
ATOM     90  C   UNL A   1      38.750  34.019  39.436  1.00  0.00     0.020 A 
ATOM     91  C   UNL A   1      39.213  35.336  39.474  1.00  0.00     0.054 A 
BRANCH  91  92
ATOM     92  S   UNL A   1      38.768  36.422  40.857  1.00  0.00     0.124 S 
ATOM     93  O   UNL A   1      40.038  36.541  41.570  1.00  0.00    -0.237 OA
ATOM     94  O   UNL A   1      38.312  37.634  40.181  1.00  0.00    -0.237 OA
ATOM     95  O   UNL A   1      37.726  35.679  41.561  1.00  0.00    -0.744 OA
ENDBRANCH  91  92
ENDBRANCH  65  86
ENDBRANCH  39  40
ENDBRANCH  32  34
ENDBRANCH  31  32
ENDBRANCH  30  31
ENDBRANCH  29  30
ENDBRANCH  28  29
ENDBRANCH  27  28
ENDBRANCH   1  27
TORSDOF 24
ENDMDL
