MODEL 1
REMARK VINA RESULT:      -8.2      0.000      0.000
REMARK SMILES Cc1ccccc1C(=O)Nc1cc(C(=O)OCCOCCOCCOC(=O)c2ccc(-c3c4nc(c(-c5ccc(S(=O)(=O)[O-])cc5)c5ccc([nH]5)c(-c5ccc(S(=O)(=O)[O-])cc5)c5nc(c(-c6ccc(S(=O)(=O)[O-])cc6)c6ccc3[nH]6)C=C5)C=C4)cc2)ccc1N1CC[NH+](CC(=O)Nc2ccc(F)cc2)CC1
REMARK SMILES IDX 20 1 19 2 18 3 17 4 16 5 14 6 15 7 13 8 11 9 12 10 90 11
REMARK SMILES IDX 89 12 88 13 10 14 8 15 9 16 7 18 1 19 2 20 3 21 4 22 6 23
REMARK SMILES IDX 5 24 91 25 92 26 107 27 93 28 106 29 94 30 95 32 96 33 97 34
REMARK SMILES IDX 98 35 99 37 100 38 105 39 101 40 104 41 102 42 103 43 21 44
REMARK SMILES IDX 22 45 23 46 24 47 25 48 26 49 27 50 28 51 29 52 87 53 30 54
REMARK SMILES IDX 86 55 31 56 32 57 33 58 80 59 34 60 85 61 79 62 81 63 35 64
REMARK SMILES IDX 84 65 78 66 77 67 36 69 66 70 47 71 65 72 48 73 51 74 64 75
REMARK SMILES IDX 82 76 49 77 50 78 63 80 83 81 52 82 37 83 38 84 46 85 39 86
REMARK SMILES IDX 45 87 40 88 41 89 42 90 43 91 44 92 67 93 68 94 76 95 69 96
REMARK SMILES IDX 75 97 70 98 71 99 72 100 73 101 74 102 53 103 54 104 62 105
REMARK SMILES IDX 55 106 61 107 56 108 57 109 58 110 59 111 60 112
REMARK H PARENT 10 17 94 31 98 36 81 68 51 79
REMARK Flexibility Score: inf
ROOT
ATOM      1  C   UNL A   1      46.699  25.820  25.024  1.00  0.00     0.188 C 
ENDROOT
BRANCH   1   2
ATOM      2  O   UNL A   1      45.575  26.688  24.941  1.00  0.00    -0.376 OA
BRANCH   2   3
ATOM      3  C   UNL A   1      45.600  27.631  25.998  1.00  0.00     0.202 C 
BRANCH   3   4
ATOM      4  C   UNL A   1      46.316  28.978  25.751  1.00  0.00     0.261 C 
BRANCH   4   5
ATOM      5  O   UNL A   1      46.367  30.072  26.898  1.00  0.00    -0.460 OA
BRANCH   5   6
ATOM      6  C   UNL A   1      46.499  31.459  27.188  1.00  0.00     0.338 C 
ATOM      7  O   UNL A   1      47.086  31.678  28.255  1.00  0.00    -0.246 OA
BRANCH   6   8
ATOM      8  C   UNL A   1      45.799  32.893  26.600  1.00  0.00     0.062 A 
ATOM      9  C   UNL A   1      45.935  35.432  26.128  1.00  0.00     0.065 A 
ATOM     10  C   UNL A   1      46.298  34.056  25.880  1.00  0.00     0.044 A 
ATOM     11  C   UNL A   1      44.914  35.670  27.102  1.00  0.00     0.061 A 
ATOM     12  C   UNL A   1      44.208  34.517  27.523  1.00  0.00     0.029 A 
ATOM     13  C   UNL A   1      44.640  33.195  27.304  1.00  0.00     0.018 A 
BRANCH   9  14
ATOM     14  N   UNL A   1      46.712  36.567  25.670  1.00  0.00    -0.320 N 
ATOM     15  C   UNL A   1      47.929  37.280  25.672  1.00  0.00     0.255 C 
ATOM     16  O   UNL A   1      47.935  38.231  24.866  1.00  0.00    -0.269 OA
ATOM     17  H   UNL A   1      46.109  37.080  25.085  1.00  0.00     0.170 HD
BRANCH  15  18
ATOM     18  C   UNL A   1      49.227  37.186  26.477  1.00  0.00     0.043 A 
ATOM     19  C   UNL A   1      50.790  36.203  24.337  1.00  0.00     0.045 C 
ATOM     20  C   UNL A   1      50.544  36.107  25.817  1.00  0.00    -0.038 A 
ATOM     21  C   UNL A   1      51.464  34.921  26.954  1.00  0.00     0.004 A 
ATOM     22  C   UNL A   1      51.046  34.842  28.774  1.00  0.00     0.000 A 
ATOM     23  C   UNL A   1      48.893  37.211  28.311  1.00  0.00     0.014 A 
ATOM     24  C   UNL A   1      49.744  35.976  29.466  1.00  0.00     0.001 A 
ENDBRANCH  15  18
ENDBRANCH   9  14
BRANCH  11  25
ATOM     25  N   UNL A   1      44.597  36.904  27.712  1.00  0.00    -0.359 N 
ATOM     26  C   UNL A   1      43.228  37.097  28.305  1.00  0.00     0.178 C 
ATOM     27  C   UNL A   1      45.209  38.181  27.353  1.00  0.00     0.178 C 
ATOM     28  C   UNL A   1      43.024  38.388  29.171  1.00  0.00     0.284 C 
ATOM     29  C   UNL A   1      45.214  39.097  28.588  1.00  0.00     0.284 C 
ATOM     30  N   UNL A   1      43.877  39.565  28.938  1.00  0.00    -0.324 N 
ATOM     31  H   UNL A   1      43.915  40.085  29.815  1.00  0.00     0.348 HD
BRANCH  30  32
ATOM     32  C   UNL A   1      43.336  40.641  28.080  1.00  0.00     0.364 C 
BRANCH  32  33
ATOM     33  C   UNL A   1      44.039  41.995  28.082  1.00  0.00     0.279 C 
ATOM     34  O   UNL A   1      44.537  42.409  27.023  1.00  0.00    -0.268 OA
ATOM     35  N   UNL A   1      44.153  42.828  29.163  1.00  0.00    -0.321 N 
ATOM     36  H   UNL A   1      44.433  43.732  28.893  1.00  0.00     0.170 HD
BRANCH  35  37
ATOM     37  C   UNL A   1      43.976  42.735  30.563  1.00  0.00     0.041 A 
ATOM     38  C   UNL A   1      42.709  43.114  31.047  1.00  0.00     0.029 A 
ATOM     39  C   UNL A   1      44.956  42.415  31.499  1.00  0.00     0.029 A 
ATOM     40  C   UNL A   1      42.463  43.253  32.420  1.00  0.00     0.041 A 
ATOM     41  C   UNL A   1      44.730  42.603  32.872  1.00  0.00     0.041 A 
ATOM     42  C   UNL A   1      43.488  43.026  33.321  1.00  0.00     0.123 A 
ATOM     43  F   UNL A   1      43.278  43.200  34.632  1.00  0.00    -0.207 F 
ENDBRANCH  35  37
ENDBRANCH  32  33
ENDBRANCH  30  32
ENDBRANCH  11  25
ENDBRANCH   6   8
ENDBRANCH   5   6
ENDBRANCH   4   5
ENDBRANCH   3   4
ENDBRANCH   2   3
ENDBRANCH   1   2
BRANCH   1  44
ATOM     44  C   UNL A   1      46.565  24.847  26.198  1.00  0.00     0.188 C 
BRANCH  44  45
ATOM     45  O   UNL A   1      46.084  23.549  25.835  1.00  0.00    -0.376 OA
BRANCH  45  46
ATOM     46  C   UNL A   1      46.147  23.228  24.450  1.00  0.00     0.202 C 
BRANCH  46  47
ATOM     47  C   UNL A   1      45.094  22.166  24.123  1.00  0.00     0.261 C 
BRANCH  47  48
ATOM     48  O   UNL A   1      43.744  22.682  24.144  1.00  0.00    -0.460 OA
BRANCH  48  49
ATOM     49  C   UNL A   1      42.969  22.246  25.177  1.00  0.00     0.338 C 
ATOM     50  O   UNL A   1      42.797  21.078  25.472  1.00  0.00    -0.246 OA
BRANCH  49  51
ATOM     51  C   UNL A   1      42.360  23.422  25.855  1.00  0.00     0.060 A 
ATOM     52  C   UNL A   1      42.651  24.699  25.417  1.00  0.00     0.016 A 
ATOM     53  C   UNL A   1      41.684  23.270  27.065  1.00  0.00     0.016 A 
ATOM     54  C   UNL A   1      42.432  25.773  26.290  1.00  0.00     0.010 A 
ATOM     55  C   UNL A   1      41.658  24.323  27.977  1.00  0.00     0.010 A 
ATOM     56  C   UNL A   1      42.173  25.586  27.656  1.00  0.00    -0.014 A 
BRANCH  56  57
ATOM     57  C   UNL A   1      42.239  26.530  28.846  1.00  0.00     0.031 A 
ATOM     58  C   UNL A   1      41.152  27.544  28.756  1.00  0.00     0.074 A 
ATOM     59  C   UNL A   1      43.179  26.963  29.804  1.00  0.00     0.049 A 
ATOM     60  N   UNL A   1      41.287  28.596  29.450  1.00  0.00    -0.248 NA
ATOM     61  C   UNL A   1      40.075  27.576  27.820  1.00  0.00     0.031 C 
ATOM     62  C   UNL A   1      42.852  27.424  31.179  1.00  0.00     0.029 A 
ATOM     63  N   UNL A   1      44.568  26.971  29.951  1.00  0.00    -0.354 N 
ATOM     64  C   UNL A   1      40.368  29.681  29.303  1.00  0.00     0.074 A 
ATOM     65  C   UNL A   1      39.492  28.718  28.188  1.00  0.00     0.031 C 
ATOM     66  C   UNL A   1      43.944  27.902  31.816  1.00  0.00     0.029 A 
ATOM     67  C   UNL A   1      45.099  27.681  30.990  1.00  0.00     0.049 A 
ATOM     68  H   UNL A   1      45.146  26.479  29.324  1.00  0.00     0.167 HD
ATOM     69  C   UNL A   1      40.292  31.383  30.079  1.00  0.00     0.031 A 
ATOM     70  C   UNL A   1      46.385  28.091  31.135  1.00  0.00     0.031 A 
ATOM     71  C   UNL A   1      41.336  32.138  31.266  1.00  0.00     0.049 A 
ATOM     72  C   UNL A   1      46.432  29.545  31.553  1.00  0.00     0.074 A 
ATOM     73  C   UNL A   1      41.417  31.938  32.672  1.00  0.00     0.029 A 
ATOM     74  N   UNL A   1      42.546  32.791  30.989  1.00  0.00    -0.354 N 
ATOM     75  N   UNL A   1      45.373  30.306  31.693  1.00  0.00    -0.248 NA
ATOM     76  C   UNL A   1      47.681  30.280  31.756  1.00  0.00     0.031 C 
ATOM     77  C   UNL A   1      42.770  32.018  33.068  1.00  0.00     0.029 A 
ATOM     78  C   UNL A   1      43.493  32.430  31.972  1.00  0.00     0.049 A 
ATOM     79  H   UNL A   1      42.708  33.401  30.233  1.00  0.00     0.167 HD
ATOM     80  C   UNL A   1      45.777  31.611  31.857  1.00  0.00     0.074 A 
ATOM     81  C   UNL A   1      47.227  31.530  31.951  1.00  0.00     0.031 C 
ATOM     82  C   UNL A   1      44.923  32.681  31.864  1.00  0.00     0.031 A 
BRANCH  69  83
ATOM     83  C   UNL A   1      38.919  32.532  30.412  1.00  0.00    -0.014 A 
ATOM     84  C   UNL A   1      37.744  31.901  30.919  1.00  0.00     0.010 A 
ATOM     85  C   UNL A   1      38.684  33.828  29.890  1.00  0.00     0.010 A 
ATOM     86  C   UNL A   1      36.444  32.365  30.725  1.00  0.00     0.020 A 
ATOM     87  C   UNL A   1      37.359  34.275  29.608  1.00  0.00     0.020 A 
ATOM     88  C   UNL A   1      36.252  33.510  29.986  1.00  0.00     0.054 A 
BRANCH  88  89
ATOM     89  S   UNL A   1      34.574  33.821  29.366  1.00  0.00     0.124 S 
ATOM     90  O   UNL A   1      33.874  34.320  30.551  1.00  0.00    -0.237 OA
ATOM     91  O   UNL A   1      34.804  34.811  28.320  1.00  0.00    -0.237 OA
ATOM     92  O   UNL A   1      34.129  32.507  28.912  1.00  0.00    -0.744 OA
ENDBRANCH  88  89
ENDBRANCH  69  83
BRANCH  70  93
ATOM     93  C   UNL A   1      47.454  27.296  30.416  1.00  0.00    -0.014 A 
ATOM     94  C   UNL A   1      47.706  27.617  29.057  1.00  0.00     0.010 A 
ATOM     95  C   UNL A   1      48.383  26.450  31.043  1.00  0.00     0.010 A 
ATOM     96  C   UNL A   1      48.897  27.243  28.402  1.00  0.00     0.020 A 
ATOM     97  C   UNL A   1      49.584  26.068  30.386  1.00  0.00     0.020 A 
ATOM     98  C   UNL A   1      49.862  26.516  29.091  1.00  0.00     0.054 A 
BRANCH  98  99
ATOM     99  S   UNL A   1      51.545  26.342  28.373  1.00  0.00     0.124 S 
ATOM    100  O   UNL A   1      52.347  26.014  29.548  1.00  0.00    -0.237 OA
ATOM    101  O   UNL A   1      51.394  25.247  27.415  1.00  0.00    -0.237 OA
ATOM    102  O   UNL A   1      51.813  27.655  27.793  1.00  0.00    -0.744 OA
ENDBRANCH  98  99
ENDBRANCH  70  93
BRANCH  82 103
ATOM    103  C   UNL A   1      45.354  34.110  31.940  1.00  0.00    -0.014 A 
ATOM    104  C   UNL A   1      45.427  34.970  30.839  1.00  0.00     0.010 A 
ATOM    105  C   UNL A   1      45.560  34.656  33.229  1.00  0.00     0.010 A 
ATOM    106  C   UNL A   1      45.715  36.326  31.022  1.00  0.00     0.020 A 
ATOM    107  C   UNL A   1      45.798  36.008  33.423  1.00  0.00     0.020 A 
ATOM    108  C   UNL A   1      45.886  36.836  32.314  1.00  0.00     0.054 A 
BRANCH 108 109
ATOM    109  S   UNL A   1      46.118  38.607  32.568  1.00  0.00     0.124 S 
ATOM    110  O   UNL A   1      44.767  39.119  32.359  1.00  0.00    -0.237 OA
ATOM    111  O   UNL A   1      46.615  38.678  33.940  1.00  0.00    -0.237 OA
ATOM    112  O   UNL A   1      47.095  38.967  31.543  1.00  0.00    -0.744 OA
ENDBRANCH 108 109
ENDBRANCH  82 103
ENDBRANCH  56  57
ENDBRANCH  49  51
ENDBRANCH  48  49
ENDBRANCH  47  48
ENDBRANCH  46  47
ENDBRANCH  45  46
ENDBRANCH  44  45
ENDBRANCH   1  44
TORSDOF 26
ENDMDL
MODEL 2
REMARK VINA RESULT:      -8.1      1.699      2.157
REMARK SMILES Cc1ccccc1C(=O)Nc1cc(C(=O)OCCOCCOCCOC(=O)c2ccc(-c3c4nc(c(-c5ccc(S(=O)(=O)[O-])cc5)c5ccc([nH]5)c(-c5ccc(S(=O)(=O)[O-])cc5)c5nc(c(-c6ccc(S(=O)(=O)[O-])cc6)c6ccc3[nH]6)C=C5)C=C4)cc2)ccc1N1CC[NH+](CC(=O)Nc2ccc(F)cc2)CC1
REMARK SMILES IDX 20 1 19 2 18 3 17 4 16 5 14 6 15 7 13 8 11 9 12 10 90 11
REMARK SMILES IDX 89 12 88 13 10 14 8 15 9 16 7 18 1 19 2 20 3 21 4 22 6 23
REMARK SMILES IDX 5 24 91 25 92 26 107 27 93 28 106 29 94 30 95 32 96 33 97 34
REMARK SMILES IDX 98 35 99 37 100 38 105 39 101 40 104 41 102 42 103 43 21 44
REMARK SMILES IDX 22 45 23 46 24 47 25 48 26 49 27 50 28 51 29 52 87 53 30 54
REMARK SMILES IDX 86 55 31 56 32 57 33 58 80 59 34 60 85 61 79 62 81 63 35 64
REMARK SMILES IDX 84 65 78 66 77 67 36 69 66 70 47 71 65 72 48 73 51 74 64 75
REMARK SMILES IDX 82 76 49 77 50 78 63 80 83 81 52 82 37 83 38 84 46 85 39 86
REMARK SMILES IDX 45 87 40 88 41 89 42 90 43 91 44 92 67 93 68 94 76 95 69 96
REMARK SMILES IDX 75 97 70 98 71 99 72 100 73 101 74 102 53 103 54 104 62 105
REMARK SMILES IDX 55 106 61 107 56 108 57 109 58 110 59 111 60 112
REMARK H PARENT 10 17 94 31 98 36 81 68 51 79
REMARK Flexibility Score: inf
ROOT
ATOM      1  C   UNL A   1      46.454  26.109  25.247  1.00  0.00     0.188 C 
ENDROOT
BRANCH   1   2
ATOM      2  O   UNL A   1      45.274  26.892  25.119  1.00  0.00    -0.376 OA
BRANCH   2   3
ATOM      3  C   UNL A   1      45.260  27.926  26.087  1.00  0.00     0.202 C 
BRANCH   3   4
ATOM      4  C   UNL A   1      45.798  29.315  25.673  1.00  0.00     0.261 C 
BRANCH   4   5
ATOM      5  O   UNL A   1      46.060  30.425  26.773  1.00  0.00    -0.460 OA
BRANCH   5   6
ATOM      6  C   UNL A   1      46.277  31.811  27.009  1.00  0.00     0.338 C 
ATOM      7  O   UNL A   1      46.891  32.035  28.061  1.00  0.00    -0.246 OA
BRANCH   6   8
ATOM      8  C   UNL A   1      45.655  33.262  26.376  1.00  0.00     0.062 A 
ATOM      9  C   UNL A   1      45.856  35.808  25.972  1.00  0.00     0.065 A 
ATOM     10  C   UNL A   1      46.237  34.434  25.739  1.00  0.00     0.044 A 
ATOM     11  C   UNL A   1      44.734  36.036  26.831  1.00  0.00     0.061 A 
ATOM     12  C   UNL A   1      43.979  34.880  27.148  1.00  0.00     0.029 A 
ATOM     13  C   UNL A   1      44.426  33.559  26.952  1.00  0.00     0.018 A 
BRANCH   9  14
ATOM     14  N   UNL A   1      46.685  36.946  25.625  1.00  0.00    -0.320 N 
ATOM     15  C   UNL A   1      47.940  37.587  25.673  1.00  0.00     0.255 C 
ATOM     16  O   UNL A   1      47.981  38.624  24.983  1.00  0.00    -0.269 OA
ATOM     17  H   UNL A   1      46.098  37.556  25.123  1.00  0.00     0.170 HD
BRANCH  15  18
ATOM     18  C   UNL A   1      49.250  37.329  26.421  1.00  0.00     0.043 A 
ATOM     19  C   UNL A   1      50.702  36.525  24.133  1.00  0.00     0.045 C 
ATOM     20  C   UNL A   1      50.487  36.267  25.598  1.00  0.00    -0.038 A 
ATOM     21  C   UNL A   1      51.366  34.908  26.559  1.00  0.00     0.004 A 
ATOM     22  C   UNL A   1      50.988  34.635  28.369  1.00  0.00     0.000 A 
ATOM     23  C   UNL A   1      48.963  37.154  28.254  1.00  0.00     0.014 A 
ATOM     24  C   UNL A   1      49.770  35.747  29.230  1.00  0.00     0.001 A 
ENDBRANCH  15  18
ENDBRANCH   9  14
BRANCH  11  25
ATOM     25  N   UNL A   1      44.358  37.260  27.426  1.00  0.00    -0.359 N 
ATOM     26  C   UNL A   1      43.077  37.329  28.211  1.00  0.00     0.178 C 
ATOM     27  C   UNL A   1      44.746  38.574  26.921  1.00  0.00     0.178 C 
ATOM     28  C   UNL A   1      42.842  38.639  29.040  1.00  0.00     0.284 C 
ATOM     29  C   UNL A   1      44.817  39.561  28.098  1.00  0.00     0.284 C 
ATOM     30  N   UNL A   1      43.498  39.891  28.627  1.00  0.00    -0.324 N 
ATOM     31  H   UNL A   1      43.598  40.466  29.463  1.00  0.00     0.348 HD
BRANCH  30  32
ATOM     32  C   UNL A   1      42.707  40.839  27.814  1.00  0.00     0.364 C 
BRANCH  32  33
ATOM     33  C   UNL A   1      42.588  40.588  26.314  1.00  0.00     0.279 C 
ATOM     34  O   UNL A   1      41.759  39.755  25.913  1.00  0.00    -0.268 OA
ATOM     35  N   UNL A   1      43.309  41.230  25.343  1.00  0.00    -0.321 N 
ATOM     36  H   UNL A   1      42.918  41.088  24.451  1.00  0.00     0.170 HD
BRANCH  35  37
ATOM     37  C   UNL A   1      44.465  42.042  25.280  1.00  0.00     0.041 A 
ATOM     38  C   UNL A   1      44.469  43.170  26.122  1.00  0.00     0.029 A 
ATOM     39  C   UNL A   1      45.533  41.890  24.399  1.00  0.00     0.029 A 
ATOM     40  C   UNL A   1      45.460  44.156  26.020  1.00  0.00     0.041 A 
ATOM     41  C   UNL A   1      46.499  42.899  24.256  1.00  0.00     0.041 A 
ATOM     42  C   UNL A   1      46.451  44.026  25.064  1.00  0.00     0.123 A 
ATOM     43  F   UNL A   1      47.377  44.983  24.925  1.00  0.00    -0.207 F 
ENDBRANCH  35  37
ENDBRANCH  32  33
ENDBRANCH  30  32
ENDBRANCH  11  25
ENDBRANCH   6   8
ENDBRANCH   5   6
ENDBRANCH   4   5
ENDBRANCH   3   4
ENDBRANCH   2   3
ENDBRANCH   1   2
BRANCH   1  44
ATOM     44  C   UNL A   1      46.345  25.123  26.413  1.00  0.00     0.188 C 
BRANCH  44  45
ATOM     45  O   UNL A   1      45.918  23.810  26.035  1.00  0.00    -0.376 OA
BRANCH  45  46
ATOM     46  C   UNL A   1      46.119  23.460  24.671  1.00  0.00     0.202 C 
BRANCH  46  47
ATOM     47  C   UNL A   1      45.275  22.229  24.329  1.00  0.00     0.261 C 
BRANCH  47  48
ATOM     48  O   UNL A   1      43.871  22.532  24.169  1.00  0.00    -0.460 OA
BRANCH  48  49
ATOM     49  C   UNL A   1      43.051  22.027  25.134  1.00  0.00     0.338 C 
ATOM     50  O   UNL A   1      42.867  20.840  25.336  1.00  0.00    -0.246 OA
BRANCH  49  51
ATOM     51  C   UNL A   1      42.413  23.152  25.867  1.00  0.00     0.060 A 
ATOM     52  C   UNL A   1      42.498  24.438  25.367  1.00  0.00     0.016 A 
ATOM     53  C   UNL A   1      41.930  22.971  27.161  1.00  0.00     0.016 A 
ATOM     54  C   UNL A   1      42.282  25.512  26.242  1.00  0.00     0.010 A 
ATOM     55  C   UNL A   1      41.911  24.045  28.048  1.00  0.00     0.010 A 
ATOM     56  C   UNL A   1      42.234  25.345  27.634  1.00  0.00    -0.014 A 
BRANCH  56  57
ATOM     57  C   UNL A   1      42.356  26.331  28.785  1.00  0.00     0.031 A 
ATOM     58  C   UNL A   1      41.249  27.325  28.726  1.00  0.00     0.074 A 
ATOM     59  C   UNL A   1      43.344  26.811  29.668  1.00  0.00     0.049 A 
ATOM     60  N   UNL A   1      41.407  28.403  29.374  1.00  0.00    -0.248 NA
ATOM     61  C   UNL A   1      40.117  27.309  27.856  1.00  0.00     0.031 C 
ATOM     62  C   UNL A   1      43.092  27.316  31.044  1.00  0.00     0.029 A 
ATOM     63  N   UNL A   1      44.739  26.844  29.730  1.00  0.00    -0.354 N 
ATOM     64  C   UNL A   1      40.463  29.469  29.246  1.00  0.00     0.074 A 
ATOM     65  C   UNL A   1      39.538  28.455  28.220  1.00  0.00     0.031 C 
ATOM     66  C   UNL A   1      44.214  27.832  31.596  1.00  0.00     0.029 A 
ATOM     67  C   UNL A   1      45.320  27.598  30.711  1.00  0.00     0.049 A 
ATOM     68  H   UNL A   1      45.287  26.339  29.087  1.00  0.00     0.167 HD
ATOM     69  C   UNL A   1      40.406  31.196  29.967  1.00  0.00     0.031 A 
ATOM     70  C   UNL A   1      46.605  28.032  30.762  1.00  0.00     0.031 A 
ATOM     71  C   UNL A   1      41.507  32.007  31.061  1.00  0.00     0.049 A 
ATOM     72  C   UNL A   1      46.653  29.500  31.126  1.00  0.00     0.074 A 
ATOM     73  C   UNL A   1      41.676  31.858  32.466  1.00  0.00     0.029 A 
ATOM     74  N   UNL A   1      42.687  32.668  30.689  1.00  0.00    -0.354 N 
ATOM     75  N   UNL A   1      45.592  30.249  31.305  1.00  0.00    -0.248 NA
ATOM     76  C   UNL A   1      47.900  30.259  31.228  1.00  0.00     0.031 C 
ATOM     77  C   UNL A   1      43.049  31.972  32.776  1.00  0.00     0.029 A 
ATOM     78  C   UNL A   1      43.697  32.355  31.624  1.00  0.00     0.049 A 
ATOM     79  H   UNL A   1      42.793  33.252  29.904  1.00  0.00     0.167 HD
ATOM     80  C   UNL A   1      45.984  31.565  31.399  1.00  0.00     0.074 A 
ATOM     81  C   UNL A   1      47.438  31.508  31.408  1.00  0.00     0.031 C 
ATOM     82  C   UNL A   1      45.114  32.623  31.421  1.00  0.00     0.031 A 
BRANCH  69  83
ATOM     83  C   UNL A   1      39.037  32.336  30.343  1.00  0.00    -0.014 A 
ATOM     84  C   UNL A   1      37.836  31.685  30.757  1.00  0.00     0.010 A 
ATOM     85  C   UNL A   1      38.837  33.673  29.917  1.00  0.00     0.010 A 
ATOM     86  C   UNL A   1      36.550  32.182  30.556  1.00  0.00     0.020 A 
ATOM     87  C   UNL A   1      37.529  34.161  29.627  1.00  0.00     0.020 A 
ATOM     88  C   UNL A   1      36.399  33.385  29.905  1.00  0.00     0.054 A 
BRANCH  88  89
ATOM     89  S   UNL A   1      34.748  33.770  29.255  1.00  0.00     0.124 S 
ATOM     90  O   UNL A   1      33.939  32.645  29.725  1.00  0.00    -0.237 OA
ATOM     91  O   UNL A   1      34.453  35.052  29.886  1.00  0.00    -0.237 OA
ATOM     92  O   UNL A   1      34.950  33.805  27.809  1.00  0.00    -0.744 OA
ENDBRANCH  88  89
ENDBRANCH  69  83
BRANCH  70  93
ATOM     93  C   UNL A   1      47.642  27.228  30.008  1.00  0.00    -0.014 A 
ATOM     94  C   UNL A   1      47.886  27.580  28.654  1.00  0.00     0.010 A 
ATOM     95  C   UNL A   1      48.554  26.338  30.598  1.00  0.00     0.010 A 
ATOM     96  C   UNL A   1      49.058  27.190  27.974  1.00  0.00     0.020 A 
ATOM     97  C   UNL A   1      49.735  25.941  29.916  1.00  0.00     0.020 A 
ATOM     98  C   UNL A   1      50.010  26.418  28.630  1.00  0.00     0.054 A 
BRANCH  98  99
ATOM     99  S   UNL A   1      51.679  26.216  27.885  1.00  0.00     0.124 S 
ATOM    100  O   UNL A   1      52.531  26.119  29.066  1.00  0.00    -0.237 OA
ATOM    101  O   UNL A   1      51.560  24.977  27.116  1.00  0.00    -0.237 OA
ATOM    102  O   UNL A   1      51.857  27.433  27.097  1.00  0.00    -0.744 OA
ENDBRANCH  98  99
ENDBRANCH  70  93
BRANCH  82 103
ATOM    103  C   UNL A   1      45.525  34.060  31.422  1.00  0.00    -0.014 A 
ATOM    104  C   UNL A   1      45.743  34.817  30.266  1.00  0.00     0.010 A 
ATOM    105  C   UNL A   1      45.553  34.724  32.671  1.00  0.00     0.010 A 
ATOM    106  C   UNL A   1      45.999  36.189  30.360  1.00  0.00     0.020 A 
ATOM    107  C   UNL A   1      45.758  36.091  32.769  1.00  0.00     0.020 A 
ATOM    108  C   UNL A   1      45.991  36.816  31.610  1.00  0.00     0.054 A 
BRANCH 108 109
ATOM    109  S   UNL A   1      46.180  38.607  31.728  1.00  0.00     0.124 S 
ATOM    110  O   UNL A   1      44.804  39.064  31.561  1.00  0.00    -0.237 OA
ATOM    111  O   UNL A   1      46.748  38.788  33.062  1.00  0.00    -0.237 OA
ATOM    112  O   UNL A   1      47.088  38.921  30.628  1.00  0.00    -0.744 OA
ENDBRANCH 108 109
ENDBRANCH  82 103
ENDBRANCH  56  57
ENDBRANCH  49  51
ENDBRANCH  48  49
ENDBRANCH  47  48
ENDBRANCH  46  47
ENDBRANCH  45  46
ENDBRANCH  44  45
ENDBRANCH   1  44
TORSDOF 26
ENDMDL
MODEL 3
REMARK VINA RESULT:      -7.7      1.707      2.251
REMARK SMILES Cc1ccccc1C(=O)Nc1cc(C(=O)OCCOCCOCCOC(=O)c2ccc(-c3c4nc(c(-c5ccc(S(=O)(=O)[O-])cc5)c5ccc([nH]5)c(-c5ccc(S(=O)(=O)[O-])cc5)c5nc(c(-c6ccc(S(=O)(=O)[O-])cc6)c6ccc3[nH]6)C=C5)C=C4)cc2)ccc1N1CC[NH+](CC(=O)Nc2ccc(F)cc2)CC1
REMARK SMILES IDX 20 1 19 2 18 3 17 4 16 5 14 6 15 7 13 8 11 9 12 10 90 11
REMARK SMILES IDX 89 12 88 13 10 14 8 15 9 16 7 18 1 19 2 20 3 21 4 22 6 23
REMARK SMILES IDX 5 24 91 25 92 26 107 27 93 28 106 29 94 30 95 32 96 33 97 34
REMARK SMILES IDX 98 35 99 37 100 38 105 39 101 40 104 41 102 42 103 43 21 44
REMARK SMILES IDX 22 45 23 46 24 47 25 48 26 49 27 50 28 51 29 52 87 53 30 54
REMARK SMILES IDX 86 55 31 56 32 57 33 58 80 59 34 60 85 61 79 62 81 63 35 64
REMARK SMILES IDX 84 65 78 66 77 67 36 69 66 70 47 71 65 72 48 73 51 74 64 75
REMARK SMILES IDX 82 76 49 77 50 78 63 80 83 81 52 82 37 83 38 84 46 85 39 86
REMARK SMILES IDX 45 87 40 88 41 89 42 90 43 91 44 92 67 93 68 94 76 95 69 96
REMARK SMILES IDX 75 97 70 98 71 99 72 100 73 101 74 102 53 103 54 104 62 105
REMARK SMILES IDX 55 106 61 107 56 108 57 109 58 110 59 111 60 112
REMARK H PARENT 10 17 94 31 98 36 81 68 51 79
REMARK Flexibility Score: inf
ROOT
ATOM      1  C   UNL A   1      46.807  27.344  25.357  1.00  0.00     0.188 C 
ENDROOT
BRANCH   1   2
ATOM      2  O   UNL A   1      45.605  28.104  25.369  1.00  0.00    -0.376 OA
BRANCH   2   3
ATOM      3  C   UNL A   1      45.597  29.000  26.466  1.00  0.00     0.202 C 
BRANCH   3   4
ATOM      4  C   UNL A   1      46.064  30.452  26.221  1.00  0.00     0.261 C 
BRANCH   4   5
ATOM      5  O   UNL A   1      46.110  31.485  27.422  1.00  0.00    -0.460 OA
BRANCH   5   6
ATOM      6  C   UNL A   1      46.357  32.836  27.796  1.00  0.00     0.338 C 
ATOM      7  O   UNL A   1      46.141  33.055  28.994  1.00  0.00    -0.246 OA
BRANCH   6   8
ATOM      8  C   UNL A   1      46.589  34.302  26.965  1.00  0.00     0.062 A 
ATOM      9  C   UNL A   1      47.846  36.543  26.666  1.00  0.00     0.065 A 
ATOM     10  C   UNL A   1      47.751  35.103  26.604  1.00  0.00     0.044 A 
ATOM     11  C   UNL A   1      46.657  37.259  27.016  1.00  0.00     0.061 A 
ATOM     12  C   UNL A   1      45.470  36.485  27.015  1.00  0.00     0.029 A 
ATOM     13  C   UNL A   1      45.437  35.078  27.014  1.00  0.00     0.018 A 
BRANCH   9  14
ATOM     14  N   UNL A   1      49.099  37.270  26.670  1.00  0.00    -0.320 N 
ATOM     15  C   UNL A   1      50.507  37.253  26.597  1.00  0.00     0.255 C 
ATOM     16  O   UNL A   1      51.004  38.395  26.545  1.00  0.00    -0.269 OA
ATOM     17  H   UNL A   1      48.854  38.218  26.769  1.00  0.00     0.170 HD
BRANCH  15  18
ATOM     18  C   UNL A   1      51.571  36.152  26.622  1.00  0.00     0.043 A 
ATOM     19  C   UNL A   1      52.374  36.506  23.936  1.00  0.00     0.045 C 
ATOM     20  C   UNL A   1      52.125  35.489  25.014  1.00  0.00    -0.038 A 
ATOM     21  C   UNL A   1      52.297  33.631  24.757  1.00  0.00     0.004 A 
ATOM     22  C   UNL A   1      51.912  32.446  26.149  1.00  0.00     0.000 A 
ATOM     23  C   UNL A   1      51.312  34.989  28.056  1.00  0.00     0.014 A 
ATOM     24  C   UNL A   1      51.399  33.114  27.808  1.00  0.00     0.001 A 
ENDBRANCH  15  18
ENDBRANCH   9  14
BRANCH  11  25
ATOM     25  N   UNL A   1      46.569  38.611  27.413  1.00  0.00    -0.359 N 
ATOM     26  C   UNL A   1      46.606  38.948  28.879  1.00  0.00     0.178 C 
ATOM     27  C   UNL A   1      45.895  39.653  26.643  1.00  0.00     0.178 C 
ATOM     28  C   UNL A   1      46.747  40.468  29.237  1.00  0.00     0.284 C 
ATOM     29  C   UNL A   1      46.571  41.004  26.931  1.00  0.00     0.284 C 
ATOM     30  N   UNL A   1      46.292  41.488  28.278  1.00  0.00    -0.324 N 
ATOM     31  H   UNL A   1      46.837  42.332  28.458  1.00  0.00     0.348 HD
BRANCH  30  32
ATOM     32  C   UNL A   1      44.945  42.063  28.482  1.00  0.00     0.364 C 
BRANCH  32  33
ATOM     33  C   UNL A   1      44.809  43.580  28.578  1.00  0.00     0.279 C 
ATOM     34  O   UNL A   1      45.248  44.278  27.650  1.00  0.00    -0.268 OA
ATOM     35  N   UNL A   1      44.210  44.258  29.606  1.00  0.00    -0.321 N 
ATOM     36  H   UNL A   1      44.028  45.194  29.362  1.00  0.00     0.170 HD
BRANCH  35  37
ATOM     37  C   UNL A   1      43.785  43.973  30.924  1.00  0.00     0.041 A 
ATOM     38  C   UNL A   1      42.953  42.846  31.070  1.00  0.00     0.029 A 
ATOM     39  C   UNL A   1      44.020  44.752  32.054  1.00  0.00     0.029 A 
ATOM     40  C   UNL A   1      42.309  42.564  32.283  1.00  0.00     0.041 A 
ATOM     41  C   UNL A   1      43.337  44.505  33.255  1.00  0.00     0.041 A 
ATOM     42  C   UNL A   1      42.483  43.417  33.358  1.00  0.00     0.123 A 
ATOM     43  F   UNL A   1      41.837  43.184  34.508  1.00  0.00    -0.207 F 
ENDBRANCH  35  37
ENDBRANCH  32  33
ENDBRANCH  30  32
ENDBRANCH  11  25
ENDBRANCH   6   8
ENDBRANCH   5   6
ENDBRANCH   4   5
ENDBRANCH   3   4
ENDBRANCH   2   3
ENDBRANCH   1   2
BRANCH   1  44
ATOM     44  C   UNL A   1      46.830  26.321  26.495  1.00  0.00     0.188 C 
BRANCH  44  45
ATOM     45  O   UNL A   1      46.436  25.000  26.107  1.00  0.00    -0.376 OA
BRANCH  45  46
ATOM     46  C   UNL A   1      47.010  24.510  24.900  1.00  0.00     0.202 C 
BRANCH  46  47
ATOM     47  C   UNL A   1      46.202  23.310  24.400  1.00  0.00     0.261 C 
BRANCH  47  48
ATOM     48  O   UNL A   1      44.871  23.667  23.962  1.00  0.00    -0.460 OA
BRANCH  48  49
ATOM     49  C   UNL A   1      43.856  22.993  24.571  1.00  0.00     0.338 C 
ATOM     50  O   UNL A   1      43.665  21.794  24.478  1.00  0.00    -0.246 OA
BRANCH  49  51
ATOM     51  C   UNL A   1      43.020  23.959  25.333  1.00  0.00     0.060 A 
ATOM     52  C   UNL A   1      43.106  25.311  25.061  1.00  0.00     0.016 A 
ATOM     53  C   UNL A   1      42.325  23.550  26.470  1.00  0.00     0.016 A 
ATOM     54  C   UNL A   1      42.664  26.219  26.032  1.00  0.00     0.010 A 
ATOM     55  C   UNL A   1      42.073  24.465  27.490  1.00  0.00     0.010 A 
ATOM     56  C   UNL A   1      42.376  25.826  27.348  1.00  0.00    -0.014 A 
BRANCH  56  57
ATOM     57  C   UNL A   1      42.221  26.616  28.638  1.00  0.00     0.031 A 
ATOM     58  C   UNL A   1      40.902  27.308  28.659  1.00  0.00     0.074 A 
ATOM     59  C   UNL A   1      43.037  27.174  29.643  1.00  0.00     0.049 A 
ATOM     60  N   UNL A   1      40.772  28.274  29.468  1.00  0.00    -0.248 NA
ATOM     61  C   UNL A   1      39.831  27.156  27.727  1.00  0.00     0.031 C 
ATOM     62  C   UNL A   1      42.635  27.377  31.059  1.00  0.00     0.029 A 
ATOM     63  N   UNL A   1      44.378  27.535  29.795  1.00  0.00    -0.354 N 
ATOM     64  C   UNL A   1      39.595  29.085  29.441  1.00  0.00     0.074 A 
ATOM     65  C   UNL A   1      38.976  28.054  28.221  1.00  0.00     0.031 C 
ATOM     66  C   UNL A   1      43.579  28.055  31.752  1.00  0.00     0.029 A 
ATOM     67  C   UNL A   1      44.729  28.241  30.911  1.00  0.00     0.049 A 
ATOM     68  H   UNL A   1      45.049  27.287  29.120  1.00  0.00     0.167 HD
ATOM     69  C   UNL A   1      39.091  30.609  30.406  1.00  0.00     0.031 A 
ATOM     70  C   UNL A   1      45.863  28.960  31.107  1.00  0.00     0.031 A 
ATOM     71  C   UNL A   1      39.929  31.478  31.674  1.00  0.00     0.049 A 
ATOM     72  C   UNL A   1      45.535  30.318  31.688  1.00  0.00     0.074 A 
ATOM     73  C   UNL A   1      40.096  31.152  33.050  1.00  0.00     0.029 A 
ATOM     74  N   UNL A   1      40.915  32.456  31.479  1.00  0.00    -0.354 N 
ATOM     75  N   UNL A   1      44.317  30.750  31.909  1.00  0.00    -0.248 NA
ATOM     76  C   UNL A   1      46.550  31.332  31.979  1.00  0.00     0.031 C 
ATOM     77  C   UNL A   1      41.390  31.545  33.458  1.00  0.00     0.029 A 
ATOM     78  C   UNL A   1      41.949  32.253  32.419  1.00  0.00     0.049 A 
ATOM     79  H   UNL A   1      40.890  33.166  30.798  1.00  0.00     0.167 HD
ATOM     80  C   UNL A   1      44.365  32.089  32.222  1.00  0.00     0.074 A 
ATOM     81  C   UNL A   1      45.787  32.386  32.313  1.00  0.00     0.031 C 
ATOM     82  C   UNL A   1      43.259  32.886  32.346  1.00  0.00     0.031 A 
BRANCH  69  83
ATOM     83  C   UNL A   1      37.473  31.307  30.861  1.00  0.00    -0.014 A 
ATOM     84  C   UNL A   1      37.340  32.699  30.577  1.00  0.00     0.010 A 
ATOM     85  C   UNL A   1      36.513  30.826  31.786  1.00  0.00     0.010 A 
ATOM     86  C   UNL A   1      36.529  33.584  31.286  1.00  0.00     0.020 A 
ATOM     87  C   UNL A   1      35.742  31.727  32.578  1.00  0.00     0.020 A 
ATOM     88  C   UNL A   1      35.799  33.106  32.350  1.00  0.00     0.054 A 
BRANCH  88  89
ATOM     89  S   UNL A   1      35.139  34.331  33.516  1.00  0.00     0.124 S 
ATOM     90  O   UNL A   1      35.373  33.704  34.818  1.00  0.00    -0.237 OA
ATOM     91  O   UNL A   1      35.959  35.505  33.236  1.00  0.00    -0.237 OA
ATOM     92  O   UNL A   1      33.732  34.435  33.140  1.00  0.00    -0.744 OA
ENDBRANCH  88  89
ENDBRANCH  69  83
BRANCH  70  93
ATOM     93  C   UNL A   1      47.085  28.563  30.308  1.00  0.00    -0.014 A 
ATOM     94  C   UNL A   1      47.764  29.587  29.596  1.00  0.00     0.010 A 
ATOM     95  C   UNL A   1      47.747  27.328  30.411  1.00  0.00     0.010 A 
ATOM     96  C   UNL A   1      49.092  29.439  29.147  1.00  0.00     0.020 A 
ATOM     97  C   UNL A   1      49.084  27.174  29.958  1.00  0.00     0.020 A 
ATOM     98  C   UNL A   1      49.770  28.248  29.382  1.00  0.00     0.054 A 
BRANCH  98  99
ATOM     99  S   UNL A   1      51.590  28.179  29.128  1.00  0.00     0.124 S 
ATOM    100  O   UNL A   1      52.093  28.781  30.360  1.00  0.00    -0.237 OA
ATOM    101  O   UNL A   1      51.861  26.747  28.997  1.00  0.00    -0.237 OA
ATOM    102  O   UNL A   1      51.803  28.975  27.923  1.00  0.00    -0.744 OA
ENDBRANCH  98  99
ENDBRANCH  70  93
BRANCH  82 103
ATOM    103  C   UNL A   1      43.298  34.361  32.587  1.00  0.00    -0.014 A 
ATOM    104  C   UNL A   1      43.351  34.950  33.855  1.00  0.00     0.010 A 
ATOM    105  C   UNL A   1      43.433  35.198  31.454  1.00  0.00     0.010 A 
ATOM    106  C   UNL A   1      43.516  36.333  33.983  1.00  0.00     0.020 A 
ATOM    107  C   UNL A   1      43.645  36.563  31.573  1.00  0.00     0.020 A 
ATOM    108  C   UNL A   1      43.674  37.126  32.841  1.00  0.00     0.054 A 
BRANCH 108 109
ATOM    109  S   UNL A   1      44.028  38.888  33.001  1.00  0.00     0.124 S 
ATOM    110  O   UNL A   1      45.260  38.876  33.782  1.00  0.00    -0.237 OA
ATOM    111  O   UNL A   1      44.164  39.321  31.612  1.00  0.00    -0.237 OA
ATOM    112  O   UNL A   1      42.848  39.404  33.690  1.00  0.00    -0.744 OA
ENDBRANCH 108 109
ENDBRANCH  82 103
ENDBRANCH  56  57
ENDBRANCH  49  51
ENDBRANCH  48  49
ENDBRANCH  47  48
ENDBRANCH  46  47
ENDBRANCH  45  46
ENDBRANCH  44  45
ENDBRANCH   1  44
TORSDOF 26
ENDMDL
