MODEL 1
REMARK VINA RESULT:     -10.9      0.000      0.000
REMARK SMILES O=C(C[C@@H](NC(=O)c1cc(-c2ccc(F)cc2)on1)c1cccc(Br)c1)OCCOCCOCCOC(=O)c1ccc(-c2c3nc(c(-c4ccc(S(=O)(=O)[O-])cc4)c4ccc([nH]4)c(-c4ccc(S(=O)(=O)[O-])cc4)c4nc(c(-c5ccc(S(=O)(=O)[O-])cc5)c5ccc2[nH]5)C=C4)C=C3)cc1
REMARK SMILES IDX 31 1 30 2 29 3 28 4 27 5 2 6 1 7 3 8 4 9 5 10 6 11 7 13 8 14
REMARK SMILES IDX 9 15 19 16 10 17 18 18 11 19 12 20 17 21 13 22 16 23 14 24
REMARK SMILES IDX 15 25 20 26 21 27 26 28 22 29 24 30 23 31 25 32 32 33 33 34
REMARK SMILES IDX 34 35 35 36 36 37 37 38 38 39 39 40 40 41 98 42 41 43 97 44
REMARK SMILES IDX 42 45 43 46 44 47 91 48 45 49 96 50 90 51 92 52 46 53 95 54
REMARK SMILES IDX 89 55 88 56 47 58 77 59 58 60 76 61 59 62 62 63 75 64 93 65
REMARK SMILES IDX 60 66 61 67 74 69 94 70 63 71 48 72 49 73 57 74 50 75 56 76
REMARK SMILES IDX 51 77 52 78 53 79 54 80 55 81 78 82 79 83 87 84 80 85 86 86
REMARK SMILES IDX 81 87 82 88 83 89 84 90 85 91 64 92 65 93 73 94 66 95 72 96
REMARK SMILES IDX 67 97 68 98 69 99 70 100 71 101
REMARK H PARENT 5 12 92 57 62 68
REMARK Flexibility Score: inf
ROOT
ATOM      1  C   UNL A   1      36.708  23.262  23.716  1.00  0.00     0.188 C 
ENDROOT
BRANCH   1   2
ATOM      2  O   UNL A   1      35.344  22.940  23.490  1.00  0.00    -0.376 OA
BRANCH   2   3
ATOM      3  C   UNL A   1      34.584  23.665  22.520  1.00  0.00     0.202 C 
BRANCH   3   4
ATOM      4  C   UNL A   1      34.025  25.051  22.854  1.00  0.00     0.261 C 
BRANCH   4   5
ATOM      5  O   UNL A   1      33.515  25.844  21.748  1.00  0.00    -0.463 OA
BRANCH   5   6
ATOM      6  C   UNL A   1      32.302  26.447  21.785  1.00  0.00     0.308 C 
ATOM      7  O   UNL A   1      31.409  26.139  21.005  1.00  0.00    -0.252 OA
BRANCH   6   8
ATOM      8  C   UNL A   1      32.095  27.406  22.927  1.00  0.00     0.152 C 
BRANCH   8   9
ATOM      9  C   UNL A   1      31.000  27.009  23.942  1.00  0.00     0.124 C 
BRANCH   9  10
ATOM     10  N   UNL A   1      31.450  27.182  25.337  1.00  0.00    -0.343 N 
ATOM     11  C   UNL A   1      31.712  26.401  26.429  1.00  0.00     0.273 C 
ATOM     12  H   UNL A   1      31.608  28.132  25.539  1.00  0.00     0.164 HD
ATOM     13  O   UNL A   1      31.911  26.981  27.498  1.00  0.00    -0.267 OA
BRANCH  11  14
ATOM     14  C   UNL A   1      31.742  24.962  26.301  1.00  0.00     0.171 A 
ATOM     15  C   UNL A   1      32.395  24.210  25.303  1.00  0.00     0.088 A 
ATOM     16  N   UNL A   1      31.093  24.163  27.165  1.00  0.00    -0.074 NA
ATOM     17  C   UNL A   1      31.921  22.935  25.481  1.00  0.00     0.167 A 
ATOM     18  O   UNL A   1      31.179  22.891  26.622  1.00  0.00    -0.355 OA
BRANCH  17  19
ATOM     19  C   UNL A   1      31.979  21.736  24.666  1.00  0.00     0.020 A 
ATOM     20  C   UNL A   1      32.318  20.508  25.257  1.00  0.00     0.015 A 
ATOM     21  C   UNL A   1      31.833  21.804  23.272  1.00  0.00     0.015 A 
ATOM     22  C   UNL A   1      32.527  19.377  24.469  1.00  0.00     0.040 A 
ATOM     23  C   UNL A   1      32.050  20.673  22.484  1.00  0.00     0.040 A 
ATOM     24  C   UNL A   1      32.397  19.472  23.090  1.00  0.00     0.123 A 
ATOM     25  F   UNL A   1      32.614  18.390  22.333  1.00  0.00    -0.207 F 
ENDBRANCH  17  19
ENDBRANCH  11  14
ENDBRANCH   9  10
BRANCH   9  26
ATOM     26  C   UNL A   1      29.736  27.738  23.512  1.00  0.00    -0.024 A 
ATOM     27  C   UNL A   1      28.452  27.189  23.691  1.00  0.00     0.006 A 
ATOM     28  C   UNL A   1      29.830  29.051  23.017  1.00  0.00     0.021 A 
ATOM     29  C   UNL A   1      27.304  27.917  23.367  1.00  0.00     0.002 A 
ATOM     30  C   UNL A   1      28.677  29.773  22.696  1.00  0.00     0.018 A 
ATOM     31  C   UNL A   1      27.416  29.213  22.870  1.00  0.00     0.016 A 
ATOM     32  Br  UNL A   1      28.833  31.530  22.020  1.00  0.00    -0.051 Br
ENDBRANCH   9  26
ENDBRANCH   8   9
ENDBRANCH   6   8
ENDBRANCH   5   6
ENDBRANCH   4   5
ENDBRANCH   3   4
ENDBRANCH   2   3
ENDBRANCH   1   2
BRANCH   1  33
ATOM     33  C   UNL A   1      37.063  23.635  25.159  1.00  0.00     0.188 C 
BRANCH  33  34
ATOM     34  O   UNL A   1      37.418  22.567  26.026  1.00  0.00    -0.376 OA
BRANCH  34  35
ATOM     35  C   UNL A   1      38.647  21.884  25.770  1.00  0.00     0.202 C 
BRANCH  35  36
ATOM     36  C   UNL A   1      39.862  22.186  26.655  1.00  0.00     0.261 C 
BRANCH  36  37
ATOM     37  O   UNL A   1      39.723  23.410  27.409  1.00  0.00    -0.460 OA
BRANCH  37  38
ATOM     38  C   UNL A   1      40.851  24.152  27.491  1.00  0.00     0.338 C 
ATOM     39  O   UNL A   1      41.958  23.850  27.063  1.00  0.00    -0.246 OA
BRANCH  38  40
ATOM     40  C   UNL A   1      40.593  25.486  28.055  1.00  0.00     0.060 A 
ATOM     41  C   UNL A   1      41.679  26.365  28.177  1.00  0.00     0.016 A 
ATOM     42  C   UNL A   1      39.381  25.764  28.691  1.00  0.00     0.016 A 
ATOM     43  C   UNL A   1      41.582  27.481  29.008  1.00  0.00     0.010 A 
ATOM     44  C   UNL A   1      39.288  26.884  29.528  1.00  0.00     0.010 A 
ATOM     45  C   UNL A   1      40.408  27.708  29.740  1.00  0.00    -0.014 A 
BRANCH  45  46
ATOM     46  C   UNL A   1      40.448  28.653  30.887  1.00  0.00     0.031 A 
ATOM     47  C   UNL A   1      39.463  29.797  30.919  1.00  0.00     0.074 A 
ATOM     48  C   UNL A   1      41.298  28.474  31.914  1.00  0.00     0.049 A 
ATOM     49  N   UNL A   1      39.281  30.710  31.840  1.00  0.00    -0.248 NA
ATOM     50  C   UNL A   1      38.562  29.924  29.762  1.00  0.00     0.031 C 
ATOM     51  C   UNL A   1      42.273  27.390  32.030  1.00  0.00     0.029 A 
ATOM     52  N   UNL A   1      41.468  29.206  33.064  1.00  0.00    -0.354 N 
ATOM     53  C   UNL A   1      38.253  31.522  31.370  1.00  0.00     0.074 A 
ATOM     54  C   UNL A   1      37.870  31.010  30.073  1.00  0.00     0.031 C 
ATOM     55  C   UNL A   1      42.935  27.525  33.192  1.00  0.00     0.029 A 
ATOM     56  C   UNL A   1      42.445  28.714  33.892  1.00  0.00     0.049 A 
ATOM     57  H   UNL A   1      40.936  30.008  33.275  1.00  0.00     0.167 HD
ATOM     58  C   UNL A   1      37.672  32.593  31.963  1.00  0.00     0.031 A 
ATOM     59  C   UNL A   1      42.897  29.170  35.078  1.00  0.00     0.031 A 
ATOM     60  C   UNL A   1      38.051  33.114  33.249  1.00  0.00     0.049 A 
ATOM     61  C   UNL A   1      42.269  30.393  35.697  1.00  0.00     0.074 A 
ATOM     62  C   UNL A   1      37.510  34.186  33.937  1.00  0.00     0.029 A 
ATOM     63  N   UNL A   1      39.070  32.606  34.038  1.00  0.00    -0.354 N 
ATOM     64  N   UNL A   1      41.277  31.128  35.253  1.00  0.00    -0.248 NA
ATOM     65  C   UNL A   1      42.815  30.837  36.989  1.00  0.00     0.031 C 
ATOM     66  C   UNL A   1      38.231  34.353  35.125  1.00  0.00     0.029 A 
ATOM     67  C   UNL A   1      39.188  33.354  35.198  1.00  0.00     0.049 A 
ATOM     68  H   UNL A   1      39.629  31.829  33.808  1.00  0.00     0.167 HD
ATOM     69  C   UNL A   1      41.058  32.099  36.227  1.00  0.00     0.074 A 
ATOM     70  C   UNL A   1      42.017  31.854  37.285  1.00  0.00     0.031 C 
ATOM     71  C   UNL A   1      40.142  33.099  36.246  1.00  0.00     0.031 A 
BRANCH  58  72
ATOM     72  C   UNL A   1      36.581  33.296  31.201  1.00  0.00    -0.014 A 
ATOM     73  C   UNL A   1      36.848  33.953  29.986  1.00  0.00     0.010 A 
ATOM     74  C   UNL A   1      35.265  33.280  31.697  1.00  0.00     0.010 A 
ATOM     75  C   UNL A   1      35.826  34.618  29.303  1.00  0.00     0.020 A 
ATOM     76  C   UNL A   1      34.236  33.924  31.005  1.00  0.00     0.020 A 
ATOM     77  C   UNL A   1      34.527  34.606  29.822  1.00  0.00     0.054 A 
BRANCH  77  78
ATOM     78  S   UNL A   1      33.215  35.469  28.915  1.00  0.00     0.124 S 
ATOM     79  O   UNL A   1      32.588  34.374  28.179  1.00  0.00    -0.237 OA
ATOM     80  O   UNL A   1      32.406  36.046  29.987  1.00  0.00    -0.237 OA
ATOM     81  O   UNL A   1      33.939  36.437  28.096  1.00  0.00    -0.744 OA
ENDBRANCH  77  78
ENDBRANCH  58  72
BRANCH  59  82
ATOM     82  C   UNL A   1      44.002  28.458  35.774  1.00  0.00    -0.014 A 
ATOM     83  C   UNL A   1      43.724  27.455  36.718  1.00  0.00     0.010 A 
ATOM     84  C   UNL A   1      45.343  28.788  35.500  1.00  0.00     0.010 A 
ATOM     85  C   UNL A   1      44.765  26.806  37.390  1.00  0.00     0.020 A 
ATOM     86  C   UNL A   1      46.386  28.124  36.151  1.00  0.00     0.020 A 
ATOM     87  C   UNL A   1      46.090  27.145  37.102  1.00  0.00     0.054 A 
BRANCH  87  88
ATOM     88  S   UNL A   1      47.425  26.259  37.950  1.00  0.00     0.124 S 
ATOM     89  O   UNL A   1      48.550  26.463  37.043  1.00  0.00    -0.237 OA
ATOM     90  O   UNL A   1      47.508  26.960  39.229  1.00  0.00    -0.237 OA
ATOM     91  O   UNL A   1      46.927  24.888  38.032  1.00  0.00    -0.744 OA
ENDBRANCH  87  88
ENDBRANCH  59  82
BRANCH  71  92
ATOM     92  C   UNL A   1      40.095  33.977  37.470  1.00  0.00    -0.014 A 
ATOM     93  C   UNL A   1      39.315  33.634  38.587  1.00  0.00     0.010 A 
ATOM     94  C   UNL A   1      40.878  35.145  37.513  1.00  0.00     0.010 A 
ATOM     95  C   UNL A   1      39.288  34.464  39.712  1.00  0.00     0.020 A 
ATOM     96  C   UNL A   1      40.874  35.965  38.645  1.00  0.00     0.020 A 
ATOM     97  C   UNL A   1      40.064  35.628  39.731  1.00  0.00     0.054 A 
BRANCH  97  98
ATOM     98  S   UNL A   1      40.035  36.680  41.209  1.00  0.00     0.124 S 
ATOM     99  O   UNL A   1      41.183  36.180  41.961  1.00  0.00    -0.237 OA
ATOM    100  O   UNL A   1      40.182  38.023  40.655  1.00  0.00    -0.237 OA
ATOM    101  O   UNL A   1      38.729  36.400  41.805  1.00  0.00    -0.744 OA
ENDBRANCH  97  98
ENDBRANCH  71  92
ENDBRANCH  45  46
ENDBRANCH  38  40
ENDBRANCH  37  38
ENDBRANCH  36  37
ENDBRANCH  35  36
ENDBRANCH  34  35
ENDBRANCH  33  34
ENDBRANCH   1  33
TORSDOF 25
ENDMDL
MODEL 2
REMARK VINA RESULT:     -10.7      5.154      9.014
REMARK SMILES O=C(C[C@@H](NC(=O)c1cc(-c2ccc(F)cc2)on1)c1cccc(Br)c1)OCCOCCOCCOC(=O)c1ccc(-c2c3nc(c(-c4ccc(S(=O)(=O)[O-])cc4)c4ccc([nH]4)c(-c4ccc(S(=O)(=O)[O-])cc4)c4nc(c(-c5ccc(S(=O)(=O)[O-])cc5)c5ccc2[nH]5)C=C4)C=C3)cc1
REMARK SMILES IDX 31 1 30 2 29 3 28 4 27 5 2 6 1 7 3 8 4 9 5 10 6 11 7 13 8 14
REMARK SMILES IDX 9 15 19 16 10 17 18 18 11 19 12 20 17 21 13 22 16 23 14 24
REMARK SMILES IDX 15 25 20 26 21 27 26 28 22 29 24 30 23 31 25 32 32 33 33 34
REMARK SMILES IDX 34 35 35 36 36 37 37 38 38 39 39 40 40 41 98 42 41 43 97 44
REMARK SMILES IDX 42 45 43 46 44 47 91 48 45 49 96 50 90 51 92 52 46 53 95 54
REMARK SMILES IDX 89 55 88 56 47 58 77 59 58 60 76 61 59 62 62 63 75 64 93 65
REMARK SMILES IDX 60 66 61 67 74 69 94 70 63 71 48 72 49 73 57 74 50 75 56 76
REMARK SMILES IDX 51 77 52 78 53 79 54 80 55 81 78 82 79 83 87 84 80 85 86 86
REMARK SMILES IDX 81 87 82 88 83 89 84 90 85 91 64 92 65 93 73 94 66 95 72 96
REMARK SMILES IDX 67 97 68 98 69 99 70 100 71 101
REMARK H PARENT 5 12 92 57 62 68
REMARK Flexibility Score: inf
ROOT
ATOM      1  C   UNL A   1      38.078  21.676  24.988  1.00  0.00     0.188 C 
ENDROOT
BRANCH   1   2
ATOM      2  O   UNL A   1      36.737  21.974  25.347  1.00  0.00    -0.376 OA
BRANCH   2   3
ATOM      3  C   UNL A   1      35.851  22.568  24.394  1.00  0.00     0.202 C 
BRANCH   3   4
ATOM      4  C   UNL A   1      35.276  23.965  24.640  1.00  0.00     0.261 C 
BRANCH   4   5
ATOM      5  O   UNL A   1      34.466  24.543  23.580  1.00  0.00    -0.463 OA
BRANCH   5   6
ATOM      6  C   UNL A   1      33.700  25.645  23.770  1.00  0.00     0.308 C 
ATOM      7  O   UNL A   1      33.567  26.492  22.894  1.00  0.00    -0.252 OA
BRANCH   6   8
ATOM      8  C   UNL A   1      32.927  25.677  25.061  1.00  0.00     0.152 C 
BRANCH   8   9
ATOM      9  C   UNL A   1      31.395  25.816  24.920  1.00  0.00     0.124 C 
BRANCH   9  10
ATOM     10  N   UNL A   1      30.673  25.061  25.962  1.00  0.00    -0.343 N 
ATOM     11  C   UNL A   1      30.650  23.792  26.472  1.00  0.00     0.273 C 
ATOM     12  H   UNL A   1      30.020  25.636  26.423  1.00  0.00     0.164 HD
ATOM     13  O   UNL A   1      29.739  23.519  27.256  1.00  0.00    -0.267 OA
BRANCH  11  14
ATOM     14  C   UNL A   1      31.662  22.836  26.084  1.00  0.00     0.171 A 
ATOM     15  C   UNL A   1      31.688  22.054  24.911  1.00  0.00     0.088 A 
ATOM     16  N   UNL A   1      32.724  22.577  26.865  1.00  0.00    -0.074 NA
ATOM     17  C   UNL A   1      32.698  21.153  25.132  1.00  0.00     0.167 A 
ATOM     18  O   UNL A   1      33.352  21.490  26.278  1.00  0.00    -0.355 OA
BRANCH  17  19
ATOM     19  C   UNL A   1      33.094  19.928  24.463  1.00  0.00     0.020 A 
ATOM     20  C   UNL A   1      32.201  19.294  23.584  1.00  0.00     0.015 A 
ATOM     21  C   UNL A   1      34.304  19.292  24.781  1.00  0.00     0.015 A 
ATOM     22  C   UNL A   1      32.501  18.042  23.051  1.00  0.00     0.040 A 
ATOM     23  C   UNL A   1      34.600  18.035  24.252  1.00  0.00     0.040 A 
ATOM     24  C   UNL A   1      33.695  17.422  23.395  1.00  0.00     0.123 A 
ATOM     25  F   UNL A   1      33.976  16.212  22.895  1.00  0.00    -0.207 F 
ENDBRANCH  17  19
ENDBRANCH  11  14
ENDBRANCH   9  10
BRANCH   9  26
ATOM     26  C   UNL A   1      31.111  27.305  24.800  1.00  0.00    -0.024 A 
ATOM     27  C   UNL A   1      31.753  28.261  25.610  1.00  0.00     0.006 A 
ATOM     28  C   UNL A   1      30.264  27.768  23.777  1.00  0.00     0.021 A 
ATOM     29  C   UNL A   1      31.539  29.628  25.420  1.00  0.00     0.002 A 
ATOM     30  C   UNL A   1      30.056  29.138  23.593  1.00  0.00     0.018 A 
ATOM     31  C   UNL A   1      30.691  30.069  24.408  1.00  0.00     0.016 A 
ATOM     32  Br  UNL A   1      28.902  29.731  22.220  1.00  0.00    -0.051 Br
ENDBRANCH   9  26
ENDBRANCH   8   9
ENDBRANCH   6   8
ENDBRANCH   5   6
ENDBRANCH   4   5
ENDBRANCH   3   4
ENDBRANCH   2   3
ENDBRANCH   1   2
BRANCH   1  33
ATOM     33  C   UNL A   1      39.136  22.067  26.024  1.00  0.00     0.188 C 
BRANCH  33  34
ATOM     34  O   UNL A   1      39.675  21.017  26.815  1.00  0.00    -0.376 OA
BRANCH  34  35
ATOM     35  C   UNL A   1      40.451  20.016  26.151  1.00  0.00     0.202 C 
BRANCH  35  36
ATOM     36  C   UNL A   1      41.981  20.095  26.224  1.00  0.00     0.261 C 
BRANCH  36  37
ATOM     37  O   UNL A   1      42.455  21.258  26.936  1.00  0.00    -0.460 OA
BRANCH  37  38
ATOM     38  C   UNL A   1      42.703  22.334  26.155  1.00  0.00     0.338 C 
ATOM     39  O   UNL A   1      43.073  22.321  24.988  1.00  0.00    -0.246 OA
BRANCH  38  40
ATOM     40  C   UNL A   1      42.347  23.595  26.825  1.00  0.00     0.060 A 
ATOM     41  C   UNL A   1      42.007  24.690  26.018  1.00  0.00     0.016 A 
ATOM     42  C   UNL A   1      42.600  23.770  28.187  1.00  0.00     0.016 A 
ATOM     43  C   UNL A   1      42.006  25.977  26.554  1.00  0.00     0.010 A 
ATOM     44  C   UNL A   1      42.603  25.065  28.722  1.00  0.00     0.010 A 
ATOM     45  C   UNL A   1      42.370  26.177  27.893  1.00  0.00    -0.014 A 
BRANCH  45  46
ATOM     46  C   UNL A   1      42.734  27.547  28.342  1.00  0.00     0.031 A 
ATOM     47  C   UNL A   1      44.186  27.959  28.310  1.00  0.00     0.074 A 
ATOM     48  C   UNL A   1      41.795  28.435  28.715  1.00  0.00     0.049 A 
ATOM     49  N   UNL A   1      44.729  29.113  28.605  1.00  0.00    -0.248 NA
ATOM     50  C   UNL A   1      45.153  26.933  27.885  1.00  0.00     0.031 C 
ATOM     51  C   UNL A   1      40.355  28.184  28.753  1.00  0.00     0.029 A 
ATOM     52  N   UNL A   1      41.922  29.739  29.128  1.00  0.00    -0.354 N 
ATOM     53  C   UNL A   1      46.096  28.951  28.410  1.00  0.00     0.074 A 
ATOM     54  C   UNL A   1      46.304  27.580  27.997  1.00  0.00     0.031 C 
ATOM     55  C   UNL A   1      39.730  29.302  29.161  1.00  0.00     0.029 A 
ATOM     56  C   UNL A   1      40.725  30.341  29.431  1.00  0.00     0.049 A 
ATOM     57  H   UNL A   1      42.789  30.200  29.197  1.00  0.00     0.167 HD
ATOM     58  C   UNL A   1      47.093  29.858  28.553  1.00  0.00     0.031 A 
ATOM     59  C   UNL A   1      40.462  31.585  29.878  1.00  0.00     0.031 A 
ATOM     60  C   UNL A   1      46.898  31.220  28.970  1.00  0.00     0.049 A 
ATOM     61  C   UNL A   1      41.592  32.563  30.077  1.00  0.00     0.074 A 
ATOM     62  C   UNL A   1      47.846  32.216  29.128  1.00  0.00     0.029 A 
ATOM     63  N   UNL A   1      45.674  31.777  29.301  1.00  0.00    -0.354 N 
ATOM     64  N   UNL A   1      42.875  32.401  29.857  1.00  0.00    -0.248 NA
ATOM     65  C   UNL A   1      41.231  33.901  30.572  1.00  0.00     0.031 C 
ATOM     66  C   UNL A   1      47.199  33.365  29.598  1.00  0.00     0.029 A 
ATOM     67  C   UNL A   1      45.842  33.097  29.683  1.00  0.00     0.049 A 
ATOM     68  H   UNL A   1      44.811  31.304  29.270  1.00  0.00     0.167 HD
ATOM     69  C   UNL A   1      43.469  33.625  30.152  1.00  0.00     0.074 A 
ATOM     70  C   UNL A   1      42.405  34.519  30.561  1.00  0.00     0.031 C 
ATOM     71  C   UNL A   1      44.776  33.979  30.084  1.00  0.00     0.031 A 
BRANCH  58  72
ATOM     72  C   UNL A   1      48.498  29.386  28.286  1.00  0.00    -0.014 A 
ATOM     73  C   UNL A   1      49.329  28.944  29.331  1.00  0.00     0.010 A 
ATOM     74  C   UNL A   1      48.986  29.366  26.967  1.00  0.00     0.010 A 
ATOM     75  C   UNL A   1      50.637  28.530  29.067  1.00  0.00     0.020 A 
ATOM     76  C   UNL A   1      50.285  28.930  26.695  1.00  0.00     0.020 A 
ATOM     77  C   UNL A   1      51.110  28.533  27.750  1.00  0.00     0.054 A 
BRANCH  77  78
ATOM     78  S   UNL A   1      52.808  27.985  27.429  1.00  0.00     0.124 S 
ATOM     79  O   UNL A   1      52.658  26.532  27.422  1.00  0.00    -0.237 OA
ATOM     80  O   UNL A   1      53.104  28.590  26.131  1.00  0.00    -0.237 OA
ATOM     81  O   UNL A   1      53.566  28.528  28.552  1.00  0.00    -0.744 OA
ENDBRANCH  77  78
ENDBRANCH  58  72
BRANCH  59  82
ATOM     82  C   UNL A   1      39.058  31.990  30.160  1.00  0.00    -0.014 A 
ATOM     83  C   UNL A   1      38.537  31.904  31.463  1.00  0.00     0.010 A 
ATOM     84  C   UNL A   1      38.232  32.456  29.121  1.00  0.00     0.010 A 
ATOM     85  C   UNL A   1      37.210  32.260  31.720  1.00  0.00     0.020 A 
ATOM     86  C   UNL A   1      36.912  32.836  29.379  1.00  0.00     0.020 A 
ATOM     87  C   UNL A   1      36.405  32.724  30.675  1.00  0.00     0.054 A 
BRANCH  87  88
ATOM     88  S   UNL A   1      34.700  33.225  31.040  1.00  0.00     0.124 S 
ATOM     89  O   UNL A   1      34.868  34.626  31.412  1.00  0.00    -0.237 OA
ATOM     90  O   UNL A   1      34.022  32.985  29.768  1.00  0.00    -0.237 OA
ATOM     91  O   UNL A   1      34.306  32.330  32.125  1.00  0.00    -0.744 OA
ENDBRANCH  87  88
ENDBRANCH  59  82
BRANCH  71  92
ATOM     92  C   UNL A   1      45.129  35.407  30.412  1.00  0.00    -0.014 A 
ATOM     93  C   UNL A   1      45.241  36.383  29.408  1.00  0.00     0.010 A 
ATOM     94  C   UNL A   1      45.312  35.782  31.756  1.00  0.00     0.010 A 
ATOM     95  C   UNL A   1      45.569  37.702  29.737  1.00  0.00     0.020 A 
ATOM     96  C   UNL A   1      45.615  37.105  32.092  1.00  0.00     0.020 A 
ATOM     97  C   UNL A   1      45.760  38.052  31.078  1.00  0.00     0.054 A 
BRANCH  97  98
ATOM     98  S   UNL A   1      46.160  39.774  31.488  1.00  0.00     0.124 S 
ATOM     99  O   UNL A   1      45.626  40.493  30.335  1.00  0.00    -0.237 OA
ATOM    100  O   UNL A   1      45.447  39.983  32.745  1.00  0.00    -0.237 OA
ATOM    101  O   UNL A   1      47.618  39.771  31.600  1.00  0.00    -0.744 OA
ENDBRANCH  97  98
ENDBRANCH  71  92
ENDBRANCH  45  46
ENDBRANCH  38  40
ENDBRANCH  37  38
ENDBRANCH  36  37
ENDBRANCH  35  36
ENDBRANCH  34  35
ENDBRANCH  33  34
ENDBRANCH   1  33
TORSDOF 25
ENDMDL
MODEL 3
REMARK VINA RESULT:     -10.6      5.225      6.654
REMARK SMILES O=C(C[C@@H](NC(=O)c1cc(-c2ccc(F)cc2)on1)c1cccc(Br)c1)OCCOCCOCCOC(=O)c1ccc(-c2c3nc(c(-c4ccc(S(=O)(=O)[O-])cc4)c4ccc([nH]4)c(-c4ccc(S(=O)(=O)[O-])cc4)c4nc(c(-c5ccc(S(=O)(=O)[O-])cc5)c5ccc2[nH]5)C=C4)C=C3)cc1
REMARK SMILES IDX 31 1 30 2 29 3 28 4 27 5 2 6 1 7 3 8 4 9 5 10 6 11 7 13 8 14
REMARK SMILES IDX 9 15 19 16 10 17 18 18 11 19 12 20 17 21 13 22 16 23 14 24
REMARK SMILES IDX 15 25 20 26 21 27 26 28 22 29 24 30 23 31 25 32 32 33 33 34
REMARK SMILES IDX 34 35 35 36 36 37 37 38 38 39 39 40 40 41 98 42 41 43 97 44
REMARK SMILES IDX 42 45 43 46 44 47 91 48 45 49 96 50 90 51 92 52 46 53 95 54
REMARK SMILES IDX 89 55 88 56 47 58 77 59 58 60 76 61 59 62 62 63 75 64 93 65
REMARK SMILES IDX 60 66 61 67 74 69 94 70 63 71 48 72 49 73 57 74 50 75 56 76
REMARK SMILES IDX 51 77 52 78 53 79 54 80 55 81 78 82 79 83 87 84 80 85 86 86
REMARK SMILES IDX 81 87 82 88 83 89 84 90 85 91 64 92 65 93 73 94 66 95 72 96
REMARK SMILES IDX 67 97 68 98 69 99 70 100 71 101
REMARK H PARENT 5 12 92 57 62 68
REMARK Flexibility Score: inf
ROOT
ATOM      1  C   UNL A   1      36.494  23.035  23.381  1.00  0.00     0.188 C 
ENDROOT
BRANCH   1   2
ATOM      2  O   UNL A   1      35.097  22.793  23.312  1.00  0.00    -0.376 OA
BRANCH   2   3
ATOM      3  C   UNL A   1      34.252  23.662  22.552  1.00  0.00     0.202 C 
BRANCH   3   4
ATOM      4  C   UNL A   1      33.873  25.041  23.097  1.00  0.00     0.261 C 
BRANCH   4   5
ATOM      5  O   UNL A   1      33.601  26.086  22.123  1.00  0.00    -0.463 OA
BRANCH   5   6
ATOM      6  C   UNL A   1      32.367  26.619  21.955  1.00  0.00     0.308 C 
ATOM      7  O   UNL A   1      31.574  26.159  21.142  1.00  0.00    -0.252 OA
BRANCH   6   8
ATOM      8  C   UNL A   1      31.999  27.710  22.925  1.00  0.00     0.152 C 
BRANCH   8   9
ATOM      9  C   UNL A   1      30.885  27.358  23.937  1.00  0.00     0.124 C 
BRANCH   9  10
ATOM     10  N   UNL A   1      31.327  27.544  25.332  1.00  0.00    -0.343 N 
ATOM     11  C   UNL A   1      31.534  26.779  26.447  1.00  0.00     0.273 C 
ATOM     12  H   UNL A   1      31.531  28.490  25.512  1.00  0.00     0.164 HD
ATOM     13  O   UNL A   1      31.750  27.376  27.504  1.00  0.00    -0.267 OA
BRANCH  11  14
ATOM     14  C   UNL A   1      31.490  25.338  26.357  1.00  0.00     0.171 A 
ATOM     15  C   UNL A   1      32.578  24.466  26.146  1.00  0.00     0.088 A 
ATOM     16  N   UNL A   1      30.335  24.660  26.453  1.00  0.00    -0.074 NA
ATOM     17  C   UNL A   1      31.990  23.251  25.896  1.00  0.00     0.167 A 
ATOM     18  O   UNL A   1      30.651  23.351  26.125  1.00  0.00    -0.355 OA
BRANCH  17  19
ATOM     19  C   UNL A   1      32.494  21.999  25.365  1.00  0.00     0.020 A 
ATOM     20  C   UNL A   1      31.997  21.509  24.147  1.00  0.00     0.015 A 
ATOM     21  C   UNL A   1      33.373  21.201  26.113  1.00  0.00     0.015 A 
ATOM     22  C   UNL A   1      32.354  20.240  23.695  1.00  0.00     0.040 A 
ATOM     23  C   UNL A   1      33.725  19.927  25.663  1.00  0.00     0.040 A 
ATOM     24  C   UNL A   1      33.209  19.459  24.461  1.00  0.00     0.123 A 
ATOM     25  F   UNL A   1      33.540  18.233  24.035  1.00  0.00    -0.207 F 
ENDBRANCH  17  19
ENDBRANCH  11  14
ENDBRANCH   9  10
BRANCH   9  26
ATOM     26  C   UNL A   1      29.644  28.111  23.481  1.00  0.00    -0.024 A 
ATOM     27  C   UNL A   1      28.353  27.559  23.576  1.00  0.00     0.006 A 
ATOM     28  C   UNL A   1      29.763  29.444  23.051  1.00  0.00     0.021 A 
ATOM     29  C   UNL A   1      27.222  28.305  23.233  1.00  0.00     0.002 A 
ATOM     30  C   UNL A   1      28.628  30.185  22.710  1.00  0.00     0.018 A 
ATOM     31  C   UNL A   1      27.359  29.622  22.801  1.00  0.00     0.016 A 
ATOM     32  Br  UNL A   1      28.818  31.969  22.122  1.00  0.00    -0.051 Br
ENDBRANCH   9  26
ENDBRANCH   8   9
ENDBRANCH   6   8
ENDBRANCH   5   6
ENDBRANCH   4   5
ENDBRANCH   3   4
ENDBRANCH   2   3
ENDBRANCH   1   2
BRANCH   1  33
ATOM     33  C   UNL A   1      37.041  23.320  24.783  1.00  0.00     0.188 C 
BRANCH  33  34
ATOM     34  O   UNL A   1      36.958  22.263  25.729  1.00  0.00    -0.376 OA
BRANCH  34  35
ATOM     35  C   UNL A   1      37.329  20.953  25.295  1.00  0.00     0.202 C 
BRANCH  35  36
ATOM     36  C   UNL A   1      38.738  20.437  25.614  1.00  0.00     0.261 C 
BRANCH  36  37
ATOM     37  O   UNL A   1      39.733  21.483  25.635  1.00  0.00    -0.460 OA
BRANCH  37  38
ATOM     38  C   UNL A   1      40.557  21.456  26.707  1.00  0.00     0.338 C 
ATOM     39  O   UNL A   1      41.227  20.505  27.091  1.00  0.00    -0.246 OA
BRANCH  38  40
ATOM     40  C   UNL A   1      40.688  22.779  27.336  1.00  0.00     0.060 A 
ATOM     41  C   UNL A   1      40.264  23.895  26.602  1.00  0.00     0.016 A 
ATOM     42  C   UNL A   1      41.449  22.940  28.496  1.00  0.00     0.016 A 
ATOM     43  C   UNL A   1      40.675  25.174  26.979  1.00  0.00     0.010 A 
ATOM     44  C   UNL A   1      41.864  24.225  28.869  1.00  0.00     0.010 A 
ATOM     45  C   UNL A   1      41.532  25.338  28.075  1.00  0.00    -0.014 A 
BRANCH  45  46
ATOM     46  C   UNL A   1      42.259  26.626  28.233  1.00  0.00     0.031 A 
ATOM     47  C   UNL A   1      41.515  27.815  28.791  1.00  0.00     0.074 A 
ATOM     48  C   UNL A   1      43.569  26.731  27.946  1.00  0.00     0.049 A 
ATOM     49  N   UNL A   1      41.956  29.018  29.062  1.00  0.00    -0.248 NA
ATOM     50  C   UNL A   1      40.086  27.620  29.086  1.00  0.00     0.031 C 
ATOM     51  C   UNL A   1      44.417  25.653  27.440  1.00  0.00     0.029 A 
ATOM     52  N   UNL A   1      44.416  27.807  28.050  1.00  0.00    -0.354 N 
ATOM     53  C   UNL A   1      40.861  29.722  29.551  1.00  0.00     0.074 A 
ATOM     54  C   UNL A   1      39.729  28.822  29.514  1.00  0.00     0.031 C 
ATOM     55  C   UNL A   1      45.667  26.121  27.283  1.00  0.00     0.029 A 
ATOM     56  C   UNL A   1      45.704  27.535  27.659  1.00  0.00     0.049 A 
ATOM     57  H   UNL A   1      44.128  28.690  28.377  1.00  0.00     0.167 HD
ATOM     58  C   UNL A   1      40.797  31.000  29.997  1.00  0.00     0.031 A 
ATOM     59  C   UNL A   1      46.789  28.335  27.608  1.00  0.00     0.031 A 
ATOM     60  C   UNL A   1      41.914  31.905  30.031  1.00  0.00     0.049 A 
ATOM     61  C   UNL A   1      46.684  29.768  28.064  1.00  0.00     0.074 A 
ATOM     62  C   UNL A   1      41.949  33.214  30.481  1.00  0.00     0.029 A 
ATOM     63  N   UNL A   1      43.192  31.600  29.592  1.00  0.00    -0.354 N 
ATOM     64  N   UNL A   1      45.647  30.407  28.552  1.00  0.00    -0.248 NA
ATOM     65  C   UNL A   1      47.905  30.583  27.974  1.00  0.00     0.031 C 
ATOM     66  C   UNL A   1      43.240  33.713  30.274  1.00  0.00     0.029 A 
ATOM     67  C   UNL A   1      44.019  32.700  29.742  1.00  0.00     0.049 A 
ATOM     68  H   UNL A   1      43.471  30.728  29.228  1.00  0.00     0.167 HD
ATOM     69  C   UNL A   1      46.100  31.686  28.861  1.00  0.00     0.074 A 
ATOM     70  C   UNL A   1      47.505  31.729  28.509  1.00  0.00     0.031 C 
ATOM     71  C   UNL A   1      45.417  32.730  29.393  1.00  0.00     0.031 A 
BRANCH  58  72
ATOM     72  C   UNL A   1      39.455  31.505  30.455  1.00  0.00    -0.014 A 
ATOM     73  C   UNL A   1      39.071  31.431  31.806  1.00  0.00     0.010 A 
ATOM     74  C   UNL A   1      38.574  32.083  29.523  1.00  0.00     0.010 A 
ATOM     75  C   UNL A   1      37.812  31.885  32.210  1.00  0.00     0.020 A 
ATOM     76  C   UNL A   1      37.324  32.560  29.926  1.00  0.00     0.020 A 
ATOM     77  C   UNL A   1      36.943  32.440  31.264  1.00  0.00     0.054 A 
BRANCH  77  78
ATOM     78  S   UNL A   1      35.318  33.031  31.810  1.00  0.00     0.124 S 
ATOM     79  O   UNL A   1      35.503  34.480  31.792  1.00  0.00    -0.237 OA
ATOM     80  O   UNL A   1      34.420  32.501  30.786  1.00  0.00    -0.237 OA
ATOM     81  O   UNL A   1      35.162  32.439  33.136  1.00  0.00    -0.744 OA
ENDBRANCH  77  78
ENDBRANCH  58  72
BRANCH  59  82
ATOM     82  C   UNL A   1      48.084  27.795  27.114  1.00  0.00    -0.014 A 
ATOM     83  C   UNL A   1      48.955  27.116  27.983  1.00  0.00     0.010 A 
ATOM     84  C   UNL A   1      48.457  27.968  25.767  1.00  0.00     0.010 A 
ATOM     85  C   UNL A   1      50.183  26.634  27.522  1.00  0.00     0.020 A 
ATOM     86  C   UNL A   1      49.674  27.465  25.297  1.00  0.00     0.020 A 
ATOM     87  C   UNL A   1      50.535  26.812  26.180  1.00  0.00     0.054 A 
BRANCH  87  88
ATOM     88  S   UNL A   1      52.112  26.137  25.592  1.00  0.00     0.124 S 
ATOM     89  O   UNL A   1      52.161  24.844  26.267  1.00  0.00    -0.237 OA
ATOM     90  O   UNL A   1      51.915  26.087  24.145  1.00  0.00    -0.237 OA
ATOM     91  O   UNL A   1      53.094  27.119  26.044  1.00  0.00    -0.744 OA
ENDBRANCH  87  88
ENDBRANCH  59  82
BRANCH  71  92
ATOM     92  C   UNL A   1      46.186  33.994  29.676  1.00  0.00    -0.014 A 
ATOM     93  C   UNL A   1      46.296  35.015  28.716  1.00  0.00     0.010 A 
ATOM     94  C   UNL A   1      46.773  34.177  30.941  1.00  0.00     0.010 A 
ATOM     95  C   UNL A   1      47.014  36.180  29.002  1.00  0.00     0.020 A 
ATOM     96  C   UNL A   1      47.471  35.351  31.240  1.00  0.00     0.020 A 
ATOM     97  C   UNL A   1      47.602  36.338  30.262  1.00  0.00     0.054 A 
BRANCH  97  98
ATOM     98  S   UNL A   1      48.509  37.867  30.623  1.00  0.00     0.124 S 
ATOM     99  O   UNL A   1      49.727  37.358  31.248  1.00  0.00    -0.237 OA
ATOM    100  O   UNL A   1      48.683  38.462  29.300  1.00  0.00    -0.237 OA
ATOM    101  O   UNL A   1      47.610  38.599  31.513  1.00  0.00    -0.744 OA
ENDBRANCH  97  98
ENDBRANCH  71  92
ENDBRANCH  45  46
ENDBRANCH  38  40
ENDBRANCH  37  38
ENDBRANCH  36  37
ENDBRANCH  35  36
ENDBRANCH  34  35
ENDBRANCH  33  34
ENDBRANCH   1  33
TORSDOF 25
ENDMDL
