MODEL 1
REMARK VINA RESULT:      -9.3      0.000      0.000
REMARK SMILES CN(C)C(=O)CSc1ccc(C(=O)OCCOCCOCCOC(=O)c2ccc(-c3c4nc(c(-c5ccc(S(=O)(=O)[O-])cc5)c5ccc([nH]5)c(-c5ccc(S(=O)(=O)[O-])cc5)c5nc(c(-c6ccc(S(=O)(=O)[O-])cc6)c6ccc3[nH]6)C=C5)C=C4)cc2)cc1
REMARK SMILES IDX 18 1 17 2 16 3 15 4 14 5 12 6 13 7 11 8 8 9 9 10 87 11 10 12
REMARK SMILES IDX 86 13 7 14 6 15 4 16 1 17 2 18 3 19 5 20 19 21 20 22 21 23
REMARK SMILES IDX 22 24 23 25 24 26 25 27 26 28 27 29 85 30 28 31 84 32 29 33
REMARK SMILES IDX 30 34 31 35 78 36 32 37 83 38 77 39 79 40 33 41 82 42 76 43
REMARK SMILES IDX 75 44 34 46 64 47 45 48 63 49 46 50 49 51 62 52 80 53 47 54
REMARK SMILES IDX 48 55 61 57 81 58 50 59 35 60 36 61 44 62 37 63 43 64 38 65
REMARK SMILES IDX 39 66 40 67 41 68 42 69 65 70 66 71 74 72 67 73 73 74 68 75
REMARK SMILES IDX 69 76 70 77 71 78 72 79 51 80 52 81 60 82 53 83 59 84 54 85
REMARK SMILES IDX 55 86 56 87 57 88 58 89
REMARK H PARENT 79 45 49 56
REMARK Flexibility Score: inf
ROOT
ATOM      1  C   UNL A   1      33.691  27.729  25.933  1.00  0.00     0.188 C 
ENDROOT
BRANCH   1   2
ATOM      2  O   UNL A   1      34.309  28.124  24.733  1.00  0.00    -0.376 OA
BRANCH   2   3
ATOM      3  C   UNL A   1      33.546  28.499  23.599  1.00  0.00     0.202 C 
BRANCH   3   4
ATOM      4  C   UNL A   1      33.599  27.851  22.202  1.00  0.00     0.261 C 
BRANCH   4   5
ATOM      5  O   UNL A   1      33.962  26.476  22.114  1.00  0.00    -0.460 OA
BRANCH   5   6
ATOM      6  C   UNL A   1      32.920  25.600  22.081  1.00  0.00     0.338 C 
ATOM      7  O   UNL A   1      31.917  25.689  21.413  1.00  0.00    -0.246 OA
BRANCH   6   8
ATOM      8  C   UNL A   1      33.279  24.405  22.881  1.00  0.00     0.060 A 
ATOM      9  C   UNL A   1      34.029  22.205  24.427  1.00  0.00     0.008 A 
ATOM     10  C   UNL A   1      34.525  23.474  24.735  1.00  0.00     0.016 A 
ATOM     11  C   UNL A   1      33.109  22.051  23.383  1.00  0.00     0.016 A 
ATOM     12  C   UNL A   1      34.157  24.574  23.957  1.00  0.00     0.017 A 
ATOM     13  C   UNL A   1      32.740  23.147  22.601  1.00  0.00     0.017 A 
BRANCH   9  14
ATOM     14  S   UNL A   1      34.591  20.786  25.342  1.00  0.00    -0.116 SA
BRANCH  14  15
ATOM     15  C   UNL A   1      33.973  19.457  24.246  1.00  0.00     0.175 C 
BRANCH  15  16
ATOM     16  C   UNL A   1      33.162  18.406  24.994  1.00  0.00     0.232 C 
ATOM     17  C   UNL A   1      32.559  16.088  25.414  1.00  0.00     0.146 C 
ATOM     18  N   UNL A   1      33.235  17.075  24.592  1.00  0.00    -0.348 N 
ATOM     19  C   UNL A   1      33.988  16.593  23.445  1.00  0.00     0.146 C 
ATOM     20  O   UNL A   1      32.438  18.742  25.937  1.00  0.00    -0.274 OA
ENDBRANCH  15  16
ENDBRANCH  14  15
ENDBRANCH   9  14
ENDBRANCH   6   8
ENDBRANCH   5   6
ENDBRANCH   4   5
ENDBRANCH   3   4
ENDBRANCH   2   3
ENDBRANCH   1   2
BRANCH   1  21
ATOM     21  C   UNL A   1      32.696  28.738  26.545  1.00  0.00     0.188 C 
BRANCH  21  22
ATOM     22  O   UNL A   1      33.119  29.662  27.535  1.00  0.00    -0.376 OA
BRANCH  22  23
ATOM     23  C   UNL A   1      34.019  30.702  27.187  1.00  0.00     0.202 C 
BRANCH  23  24
ATOM     24  C   UNL A   1      35.480  30.719  27.670  1.00  0.00     0.261 C 
BRANCH  24  25
ATOM     25  O   UNL A   1      36.053  29.450  28.001  1.00  0.00    -0.460 OA
BRANCH  25  26
ATOM     26  C   UNL A   1      36.851  29.444  29.098  1.00  0.00     0.338 C 
ATOM     27  O   UNL A   1      36.515  29.609  30.258  1.00  0.00    -0.246 OA
BRANCH  26  28
ATOM     28  C   UNL A   1      38.211  29.035  28.705  1.00  0.00     0.060 A 
ATOM     29  C   UNL A   1      39.036  28.438  29.669  1.00  0.00     0.016 A 
ATOM     30  C   UNL A   1      38.689  29.287  27.419  1.00  0.00     0.016 A 
ATOM     31  C   UNL A   1      40.350  28.103  29.353  1.00  0.00     0.010 A 
ATOM     32  C   UNL A   1      40.016  28.973  27.110  1.00  0.00     0.010 A 
ATOM     33  C   UNL A   1      40.859  28.404  28.083  1.00  0.00    -0.014 A 
BRANCH  33  34
ATOM     34  C   UNL A   1      42.313  28.276  27.822  1.00  0.00     0.031 A 
ATOM     35  C   UNL A   1      43.201  29.459  28.091  1.00  0.00     0.074 A 
ATOM     36  C   UNL A   1      42.837  27.124  27.366  1.00  0.00     0.049 A 
ATOM     37  N   UNL A   1      44.488  29.590  27.897  1.00  0.00    -0.248 NA
ATOM     38  C   UNL A   1      42.550  30.653  28.655  1.00  0.00     0.031 C 
ATOM     39  C   UNL A   1      42.089  25.895  27.110  1.00  0.00     0.029 A 
ATOM     40  N   UNL A   1      44.130  26.809  27.028  1.00  0.00    -0.354 N 
ATOM     41  C   UNL A   1      44.800  30.882  28.305  1.00  0.00     0.074 A 
ATOM     42  C   UNL A   1      43.564  31.502  28.733  1.00  0.00     0.031 C 
ATOM     43  C   UNL A   1      42.936  24.959  26.645  1.00  0.00     0.029 A 
ATOM     44  C   UNL A   1      44.276  25.534  26.535  1.00  0.00     0.049 A 
ATOM     45  H   UNL A   1      44.882  27.437  27.130  1.00  0.00     0.167 HD
ATOM     46  C   UNL A   1      46.006  31.497  28.324  1.00  0.00     0.031 A 
ATOM     47  C   UNL A   1      45.360  24.912  26.033  1.00  0.00     0.031 A 
ATOM     48  C   UNL A   1      47.230  30.885  27.878  1.00  0.00     0.049 A 
ATOM     49  C   UNL A   1      46.678  25.646  25.985  1.00  0.00     0.074 A 
ATOM     50  C   UNL A   1      48.506  31.421  27.869  1.00  0.00     0.029 A 
ATOM     51  N   UNL A   1      47.329  29.607  27.349  1.00  0.00    -0.354 N 
ATOM     52  N   UNL A   1      46.964  26.857  26.399  1.00  0.00    -0.248 NA
ATOM     53  C   UNL A   1      47.819  24.923  25.406  1.00  0.00     0.031 C 
ATOM     54  C   UNL A   1      49.366  30.489  27.278  1.00  0.00     0.029 A 
ATOM     55  C   UNL A   1      48.638  29.348  26.982  1.00  0.00     0.049 A 
ATOM     56  H   UNL A   1      46.580  28.976  27.250  1.00  0.00     0.167 HD
ATOM     57  C   UNL A   1      48.323  27.031  26.156  1.00  0.00     0.074 A 
ATOM     58  C   UNL A   1      48.804  25.796  25.571  1.00  0.00     0.031 C 
ATOM     59  C   UNL A   1      49.104  28.114  26.397  1.00  0.00     0.031 A 
BRANCH  46  60
ATOM     60  C   UNL A   1      46.051  32.921  28.809  1.00  0.00    -0.014 A 
ATOM     61  C   UNL A   1      45.799  33.997  27.938  1.00  0.00     0.010 A 
ATOM     62  C   UNL A   1      46.324  33.186  30.163  1.00  0.00     0.010 A 
ATOM     63  C   UNL A   1      45.859  35.313  28.405  1.00  0.00     0.020 A 
ATOM     64  C   UNL A   1      46.357  34.500  30.639  1.00  0.00     0.020 A 
ATOM     65  C   UNL A   1      46.142  35.556  29.753  1.00  0.00     0.054 A 
BRANCH  65  66
ATOM     66  S   UNL A   1      46.197  37.273  30.334  1.00  0.00     0.124 S 
ATOM     67  O   UNL A   1      45.018  37.847  29.689  1.00  0.00    -0.237 OA
ATOM     68  O   UNL A   1      46.110  37.124  31.784  1.00  0.00    -0.237 OA
ATOM     69  O   UNL A   1      47.479  37.766  29.837  1.00  0.00    -0.744 OA
ENDBRANCH  65  66
ENDBRANCH  46  60
BRANCH  47  70
ATOM     70  C   UNL A   1      45.247  23.523  25.511  1.00  0.00    -0.014 A 
ATOM     71  C   UNL A   1      45.374  22.420  26.372  1.00  0.00     0.010 A 
ATOM     72  C   UNL A   1      45.013  23.296  24.141  1.00  0.00     0.010 A 
ATOM     73  C   UNL A   1      45.285  21.117  25.873  1.00  0.00     0.020 A 
ATOM     74  C   UNL A   1      44.897  21.995  23.643  1.00  0.00     0.020 A 
ATOM     75  C   UNL A   1      45.044  20.913  24.511  1.00  0.00     0.054 A 
BRANCH  75  76
ATOM     76  S   UNL A   1      44.883  19.213  23.895  1.00  0.00     0.124 S 
ATOM     77  O   UNL A   1      46.270  18.761  23.889  1.00  0.00    -0.237 OA
ATOM     78  O   UNL A   1      44.020  18.596  24.899  1.00  0.00    -0.237 OA
ATOM     79  O   UNL A   1      44.273  19.384  22.579  1.00  0.00    -0.744 OA
ENDBRANCH  75  76
ENDBRANCH  47  70
BRANCH  59  80
ATOM     80  C   UNL A   1      50.571  28.007  26.065  1.00  0.00    -0.014 A 
ATOM     81  C   UNL A   1      51.512  27.602  27.028  1.00  0.00     0.010 A 
ATOM     82  C   UNL A   1      51.003  28.260  24.750  1.00  0.00     0.010 A 
ATOM     83  C   UNL A   1      52.863  27.480  26.689  1.00  0.00     0.020 A 
ATOM     84  C   UNL A   1      52.348  28.112  24.400  1.00  0.00     0.020 A 
ATOM     85  C   UNL A   1      53.273  27.735  25.375  1.00  0.00     0.054 A 
BRANCH  85  86
ATOM     86  S   UNL A   1      55.023  27.526  24.950  1.00  0.00     0.124 S 
ATOM     87  O   UNL A   1      55.678  27.756  26.235  1.00  0.00    -0.237 OA
ATOM     88  O   UNL A   1      55.072  26.152  24.457  1.00  0.00    -0.237 OA
ATOM     89  O   UNL A   1      55.260  28.553  23.938  1.00  0.00    -0.744 OA
ENDBRANCH  85  86
ENDBRANCH  59  80
ENDBRANCH  33  34
ENDBRANCH  26  28
ENDBRANCH  25  26
ENDBRANCH  24  25
ENDBRANCH  23  24
ENDBRANCH  22  23
ENDBRANCH  21  22
ENDBRANCH   1  21
TORSDOF 23
ENDMDL
MODEL 2
REMARK VINA RESULT:      -8.8      2.463      9.440
REMARK SMILES CN(C)C(=O)CSc1ccc(C(=O)OCCOCCOCCOC(=O)c2ccc(-c3c4nc(c(-c5ccc(S(=O)(=O)[O-])cc5)c5ccc([nH]5)c(-c5ccc(S(=O)(=O)[O-])cc5)c5nc(c(-c6ccc(S(=O)(=O)[O-])cc6)c6ccc3[nH]6)C=C5)C=C4)cc2)cc1
REMARK SMILES IDX 18 1 17 2 16 3 15 4 14 5 12 6 13 7 11 8 8 9 9 10 87 11 10 12
REMARK SMILES IDX 86 13 7 14 6 15 4 16 1 17 2 18 3 19 5 20 19 21 20 22 21 23
REMARK SMILES IDX 22 24 23 25 24 26 25 27 26 28 27 29 85 30 28 31 84 32 29 33
REMARK SMILES IDX 30 34 31 35 78 36 32 37 83 38 77 39 79 40 33 41 82 42 76 43
REMARK SMILES IDX 75 44 34 46 64 47 45 48 63 49 46 50 49 51 62 52 80 53 47 54
REMARK SMILES IDX 48 55 61 57 81 58 50 59 35 60 36 61 44 62 37 63 43 64 38 65
REMARK SMILES IDX 39 66 40 67 41 68 42 69 65 70 66 71 74 72 67 73 73 74 68 75
REMARK SMILES IDX 69 76 70 77 71 78 72 79 51 80 52 81 60 82 53 83 59 84 54 85
REMARK SMILES IDX 55 86 56 87 57 88 58 89
REMARK H PARENT 79 45 49 56
REMARK Flexibility Score: inf
ROOT
ATOM      1  C   UNL A   1      40.188  21.445  26.248  1.00  0.00     0.188 C 
ENDROOT
BRANCH   1   2
ATOM      2  O   UNL A   1      38.976  21.125  25.608  1.00  0.00    -0.376 OA
BRANCH   2   3
ATOM      3  C   UNL A   1      37.874  22.014  25.630  1.00  0.00     0.202 C 
BRANCH   3   4
ATOM      4  C   UNL A   1      36.383  21.627  25.677  1.00  0.00     0.261 C 
BRANCH   4   5
ATOM      5  O   UNL A   1      35.690  21.481  24.441  1.00  0.00    -0.460 OA
BRANCH   5   6
ATOM      6  C   UNL A   1      34.350  21.264  24.547  1.00  0.00     0.338 C 
ATOM      7  O   UNL A   1      33.804  20.358  25.132  1.00  0.00    -0.246 OA
BRANCH   6   8
ATOM      8  C   UNL A   1      33.632  22.423  23.964  1.00  0.00     0.060 A 
ATOM      9  C   UNL A   1      32.363  24.661  22.880  1.00  0.00     0.008 A 
ATOM     10  C   UNL A   1      33.753  24.646  23.017  1.00  0.00     0.016 A 
ATOM     11  C   UNL A   1      31.618  23.528  23.229  1.00  0.00     0.016 A 
ATOM     12  C   UNL A   1      34.389  23.531  23.566  1.00  0.00     0.017 A 
ATOM     13  C   UNL A   1      32.247  22.411  23.782  1.00  0.00     0.017 A 
BRANCH   9  14
ATOM     14  S   UNL A   1      31.544  26.126  22.291  1.00  0.00    -0.116 SA
BRANCH  14  15
ATOM     15  C   UNL A   1      30.641  26.597  23.811  1.00  0.00     0.175 C 
BRANCH  15  16
ATOM     16  C   UNL A   1      31.464  27.489  24.734  1.00  0.00     0.232 C 
ATOM     17  C   UNL A   1      32.901  27.794  26.671  1.00  0.00     0.146 C 
ATOM     18  N   UNL A   1      32.010  26.950  25.895  1.00  0.00    -0.348 N 
ATOM     19  C   UNL A   1      31.805  25.586  26.355  1.00  0.00     0.146 C 
ATOM     20  O   UNL A   1      31.628  28.682  24.453  1.00  0.00    -0.274 OA
ENDBRANCH  15  16
ENDBRANCH  14  15
ENDBRANCH   9  14
ENDBRANCH   6   8
ENDBRANCH   5   6
ENDBRANCH   4   5
ENDBRANCH   3   4
ENDBRANCH   2   3
ENDBRANCH   1   2
BRANCH   1  21
ATOM     21  C   UNL A   1      41.026  20.248  26.745  1.00  0.00     0.188 C 
BRANCH  21  22
ATOM     22  O   UNL A   1      41.356  19.183  25.869  1.00  0.00    -0.376 OA
BRANCH  22  23
ATOM     23  C   UNL A   1      42.431  18.313  26.193  1.00  0.00     0.202 C 
BRANCH  23  24
ATOM     24  C   UNL A   1      43.775  18.357  25.447  1.00  0.00     0.261 C 
BRANCH  24  25
ATOM     25  O   UNL A   1      43.892  19.333  24.407  1.00  0.00    -0.460 OA
BRANCH  25  26
ATOM     26  C   UNL A   1      45.105  19.933  24.310  1.00  0.00     0.338 C 
ATOM     27  O   UNL A   1      46.105  19.494  23.766  1.00  0.00    -0.246 OA
BRANCH  26  28
ATOM     28  C   UNL A   1      45.009  21.308  24.828  1.00  0.00     0.060 A 
ATOM     29  C   UNL A   1      44.736  22.346  23.927  1.00  0.00     0.016 A 
ATOM     30  C   UNL A   1      45.241  21.581  26.177  1.00  0.00     0.016 A 
ATOM     31  C   UNL A   1      44.708  23.666  24.370  1.00  0.00     0.010 A 
ATOM     32  C   UNL A   1      45.236  22.908  26.616  1.00  0.00     0.010 A 
ATOM     33  C   UNL A   1      44.996  23.958  25.709  1.00  0.00    -0.014 A 
BRANCH  33  34
ATOM     34  C   UNL A   1      45.207  25.364  26.129  1.00  0.00     0.031 A 
ATOM     35  C   UNL A   1      46.594  25.939  26.053  1.00  0.00     0.074 A 
ATOM     36  C   UNL A   1      44.181  26.121  26.558  1.00  0.00     0.049 A 
ATOM     37  N   UNL A   1      47.020  27.124  26.406  1.00  0.00    -0.248 NA
ATOM     38  C   UNL A   1      47.640  25.059  25.505  1.00  0.00     0.031 C 
ATOM     39  C   UNL A   1      42.785  25.695  26.633  1.00  0.00     0.029 A 
ATOM     40  N   UNL A   1      44.165  27.414  27.021  1.00  0.00    -0.354 N 
ATOM     41  C   UNL A   1      48.383  27.130  26.133  1.00  0.00     0.074 A 
ATOM     42  C   UNL A   1      48.717  25.823  25.610  1.00  0.00     0.031 C 
ATOM     43  C   UNL A   1      42.048  26.705  27.125  1.00  0.00     0.029 A 
ATOM     44  C   UNL A   1      42.923  27.835  27.433  1.00  0.00     0.049 A 
ATOM     45  H   UNL A   1      44.966  27.984  27.055  1.00  0.00     0.167 HD
ATOM     46  C   UNL A   1      49.277  28.133  26.301  1.00  0.00     0.031 A 
ATOM     47  C   UNL A   1      42.542  28.991  28.013  1.00  0.00     0.031 A 
ATOM     48  C   UNL A   1      48.946  29.425  26.842  1.00  0.00     0.049 A 
ATOM     49  C   UNL A   1      43.571  30.064  28.269  1.00  0.00     0.074 A 
ATOM     50  C   UNL A   1      49.778  30.513  27.040  1.00  0.00     0.029 A 
ATOM     51  N   UNL A   1      47.686  29.799  27.284  1.00  0.00    -0.354 N 
ATOM     52  N   UNL A   1      44.851  30.066  27.980  1.00  0.00    -0.248 NA
ATOM     53  C   UNL A   1      43.100  31.293  28.923  1.00  0.00     0.031 C 
ATOM     54  C   UNL A   1      49.035  31.524  27.658  1.00  0.00     0.029 A 
ATOM     55  C   UNL A   1      47.725  31.091  27.782  1.00  0.00     0.049 A 
ATOM     56  H   UNL A   1      46.883  29.232  27.248  1.00  0.00     0.167 HD
ATOM     57  C   UNL A   1      45.332  31.306  28.394  1.00  0.00     0.074 A 
ATOM     58  C   UNL A   1      44.202  32.031  28.939  1.00  0.00     0.031 C 
ATOM     59  C   UNL A   1      46.593  31.801  28.325  1.00  0.00     0.031 A 
BRANCH  46  60
ATOM     60  C   UNL A   1      50.709  27.855  25.930  1.00  0.00    -0.014 A 
ATOM     61  C   UNL A   1      51.609  27.302  26.859  1.00  0.00     0.010 A 
ATOM     62  C   UNL A   1      51.155  28.129  24.625  1.00  0.00     0.010 A 
ATOM     63  C   UNL A   1      52.939  27.064  26.499  1.00  0.00     0.020 A 
ATOM     64  C   UNL A   1      52.476  27.867  24.253  1.00  0.00     0.020 A 
ATOM     65  C   UNL A   1      53.365  27.352  25.198  1.00  0.00     0.054 A 
BRANCH  65  66
ATOM     66  S   UNL A   1      55.092  27.018  24.755  1.00  0.00     0.124 S 
ATOM     67  O   UNL A   1      55.813  27.652  25.856  1.00  0.00    -0.237 OA
ATOM     68  O   UNL A   1      55.139  25.559  24.730  1.00  0.00    -0.237 OA
ATOM     69  O   UNL A   1      55.248  27.666  23.455  1.00  0.00    -0.744 OA
ENDBRANCH  65  66
ENDBRANCH  46  60
BRANCH  47  70
ATOM     70  C   UNL A   1      41.123  29.190  28.415  1.00  0.00    -0.014 A 
ATOM     71  C   UNL A   1      40.759  29.217  29.773  1.00  0.00     0.010 A 
ATOM     72  C   UNL A   1      40.124  29.350  27.437  1.00  0.00     0.010 A 
ATOM     73  C   UNL A   1      39.421  29.385  30.144  1.00  0.00     0.020 A 
ATOM     74  C   UNL A   1      38.789  29.546  27.805  1.00  0.00     0.020 A 
ATOM     75  C   UNL A   1      38.445  29.552  29.157  1.00  0.00     0.054 A 
BRANCH  75  76
ATOM     76  S   UNL A   1      36.723  29.818  29.665  1.00  0.00     0.124 S 
ATOM     77  O   UNL A   1      36.646  29.040  30.897  1.00  0.00    -0.237 OA
ATOM     78  O   UNL A   1      36.664  31.269  29.827  1.00  0.00    -0.237 OA
ATOM     79  O   UNL A   1      35.951  29.292  28.542  1.00  0.00    -0.744 OA
ENDBRANCH  75  76
ENDBRANCH  47  70
BRANCH  59  80
ATOM     80  C   UNL A   1      46.821  33.207  28.819  1.00  0.00    -0.014 A 
ATOM     81  C   UNL A   1      47.236  33.461  30.138  1.00  0.00     0.010 A 
ATOM     82  C   UNL A   1      46.674  34.286  27.927  1.00  0.00     0.010 A 
ATOM     83  C   UNL A   1      47.471  34.772  30.565  1.00  0.00     0.020 A 
ATOM     84  C   UNL A   1      46.936  35.594  28.342  1.00  0.00     0.020 A 
ATOM     85  C   UNL A   1      47.321  35.831  29.663  1.00  0.00     0.054 A 
BRANCH  85  86
ATOM     86  S   UNL A   1      47.677  37.518  30.228  1.00  0.00     0.124 S 
ATOM     87  O   UNL A   1      47.262  38.317  29.079  1.00  0.00    -0.237 OA
ATOM     88  O   UNL A   1      46.837  37.641  31.417  1.00  0.00    -0.237 OA
ATOM     89  O   UNL A   1      49.114  37.500  30.488  1.00  0.00    -0.744 OA
ENDBRANCH  85  86
ENDBRANCH  59  80
ENDBRANCH  33  34
ENDBRANCH  26  28
ENDBRANCH  25  26
ENDBRANCH  24  25
ENDBRANCH  23  24
ENDBRANCH  22  23
ENDBRANCH  21  22
ENDBRANCH   1  21
TORSDOF 23
ENDMDL
MODEL 3
REMARK VINA RESULT:      -8.8      1.490      2.038
REMARK SMILES CN(C)C(=O)CSc1ccc(C(=O)OCCOCCOCCOC(=O)c2ccc(-c3c4nc(c(-c5ccc(S(=O)(=O)[O-])cc5)c5ccc([nH]5)c(-c5ccc(S(=O)(=O)[O-])cc5)c5nc(c(-c6ccc(S(=O)(=O)[O-])cc6)c6ccc3[nH]6)C=C5)C=C4)cc2)cc1
REMARK SMILES IDX 18 1 17 2 16 3 15 4 14 5 12 6 13 7 11 8 8 9 9 10 87 11 10 12
REMARK SMILES IDX 86 13 7 14 6 15 4 16 1 17 2 18 3 19 5 20 19 21 20 22 21 23
REMARK SMILES IDX 22 24 23 25 24 26 25 27 26 28 27 29 85 30 28 31 84 32 29 33
REMARK SMILES IDX 30 34 31 35 78 36 32 37 83 38 77 39 79 40 33 41 82 42 76 43
REMARK SMILES IDX 75 44 34 46 64 47 45 48 63 49 46 50 49 51 62 52 80 53 47 54
REMARK SMILES IDX 48 55 61 57 81 58 50 59 35 60 36 61 44 62 37 63 43 64 38 65
REMARK SMILES IDX 39 66 40 67 41 68 42 69 65 70 66 71 74 72 67 73 73 74 68 75
REMARK SMILES IDX 69 76 70 77 71 78 72 79 51 80 52 81 60 82 53 83 59 84 54 85
REMARK SMILES IDX 55 86 56 87 57 88 58 89
REMARK H PARENT 79 45 49 56
REMARK Flexibility Score: inf
ROOT
ATOM      1  C   UNL A   1      33.604  27.601  25.661  1.00  0.00     0.188 C 
ENDROOT
BRANCH   1   2
ATOM      2  O   UNL A   1      33.873  28.373  24.515  1.00  0.00    -0.376 OA
BRANCH   2   3
ATOM      3  C   UNL A   1      32.916  29.279  23.995  1.00  0.00     0.202 C 
BRANCH   3   4
ATOM      4  C   UNL A   1      32.181  29.164  22.646  1.00  0.00     0.261 C 
BRANCH   4   5
ATOM      5  O   UNL A   1      31.690  27.884  22.257  1.00  0.00    -0.460 OA
BRANCH   5   6
ATOM      6  C   UNL A   1      30.424  27.598  22.668  1.00  0.00     0.338 C 
ATOM      7  O   UNL A   1      29.398  28.095  22.265  1.00  0.00    -0.246 OA
BRANCH   6   8
ATOM      8  C   UNL A   1      30.474  26.437  23.589  1.00  0.00     0.060 A 
ATOM      9  C   UNL A   1      30.551  24.313  25.399  1.00  0.00     0.008 A 
ATOM     10  C   UNL A   1      30.033  25.548  25.796  1.00  0.00     0.016 A 
ATOM     11  C   UNL A   1      30.973  24.128  24.076  1.00  0.00     0.016 A 
ATOM     12  C   UNL A   1      30.000  26.613  24.894  1.00  0.00     0.017 A 
ATOM     13  C   UNL A   1      30.945  25.190  23.171  1.00  0.00     0.017 A 
BRANCH   9  14
ATOM     14  S   UNL A   1      30.703  22.992  26.581  1.00  0.00    -0.116 SA
BRANCH  14  15
ATOM     15  C   UNL A   1      31.883  21.919  25.684  1.00  0.00     0.175 C 
BRANCH  15  16
ATOM     16  C   UNL A   1      33.324  22.121  26.135  1.00  0.00     0.232 C 
ATOM     17  C   UNL A   1      35.692  21.587  25.992  1.00  0.00     0.146 C 
ATOM     18  N   UNL A   1      34.316  21.275  25.649  1.00  0.00    -0.348 N 
ATOM     19  C   UNL A   1      34.083  20.138  24.773  1.00  0.00     0.146 C 
ATOM     20  O   UNL A   1      33.599  23.022  26.936  1.00  0.00    -0.274 OA
ENDBRANCH  15  16
ENDBRANCH  14  15
ENDBRANCH   9  14
ENDBRANCH   6   8
ENDBRANCH   5   6
ENDBRANCH   4   5
ENDBRANCH   3   4
ENDBRANCH   2   3
ENDBRANCH   1   2
BRANCH   1  21
ATOM     21  C   UNL A   1      32.590  28.201  26.656  1.00  0.00     0.188 C 
BRANCH  21  22
ATOM     22  O   UNL A   1      33.031  28.968  27.765  1.00  0.00    -0.376 OA
BRANCH  22  23
ATOM     23  C   UNL A   1      33.523  30.284  27.559  1.00  0.00     0.202 C 
BRANCH  23  24
ATOM     24  C   UNL A   1      35.023  30.618  27.625  1.00  0.00     0.261 C 
BRANCH  24  25
ATOM     25  O   UNL A   1      35.907  29.521  27.881  1.00  0.00    -0.460 OA
BRANCH  25  26
ATOM     26  C   UNL A   1      36.718  29.672  28.958  1.00  0.00     0.338 C 
ATOM     27  O   UNL A   1      36.394  29.990  30.090  1.00  0.00    -0.246 OA
BRANCH  26  28
ATOM     28  C   UNL A   1      38.078  29.227  28.606  1.00  0.00     0.060 A 
ATOM     29  C   UNL A   1      38.893  28.700  29.618  1.00  0.00     0.016 A 
ATOM     30  C   UNL A   1      38.565  29.377  27.308  1.00  0.00     0.016 A 
ATOM     31  C   UNL A   1      40.207  28.335  29.336  1.00  0.00     0.010 A 
ATOM     32  C   UNL A   1      39.892  29.033  27.032  1.00  0.00     0.010 A 
ATOM     33  C   UNL A   1      40.725  28.535  28.051  1.00  0.00    -0.014 A 
BRANCH  33  34
ATOM     34  C   UNL A   1      42.180  28.379  27.809  1.00  0.00     0.031 A 
ATOM     35  C   UNL A   1      43.087  29.544  28.092  1.00  0.00     0.074 A 
ATOM     36  C   UNL A   1      42.688  27.218  27.359  1.00  0.00     0.049 A 
ATOM     37  N   UNL A   1      44.378  29.651  27.916  1.00  0.00    -0.248 NA
ATOM     38  C   UNL A   1      42.451  30.751  28.649  1.00  0.00     0.031 C 
ATOM     39  C   UNL A   1      41.920  26.003  27.092  1.00  0.00     0.029 A 
ATOM     40  N   UNL A   1      43.979  26.878  27.039  1.00  0.00    -0.354 N 
ATOM     41  C   UNL A   1      44.710  30.936  28.329  1.00  0.00     0.074 A 
ATOM     42  C   UNL A   1      43.481  31.579  28.741  1.00  0.00     0.031 C 
ATOM     43  C   UNL A   1      42.755  25.052  26.637  1.00  0.00     0.029 A 
ATOM     44  C   UNL A   1      44.107  25.601  26.546  1.00  0.00     0.049 A 
ATOM     45  H   UNL A   1      44.741  27.491  27.151  1.00  0.00     0.167 HD
ATOM     46  C   UNL A   1      45.927  31.527  28.366  1.00  0.00     0.031 A 
ATOM     47  C   UNL A   1      45.186  24.959  26.058  1.00  0.00     0.031 A 
ATOM     48  C   UNL A   1      47.145  30.892  27.935  1.00  0.00     0.049 A 
ATOM     49  C   UNL A   1      46.518  25.666  26.029  1.00  0.00     0.074 A 
ATOM     50  C   UNL A   1      48.431  31.404  27.945  1.00  0.00     0.029 A 
ATOM     51  N   UNL A   1      47.227  29.613  27.407  1.00  0.00    -0.354 N 
ATOM     52  N   UNL A   1      46.822  26.872  26.449  1.00  0.00    -0.248 NA
ATOM     53  C   UNL A   1      47.653  24.922  25.465  1.00  0.00     0.031 C 
ATOM     54  C   UNL A   1      49.281  30.456  27.365  1.00  0.00     0.029 A 
ATOM     55  C   UNL A   1      48.536  29.329  27.057  1.00  0.00     0.049 A 
ATOM     56  H   UNL A   1      46.467  28.997  27.296  1.00  0.00     0.167 HD
ATOM     57  C   UNL A   1      48.187  27.020  26.224  1.00  0.00     0.074 A 
ATOM     58  C   UNL A   1      48.652  25.776  25.644  1.00  0.00     0.031 C 
ATOM     59  C   UNL A   1      48.986  28.087  26.478  1.00  0.00     0.031 A 
BRANCH  46  60
ATOM     60  C   UNL A   1      45.993  32.950  28.853  1.00  0.00    -0.014 A 
ATOM     61  C   UNL A   1      46.209  33.248  30.210  1.00  0.00     0.010 A 
ATOM     62  C   UNL A   1      45.862  34.006  27.932  1.00  0.00     0.010 A 
ATOM     63  C   UNL A   1      46.253  34.576  30.644  1.00  0.00     0.020 A 
ATOM     64  C   UNL A   1      45.933  35.335  28.358  1.00  0.00     0.020 A 
ATOM     65  C   UNL A   1      46.111  35.612  29.715  1.00  0.00     0.054 A 
BRANCH  65  66
ATOM     66  S   UNL A   1      46.188  37.326  30.304  1.00  0.00     0.124 S 
ATOM     67  O   UNL A   1      46.159  38.076  29.050  1.00  0.00    -0.237 OA
ATOM     68  O   UNL A   1      44.989  37.435  31.129  1.00  0.00    -0.237 OA
ATOM     69  O   UNL A   1      47.452  37.385  31.034  1.00  0.00    -0.744 OA
ENDBRANCH  65  66
ENDBRANCH  46  60
BRANCH  47  70
ATOM     70  C   UNL A   1      45.053  23.573  25.532  1.00  0.00    -0.014 A 
ATOM     71  C   UNL A   1      44.141  23.279  24.503  1.00  0.00     0.010 A 
ATOM     72  C   UNL A   1      45.839  22.533  26.064  1.00  0.00     0.010 A 
ATOM     73  C   UNL A   1      44.007  21.971  24.027  1.00  0.00     0.020 A 
ATOM     74  C   UNL A   1      45.727  21.229  25.572  1.00  0.00     0.020 A 
ATOM     75  C   UNL A   1      44.803  20.955  24.563  1.00  0.00     0.054 A 
BRANCH  75  76
ATOM     76  S   UNL A   1      44.646  19.275  23.894  1.00  0.00     0.124 S 
ATOM     77  O   UNL A   1      43.421  18.807  24.534  1.00  0.00    -0.237 OA
ATOM     78  O   UNL A   1      44.556  19.517  22.456  1.00  0.00    -0.237 OA
ATOM     79  O   UNL A   1      45.874  18.617  24.332  1.00  0.00    -0.744 OA
ENDBRANCH  75  76
ENDBRANCH  47  70
BRANCH  59  80
ATOM     80  C   UNL A   1      50.455  27.952  26.165  1.00  0.00    -0.014 A 
ATOM     81  C   UNL A   1      51.376  27.540  27.144  1.00  0.00     0.010 A 
ATOM     82  C   UNL A   1      50.908  28.186  24.853  1.00  0.00     0.010 A 
ATOM     83  C   UNL A   1      52.729  27.392  26.823  1.00  0.00     0.020 A 
ATOM     84  C   UNL A   1      52.254  28.011  24.522  1.00  0.00     0.020 A 
ATOM     85  C   UNL A   1      53.160  27.628  25.513  1.00  0.00     0.054 A 
BRANCH  85  86
ATOM     86  S   UNL A   1      54.912  27.385  25.112  1.00  0.00     0.124 S 
ATOM     87  O   UNL A   1      55.381  28.758  24.955  1.00  0.00    -0.237 OA
ATOM     88  O   UNL A   1      55.415  26.678  26.287  1.00  0.00    -0.237 OA
ATOM     89  O   UNL A   1      54.880  26.594  23.884  1.00  0.00    -0.744 OA
ENDBRANCH  85  86
ENDBRANCH  59  80
ENDBRANCH  33  34
ENDBRANCH  26  28
ENDBRANCH  25  26
ENDBRANCH  24  25
ENDBRANCH  23  24
ENDBRANCH  22  23
ENDBRANCH  21  22
ENDBRANCH   1  21
TORSDOF 23
ENDMDL
