MODEL 1
REMARK VINA RESULT:     -10.2      0.000      0.000
REMARK SMILES Cc1cc(C)c(NC(=O)C2(C)CCCC2)c(C(=O)OCCOCCOCCOC(=O)c2ccc(-c3c4nc(c(-c5ccc(S(=O)(=O)[O-])cc5)c5ccc([nH]5)c(-c5ccc(S(=O)(=O)[O-])cc5)c5nc(c(-c6ccc(S(=O)(=O)[O-])cc6)c6ccc3[nH]6)C=C5)C=C4)cc2)c1
REMARK SMILES IDX 24 1 23 2 22 3 21 4 20 5 19 6 17 7 18 8 16 9 1 10 2 11 3 12
REMARK SMILES IDX 91 13 4 14 5 15 6 16 7 17 8 18 9 20 10 21 11 22 12 23 15 24
REMARK SMILES IDX 13 25 14 26 25 27 26 28 27 29 28 30 29 31 30 32 31 33 32 34
REMARK SMILES IDX 90 35 33 36 89 37 34 38 35 39 36 40 83 41 37 42 88 43 82 44
REMARK SMILES IDX 84 45 38 46 87 47 81 48 80 49 39 51 69 52 50 53 68 54 51 55
REMARK SMILES IDX 54 56 67 57 85 58 52 59 53 60 66 62 86 63 55 64 40 65 41 66
REMARK SMILES IDX 49 67 42 68 48 69 43 70 44 71 45 72 46 73 47 74 70 75 71 76
REMARK SMILES IDX 79 77 72 78 78 79 73 80 74 81 75 82 76 83 77 84 56 85 57 86
REMARK SMILES IDX 65 87 58 88 64 89 59 90 60 91 61 92 62 93 63 94
REMARK H PARENT 7 19 84 50 54 61
REMARK Flexibility Score: inf
ROOT
ATOM      1  C   UNL A   1      41.045  21.890  26.718  1.00  0.00     0.188 C 
ENDROOT
BRANCH   1   2
ATOM      2  C   UNL A   1      39.568  22.226  26.413  1.00  0.00     0.188 C 
BRANCH   2   3
ATOM      3  O   UNL A   1      38.727  21.255  25.809  1.00  0.00    -0.376 OA
BRANCH   3   4
ATOM      4  C   UNL A   1      37.612  21.685  25.043  1.00  0.00     0.202 C 
BRANCH   4   5
ATOM      5  C   UNL A   1      36.243  21.085  25.373  1.00  0.00     0.261 C 
BRANCH   5   6
ATOM      6  O   UNL A   1      35.536  21.892  26.327  1.00  0.00    -0.460 OA
BRANCH   6   7
ATOM      7  C   UNL A   1      34.278  21.502  26.655  1.00  0.00     0.340 C 
ATOM      8  O   UNL A   1      33.788  21.419  27.769  1.00  0.00    -0.246 OA
BRANCH   7   9
ATOM      9  C   UNL A   1      33.505  21.369  25.399  1.00  0.00     0.084 A 
ATOM     10  C   UNL A   1      32.146  18.542  23.258  1.00  0.00     0.044 C 
ATOM     11  C   UNL A   1      32.611  19.893  23.706  1.00  0.00    -0.050 A 
ATOM     12  C   UNL A   1      32.443  21.007  22.883  1.00  0.00     0.009 A 
ATOM     13  C   UNL A   1      33.195  20.075  24.954  1.00  0.00     0.021 A 
ATOM     14  C   UNL A   1      32.805  22.311  23.290  1.00  0.00    -0.026 A 
ATOM     15  C   UNL A   1      32.706  23.362  22.222  1.00  0.00     0.046 C 
ATOM     16  C   UNL A   1      33.211  22.517  24.622  1.00  0.00     0.058 A 
BRANCH  16  17
ATOM     17  N   UNL A   1      33.232  23.774  25.288  1.00  0.00    -0.325 N 
ATOM     18  C   UNL A   1      33.988  24.885  25.006  1.00  0.00     0.230 C 
ATOM     19  H   UNL A   1      32.620  23.859  26.055  1.00  0.00     0.169 HD
ATOM     20  O   UNL A   1      35.212  24.869  25.111  1.00  0.00    -0.274 OA
BRANCH  18  21
ATOM     21  C   UNL A   1      33.204  26.129  24.500  1.00  0.00     0.047 C 
ATOM     22  C   UNL A   1      33.606  26.546  23.081  1.00  0.00     0.022 C 
ATOM     23  C   UNL A   1      31.684  25.921  24.586  1.00  0.00     0.016 C 
ATOM     24  C   UNL A   1      33.392  27.299  25.481  1.00  0.00     0.016 C 
ATOM     25  C   UNL A   1      31.312  26.146  26.049  1.00  0.00     0.001 C 
ATOM     26  C   UNL A   1      32.412  27.033  26.626  1.00  0.00     0.001 C 
ENDBRANCH  18  21
ENDBRANCH  16  17
ENDBRANCH   7   9
ENDBRANCH   6   7
ENDBRANCH   5   6
ENDBRANCH   4   5
ENDBRANCH   3   4
ENDBRANCH   2   3
ENDBRANCH   1   2
BRANCH   1  27
ATOM     27  O   UNL A   1      41.949  21.525  25.687  1.00  0.00    -0.376 OA
BRANCH  27  28
ATOM     28  C   UNL A   1      43.143  22.268  25.497  1.00  0.00     0.202 C 
BRANCH  28  29
ATOM     29  C   UNL A   1      43.059  23.737  25.081  1.00  0.00     0.261 C 
BRANCH  29  30
ATOM     30  O   UNL A   1      43.121  24.649  26.183  1.00  0.00    -0.460 OA
BRANCH  30  31
ATOM     31  C   UNL A   1      42.219  25.659  26.136  1.00  0.00     0.338 C 
ATOM     32  O   UNL A   1      41.464  25.936  25.219  1.00  0.00    -0.246 OA
BRANCH  31  33
ATOM     33  C   UNL A   1      42.161  26.327  27.447  1.00  0.00     0.060 A 
ATOM     34  C   UNL A   1      41.074  26.047  28.280  1.00  0.00     0.016 A 
ATOM     35  C   UNL A   1      43.127  27.265  27.820  1.00  0.00     0.016 A 
ATOM     36  C   UNL A   1      40.929  26.734  29.483  1.00  0.00     0.010 A 
ATOM     37  C   UNL A   1      42.970  27.964  29.021  1.00  0.00     0.010 A 
ATOM     38  C   UNL A   1      41.855  27.720  29.843  1.00  0.00    -0.014 A 
BRANCH  38  39
ATOM     39  C   UNL A   1      41.568  28.603  30.997  1.00  0.00     0.031 A 
ATOM     40  C   UNL A   1      40.413  29.559  30.904  1.00  0.00     0.074 A 
ATOM     41  C   UNL A   1      42.312  28.544  32.114  1.00  0.00     0.049 A 
ATOM     42  N   UNL A   1      39.990  30.434  31.779  1.00  0.00    -0.248 NA
ATOM     43  C   UNL A   1      39.635  29.527  29.655  1.00  0.00     0.031 C 
ATOM     44  C   UNL A   1      43.431  27.632  32.335  1.00  0.00     0.029 A 
ATOM     45  N   UNL A   1      42.231  29.271  33.276  1.00  0.00    -0.354 N 
ATOM     46  C   UNL A   1      38.904  31.065  31.184  1.00  0.00     0.074 A 
ATOM     47  C   UNL A   1      38.746  30.485  29.867  1.00  0.00     0.031 C 
ATOM     48  C   UNL A   1      43.938  27.856  33.560  1.00  0.00     0.029 A 
ATOM     49  C   UNL A   1      43.187  28.932  34.203  1.00  0.00     0.049 A 
ATOM     50  H   UNL A   1      41.555  29.968  33.430  1.00  0.00     0.167 HD
ATOM     51  C   UNL A   1      38.115  32.043  31.686  1.00  0.00     0.031 A 
ATOM     52  C   UNL A   1      43.429  29.435  35.431  1.00  0.00     0.031 A 
ATOM     53  C   UNL A   1      38.292  32.638  32.983  1.00  0.00     0.049 A 
ATOM     54  C   UNL A   1      42.564  30.553  35.952  1.00  0.00     0.074 A 
ATOM     55  C   UNL A   1      37.554  33.647  33.576  1.00  0.00     0.029 A 
ATOM     56  N   UNL A   1      39.286  32.286  33.884  1.00  0.00    -0.354 N 
ATOM     57  N   UNL A   1      41.533  31.134  35.383  1.00  0.00    -0.248 NA
ATOM     58  C   UNL A   1      42.897  31.087  37.280  1.00  0.00     0.031 C 
ATOM     59  C   UNL A   1      38.131  33.938  34.817  1.00  0.00     0.029 A 
ATOM     60  C   UNL A   1      39.196  33.073  35.019  1.00  0.00     0.049 A 
ATOM     61  H   UNL A   1      39.957  31.581  33.736  1.00  0.00     0.167 HD
ATOM     62  C   UNL A   1      41.089  32.092  36.288  1.00  0.00     0.074 A 
ATOM     63  C   UNL A   1      41.948  31.999  37.451  1.00  0.00     0.031 C 
ATOM     64  C   UNL A   1      40.065  32.973  36.166  1.00  0.00     0.031 A 
BRANCH  51  65
ATOM     65  C   UNL A   1      37.019  32.562  30.794  1.00  0.00    -0.014 A 
ATOM     66  C   UNL A   1      37.257  33.598  29.872  1.00  0.00     0.010 A 
ATOM     67  C   UNL A   1      35.731  32.006  30.882  1.00  0.00     0.010 A 
ATOM     68  C   UNL A   1      36.214  34.100  29.091  1.00  0.00     0.020 A 
ATOM     69  C   UNL A   1      34.691  32.487  30.084  1.00  0.00     0.020 A 
ATOM     70  C   UNL A   1      34.935  33.547  29.208  1.00  0.00     0.054 A 
BRANCH  70  71
ATOM     71  S   UNL A   1      33.596  34.218  28.186  1.00  0.00     0.124 S 
ATOM     72  O   UNL A   1      32.986  33.003  27.652  1.00  0.00    -0.237 OA
ATOM     73  O   UNL A   1      32.786  34.952  29.155  1.00  0.00    -0.237 OA
ATOM     74  O   UNL A   1      34.291  35.048  27.204  1.00  0.00    -0.744 OA
ENDBRANCH  70  71
ENDBRANCH  51  65
BRANCH  52  75
ATOM     75  C   UNL A   1      44.546  28.888  36.249  1.00  0.00    -0.014 A 
ATOM     76  C   UNL A   1      44.337  27.795  37.106  1.00  0.00     0.010 A 
ATOM     77  C   UNL A   1      45.831  29.455  36.163  1.00  0.00     0.010 A 
ATOM     78  C   UNL A   1      45.391  27.283  37.871  1.00  0.00     0.020 A 
ATOM     79  C   UNL A   1      46.893  28.930  36.905  1.00  0.00     0.020 A 
ATOM     80  C   UNL A   1      46.664  27.852  37.764  1.00  0.00     0.054 A 
BRANCH  80  81
ATOM     81  S   UNL A   1      48.032  27.131  38.713  1.00  0.00     0.124 S 
ATOM     82  O   UNL A   1      48.929  26.677  37.656  1.00  0.00    -0.237 OA
ATOM     83  O   UNL A   1      48.504  28.267  39.500  1.00  0.00    -0.237 OA
ATOM     84  O   UNL A   1      47.388  26.073  39.488  1.00  0.00    -0.744 OA
ENDBRANCH  80  81
ENDBRANCH  52  75
BRANCH  64  85
ATOM     85  C   UNL A   1      39.803  33.900  37.324  1.00  0.00    -0.014 A 
ATOM     86  C   UNL A   1      38.989  33.506  38.400  1.00  0.00     0.010 A 
ATOM     87  C   UNL A   1      40.434  35.156  37.365  1.00  0.00     0.010 A 
ATOM     88  C   UNL A   1      38.788  34.365  39.485  1.00  0.00     0.020 A 
ATOM     89  C   UNL A   1      40.255  36.008  38.459  1.00  0.00     0.020 A 
ATOM     90  C   UNL A   1      39.422  35.610  39.507  1.00  0.00     0.054 A 
BRANCH  90  91
ATOM     91  S   UNL A   1      39.185  36.688  40.947  1.00  0.00     0.124 S 
ATOM     92  O   UNL A   1      38.306  35.881  41.789  1.00  0.00    -0.237 OA
ATOM     93  O   UNL A   1      40.547  36.862  41.448  1.00  0.00    -0.237 OA
ATOM     94  O   UNL A   1      38.577  37.891  40.384  1.00  0.00    -0.744 OA
ENDBRANCH  90  91
ENDBRANCH  64  85
ENDBRANCH  38  39
ENDBRANCH  31  33
ENDBRANCH  30  31
ENDBRANCH  29  30
ENDBRANCH  28  29
ENDBRANCH  27  28
ENDBRANCH   1  27
TORSDOF 22
ENDMDL
MODEL 2
REMARK VINA RESULT:     -10.2      0.958      8.034
REMARK SMILES Cc1cc(C)c(NC(=O)C2(C)CCCC2)c(C(=O)OCCOCCOCCOC(=O)c2ccc(-c3c4nc(c(-c5ccc(S(=O)(=O)[O-])cc5)c5ccc([nH]5)c(-c5ccc(S(=O)(=O)[O-])cc5)c5nc(c(-c6ccc(S(=O)(=O)[O-])cc6)c6ccc3[nH]6)C=C5)C=C4)cc2)c1
REMARK SMILES IDX 24 1 23 2 22 3 21 4 20 5 19 6 17 7 18 8 16 9 1 10 2 11 3 12
REMARK SMILES IDX 91 13 4 14 5 15 6 16 7 17 8 18 9 20 10 21 11 22 12 23 15 24
REMARK SMILES IDX 13 25 14 26 25 27 26 28 27 29 28 30 29 31 30 32 31 33 32 34
REMARK SMILES IDX 90 35 33 36 89 37 34 38 35 39 36 40 83 41 37 42 88 43 82 44
REMARK SMILES IDX 84 45 38 46 87 47 81 48 80 49 39 51 69 52 50 53 68 54 51 55
REMARK SMILES IDX 54 56 67 57 85 58 52 59 53 60 66 62 86 63 55 64 40 65 41 66
REMARK SMILES IDX 49 67 42 68 48 69 43 70 44 71 45 72 46 73 47 74 70 75 71 76
REMARK SMILES IDX 79 77 72 78 78 79 73 80 74 81 75 82 76 83 77 84 56 85 57 86
REMARK SMILES IDX 65 87 58 88 64 89 59 90 60 91 61 92 62 93 63 94
REMARK H PARENT 7 19 84 50 54 61
REMARK Flexibility Score: inf
ROOT
ATOM      1  C   UNL A   1      40.770  21.557  26.896  1.00  0.00     0.188 C 
ENDROOT
BRANCH   1   2
ATOM      2  C   UNL A   1      39.961  22.798  27.334  1.00  0.00     0.188 C 
BRANCH   2   3
ATOM      3  O   UNL A   1      39.063  23.420  26.427  1.00  0.00    -0.376 OA
BRANCH   3   4
ATOM      4  C   UNL A   1      38.092  22.626  25.761  1.00  0.00     0.202 C 
BRANCH   4   5
ATOM      5  C   UNL A   1      37.100  23.336  24.837  1.00  0.00     0.261 C 
BRANCH   5   6
ATOM      6  O   UNL A   1      36.133  24.086  25.588  1.00  0.00    -0.460 OA
BRANCH   6   7
ATOM      7  C   UNL A   1      34.984  23.447  25.927  1.00  0.00     0.340 C 
ATOM      8  O   UNL A   1      34.693  22.957  27.006  1.00  0.00    -0.246 OA
BRANCH   7   9
ATOM      9  C   UNL A   1      34.030  23.609  24.807  1.00  0.00     0.084 A 
ATOM     10  C   UNL A   1      32.163  21.344  22.398  1.00  0.00     0.044 C 
ATOM     11  C   UNL A   1      32.790  22.552  23.021  1.00  0.00    -0.050 A 
ATOM     12  C   UNL A   1      32.590  23.817  22.468  1.00  0.00     0.009 A 
ATOM     13  C   UNL A   1      33.560  22.448  24.173  1.00  0.00     0.021 A 
ATOM     14  C   UNL A   1      33.106  24.992  23.059  1.00  0.00    -0.026 A 
ATOM     15  C   UNL A   1      32.934  26.242  22.245  1.00  0.00     0.046 C 
ATOM     16  C   UNL A   1      33.715  24.903  24.325  1.00  0.00     0.058 A 
BRANCH  16  17
ATOM     17  N   UNL A   1      33.928  25.996  25.211  1.00  0.00    -0.325 N 
ATOM     18  C   UNL A   1      33.616  27.321  25.033  1.00  0.00     0.230 C 
ATOM     19  H   UNL A   1      34.357  25.770  26.068  1.00  0.00     0.169 HD
ATOM     20  O   UNL A   1      34.157  27.994  24.159  1.00  0.00    -0.274 OA
BRANCH  18  21
ATOM     21  C   UNL A   1      32.509  27.889  25.966  1.00  0.00     0.047 C 
ATOM     22  C   UNL A   1      33.065  28.835  27.037  1.00  0.00     0.022 C 
ATOM     23  C   UNL A   1      31.390  28.580  25.171  1.00  0.00     0.016 C 
ATOM     24  C   UNL A   1      31.731  26.733  26.617  1.00  0.00     0.016 C 
ATOM     25  C   UNL A   1      30.509  27.458  24.628  1.00  0.00     0.001 C 
ATOM     26  C   UNL A   1      30.729  26.268  25.558  1.00  0.00     0.001 C 
ENDBRANCH  18  21
ENDBRANCH  16  17
ENDBRANCH   7   9
ENDBRANCH   6   7
ENDBRANCH   5   6
ENDBRANCH   4   5
ENDBRANCH   3   4
ENDBRANCH   2   3
ENDBRANCH   1   2
BRANCH   1  27
ATOM     27  O   UNL A   1      41.568  21.569  25.724  1.00  0.00    -0.376 OA
BRANCH  27  28
ATOM     28  C   UNL A   1      42.855  22.167  25.749  1.00  0.00     0.202 C 
BRANCH  28  29
ATOM     29  C   UNL A   1      43.063  23.536  25.101  1.00  0.00     0.261 C 
BRANCH  29  30
ATOM     30  O   UNL A   1      43.228  24.598  26.047  1.00  0.00    -0.460 OA
BRANCH  30  31
ATOM     31  C   UNL A   1      42.328  25.605  25.934  1.00  0.00     0.338 C 
ATOM     32  O   UNL A   1      41.575  25.824  25.000  1.00  0.00    -0.246 OA
BRANCH  31  33
ATOM     33  C   UNL A   1      42.269  26.356  27.199  1.00  0.00     0.060 A 
ATOM     34  C   UNL A   1      41.332  25.956  28.157  1.00  0.00     0.016 A 
ATOM     35  C   UNL A   1      43.076  27.476  27.410  1.00  0.00     0.016 A 
ATOM     36  C   UNL A   1      41.174  26.701  29.323  1.00  0.00     0.010 A 
ATOM     37  C   UNL A   1      42.904  28.230  28.574  1.00  0.00     0.010 A 
ATOM     38  C   UNL A   1      41.933  27.861  29.522  1.00  0.00    -0.014 A 
BRANCH  38  39
ATOM     39  C   UNL A   1      41.596  28.769  30.643  1.00  0.00     0.031 A 
ATOM     40  C   UNL A   1      42.445  28.729  31.882  1.00  0.00     0.074 A 
ATOM     41  C   UNL A   1      40.564  29.625  30.554  1.00  0.00     0.049 A 
ATOM     42  N   UNL A   1      42.328  29.416  32.989  1.00  0.00    -0.248 NA
ATOM     43  C   UNL A   1      43.574  27.784  31.872  1.00  0.00     0.031 C 
ATOM     44  C   UNL A   1      39.696  29.780  29.391  1.00  0.00     0.029 A 
ATOM     45  N   UNL A   1      40.077  30.527  31.466  1.00  0.00    -0.354 N 
ATOM     46  C   UNL A   1      43.358  28.980  33.812  1.00  0.00     0.074 A 
ATOM     47  C   UNL A   1      44.079  27.957  33.085  1.00  0.00     0.031 C 
ATOM     48  C   UNL A   1      38.775  30.722  29.660  1.00  0.00     0.029 A 
ATOM     49  C   UNL A   1      38.983  31.226  31.016  1.00  0.00     0.049 A 
ATOM     50  H   UNL A   1      40.472  30.660  32.358  1.00  0.00     0.167 HD
ATOM     51  C   UNL A   1      43.672  29.389  35.064  1.00  0.00     0.031 A 
ATOM     52  C   UNL A   1      38.235  32.166  31.629  1.00  0.00     0.031 A 
ATOM     53  C   UNL A   1      42.937  30.385  35.795  1.00  0.00     0.049 A 
ATOM     54  C   UNL A   1      38.577  32.576  33.038  1.00  0.00     0.074 A 
ATOM     55  C   UNL A   1      43.167  30.858  37.075  1.00  0.00     0.029 A 
ATOM     56  N   UNL A   1      41.820  31.054  35.315  1.00  0.00    -0.354 N 
ATOM     57  N   UNL A   1      39.561  32.163  33.802  1.00  0.00    -0.248 NA
ATOM     58  C   UNL A   1      37.704  33.575  33.669  1.00  0.00     0.031 C 
ATOM     59  C   UNL A   1      42.160  31.778  37.387  1.00  0.00     0.029 A 
ATOM     60  C   UNL A   1      41.335  31.918  36.282  1.00  0.00     0.049 A 
ATOM     61  H   UNL A   1      41.430  30.930  34.421  1.00  0.00     0.167 HD
ATOM     62  C   UNL A   1      39.432  32.860  34.999  1.00  0.00     0.074 A 
ATOM     63  C   UNL A   1      38.288  33.737  34.850  1.00  0.00     0.031 C 
ATOM     64  C   UNL A   1      40.189  32.779  36.121  1.00  0.00     0.031 A 
BRANCH  51  65
ATOM     65  C   UNL A   1      44.837  28.711  35.732  1.00  0.00    -0.014 A 
ATOM     66  C   UNL A   1      46.144  29.219  35.612  1.00  0.00     0.010 A 
ATOM     67  C   UNL A   1      44.622  27.546  36.488  1.00  0.00     0.010 A 
ATOM     68  C   UNL A   1      47.219  28.545  36.197  1.00  0.00     0.020 A 
ATOM     69  C   UNL A   1      45.690  26.884  37.096  1.00  0.00     0.020 A 
ATOM     70  C   UNL A   1      46.986  27.376  36.929  1.00  0.00     0.054 A 
BRANCH  70  71
ATOM     71  S   UNL A   1      48.398  26.517  37.676  1.00  0.00     0.124 S 
ATOM     72  O   UNL A   1      48.315  25.200  37.049  1.00  0.00    -0.237 OA
ATOM     73  O   UNL A   1      49.532  27.339  37.260  1.00  0.00    -0.237 OA
ATOM     74  O   UNL A   1      48.104  26.545  39.106  1.00  0.00    -0.744 OA
ENDBRANCH  70  71
ENDBRANCH  51  65
BRANCH  52  75
ATOM     75  C   UNL A   1      37.081  32.777  30.914  1.00  0.00    -0.014 A 
ATOM     76  C   UNL A   1      35.774  32.310  31.134  1.00  0.00     0.010 A 
ATOM     77  C   UNL A   1      37.285  33.841  30.017  1.00  0.00     0.010 A 
ATOM     78  C   UNL A   1      34.692  32.890  30.463  1.00  0.00     0.020 A 
ATOM     79  C   UNL A   1      36.204  34.441  29.364  1.00  0.00     0.020 A 
ATOM     80  C   UNL A   1      34.914  33.954  29.583  1.00  0.00     0.054 A 
BRANCH  80  81
ATOM     81  S   UNL A   1      33.490  34.736  28.774  1.00  0.00     0.124 S 
ATOM     82  O   UNL A   1      33.067  33.700  27.838  1.00  0.00    -0.237 OA
ATOM     83  O   UNL A   1      32.587  34.985  29.894  1.00  0.00    -0.237 OA
ATOM     84  O   UNL A   1      34.061  35.935  28.166  1.00  0.00    -0.744 OA
ENDBRANCH  80  81
ENDBRANCH  52  75
BRANCH  64  85
ATOM     85  C   UNL A   1      39.819  33.672  37.276  1.00  0.00    -0.014 A 
ATOM     86  C   UNL A   1      39.144  33.164  38.399  1.00  0.00     0.010 A 
ATOM     87  C   UNL A   1      40.212  35.022  37.265  1.00  0.00     0.010 A 
ATOM     88  C   UNL A   1      38.843  33.999  39.480  1.00  0.00     0.020 A 
ATOM     89  C   UNL A   1      39.935  35.854  38.353  1.00  0.00     0.020 A 
ATOM     90  C   UNL A   1      39.240  35.339  39.449  1.00  0.00     0.054 A 
BRANCH  90  91
ATOM     91  S   UNL A   1      38.882  36.391  40.883  1.00  0.00     0.124 S 
ATOM     92  O   UNL A   1      37.773  35.679  41.513  1.00  0.00    -0.237 OA
ATOM     93  O   UNL A   1      40.142  36.370  41.623  1.00  0.00    -0.237 OA
ATOM     94  O   UNL A   1      38.537  37.681  40.289  1.00  0.00    -0.744 OA
ENDBRANCH  90  91
ENDBRANCH  64  85
ENDBRANCH  38  39
ENDBRANCH  31  33
ENDBRANCH  30  31
ENDBRANCH  29  30
ENDBRANCH  28  29
ENDBRANCH  27  28
ENDBRANCH   1  27
TORSDOF 22
ENDMDL
MODEL 3
REMARK VINA RESULT:     -10.1      6.144     10.539
REMARK SMILES Cc1cc(C)c(NC(=O)C2(C)CCCC2)c(C(=O)OCCOCCOCCOC(=O)c2ccc(-c3c4nc(c(-c5ccc(S(=O)(=O)[O-])cc5)c5ccc([nH]5)c(-c5ccc(S(=O)(=O)[O-])cc5)c5nc(c(-c6ccc(S(=O)(=O)[O-])cc6)c6ccc3[nH]6)C=C5)C=C4)cc2)c1
REMARK SMILES IDX 24 1 23 2 22 3 21 4 20 5 19 6 17 7 18 8 16 9 1 10 2 11 3 12
REMARK SMILES IDX 91 13 4 14 5 15 6 16 7 17 8 18 9 20 10 21 11 22 12 23 15 24
REMARK SMILES IDX 13 25 14 26 25 27 26 28 27 29 28 30 29 31 30 32 31 33 32 34
REMARK SMILES IDX 90 35 33 36 89 37 34 38 35 39 36 40 83 41 37 42 88 43 82 44
REMARK SMILES IDX 84 45 38 46 87 47 81 48 80 49 39 51 69 52 50 53 68 54 51 55
REMARK SMILES IDX 54 56 67 57 85 58 52 59 53 60 66 62 86 63 55 64 40 65 41 66
REMARK SMILES IDX 49 67 42 68 48 69 43 70 44 71 45 72 46 73 47 74 70 75 71 76
REMARK SMILES IDX 79 77 72 78 78 79 73 80 74 81 75 82 76 83 77 84 56 85 57 86
REMARK SMILES IDX 65 87 58 88 64 89 59 90 60 91 61 92 62 93 63 94
REMARK H PARENT 7 19 84 50 54 61
REMARK Flexibility Score: inf
ROOT
ATOM      1  C   UNL A   1      41.464  21.828  26.137  1.00  0.00     0.188 C 
ENDROOT
BRANCH   1   2
ATOM      2  C   UNL A   1      40.370  22.688  26.809  1.00  0.00     0.188 C 
BRANCH   2   3
ATOM      3  O   UNL A   1      39.007  22.301  26.722  1.00  0.00    -0.376 OA
BRANCH   3   4
ATOM      4  C   UNL A   1      38.505  21.804  25.490  1.00  0.00     0.202 C 
BRANCH   4   5
ATOM      5  C   UNL A   1      37.104  22.243  25.060  1.00  0.00     0.261 C 
BRANCH   5   6
ATOM      6  O   UNL A   1      36.190  21.135  25.051  1.00  0.00    -0.460 OA
BRANCH   6   7
ATOM      7  C   UNL A   1      35.073  21.248  25.814  1.00  0.00     0.340 C 
ATOM      8  O   UNL A   1      34.928  21.906  26.831  1.00  0.00    -0.246 OA
BRANCH   7   9
ATOM      9  C   UNL A   1      33.964  20.581  25.094  1.00  0.00     0.084 A 
ATOM     10  C   UNL A   1      32.469  17.096  24.911  1.00  0.00     0.044 C 
ATOM     11  C   UNL A   1      32.823  18.512  24.583  1.00  0.00    -0.050 A 
ATOM     12  C   UNL A   1      32.211  19.164  23.511  1.00  0.00     0.009 A 
ATOM     13  C   UNL A   1      33.746  19.219  25.346  1.00  0.00     0.021 A 
ATOM     14  C   UNL A   1      32.464  20.520  23.205  1.00  0.00    -0.026 A 
ATOM     15  C   UNL A   1      31.846  21.010  21.927  1.00  0.00     0.046 C 
ATOM     16  C   UNL A   1      33.245  21.282  24.095  1.00  0.00     0.058 A 
BRANCH  16  17
ATOM     17  N   UNL A   1      33.273  22.703  24.150  1.00  0.00    -0.325 N 
ATOM     18  C   UNL A   1      32.261  23.572  24.475  1.00  0.00     0.230 C 
ATOM     19  H   UNL A   1      34.136  23.120  23.924  1.00  0.00     0.169 HD
ATOM     20  O   UNL A   1      31.255  23.673  23.777  1.00  0.00    -0.274 OA
BRANCH  18  21
ATOM     21  C   UNL A   1      32.449  24.370  25.797  1.00  0.00     0.047 C 
ATOM     22  C   UNL A   1      32.058  23.560  27.038  1.00  0.00     0.022 C 
ATOM     23  C   UNL A   1      33.881  24.911  25.939  1.00  0.00     0.016 C 
ATOM     24  C   UNL A   1      31.649  25.682  25.734  1.00  0.00     0.016 C 
ATOM     25  C   UNL A   1      33.950  26.151  25.053  1.00  0.00     0.001 C 
ATOM     26  C   UNL A   1      32.513  26.648  24.919  1.00  0.00     0.001 C 
ENDBRANCH  18  21
ENDBRANCH  16  17
ENDBRANCH   7   9
ENDBRANCH   6   7
ENDBRANCH   5   6
ENDBRANCH   4   5
ENDBRANCH   3   4
ENDBRANCH   2   3
ENDBRANCH   1   2
BRANCH   1  27
ATOM     27  O   UNL A   1      41.903  20.608  26.711  1.00  0.00    -0.376 OA
BRANCH  27  28
ATOM     28  C   UNL A   1      41.979  19.437  25.913  1.00  0.00     0.202 C 
BRANCH  28  29
ATOM     29  C   UNL A   1      43.347  18.891  25.503  1.00  0.00     0.261 C 
BRANCH  29  30
ATOM     30  O   UNL A   1      43.842  19.445  24.278  1.00  0.00    -0.460 OA
BRANCH  30  31
ATOM     31  C   UNL A   1      45.082  19.985  24.359  1.00  0.00     0.338 C 
ATOM     32  O   UNL A   1      46.124  19.511  23.939  1.00  0.00    -0.246 OA
BRANCH  31  33
ATOM     33  C   UNL A   1      44.991  21.344  24.919  1.00  0.00     0.060 A 
ATOM     34  C   UNL A   1      44.642  22.388  24.056  1.00  0.00     0.016 A 
ATOM     35  C   UNL A   1      45.310  21.595  26.255  1.00  0.00     0.016 A 
ATOM     36  C   UNL A   1      44.645  23.700  24.521  1.00  0.00     0.010 A 
ATOM     37  C   UNL A   1      45.326  22.915  26.715  1.00  0.00     0.010 A 
ATOM     38  C   UNL A   1      45.021  23.975  25.842  1.00  0.00    -0.014 A 
BRANCH  38  39
ATOM     39  C   UNL A   1      45.247  25.378  26.259  1.00  0.00     0.031 A 
ATOM     40  C   UNL A   1      46.634  25.946  26.156  1.00  0.00     0.074 A 
ATOM     41  C   UNL A   1      44.234  26.138  26.707  1.00  0.00     0.049 A 
ATOM     42  N   UNL A   1      47.067  27.137  26.478  1.00  0.00    -0.248 NA
ATOM     43  C   UNL A   1      47.671  25.048  25.621  1.00  0.00     0.031 C 
ATOM     44  C   UNL A   1      42.842  25.710  26.814  1.00  0.00     0.029 A 
ATOM     45  N   UNL A   1      44.226  27.436  27.153  1.00  0.00    -0.354 N 
ATOM     46  C   UNL A   1      48.428  27.129  26.198  1.00  0.00     0.074 A 
ATOM     47  C   UNL A   1      48.751  25.811  25.697  1.00  0.00     0.031 C 
ATOM     48  C   UNL A   1      42.112  26.728  27.301  1.00  0.00     0.029 A 
ATOM     49  C   UNL A   1      42.985  27.874  27.548  1.00  0.00     0.049 A 
ATOM     50  H   UNL A   1      45.032  28.000  27.187  1.00  0.00     0.167 HD
ATOM     51  C   UNL A   1      49.329  28.129  26.351  1.00  0.00     0.031 A 
ATOM     52  C   UNL A   1      42.598  29.062  28.053  1.00  0.00     0.031 A 
ATOM     53  C   UNL A   1      49.011  29.428  26.877  1.00  0.00     0.049 A 
ATOM     54  C   UNL A   1      43.626  30.146  28.255  1.00  0.00     0.074 A 
ATOM     55  C   UNL A   1      49.857  30.504  27.085  1.00  0.00     0.029 A 
ATOM     56  N   UNL A   1      47.748  29.826  27.290  1.00  0.00    -0.354 N 
ATOM     57  N   UNL A   1      44.909  30.130  27.976  1.00  0.00    -0.248 NA
ATOM     58  C   UNL A   1      43.155  31.407  28.844  1.00  0.00     0.031 C 
ATOM     59  C   UNL A   1      49.114  31.536  27.669  1.00  0.00     0.029 A 
ATOM     60  C   UNL A   1      47.794  31.122  27.773  1.00  0.00     0.049 A 
ATOM     61  H   UNL A   1      46.939  29.268  27.246  1.00  0.00     0.167 HD
ATOM     62  C   UNL A   1      45.394  31.380  28.344  1.00  0.00     0.074 A 
ATOM     63  C   UNL A   1      44.264  32.135  28.846  1.00  0.00     0.031 C 
ATOM     64  C   UNL A   1      46.661  31.858  28.277  1.00  0.00     0.031 A 
BRANCH  51  65
ATOM     65  C   UNL A   1      50.757  27.822  25.988  1.00  0.00    -0.014 A 
ATOM     66  C   UNL A   1      51.777  27.843  26.958  1.00  0.00     0.010 A 
ATOM     67  C   UNL A   1      51.083  27.513  24.656  1.00  0.00     0.010 A 
ATOM     68  C   UNL A   1      53.104  27.607  26.590  1.00  0.00     0.020 A 
ATOM     69  C   UNL A   1      52.405  27.251  24.290  1.00  0.00     0.020 A 
ATOM     70  C   UNL A   1      53.411  27.321  25.256  1.00  0.00     0.054 A 
BRANCH  70  71
ATOM     71  S   UNL A   1      55.141  27.022  24.803  1.00  0.00     0.124 S 
ATOM     72  O   UNL A   1      55.119  25.605  24.447  1.00  0.00    -0.237 OA
ATOM     73  O   UNL A   1      55.347  27.944  23.690  1.00  0.00    -0.237 OA
ATOM     74  O   UNL A   1      55.880  27.345  26.021  1.00  0.00    -0.744 OA
ENDBRANCH  70  71
ENDBRANCH  51  65
BRANCH  52  75
ATOM     75  C   UNL A   1      41.172  29.287  28.412  1.00  0.00    -0.014 A 
ATOM     76  C   UNL A   1      40.193  29.413  27.412  1.00  0.00     0.010 A 
ATOM     77  C   UNL A   1      40.782  29.363  29.763  1.00  0.00     0.010 A 
ATOM     78  C   UNL A   1      38.852  29.621  27.754  1.00  0.00     0.020 A 
ATOM     79  C   UNL A   1      39.441  29.544  30.109  1.00  0.00     0.020 A 
ATOM     80  C   UNL A   1      38.484  29.682  29.101  1.00  0.00     0.054 A 
BRANCH  80  81
ATOM     81  S   UNL A   1      36.731  29.886  29.525  1.00  0.00     0.124 S 
ATOM     82  O   UNL A   1      36.623  29.105  30.752  1.00  0.00    -0.237 OA
ATOM     83  O   UNL A   1      36.609  31.333  29.682  1.00  0.00    -0.237 OA
ATOM     84  O   UNL A   1      36.034  29.333  28.366  1.00  0.00    -0.744 OA
ENDBRANCH  80  81
ENDBRANCH  52  75
BRANCH  64  85
ATOM     85  C   UNL A   1      46.897  33.271  28.743  1.00  0.00    -0.014 A 
ATOM     86  C   UNL A   1      46.791  34.356  27.856  1.00  0.00     0.010 A 
ATOM     87  C   UNL A   1      47.163  33.520  30.102  1.00  0.00     0.010 A 
ATOM     88  C   UNL A   1      46.975  35.665  28.315  1.00  0.00     0.020 A 
ATOM     89  C   UNL A   1      47.323  34.827  30.569  1.00  0.00     0.020 A 
ATOM     90  C   UNL A   1      47.241  35.891  29.668  1.00  0.00     0.054 A 
BRANCH  90  91
ATOM     91  S   UNL A   1      47.427  37.599  30.249  1.00  0.00     0.124 S 
ATOM     92  O   UNL A   1      46.163  38.201  29.836  1.00  0.00    -0.237 OA
ATOM     93  O   UNL A   1      47.602  37.434  31.690  1.00  0.00    -0.237 OA
ATOM     94  O   UNL A   1      48.609  38.081  29.536  1.00  0.00    -0.744 OA
ENDBRANCH  90  91
ENDBRANCH  64  85
ENDBRANCH  38  39
ENDBRANCH  31  33
ENDBRANCH  30  31
ENDBRANCH  29  30
ENDBRANCH  28  29
ENDBRANCH  27  28
ENDBRANCH   1  27
TORSDOF 22
ENDMDL
