MODEL 1
REMARK VINA RESULT:     -10.0      0.000      0.000
REMARK SMILES O=C(OCCOCCOCCOC(=O)c1ccncc1-c1ccc(F)cc1F)c1ccc(-c2c3nc(c(-c4ccc(S(=O)(=O)[O-])cc4)c4ccc([nH]4)c(-c4ccc(S(=O)(=O)[O-])cc4)c4nc(c(-c5ccc(S(=O)(=O)[O-])cc5)c5ccc2[nH]5)C=C4)C=C3)cc1
REMARK SMILES IDX 7 1 6 2 5 3 4 4 3 5 2 6 1 7 29 8 30 9 88 10 31 11 87 12
REMARK SMILES IDX 32 13 33 14 34 15 81 16 35 17 86 18 80 19 82 20 36 21 85 22
REMARK SMILES IDX 79 23 78 24 37 26 67 27 48 28 66 29 49 30 52 31 65 32 83 33
REMARK SMILES IDX 50 34 51 35 64 37 84 38 53 39 38 40 39 41 47 42 40 43 46 44
REMARK SMILES IDX 41 45 42 46 43 47 44 48 45 49 68 50 69 51 77 52 70 53 76 54
REMARK SMILES IDX 71 55 72 56 73 57 74 58 75 59 54 60 55 61 63 62 56 63 62 64
REMARK SMILES IDX 57 65 58 66 59 67 60 68 61 69 8 70 9 71 10 72 11 73 12 74
REMARK SMILES IDX 13 75 14 76 15 77 16 78 20 79 17 80 19 81 18 82 21 83 22 84
REMARK SMILES IDX 27 85 23 86 26 87 28 88 24 89 25 90
REMARK H PARENT 82 25 52 36
REMARK Flexibility Score: inf
ROOT
ATOM      1  C   UNL A   1      34.805  23.560  23.369  1.00  0.00     0.188 C 
ENDROOT
BRANCH   1   2
ATOM      2  O   UNL A   1      36.024  23.206  22.727  1.00  0.00    -0.376 OA
BRANCH   2   3
ATOM      3  C   UNL A   1      36.999  22.550  23.526  1.00  0.00     0.202 C 
BRANCH   3   4
ATOM      4  C   UNL A   1      37.027  23.029  24.980  1.00  0.00     0.261 C 
BRANCH   4   5
ATOM      5  O   UNL A   1      38.051  22.362  25.740  1.00  0.00    -0.460 OA
BRANCH   5   6
ATOM      6  C   UNL A   1      39.261  22.812  26.145  1.00  0.00     0.338 C 
ATOM      7  O   UNL A   1      40.199  22.014  26.127  1.00  0.00    -0.246 OA
BRANCH   6   8
ATOM      8  C   UNL A   1      39.527  24.172  26.733  1.00  0.00     0.060 A 
ATOM      9  C   UNL A   1      40.294  25.188  26.164  1.00  0.00     0.016 A 
ATOM     10  C   UNL A   1      38.906  24.453  27.971  1.00  0.00     0.016 A 
ATOM     11  C   UNL A   1      40.515  26.393  26.828  1.00  0.00     0.010 A 
ATOM     12  C   UNL A   1      39.080  25.681  28.622  1.00  0.00     0.010 A 
ATOM     13  C   UNL A   1      39.949  26.630  28.081  1.00  0.00    -0.014 A 
BRANCH  13  14
ATOM     14  C   UNL A   1      40.519  27.734  28.885  1.00  0.00     0.031 A 
ATOM     15  C   UNL A   1      39.644  28.933  29.135  1.00  0.00     0.074 A 
ATOM     16  C   UNL A   1      41.685  27.577  29.538  1.00  0.00     0.049 A 
ATOM     17  N   UNL A   1      39.825  29.931  29.958  1.00  0.00    -0.248 NA
ATOM     18  C   UNL A   1      38.383  29.002  28.375  1.00  0.00     0.031 C 
ATOM     19  C   UNL A   1      42.563  26.412  29.434  1.00  0.00     0.029 A 
ATOM     20  N   UNL A   1      42.300  28.377  30.468  1.00  0.00    -0.354 N 
ATOM     21  C   UNL A   1      38.705  30.742  29.811  1.00  0.00     0.074 A 
ATOM     22  C   UNL A   1      37.869  30.144  28.799  1.00  0.00     0.031 C 
ATOM     23  C   UNL A   1      43.578  26.550  30.303  1.00  0.00     0.029 A 
ATOM     24  C   UNL A   1      43.442  27.825  31.001  1.00  0.00     0.049 A 
ATOM     25  H   UNL A   1      41.958  29.263  30.728  1.00  0.00     0.167 HD
ATOM     26  C   UNL A   1      38.389  31.880  30.470  1.00  0.00     0.031 A 
ATOM     27  C   UNL A   1      44.274  28.294  31.950  1.00  0.00     0.031 A 
ATOM     28  C   UNL A   1      39.229  32.478  31.464  1.00  0.00     0.049 A 
ATOM     29  C   UNL A   1      43.948  29.610  32.605  1.00  0.00     0.074 A 
ATOM     30  C   UNL A   1      39.040  33.656  32.161  1.00  0.00     0.029 A 
ATOM     31  N   UNL A   1      40.430  31.938  31.899  1.00  0.00    -0.354 N 
ATOM     32  N   UNL A   1      42.889  30.370  32.445  1.00  0.00    -0.248 NA
ATOM     33  C   UNL A   1      44.924  30.130  33.572  1.00  0.00     0.031 C 
ATOM     34  C   UNL A   1      40.151  33.851  32.986  1.00  0.00     0.029 A 
ATOM     35  C   UNL A   1      41.006  32.768  32.842  1.00  0.00     0.049 A 
ATOM     36  H   UNL A   1      40.816  31.088  31.583  1.00  0.00     0.167 HD
ATOM     37  C   UNL A   1      43.060  31.444  33.309  1.00  0.00     0.074 A 
ATOM     38  C   UNL A   1      44.316  31.228  34.001  1.00  0.00     0.031 C 
ATOM     39  C   UNL A   1      42.254  32.516  33.516  1.00  0.00     0.031 A 
BRANCH  26  40
ATOM     40  C   UNL A   1      37.113  32.561  30.063  1.00  0.00    -0.014 A 
ATOM     41  C   UNL A   1      37.073  33.454  28.975  1.00  0.00     0.010 A 
ATOM     42  C   UNL A   1      35.950  32.354  30.825  1.00  0.00     0.010 A 
ATOM     43  C   UNL A   1      35.906  34.171  28.695  1.00  0.00     0.020 A 
ATOM     44  C   UNL A   1      34.776  33.051  30.533  1.00  0.00     0.020 A 
ATOM     45  C   UNL A   1      34.769  33.975  29.486  1.00  0.00     0.054 A 
BRANCH  45  46
ATOM     46  S   UNL A   1      33.278  34.942  29.126  1.00  0.00     0.124 S 
ATOM     47  O   UNL A   1      32.609  34.955  30.426  1.00  0.00    -0.237 OA
ATOM     48  O   UNL A   1      33.823  36.225  28.689  1.00  0.00    -0.237 OA
ATOM     49  O   UNL A   1      32.605  34.167  28.086  1.00  0.00    -0.744 OA
ENDBRANCH  45  46
ENDBRANCH  26  40
BRANCH  27  50
ATOM     50  C   UNL A   1      45.491  27.523  32.339  1.00  0.00    -0.014 A 
ATOM     51  C   UNL A   1      45.462  26.619  33.417  1.00  0.00     0.010 A 
ATOM     52  C   UNL A   1      46.698  27.705  31.639  1.00  0.00     0.010 A 
ATOM     53  C   UNL A   1      46.620  25.932  33.800  1.00  0.00     0.020 A 
ATOM     54  C   UNL A   1      47.850  27.001  32.002  1.00  0.00     0.020 A 
ATOM     55  C   UNL A   1      47.807  26.128  33.090  1.00  0.00     0.054 A 
BRANCH  55  56
ATOM     56  S   UNL A   1      49.287  25.197  33.577  1.00  0.00     0.124 S 
ATOM     57  O   UNL A   1      50.018  26.179  34.369  1.00  0.00    -0.237 OA
ATOM     58  O   UNL A   1      48.720  24.074  34.321  1.00  0.00    -0.237 OA
ATOM     59  O   UNL A   1      49.898  24.837  32.300  1.00  0.00    -0.744 OA
ENDBRANCH  55  56
ENDBRANCH  27  50
BRANCH  39  60
ATOM     60  C   UNL A   1      42.687  33.513  34.553  1.00  0.00    -0.014 A 
ATOM     61  C   UNL A   1      43.444  34.644  34.203  1.00  0.00     0.010 A 
ATOM     62  C   UNL A   1      42.267  33.347  35.885  1.00  0.00     0.010 A 
ATOM     63  C   UNL A   1      43.799  35.580  35.176  1.00  0.00     0.020 A 
ATOM     64  C   UNL A   1      42.598  34.294  36.856  1.00  0.00     0.020 A 
ATOM     65  C   UNL A   1      43.374  35.399  36.496  1.00  0.00     0.054 A 
BRANCH  65  66
ATOM     66  S   UNL A   1      43.802  36.652  37.734  1.00  0.00     0.124 S 
ATOM     67  O   UNL A   1      42.494  37.215  38.059  1.00  0.00    -0.237 OA
ATOM     68  O   UNL A   1      44.426  35.861  38.792  1.00  0.00    -0.237 OA
ATOM     69  O   UNL A   1      44.707  37.548  37.019  1.00  0.00    -0.744 OA
ENDBRANCH  65  66
ENDBRANCH  39  60
ENDBRANCH  13  14
ENDBRANCH   6   8
ENDBRANCH   5   6
ENDBRANCH   4   5
ENDBRANCH   3   4
ENDBRANCH   2   3
ENDBRANCH   1   2
BRANCH   1  70
ATOM     70  C   UNL A   1      33.506  23.452  22.562  1.00  0.00     0.188 C 
BRANCH  70  71
ATOM     71  O   UNL A   1      32.566  24.514  22.588  1.00  0.00    -0.376 OA
BRANCH  71  72
ATOM     72  C   UNL A   1      32.873  25.738  21.936  1.00  0.00     0.202 C 
BRANCH  72  73
ATOM     73  C   UNL A   1      33.046  26.984  22.802  1.00  0.00     0.261 C 
BRANCH  73  74
ATOM     74  O   UNL A   1      31.971  27.933  22.713  1.00  0.00    -0.460 OA
BRANCH  74  75
ATOM     75  C   UNL A   1      30.975  27.792  23.626  1.00  0.00     0.338 C 
ATOM     76  O   UNL A   1      29.881  27.292  23.445  1.00  0.00    -0.246 OA
BRANCH  75  77
ATOM     77  C   UNL A   1      31.391  28.420  24.896  1.00  0.00     0.071 A 
ATOM     78  C   UNL A   1      31.497  29.818  24.900  1.00  0.00     0.036 A 
ATOM     79  C   UNL A   1      31.581  27.683  26.074  1.00  0.00     0.017 A 
ATOM     80  C   UNL A   1      31.778  30.449  26.096  1.00  0.00     0.112 A 
ATOM     81  C   UNL A   1      31.869  28.436  27.213  1.00  0.00     0.120 A 
ATOM     82  N   UNL A   1      31.969  29.784  27.251  1.00  0.00    -0.264 NA
BRANCH  79  83
ATOM     83  C   UNL A   1      31.562  26.221  26.188  1.00  0.00     0.020 A 
ATOM     84  C   UNL A   1      30.332  25.541  26.231  1.00  0.00     0.015 A 
ATOM     85  C   UNL A   1      32.731  25.450  26.125  1.00  0.00     0.134 A 
ATOM     86  C   UNL A   1      30.278  24.144  26.222  1.00  0.00     0.040 A 
ATOM     87  C   UNL A   1      32.688  24.058  26.110  1.00  0.00     0.079 A 
ATOM     88  F   UNL A   1      33.925  26.050  26.025  1.00  0.00    -0.206 F 
ATOM     89  C   UNL A   1      31.459  23.417  26.156  1.00  0.00     0.126 A 
ATOM     90  F   UNL A   1      31.408  22.079  26.114  1.00  0.00    -0.207 F 
ENDBRANCH  79  83
ENDBRANCH  75  77
ENDBRANCH  74  75
ENDBRANCH  73  74
ENDBRANCH  72  73
ENDBRANCH  71  72
ENDBRANCH  70  71
ENDBRANCH   1  70
TORSDOF 21
ENDMDL
MODEL 2
REMARK VINA RESULT:      -9.6      1.495      2.129
REMARK SMILES O=C(OCCOCCOCCOC(=O)c1ccncc1-c1ccc(F)cc1F)c1ccc(-c2c3nc(c(-c4ccc(S(=O)(=O)[O-])cc4)c4ccc([nH]4)c(-c4ccc(S(=O)(=O)[O-])cc4)c4nc(c(-c5ccc(S(=O)(=O)[O-])cc5)c5ccc2[nH]5)C=C4)C=C3)cc1
REMARK SMILES IDX 7 1 6 2 5 3 4 4 3 5 2 6 1 7 29 8 30 9 88 10 31 11 87 12
REMARK SMILES IDX 32 13 33 14 34 15 81 16 35 17 86 18 80 19 82 20 36 21 85 22
REMARK SMILES IDX 79 23 78 24 37 26 67 27 48 28 66 29 49 30 52 31 65 32 83 33
REMARK SMILES IDX 50 34 51 35 64 37 84 38 53 39 38 40 39 41 47 42 40 43 46 44
REMARK SMILES IDX 41 45 42 46 43 47 44 48 45 49 68 50 69 51 77 52 70 53 76 54
REMARK SMILES IDX 71 55 72 56 73 57 74 58 75 59 54 60 55 61 63 62 56 63 62 64
REMARK SMILES IDX 57 65 58 66 59 67 60 68 61 69 8 70 9 71 10 72 11 73 12 74
REMARK SMILES IDX 13 75 14 76 15 77 16 78 20 79 17 80 19 81 18 82 21 83 22 84
REMARK SMILES IDX 27 85 23 86 26 87 28 88 24 89 25 90
REMARK H PARENT 82 25 52 36
REMARK Flexibility Score: inf
ROOT
ATOM      1  C   UNL A   1      34.955  23.475  23.572  1.00  0.00     0.188 C 
ENDROOT
BRANCH   1   2
ATOM      2  O   UNL A   1      36.081  22.836  22.982  1.00  0.00    -0.376 OA
BRANCH   2   3
ATOM      3  C   UNL A   1      36.965  22.157  23.863  1.00  0.00     0.202 C 
BRANCH   3   4
ATOM      4  C   UNL A   1      37.128  22.844  25.222  1.00  0.00     0.261 C 
BRANCH   4   5
ATOM      5  O   UNL A   1      38.226  22.293  25.969  1.00  0.00    -0.460 OA
BRANCH   5   6
ATOM      6  C   UNL A   1      39.440  22.824  26.245  1.00  0.00     0.338 C 
ATOM      7  O   UNL A   1      40.422  22.089  26.127  1.00  0.00    -0.246 OA
BRANCH   6   8
ATOM      8  C   UNL A   1      39.676  24.202  26.803  1.00  0.00     0.060 A 
ATOM      9  C   UNL A   1      40.390  25.234  26.194  1.00  0.00     0.016 A 
ATOM     10  C   UNL A   1      39.083  24.482  28.054  1.00  0.00     0.016 A 
ATOM     11  C   UNL A   1      40.588  26.457  26.832  1.00  0.00     0.010 A 
ATOM     12  C   UNL A   1      39.234  25.725  28.681  1.00  0.00     0.010 A 
ATOM     13  C   UNL A   1      40.053  26.694  28.098  1.00  0.00    -0.014 A 
BRANCH  13  14
ATOM     14  C   UNL A   1      40.608  27.831  28.867  1.00  0.00     0.031 A 
ATOM     15  C   UNL A   1      39.711  29.018  29.096  1.00  0.00     0.074 A 
ATOM     16  C   UNL A   1      41.784  27.716  29.511  1.00  0.00     0.049 A 
ATOM     17  N   UNL A   1      39.878  30.041  29.891  1.00  0.00    -0.248 NA
ATOM     18  C   UNL A   1      38.439  29.041  28.349  1.00  0.00     0.031 C 
ATOM     19  C   UNL A   1      42.685  26.567  29.426  1.00  0.00     0.029 A 
ATOM     20  N   UNL A   1      42.392  28.553  30.412  1.00  0.00    -0.354 N 
ATOM     21  C   UNL A   1      38.740  30.823  29.736  1.00  0.00     0.074 A 
ATOM     22  C   UNL A   1      37.906  30.182  28.749  1.00  0.00     0.031 C 
ATOM     23  C   UNL A   1      43.706  26.749  30.280  1.00  0.00     0.029 A 
ATOM     24  C   UNL A   1      43.551  28.038  30.946  1.00  0.00     0.049 A 
ATOM     25  H   UNL A   1      42.034  29.437  30.653  1.00  0.00     0.167 HD
ATOM     26  C   UNL A   1      38.408  31.971  30.368  1.00  0.00     0.031 A 
ATOM     27  C   UNL A   1      44.384  28.549  31.874  1.00  0.00     0.031 A 
ATOM     28  C   UNL A   1      39.246  32.613  31.338  1.00  0.00     0.049 A 
ATOM     29  C   UNL A   1      44.036  29.875  32.497  1.00  0.00     0.074 A 
ATOM     30  C   UNL A   1      39.038  33.804  32.005  1.00  0.00     0.029 A 
ATOM     31  N   UNL A   1      40.463  32.110  31.772  1.00  0.00    -0.354 N 
ATOM     32  N   UNL A   1      42.960  30.608  32.330  1.00  0.00    -0.248 NA
ATOM     33  C   UNL A   1      45.012  30.441  33.440  1.00  0.00     0.031 C 
ATOM     34  C   UNL A   1      40.154  34.044  32.813  1.00  0.00     0.029 A 
ATOM     35  C   UNL A   1      41.031  32.976  32.687  1.00  0.00     0.049 A 
ATOM     36  H   UNL A   1      40.863  31.260  31.474  1.00  0.00     0.167 HD
ATOM     37  C   UNL A   1      43.117  31.708  33.164  1.00  0.00     0.074 A 
ATOM     38  C   UNL A   1      44.385  31.536  33.847  1.00  0.00     0.031 C 
ATOM     39  C   UNL A   1      42.291  32.768  33.353  1.00  0.00     0.031 A 
BRANCH  26  40
ATOM     40  C   UNL A   1      37.113  32.615  29.959  1.00  0.00    -0.014 A 
ATOM     41  C   UNL A   1      37.043  33.486  28.855  1.00  0.00     0.010 A 
ATOM     42  C   UNL A   1      35.961  32.394  30.734  1.00  0.00     0.010 A 
ATOM     43  C   UNL A   1      35.858  34.170  28.571  1.00  0.00     0.020 A 
ATOM     44  C   UNL A   1      34.769  33.058  30.437  1.00  0.00     0.020 A 
ATOM     45  C   UNL A   1      34.732  33.962  29.373  1.00  0.00     0.054 A 
BRANCH  45  46
ATOM     46  S   UNL A   1      33.216  34.887  29.008  1.00  0.00     0.124 S 
ATOM     47  O   UNL A   1      33.751  36.156  28.519  1.00  0.00    -0.237 OA
ATOM     48  O   UNL A   1      32.563  34.053  28.001  1.00  0.00    -0.237 OA
ATOM     49  O   UNL A   1      32.531  34.954  30.297  1.00  0.00    -0.744 OA
ENDBRANCH  45  46
ENDBRANCH  26  40
BRANCH  27  50
ATOM     50  C   UNL A   1      45.620  27.814  32.268  1.00  0.00    -0.014 A 
ATOM     51  C   UNL A   1      45.612  26.909  33.345  1.00  0.00     0.010 A 
ATOM     52  C   UNL A   1      46.826  28.034  31.576  1.00  0.00     0.010 A 
ATOM     53  C   UNL A   1      46.788  26.255  33.733  1.00  0.00     0.020 A 
ATOM     54  C   UNL A   1      47.996  27.364  31.944  1.00  0.00     0.020 A 
ATOM     55  C   UNL A   1      47.973  26.488  33.030  1.00  0.00     0.054 A 
BRANCH  55  56
ATOM     56  S   UNL A   1      49.477  25.601  33.524  1.00  0.00     0.124 S 
ATOM     57  O   UNL A   1      50.160  25.423  32.248  1.00  0.00    -0.237 OA
ATOM     58  O   UNL A   1      50.103  26.538  34.455  1.00  0.00    -0.237 OA
ATOM     59  O   UNL A   1      48.964  24.379  34.139  1.00  0.00    -0.744 OA
ENDBRANCH  55  56
ENDBRANCH  27  50
BRANCH  39  60
ATOM     60  C   UNL A   1      42.714  33.801  34.359  1.00  0.00    -0.014 A 
ATOM     61  C   UNL A   1      43.426  34.947  33.968  1.00  0.00     0.010 A 
ATOM     62  C   UNL A   1      42.329  33.650  35.703  1.00  0.00     0.010 A 
ATOM     63  C   UNL A   1      43.772  35.915  34.913  1.00  0.00     0.020 A 
ATOM     64  C   UNL A   1      42.650  34.628  36.646  1.00  0.00     0.020 A 
ATOM     65  C   UNL A   1      43.381  35.749  36.246  1.00  0.00     0.054 A 
BRANCH  65  66
ATOM     66  S   UNL A   1      43.796  37.042  37.447  1.00  0.00     0.124 S 
ATOM     67  O   UNL A   1      44.919  36.442  38.162  1.00  0.00    -0.237 OA
ATOM     68  O   UNL A   1      44.129  38.180  36.594  1.00  0.00    -0.237 OA
ATOM     69  O   UNL A   1      42.570  37.195  38.226  1.00  0.00    -0.744 OA
ENDBRANCH  65  66
ENDBRANCH  39  60
ENDBRANCH  13  14
ENDBRANCH   6   8
ENDBRANCH   5   6
ENDBRANCH   4   5
ENDBRANCH   3   4
ENDBRANCH   2   3
ENDBRANCH   1   2
BRANCH   1  70
ATOM     70  C   UNL A   1      33.635  23.473  22.794  1.00  0.00     0.188 C 
BRANCH  70  71
ATOM     71  O   UNL A   1      32.437  23.886  23.431  1.00  0.00    -0.376 OA
BRANCH  71  72
ATOM     72  C   UNL A   1      31.418  24.514  22.668  1.00  0.00     0.202 C 
BRANCH  72  73
ATOM     73  C   UNL A   1      31.663  25.943  22.188  1.00  0.00     0.261 C 
BRANCH  73  74
ATOM     74  O   UNL A   1      30.536  26.825  22.321  1.00  0.00    -0.460 OA
BRANCH  74  75
ATOM     75  C   UNL A   1      30.277  27.275  23.577  1.00  0.00     0.338 C 
ATOM     76  O   UNL A   1      30.314  26.631  24.608  1.00  0.00    -0.246 OA
BRANCH  75  77
ATOM     77  C   UNL A   1      29.856  28.688  23.506  1.00  0.00     0.071 A 
ATOM     78  C   UNL A   1      28.729  28.970  22.721  1.00  0.00     0.036 A 
ATOM     79  C   UNL A   1      30.480  29.698  24.254  1.00  0.00     0.017 A 
ATOM     80  C   UNL A   1      28.242  30.262  22.717  1.00  0.00     0.112 A 
ATOM     81  C   UNL A   1      29.897  30.962  24.158  1.00  0.00     0.120 A 
ATOM     82  N   UNL A   1      28.806  31.263  23.418  1.00  0.00    -0.264 NA
BRANCH  79  83
ATOM     83  C   UNL A   1      31.697  29.547  25.059  1.00  0.00     0.020 A 
ATOM     84  C   UNL A   1      31.609  29.545  26.462  1.00  0.00     0.015 A 
ATOM     85  C   UNL A   1      32.944  29.273  24.483  1.00  0.00     0.134 A 
ATOM     86  C   UNL A   1      32.731  29.287  27.255  1.00  0.00     0.040 A 
ATOM     87  C   UNL A   1      34.067  29.010  25.265  1.00  0.00     0.079 A 
ATOM     88  F   UNL A   1      33.068  29.208  23.151  1.00  0.00    -0.206 F 
ATOM     89  C   UNL A   1      33.949  29.016  26.646  1.00  0.00     0.126 A 
ATOM     90  F   UNL A   1      35.017  28.737  27.405  1.00  0.00    -0.207 F 
ENDBRANCH  79  83
ENDBRANCH  75  77
ENDBRANCH  74  75
ENDBRANCH  73  74
ENDBRANCH  72  73
ENDBRANCH  71  72
ENDBRANCH  70  71
ENDBRANCH   1  70
TORSDOF 21
ENDMDL
MODEL 3
REMARK VINA RESULT:      -9.5      4.678      9.611
REMARK SMILES O=C(OCCOCCOCCOC(=O)c1ccncc1-c1ccc(F)cc1F)c1ccc(-c2c3nc(c(-c4ccc(S(=O)(=O)[O-])cc4)c4ccc([nH]4)c(-c4ccc(S(=O)(=O)[O-])cc4)c4nc(c(-c5ccc(S(=O)(=O)[O-])cc5)c5ccc2[nH]5)C=C4)C=C3)cc1
REMARK SMILES IDX 7 1 6 2 5 3 4 4 3 5 2 6 1 7 29 8 30 9 88 10 31 11 87 12
REMARK SMILES IDX 32 13 33 14 34 15 81 16 35 17 86 18 80 19 82 20 36 21 85 22
REMARK SMILES IDX 79 23 78 24 37 26 67 27 48 28 66 29 49 30 52 31 65 32 83 33
REMARK SMILES IDX 50 34 51 35 64 37 84 38 53 39 38 40 39 41 47 42 40 43 46 44
REMARK SMILES IDX 41 45 42 46 43 47 44 48 45 49 68 50 69 51 77 52 70 53 76 54
REMARK SMILES IDX 71 55 72 56 73 57 74 58 75 59 54 60 55 61 63 62 56 63 62 64
REMARK SMILES IDX 57 65 58 66 59 67 60 68 61 69 8 70 9 71 10 72 11 73 12 74
REMARK SMILES IDX 13 75 14 76 15 77 16 78 20 79 17 80 19 81 18 82 21 83 22 84
REMARK SMILES IDX 27 85 23 86 26 87 28 88 24 89 25 90
REMARK H PARENT 82 25 52 36
REMARK Flexibility Score: inf
ROOT
ATOM      1  C   UNL A   1      37.020  22.456  25.554  1.00  0.00     0.188 C 
ENDROOT
BRANCH   1   2
ATOM      2  O   UNL A   1      37.655  21.545  24.666  1.00  0.00    -0.376 OA
BRANCH   2   3
ATOM      3  C   UNL A   1      37.416  20.162  24.891  1.00  0.00     0.202 C 
BRANCH   3   4
ATOM      4  C   UNL A   1      38.674  19.374  25.268  1.00  0.00     0.261 C 
BRANCH   4   5
ATOM      5  O   UNL A   1      39.598  20.177  26.023  1.00  0.00    -0.460 OA
BRANCH   5   6
ATOM      6  C   UNL A   1      40.950  20.135  26.063  1.00  0.00     0.338 C 
ATOM      7  O   UNL A   1      41.493  19.059  25.806  1.00  0.00    -0.246 OA
BRANCH   6   8
ATOM      8  C   UNL A   1      41.838  21.262  26.517  1.00  0.00     0.060 A 
ATOM      9  C   UNL A   1      42.301  21.486  27.813  1.00  0.00     0.016 A 
ATOM     10  C   UNL A   1      42.271  22.161  25.516  1.00  0.00     0.016 A 
ATOM     11  C   UNL A   1      43.079  22.599  28.127  1.00  0.00     0.010 A 
ATOM     12  C   UNL A   1      43.095  23.254  25.812  1.00  0.00     0.010 A 
ATOM     13  C   UNL A   1      43.442  23.515  27.139  1.00  0.00    -0.014 A 
BRANCH  13  14
ATOM     14  C   UNL A   1      43.923  24.840  27.588  1.00  0.00     0.031 A 
ATOM     15  C   UNL A   1      45.363  25.185  27.315  1.00  0.00     0.074 A 
ATOM     16  C   UNL A   1      43.058  25.774  28.027  1.00  0.00     0.049 A 
ATOM     17  N   UNL A   1      45.974  26.334  27.423  1.00  0.00    -0.248 NA
ATOM     18  C   UNL A   1      46.224  24.092  26.826  1.00  0.00     0.031 C 
ATOM     19  C   UNL A   1      41.626  25.565  28.239  1.00  0.00     0.029 A 
ATOM     20  N   UNL A   1      43.250  27.101  28.314  1.00  0.00    -0.354 N 
ATOM     21  C   UNL A   1      47.283  26.100  27.020  1.00  0.00     0.074 A 
ATOM     22  C   UNL A   1      47.392  24.697  26.700  1.00  0.00     0.031 C 
ATOM     23  C   UNL A   1      41.059  26.736  28.574  1.00  0.00     0.029 A 
ATOM     24  C   UNL A   1      42.090  27.768  28.634  1.00  0.00     0.049 A 
ATOM     25  H   UNL A   1      44.133  27.536  28.294  1.00  0.00     0.167 HD
ATOM     26  C   UNL A   1      48.307  26.976  26.912  1.00  0.00     0.031 A 
ATOM     27  C   UNL A   1      41.885  29.066  28.931  1.00  0.00     0.031 A 
ATOM     28  C   UNL A   1      48.199  28.366  27.244  1.00  0.00     0.049 A 
ATOM     29  C   UNL A   1      43.062  30.005  28.892  1.00  0.00     0.074 A 
ATOM     30  C   UNL A   1      49.181  29.338  27.225  1.00  0.00     0.029 A 
ATOM     31  N   UNL A   1      47.029  28.979  27.666  1.00  0.00    -0.354 N 
ATOM     32  N   UNL A   1      44.298  29.763  28.519  1.00  0.00    -0.248 NA
ATOM     33  C   UNL A   1      42.817  31.394  29.306  1.00  0.00     0.031 C 
ATOM     34  C   UNL A   1      48.612  30.532  27.679  1.00  0.00     0.029 A 
ATOM     35  C   UNL A   1      47.265  30.314  27.930  1.00  0.00     0.049 A 
ATOM     36  H   UNL A   1      46.157  28.528  27.762  1.00  0.00     0.167 HD
ATOM     37  C   UNL A   1      44.971  30.974  28.631  1.00  0.00     0.074 A 
ATOM     38  C   UNL A   1      44.001  31.950  29.089  1.00  0.00     0.031 C 
ATOM     39  C   UNL A   1      46.273  31.258  28.378  1.00  0.00     0.031 A 
BRANCH  26  40
ATOM     40  C   UNL A   1      49.632  26.414  26.479  1.00  0.00    -0.014 A 
ATOM     41  C   UNL A   1      50.495  25.783  27.395  1.00  0.00     0.010 A 
ATOM     42  C   UNL A   1      50.047  26.579  25.146  1.00  0.00     0.010 A 
ATOM     43  C   UNL A   1      51.774  25.382  26.997  1.00  0.00     0.020 A 
ATOM     44  C   UNL A   1      51.314  26.157  24.740  1.00  0.00     0.020 A 
ATOM     45  C   UNL A   1      52.180  25.584  25.674  1.00  0.00     0.054 A 
BRANCH  45  46
ATOM     46  S   UNL A   1      53.855  25.088  25.189  1.00  0.00     0.124 S 
ATOM     47  O   UNL A   1      53.647  23.704  24.768  1.00  0.00    -0.237 OA
ATOM     48  O   UNL A   1      54.172  26.029  24.117  1.00  0.00    -0.237 OA
ATOM     49  O   UNL A   1      54.634  25.258  26.413  1.00  0.00    -0.744 OA
ENDBRANCH  45  46
ENDBRANCH  26  40
BRANCH  27  50
ATOM     50  C   UNL A   1      40.523  29.556  29.292  1.00  0.00    -0.014 A 
ATOM     51  C   UNL A   1      39.500  29.624  28.329  1.00  0.00     0.010 A 
ATOM     52  C   UNL A   1      40.248  29.977  30.606  1.00  0.00     0.010 A 
ATOM     53  C   UNL A   1      38.236  30.124  28.668  1.00  0.00     0.020 A 
ATOM     54  C   UNL A   1      38.980  30.453  30.955  1.00  0.00     0.020 A 
ATOM     55  C   UNL A   1      37.985  30.536  29.980  1.00  0.00     0.054 A 
BRANCH  55  56
ATOM     56  S   UNL A   1      36.330  31.143  30.408  1.00  0.00     0.124 S 
ATOM     57  O   UNL A   1      36.594  32.536  30.749  1.00  0.00    -0.237 OA
ATOM     58  O   UNL A   1      35.584  30.922  29.171  1.00  0.00    -0.237 OA
ATOM     59  O   UNL A   1      35.932  30.287  31.524  1.00  0.00    -0.744 OA
ENDBRANCH  55  56
ENDBRANCH  27  50
BRANCH  39  60
ATOM     60  C   UNL A   1      46.714  32.683  28.556  1.00  0.00    -0.014 A 
ATOM     61  C   UNL A   1      47.247  33.132  29.776  1.00  0.00     0.010 A 
ATOM     62  C   UNL A   1      46.656  33.564  27.460  1.00  0.00     0.010 A 
ATOM     63  C   UNL A   1      47.691  34.449  29.907  1.00  0.00     0.020 A 
ATOM     64  C   UNL A   1      47.123  34.874  27.580  1.00  0.00     0.020 A 
ATOM     65  C   UNL A   1      47.625  35.312  28.807  1.00  0.00     0.054 A 
BRANCH  65  66
ATOM     66  S   UNL A   1      48.253  37.003  28.983  1.00  0.00     0.124 S 
ATOM     67  O   UNL A   1      49.281  37.054  27.946  1.00  0.00    -0.237 OA
ATOM     68  O   UNL A   1      47.066  37.817  28.730  1.00  0.00    -0.237 OA
ATOM     69  O   UNL A   1      48.748  37.047  30.356  1.00  0.00    -0.744 OA
ENDBRANCH  65  66
ENDBRANCH  39  60
ENDBRANCH  13  14
ENDBRANCH   6   8
ENDBRANCH   5   6
ENDBRANCH   4   5
ENDBRANCH   3   4
ENDBRANCH   2   3
ENDBRANCH   1   2
BRANCH   1  70
ATOM     70  C   UNL A   1      35.488  22.505  25.563  1.00  0.00     0.188 C 
BRANCH  70  71
ATOM     71  O   UNL A   1      34.778  22.234  26.761  1.00  0.00    -0.376 OA
BRANCH  71  72
ATOM     72  C   UNL A   1      33.681  23.058  27.128  1.00  0.00     0.202 C 
BRANCH  72  73
ATOM     73  C   UNL A   1      33.011  23.884  26.031  1.00  0.00     0.261 C 
BRANCH  73  74
ATOM     74  O   UNL A   1      32.943  25.294  26.297  1.00  0.00    -0.460 OA
BRANCH  74  75
ATOM     75  C   UNL A   1      31.697  25.833  26.334  1.00  0.00     0.338 C 
ATOM     76  O   UNL A   1      30.640  25.234  26.387  1.00  0.00    -0.246 OA
BRANCH  75  77
ATOM     77  C   UNL A   1      31.802  27.302  26.221  1.00  0.00     0.071 A 
ATOM     78  C   UNL A   1      31.626  28.038  27.401  1.00  0.00     0.036 A 
ATOM     79  C   UNL A   1      32.153  27.942  25.023  1.00  0.00     0.017 A 
ATOM     80  C   UNL A   1      31.823  29.403  27.356  1.00  0.00     0.112 A 
ATOM     81  C   UNL A   1      32.314  29.325  25.107  1.00  0.00     0.120 A 
ATOM     82  N   UNL A   1      32.161  30.061  26.231  1.00  0.00    -0.264 NA
BRANCH  79  83
ATOM     83  C   UNL A   1      32.301  27.297  23.714  1.00  0.00     0.020 A 
ATOM     84  C   UNL A   1      33.555  26.799  23.320  1.00  0.00     0.015 A 
ATOM     85  C   UNL A   1      31.206  27.038  22.880  1.00  0.00     0.134 A 
ATOM     86  C   UNL A   1      33.705  26.078  22.132  1.00  0.00     0.040 A 
ATOM     87  C   UNL A   1      31.343  26.316  21.696  1.00  0.00     0.079 A 
ATOM     88  F   UNL A   1      29.980  27.443  23.238  1.00  0.00    -0.206 F 
ATOM     89  C   UNL A   1      32.594  25.839  21.334  1.00  0.00     0.126 A 
ATOM     90  F   UNL A   1      32.731  25.120  20.213  1.00  0.00    -0.207 F 
ENDBRANCH  79  83
ENDBRANCH  75  77
ENDBRANCH  74  75
ENDBRANCH  73  74
ENDBRANCH  72  73
ENDBRANCH  71  72
ENDBRANCH  70  71
ENDBRANCH   1  70
TORSDOF 21
ENDMDL
