MODEL 1
REMARK VINA RESULT:      -6.0      0.000      0.000
REMARK SMILES CC[C@H](NC(=O)Cc1c(C)c2cc(Cl)c(OC)cc2oc1=O)C(=O)OCCOCCOCCOC(=O)c1ccc(-c2c3nc(c(-c4ccc(S(=O)(=O)[O-])cc4)c4ccc([nH]4)c(-c4ccc(S(=O)(=O)[O-])cc4)c4nc(c(-c5ccc(S(=O)(=O)[O-])cc5)c5ccc2[nH]5)C=C4)C=C3)cc1
REMARK SMILES IDX 29 1 28 2 27 3 26 4 25 5 23 6 24 7 3 8 2 9 1 10 4 11 5 12
REMARK SMILES IDX 6 14 7 15 8 16 9 17 21 18 10 19 11 20 20 21 22 22 12 23
REMARK SMILES IDX 19 24 13 25 18 26 14 27 15 28 16 29 17 30 30 31 31 32 32 33
REMARK SMILES IDX 33 34 34 35 35 36 36 37 37 38 38 39 96 40 39 41 95 42 40 43
REMARK SMILES IDX 41 44 42 45 89 46 43 47 94 48 88 49 90 50 44 51 93 52 87 53
REMARK SMILES IDX 86 54 45 56 75 57 56 58 74 59 57 60 60 61 73 62 91 63 58 64
REMARK SMILES IDX 59 65 72 67 92 68 61 69 46 70 47 71 55 72 48 73 54 74 49 75
REMARK SMILES IDX 50 76 51 77 52 78 53 79 76 80 77 81 85 82 78 83 84 84 79 85
REMARK SMILES IDX 80 86 81 87 82 88 83 89 62 90 63 91 71 92 64 93 70 94 65 95
REMARK SMILES IDX 66 96 67 97 68 98 69 99
REMARK H PARENT 4 13 90 55 60 66
REMARK Flexibility Score: inf
ROOT
ATOM      1  C   UNL A   1      46.454  27.916  24.536  1.00  0.00     0.188 C 
ENDROOT
BRANCH   1   2
ATOM      2  O   UNL A   1      46.574  29.172  25.188  1.00  0.00    -0.376 OA
BRANCH   2   3
ATOM      3  C   UNL A   1      45.896  29.389  26.421  1.00  0.00     0.202 C 
BRANCH   3   4
ATOM      4  C   UNL A   1      46.346  30.552  27.325  1.00  0.00     0.261 C 
BRANCH   4   5
ATOM      5  O   UNL A   1      45.353  31.082  28.242  1.00  0.00    -0.462 OA
BRANCH   5   6
ATOM      6  C   UNL A   1      45.430  30.639  29.528  1.00  0.00     0.328 C 
ATOM      7  O   UNL A   1      44.527  30.789  30.348  1.00  0.00    -0.250 OA
BRANCH   6   8
ATOM      8  C   UNL A   1      46.786  29.966  29.929  1.00  0.00     0.192 C 
BRANCH   8   9
ATOM      9  C   UNL A   1      46.307  28.630  30.561  1.00  0.00     0.033 C 
ATOM     10  C   UNL A   1      46.082  27.487  29.594  1.00  0.00     0.007 C 
ENDBRANCH   8   9
BRANCH   8  11
ATOM     11  N   UNL A   1      47.719  30.646  30.867  1.00  0.00    -0.342 N 
ATOM     12  C   UNL A   1      47.569  31.419  31.991  1.00  0.00     0.225 C 
ATOM     13  H   UNL A   1      48.663  30.509  30.627  1.00  0.00     0.164 HD
ATOM     14  O   UNL A   1      48.530  32.152  32.270  1.00  0.00    -0.275 OA
BRANCH  12  15
ATOM     15  C   UNL A   1      46.407  31.296  33.023  1.00  0.00     0.143 C 
BRANCH  15  16
ATOM     16  C   UNL A   1      45.966  32.345  34.030  1.00  0.00     0.051 A 
ATOM     17  C   UNL A   1      46.368  32.431  35.327  1.00  0.00    -0.029 A 
ATOM     18  C   UNL A   1      45.044  33.367  33.507  1.00  0.00     0.340 A 
ATOM     19  C   UNL A   1      47.416  31.552  35.974  1.00  0.00     0.046 C 
ATOM     20  C   UNL A   1      45.735  33.443  36.214  1.00  0.00     0.023 A 
ATOM     21  O   UNL A   1      44.217  34.005  34.398  1.00  0.00    -0.422 OA
ATOM     22  O   UNL A   1      44.974  33.603  32.311  1.00  0.00    -0.246 OA
ATOM     23  C   UNL A   1      46.109  33.711  37.540  1.00  0.00     0.036 A 
ATOM     24  C   UNL A   1      44.658  34.165  35.714  1.00  0.00     0.142 A 
ATOM     25  C   UNL A   1      45.433  34.687  38.300  1.00  0.00     0.083 A 
ATOM     26  C   UNL A   1      43.965  35.124  36.458  1.00  0.00     0.095 A 
ATOM     27  Cl  UNL A   1      45.985  34.982  39.914  1.00  0.00    -0.080 Cl
ATOM     28  C   UNL A   1      44.354  35.407  37.763  1.00  0.00     0.141 A 
BRANCH  28  29
ATOM     29  O   UNL A   1      43.761  36.359  38.550  1.00  0.00    -0.495 OA
ATOM     30  C   UNL A   1      43.361  37.572  37.918  1.00  0.00     0.278 C 
ENDBRANCH  28  29
ENDBRANCH  15  16
ENDBRANCH  12  15
ENDBRANCH   8  11
ENDBRANCH   6   8
ENDBRANCH   5   6
ENDBRANCH   4   5
ENDBRANCH   3   4
ENDBRANCH   2   3
ENDBRANCH   1   2
BRANCH   1  31
ATOM     31  C   UNL A   1      46.081  26.686  25.374  1.00  0.00     0.188 C 
BRANCH  31  32
ATOM     32  O   UNL A   1      46.161  25.468  24.678  1.00  0.00    -0.376 OA
BRANCH  32  33
ATOM     33  C   UNL A   1      45.178  24.491  24.943  1.00  0.00     0.202 C 
BRANCH  33  34
ATOM     34  C   UNL A   1      44.370  24.578  26.250  1.00  0.00     0.261 C 
BRANCH  34  35
ATOM     35  O   UNL A   1      42.937  24.684  26.152  1.00  0.00    -0.460 OA
BRANCH  35  36
ATOM     36  C   UNL A   1      42.410  25.904  25.907  1.00  0.00     0.338 C 
ATOM     37  O   UNL A   1      41.942  26.299  24.844  1.00  0.00    -0.246 OA
BRANCH  36  38
ATOM     38  C   UNL A   1      42.239  26.599  27.202  1.00  0.00     0.060 A 
ATOM     39  C   UNL A   1      42.875  27.807  27.464  1.00  0.00     0.016 A 
ATOM     40  C   UNL A   1      41.417  26.024  28.179  1.00  0.00     0.016 A 
ATOM     41  C   UNL A   1      42.654  28.441  28.692  1.00  0.00     0.010 A 
ATOM     42  C   UNL A   1      41.182  26.659  29.396  1.00  0.00     0.010 A 
ATOM     43  C   UNL A   1      41.790  27.885  29.657  1.00  0.00    -0.014 A 
BRANCH  43  44
ATOM     44  C   UNL A   1      41.410  28.652  30.869  1.00  0.00     0.031 A 
ATOM     45  C   UNL A   1      42.213  28.578  32.135  1.00  0.00     0.074 A 
ATOM     46  C   UNL A   1      40.295  29.407  30.811  1.00  0.00     0.049 A 
ATOM     47  N   UNL A   1      42.088  29.299  33.219  1.00  0.00    -0.248 NA
ATOM     48  C   UNL A   1      43.278  27.565  32.210  1.00  0.00     0.031 C 
ATOM     49  C   UNL A   1      39.397  29.480  29.655  1.00  0.00     0.029 A 
ATOM     50  N   UNL A   1      39.742  30.276  31.716  1.00  0.00    -0.354 N 
ATOM     51  C   UNL A   1      43.071  28.853  34.092  1.00  0.00     0.074 A 
ATOM     52  C   UNL A   1      43.742  27.749  33.441  1.00  0.00     0.031 C 
ATOM     53  C   UNL A   1      38.457  30.407  29.888  1.00  0.00     0.029 A 
ATOM     54  C   UNL A   1      38.659  30.967  31.221  1.00  0.00     0.049 A 
ATOM     55  H   UNL A   1      40.085  30.394  32.631  1.00  0.00     0.167 HD
ATOM     56  C   UNL A   1      43.400  29.347  35.309  1.00  0.00     0.031 A 
ATOM     57  C   UNL A   1      37.930  31.965  31.760  1.00  0.00     0.031 A 
ATOM     58  C   UNL A   1      42.717  30.453  35.934  1.00  0.00     0.049 A 
ATOM     59  C   UNL A   1      38.315  32.490  33.116  1.00  0.00     0.074 A 
ATOM     60  C   UNL A   1      43.016  31.070  37.135  1.00  0.00     0.029 A 
ATOM     61  N   UNL A   1      41.605  31.101  35.418  1.00  0.00    -0.354 N 
ATOM     62  N   UNL A   1      39.324  32.137  33.877  1.00  0.00    -0.248 NA
ATOM     63  C   UNL A   1      37.479  33.559  33.679  1.00  0.00     0.031 C 
ATOM     64  C   UNL A   1      42.040  32.035  37.385  1.00  0.00     0.029 A 
ATOM     65  C   UNL A   1      41.184  32.086  36.296  1.00  0.00     0.049 A 
ATOM     66  H   UNL A   1      41.178  30.893  34.556  1.00  0.00     0.167 HD
ATOM     67  C   UNL A   1      39.258  32.956  34.998  1.00  0.00     0.074 A 
ATOM     68  C   UNL A   1      38.126  33.839  34.804  1.00  0.00     0.031 C 
ATOM     69  C   UNL A   1      40.060  32.968  36.090  1.00  0.00     0.031 A 
BRANCH  56  70
ATOM     70  C   UNL A   1      44.577  28.757  36.046  1.00  0.00    -0.014 A 
ATOM     71  C   UNL A   1      45.833  28.671  35.415  1.00  0.00     0.010 A 
ATOM     72  C   UNL A   1      44.393  28.116  37.285  1.00  0.00     0.010 A 
ATOM     73  C   UNL A   1      46.861  27.907  35.977  1.00  0.00     0.020 A 
ATOM     74  C   UNL A   1      45.429  27.377  37.865  1.00  0.00     0.020 A 
ATOM     75  C   UNL A   1      46.645  27.250  37.190  1.00  0.00     0.054 A 
BRANCH  75  76
ATOM     76  S   UNL A   1      47.957  26.188  37.855  1.00  0.00     0.124 S 
ATOM     77  O   UNL A   1      49.119  26.611  37.080  1.00  0.00    -0.237 OA
ATOM     78  O   UNL A   1      47.973  26.552  39.269  1.00  0.00    -0.237 OA
ATOM     79  O   UNL A   1      47.481  24.835  37.574  1.00  0.00    -0.744 OA
ENDBRANCH  75  76
ENDBRANCH  56  70
BRANCH  57  80
ATOM     80  C   UNL A   1      36.832  32.583  30.964  1.00  0.00    -0.014 A 
ATOM     81  C   UNL A   1      35.550  32.002  30.932  1.00  0.00     0.010 A 
ATOM     82  C   UNL A   1      37.086  33.712  30.166  1.00  0.00     0.010 A 
ATOM     83  C   UNL A   1      34.565  32.500  30.077  1.00  0.00     0.020 A 
ATOM     84  C   UNL A   1      36.089  34.238  29.336  1.00  0.00     0.020 A 
ATOM     85  C   UNL A   1      34.846  33.609  29.275  1.00  0.00     0.054 A 
BRANCH  85  86
ATOM     86  S   UNL A   1      33.566  34.204  28.135  1.00  0.00     0.124 S 
ATOM     87  O   UNL A   1      32.661  34.907  29.042  1.00  0.00    -0.237 OA
ATOM     88  O   UNL A   1      34.326  35.054  27.221  1.00  0.00    -0.237 OA
ATOM     89  O   UNL A   1      33.032  32.979  27.546  1.00  0.00    -0.744 OA
ENDBRANCH  85  86
ENDBRANCH  57  80
BRANCH  69  90
ATOM     90  C   UNL A   1      39.765  33.963  37.185  1.00  0.00    -0.014 A 
ATOM     91  C   UNL A   1      40.319  35.256  37.123  1.00  0.00     0.010 A 
ATOM     92  C   UNL A   1      39.072  33.572  38.345  1.00  0.00     0.010 A 
ATOM     93  C   UNL A   1      40.236  36.119  38.218  1.00  0.00     0.020 A 
ATOM     94  C   UNL A   1      38.953  34.448  39.429  1.00  0.00     0.020 A 
ATOM     95  C   UNL A   1      39.564  35.703  39.369  1.00  0.00     0.054 A 
BRANCH  95  96
ATOM     96  S   UNL A   1      39.522  36.812  40.804  1.00  0.00     0.124 S 
ATOM     97  O   UNL A   1      40.844  37.432  40.752  1.00  0.00    -0.237 OA
ATOM     98  O   UNL A   1      38.400  37.694  40.492  1.00  0.00    -0.237 OA
ATOM     99  O   UNL A   1      39.300  35.909  41.931  1.00  0.00    -0.744 OA
ENDBRANCH  95  96
ENDBRANCH  69  90
ENDBRANCH  43  44
ENDBRANCH  36  38
ENDBRANCH  35  36
ENDBRANCH  34  35
ENDBRANCH  33  34
ENDBRANCH  32  33
ENDBRANCH  31  32
ENDBRANCH   1  31
TORSDOF 25
ENDMDL
MODEL 2
REMARK VINA RESULT:      -5.9      4.331      9.407
REMARK SMILES CC[C@H](NC(=O)Cc1c(C)c2cc(Cl)c(OC)cc2oc1=O)C(=O)OCCOCCOCCOC(=O)c1ccc(-c2c3nc(c(-c4ccc(S(=O)(=O)[O-])cc4)c4ccc([nH]4)c(-c4ccc(S(=O)(=O)[O-])cc4)c4nc(c(-c5ccc(S(=O)(=O)[O-])cc5)c5ccc2[nH]5)C=C4)C=C3)cc1
REMARK SMILES IDX 29 1 28 2 27 3 26 4 25 5 23 6 24 7 3 8 2 9 1 10 4 11 5 12
REMARK SMILES IDX 6 14 7 15 8 16 9 17 21 18 10 19 11 20 20 21 22 22 12 23
REMARK SMILES IDX 19 24 13 25 18 26 14 27 15 28 16 29 17 30 30 31 31 32 32 33
REMARK SMILES IDX 33 34 34 35 35 36 36 37 37 38 38 39 96 40 39 41 95 42 40 43
REMARK SMILES IDX 41 44 42 45 89 46 43 47 94 48 88 49 90 50 44 51 93 52 87 53
REMARK SMILES IDX 86 54 45 56 75 57 56 58 74 59 57 60 60 61 73 62 91 63 58 64
REMARK SMILES IDX 59 65 72 67 92 68 61 69 46 70 47 71 55 72 48 73 54 74 49 75
REMARK SMILES IDX 50 76 51 77 52 78 53 79 76 80 77 81 85 82 78 83 84 84 79 85
REMARK SMILES IDX 80 86 81 87 82 88 83 89 62 90 63 91 71 92 64 93 70 94 65 95
REMARK SMILES IDX 66 96 67 97 68 98 69 99
REMARK H PARENT 4 13 90 55 60 66
REMARK Flexibility Score: inf
ROOT
ATOM      1  C   UNL A   1      44.486  27.738  26.702  1.00  0.00     0.188 C 
ENDROOT
BRANCH   1   2
ATOM      2  O   UNL A   1      43.587  28.562  25.974  1.00  0.00    -0.376 OA
BRANCH   2   3
ATOM      3  C   UNL A   1      42.763  29.488  26.672  1.00  0.00     0.202 C 
BRANCH   3   4
ATOM      4  C   UNL A   1      42.238  29.113  28.071  1.00  0.00     0.261 C 
BRANCH   4   5
ATOM      5  O   UNL A   1      41.662  27.788  28.212  1.00  0.00    -0.462 OA
BRANCH   5   6
ATOM      6  C   UNL A   1      40.317  27.696  28.011  1.00  0.00     0.328 C 
ATOM      7  O   UNL A   1      39.813  26.994  27.138  1.00  0.00    -0.250 OA
BRANCH   6   8
ATOM      8  C   UNL A   1      39.434  28.602  28.933  1.00  0.00     0.192 C 
BRANCH   8   9
ATOM      9  C   UNL A   1      39.565  27.886  30.306  1.00  0.00     0.033 C 
ATOM     10  C   UNL A   1      39.563  28.787  31.522  1.00  0.00     0.007 C 
ENDBRANCH   8   9
BRANCH   8  11
ATOM     11  N   UNL A   1      37.994  28.816  28.628  1.00  0.00    -0.342 N 
ATOM     12  C   UNL A   1      37.081  29.801  28.911  1.00  0.00     0.225 C 
ATOM     13  H   UNL A   1      37.606  28.082  28.101  1.00  0.00     0.164 HD
ATOM     14  O   UNL A   1      35.890  29.458  28.863  1.00  0.00    -0.275 OA
BRANCH  12  15
ATOM     15  C   UNL A   1      37.409  31.315  29.079  1.00  0.00     0.143 C 
BRANCH  15  16
ATOM     16  C   UNL A   1      36.458  32.411  29.531  1.00  0.00     0.051 A 
ATOM     17  C   UNL A   1      36.405  32.966  30.773  1.00  0.00    -0.029 A 
ATOM     18  C   UNL A   1      35.548  32.918  28.491  1.00  0.00     0.340 A 
ATOM     19  C   UNL A   1      37.362  32.661  31.904  1.00  0.00     0.046 C 
ATOM     20  C   UNL A   1      35.322  33.936  31.085  1.00  0.00     0.023 A 
ATOM     21  O   UNL A   1      34.365  33.490  28.892  1.00  0.00    -0.422 OA
ATOM     22  O   UNL A   1      35.807  32.787  27.305  1.00  0.00    -0.246 OA
ATOM     23  C   UNL A   1      35.193  34.656  32.282  1.00  0.00     0.036 A 
ATOM     24  C   UNL A   1      34.326  34.129  30.134  1.00  0.00     0.142 A 
ATOM     25  C   UNL A   1      34.118  35.546  32.481  1.00  0.00     0.083 A 
ATOM     26  C   UNL A   1      33.244  34.994  30.320  1.00  0.00     0.095 A 
ATOM     27  Cl  UNL A   1      34.059  36.424  33.972  1.00  0.00    -0.080 Cl
ATOM     28  C   UNL A   1      33.133  35.725  31.498  1.00  0.00     0.141 A 
BRANCH  28  29
ATOM     29  O   UNL A   1      32.132  36.626  31.748  1.00  0.00    -0.495 OA
ATOM     30  C   UNL A   1      31.301  36.382  32.880  1.00  0.00     0.278 C 
ENDBRANCH  28  29
ENDBRANCH  15  16
ENDBRANCH  12  15
ENDBRANCH   8  11
ENDBRANCH   6   8
ENDBRANCH   5   6
ENDBRANCH   4   5
ENDBRANCH   3   4
ENDBRANCH   2   3
ENDBRANCH   1   2
BRANCH   1  31
ATOM     31  C   UNL A   1      44.807  26.341  26.156  1.00  0.00     0.188 C 
BRANCH  31  32
ATOM     32  O   UNL A   1      45.633  25.570  26.992  1.00  0.00    -0.376 OA
BRANCH  32  33
ATOM     33  C   UNL A   1      45.014  24.729  27.939  1.00  0.00     0.202 C 
BRANCH  33  34
ATOM     34  C   UNL A   1      45.372  24.887  29.428  1.00  0.00     0.261 C 
BRANCH  34  35
ATOM     35  O   UNL A   1      44.410  24.445  30.404  1.00  0.00    -0.460 OA
BRANCH  35  36
ATOM     36  C   UNL A   1      44.655  24.726  31.703  1.00  0.00     0.338 C 
ATOM     37  O   UNL A   1      45.191  23.988  32.523  1.00  0.00    -0.246 OA
BRANCH  36  38
ATOM     38  C   UNL A   1      44.420  26.172  31.913  1.00  0.00     0.060 A 
ATOM     39  C   UNL A   1      45.197  26.910  32.799  1.00  0.00     0.016 A 
ATOM     40  C   UNL A   1      43.393  26.805  31.201  1.00  0.00     0.016 A 
ATOM     41  C   UNL A   1      44.956  28.281  32.937  1.00  0.00     0.010 A 
ATOM     42  C   UNL A   1      43.160  28.172  31.324  1.00  0.00     0.010 A 
ATOM     43  C   UNL A   1      43.953  28.927  32.185  1.00  0.00    -0.014 A 
BRANCH  43  44
ATOM     44  C   UNL A   1      43.832  30.405  32.192  1.00  0.00     0.031 A 
ATOM     45  C   UNL A   1      42.871  31.117  33.100  1.00  0.00     0.074 A 
ATOM     46  C   UNL A   1      44.600  31.103  31.330  1.00  0.00     0.049 A 
ATOM     47  N   UNL A   1      42.761  32.401  33.320  1.00  0.00    -0.248 NA
ATOM     48  C   UNL A   1      41.902  30.296  33.845  1.00  0.00     0.031 C 
ATOM     49  C   UNL A   1      45.503  30.502  30.345  1.00  0.00     0.029 A 
ATOM     50  N   UNL A   1      44.772  32.452  31.160  1.00  0.00    -0.354 N 
ATOM     51  C   UNL A   1      41.737  32.544  34.247  1.00  0.00     0.074 A 
ATOM     52  C   UNL A   1      41.208  31.221  34.498  1.00  0.00     0.031 C 
ATOM     53  C   UNL A   1      46.196  31.475  29.735  1.00  0.00     0.029 A 
ATOM     54  C   UNL A   1      45.760  32.768  30.255  1.00  0.00     0.049 A 
ATOM     55  H   UNL A   1      44.242  33.130  31.638  1.00  0.00     0.167 HD
ATOM     56  C   UNL A   1      41.307  33.676  34.854  1.00  0.00     0.031 A 
ATOM     57  C   UNL A   1      46.287  33.959  29.905  1.00  0.00     0.031 A 
ATOM     58  C   UNL A   1      41.856  34.983  34.588  1.00  0.00     0.049 A 
ATOM     59  C   UNL A   1      45.786  35.200  30.592  1.00  0.00     0.074 A 
ATOM     60  C   UNL A   1      41.534  36.182  35.200  1.00  0.00     0.029 A 
ATOM     61  N   UNL A   1      42.828  35.266  33.641  1.00  0.00    -0.354 N 
ATOM     62  N   UNL A   1      44.900  35.304  31.554  1.00  0.00    -0.248 NA
ATOM     63  C   UNL A   1      46.365  36.479  30.163  1.00  0.00     0.031 C 
ATOM     64  C   UNL A   1      42.250  37.199  34.568  1.00  0.00     0.029 A 
ATOM     65  C   UNL A   1      43.089  36.626  33.625  1.00  0.00     0.049 A 
ATOM     66  H   UNL A   1      43.267  34.599  33.065  1.00  0.00     0.167 HD
ATOM     67  C   UNL A   1      44.833  36.658  31.863  1.00  0.00     0.074 A 
ATOM     68  C   UNL A   1      45.786  37.329  31.002  1.00  0.00     0.031 C 
ATOM     69  C   UNL A   1      44.048  37.285  32.771  1.00  0.00     0.031 A 
BRANCH  56  70
ATOM     70  C   UNL A   1      40.232  33.579  35.908  1.00  0.00    -0.014 A 
ATOM     71  C   UNL A   1      40.577  33.298  37.244  1.00  0.00     0.010 A 
ATOM     72  C   UNL A   1      38.873  33.575  35.542  1.00  0.00     0.010 A 
ATOM     73  C   UNL A   1      39.593  32.955  38.176  1.00  0.00     0.020 A 
ATOM     74  C   UNL A   1      37.883  33.265  36.479  1.00  0.00     0.020 A 
ATOM     75  C   UNL A   1      38.253  32.923  37.782  1.00  0.00     0.054 A 
BRANCH  75  76
ATOM     76  S   UNL A   1      37.002  32.386  38.981  1.00  0.00     0.124 S 
ATOM     77  O   UNL A   1      37.504  32.954  40.228  1.00  0.00    -0.237 OA
ATOM     78  O   UNL A   1      35.781  32.991  38.456  1.00  0.00    -0.237 OA
ATOM     79  O   UNL A   1      37.050  30.927  38.898  1.00  0.00    -0.744 OA
ENDBRANCH  75  76
ENDBRANCH  56  70
BRANCH  57  80
ATOM     80  C   UNL A   1      47.410  34.005  28.926  1.00  0.00    -0.014 A 
ATOM     81  C   UNL A   1      47.161  34.185  27.552  1.00  0.00     0.010 A 
ATOM     82  C   UNL A   1      48.730  33.785  29.354  1.00  0.00     0.010 A 
ATOM     83  C   UNL A   1      48.199  34.087  26.623  1.00  0.00     0.020 A 
ATOM     84  C   UNL A   1      49.779  33.725  28.430  1.00  0.00     0.020 A 
ATOM     85  C   UNL A   1      49.501  33.845  27.068  1.00  0.00     0.054 A 
BRANCH  85  86
ATOM     86  S   UNL A   1      50.822  33.670  25.838  1.00  0.00     0.124 S 
ATOM     87  O   UNL A   1      50.301  34.460  24.724  1.00  0.00    -0.237 OA
ATOM     88  O   UNL A   1      51.976  34.241  26.528  1.00  0.00    -0.237 OA
ATOM     89  O   UNL A   1      50.887  32.230  25.604  1.00  0.00    -0.744 OA
ENDBRANCH  85  86
ENDBRANCH  57  80
BRANCH  69  90
ATOM     90  C   UNL A   1      44.164  38.784  32.906  1.00  0.00    -0.014 A 
ATOM     91  C   UNL A   1      45.062  39.334  33.840  1.00  0.00     0.010 A 
ATOM     92  C   UNL A   1      43.277  39.638  32.225  1.00  0.00     0.010 A 
ATOM     93  C   UNL A   1      45.036  40.700  34.132  1.00  0.00     0.020 A 
ATOM     94  C   UNL A   1      43.276  41.012  32.486  1.00  0.00     0.020 A 
ATOM     95  C   UNL A   1      44.133  41.527  33.462  1.00  0.00     0.054 A 
BRANCH  95  96
ATOM     96  S   UNL A   1      44.070  43.286  33.901  1.00  0.00     0.124 S 
ATOM     97  O   UNL A   1      43.472  43.249  35.233  1.00  0.00    -0.237 OA
ATOM     98  O   UNL A   1      45.476  43.677  33.852  1.00  0.00    -0.237 OA
ATOM     99  O   UNL A   1      43.232  43.872  32.857  1.00  0.00    -0.744 OA
ENDBRANCH  95  96
ENDBRANCH  69  90
ENDBRANCH  43  44
ENDBRANCH  36  38
ENDBRANCH  35  36
ENDBRANCH  34  35
ENDBRANCH  33  34
ENDBRANCH  32  33
ENDBRANCH  31  32
ENDBRANCH   1  31
TORSDOF 25
ENDMDL
MODEL 3
REMARK VINA RESULT:      -5.9      4.539     12.806
REMARK SMILES CC[C@H](NC(=O)Cc1c(C)c2cc(Cl)c(OC)cc2oc1=O)C(=O)OCCOCCOCCOC(=O)c1ccc(-c2c3nc(c(-c4ccc(S(=O)(=O)[O-])cc4)c4ccc([nH]4)c(-c4ccc(S(=O)(=O)[O-])cc4)c4nc(c(-c5ccc(S(=O)(=O)[O-])cc5)c5ccc2[nH]5)C=C4)C=C3)cc1
REMARK SMILES IDX 29 1 28 2 27 3 26 4 25 5 23 6 24 7 3 8 2 9 1 10 4 11 5 12
REMARK SMILES IDX 6 14 7 15 8 16 9 17 21 18 10 19 11 20 20 21 22 22 12 23
REMARK SMILES IDX 19 24 13 25 18 26 14 27 15 28 16 29 17 30 30 31 31 32 32 33
REMARK SMILES IDX 33 34 34 35 35 36 36 37 37 38 38 39 96 40 39 41 95 42 40 43
REMARK SMILES IDX 41 44 42 45 89 46 43 47 94 48 88 49 90 50 44 51 93 52 87 53
REMARK SMILES IDX 86 54 45 56 75 57 56 58 74 59 57 60 60 61 73 62 91 63 58 64
REMARK SMILES IDX 59 65 72 67 92 68 61 69 46 70 47 71 55 72 48 73 54 74 49 75
REMARK SMILES IDX 50 76 51 77 52 78 53 79 76 80 77 81 85 82 78 83 84 84 79 85
REMARK SMILES IDX 80 86 81 87 82 88 83 89 62 90 63 91 71 92 64 93 70 94 65 95
REMARK SMILES IDX 66 96 67 97 68 98 69 99
REMARK H PARENT 4 13 90 55 60 66
REMARK Flexibility Score: inf
ROOT
ATOM      1  C   UNL A   1      34.234  34.914  31.977  1.00  0.00     0.188 C 
ENDROOT
BRANCH   1   2
ATOM      2  O   UNL A   1      34.127  33.546  31.612  1.00  0.00    -0.376 OA
BRANCH   2   3
ATOM      3  C   UNL A   1      34.706  33.099  30.391  1.00  0.00     0.202 C 
BRANCH   3   4
ATOM      4  C   UNL A   1      35.827  33.936  29.746  1.00  0.00     0.261 C 
BRANCH   4   5
ATOM      5  O   UNL A   1      36.443  33.386  28.552  1.00  0.00    -0.462 OA
BRANCH   5   6
ATOM      6  C   UNL A   1      36.179  32.074  28.295  1.00  0.00     0.328 C 
ATOM      7  O   UNL A   1      35.215  31.698  27.633  1.00  0.00    -0.250 OA
BRANCH   6   8
ATOM      8  C   UNL A   1      37.161  31.047  28.954  1.00  0.00     0.192 C 
BRANCH   8   9
ATOM      9  C   UNL A   1      37.327  29.992  27.825  1.00  0.00     0.033 C 
ATOM     10  C   UNL A   1      38.680  29.319  27.747  1.00  0.00     0.007 C 
ENDBRANCH   8   9
BRANCH   8  11
ATOM     11  N   UNL A   1      36.796  30.357  30.220  1.00  0.00    -0.342 N 
ATOM     12  C   UNL A   1      37.501  29.745  31.227  1.00  0.00     0.225 C 
ATOM     13  H   UNL A   1      35.825  30.335  30.372  1.00  0.00     0.164 HD
ATOM     14  O   UNL A   1      36.864  28.923  31.903  1.00  0.00    -0.275 OA
BRANCH  12  15
ATOM     15  C   UNL A   1      38.932  30.142  31.697  1.00  0.00     0.143 C 
BRANCH  15  16
ATOM     16  C   UNL A   1      40.250  29.705  31.081  1.00  0.00     0.051 A 
ATOM     17  C   UNL A   1      41.000  30.420  30.199  1.00  0.00    -0.029 A 
ATOM     18  C   UNL A   1      40.747  28.394  31.530  1.00  0.00     0.340 A 
ATOM     19  C   UNL A   1      40.705  31.835  29.752  1.00  0.00     0.046 C 
ATOM     20  C   UNL A   1      42.200  29.787  29.589  1.00  0.00     0.023 A 
ATOM     21  O   UNL A   1      41.595  27.706  30.697  1.00  0.00    -0.422 OA
ATOM     22  O   UNL A   1      40.377  27.905  32.585  1.00  0.00    -0.246 OA
ATOM     23  C   UNL A   1      43.117  30.426  28.741  1.00  0.00     0.036 A 
ATOM     24  C   UNL A   1      42.424  28.438  29.843  1.00  0.00     0.142 A 
ATOM     25  C   UNL A   1      44.218  29.728  28.206  1.00  0.00     0.083 A 
ATOM     26  C   UNL A   1      43.501  27.725  29.308  1.00  0.00     0.095 A 
ATOM     27  Cl  UNL A   1      45.322  30.605  27.202  1.00  0.00    -0.080 Cl
ATOM     28  C   UNL A   1      44.422  28.368  28.489  1.00  0.00     0.141 A 
BRANCH  28  29
ATOM     29  O   UNL A   1      45.529  27.760  27.957  1.00  0.00    -0.495 OA
ATOM     30  C   UNL A   1      45.606  26.341  28.058  1.00  0.00     0.278 C 
ENDBRANCH  28  29
ENDBRANCH  15  16
ENDBRANCH  12  15
ENDBRANCH   8  11
ENDBRANCH   6   8
ENDBRANCH   5   6
ENDBRANCH   4   5
ENDBRANCH   3   4
ENDBRANCH   2   3
ENDBRANCH   1   2
BRANCH   1  31
ATOM     31  C   UNL A   1      35.105  35.287  33.183  1.00  0.00     0.188 C 
BRANCH  31  32
ATOM     32  O   UNL A   1      35.199  34.281  34.160  1.00  0.00    -0.376 OA
BRANCH  32  33
ATOM     33  C   UNL A   1      36.434  33.617  34.308  1.00  0.00     0.202 C 
BRANCH  33  34
ATOM     34  C   UNL A   1      37.368  34.023  35.462  1.00  0.00     0.261 C 
BRANCH  34  35
ATOM     35  O   UNL A   1      38.520  34.829  35.147  1.00  0.00    -0.460 OA
BRANCH  35  36
ATOM     36  C   UNL A   1      39.637  34.648  35.884  1.00  0.00     0.338 C 
ATOM     37  O   UNL A   1      39.771  34.883  37.081  1.00  0.00    -0.246 OA
BRANCH  36  38
ATOM     38  C   UNL A   1      40.598  33.862  35.077  1.00  0.00     0.060 A 
ATOM     39  C   UNL A   1      40.189  33.156  33.952  1.00  0.00     0.016 A 
ATOM     40  C   UNL A   1      41.945  33.836  35.459  1.00  0.00     0.016 A 
ATOM     41  C   UNL A   1      41.141  32.455  33.204  1.00  0.00     0.010 A 
ATOM     42  C   UNL A   1      42.899  33.153  34.709  1.00  0.00     0.010 A 
ATOM     43  C   UNL A   1      42.505  32.466  33.562  1.00  0.00    -0.014 A 
BRANCH  43  44
ATOM     44  C   UNL A   1      43.532  31.886  32.662  1.00  0.00     0.031 A 
ATOM     45  C   UNL A   1      44.211  32.706  31.604  1.00  0.00     0.074 A 
ATOM     46  C   UNL A   1      43.824  30.577  32.804  1.00  0.00     0.049 A 
ATOM     47  N   UNL A   1      45.224  32.376  30.847  1.00  0.00    -0.248 NA
ATOM     48  C   UNL A   1      43.686  34.057  31.347  1.00  0.00     0.031 C 
ATOM     49  C   UNL A   1      43.158  29.672  33.744  1.00  0.00     0.029 A 
ATOM     50  N   UNL A   1      44.765  29.789  32.192  1.00  0.00    -0.354 N 
ATOM     51  C   UNL A   1      45.480  33.482  30.046  1.00  0.00     0.074 A 
ATOM     52  C   UNL A   1      44.472  34.470  30.358  1.00  0.00     0.031 C 
ATOM     53  C   UNL A   1      43.768  28.478  33.708  1.00  0.00     0.029 A 
ATOM     54  C   UNL A   1      44.839  28.518  32.717  1.00  0.00     0.049 A 
ATOM     55  H   UNL A   1      45.332  30.101  31.451  1.00  0.00     0.167 HD
ATOM     56  C   UNL A   1      46.488  33.660  29.160  1.00  0.00     0.031 A 
ATOM     57  C   UNL A   1      45.695  27.508  32.461  1.00  0.00     0.031 A 
ATOM     58  C   UNL A   1      47.485  32.658  28.870  1.00  0.00     0.049 A 
ATOM     59  C   UNL A   1      46.801  27.733  31.467  1.00  0.00     0.074 A 
ATOM     60  C   UNL A   1      48.585  32.766  28.038  1.00  0.00     0.029 A 
ATOM     61  N   UNL A   1      47.505  31.374  29.394  1.00  0.00    -0.354 N 
ATOM     62  N   UNL A   1      47.102  28.827  30.808  1.00  0.00    -0.248 NA
ATOM     63  C   UNL A   1      47.695  26.600  31.196  1.00  0.00     0.031 C 
ATOM     64  C   UNL A   1      49.222  31.526  27.994  1.00  0.00     0.029 A 
ATOM     65  C   UNL A   1      48.577  30.669  28.872  1.00  0.00     0.049 A 
ATOM     66  H   UNL A   1      46.855  31.017  30.041  1.00  0.00     0.167 HD
ATOM     67  C   UNL A   1      48.234  28.520  30.060  1.00  0.00     0.074 A 
ATOM     68  C   UNL A   1      48.578  27.147  30.370  1.00  0.00     0.031 C 
ATOM     69  C   UNL A   1      48.918  29.304  29.193  1.00  0.00     0.031 A 
BRANCH  56  70
ATOM     70  C   UNL A   1      46.626  34.992  28.464  1.00  0.00    -0.014 A 
ATOM     71  C   UNL A   1      45.916  35.242  27.273  1.00  0.00     0.010 A 
ATOM     72  C   UNL A   1      47.599  35.917  28.883  1.00  0.00     0.010 A 
ATOM     73  C   UNL A   1      46.221  36.357  26.485  1.00  0.00     0.020 A 
ATOM     74  C   UNL A   1      47.883  37.050  28.114  1.00  0.00     0.020 A 
ATOM     75  C   UNL A   1      47.216  37.243  26.903  1.00  0.00     0.054 A 
BRANCH  75  76
ATOM     76  S   UNL A   1      47.660  38.631  25.821  1.00  0.00     0.124 S 
ATOM     77  O   UNL A   1      46.355  39.094  25.360  1.00  0.00    -0.237 OA
ATOM     78  O   UNL A   1      48.364  39.529  26.732  1.00  0.00    -0.237 OA
ATOM     79  O   UNL A   1      48.499  38.012  24.795  1.00  0.00    -0.744 OA
ENDBRANCH  75  76
ENDBRANCH  56  70
BRANCH  57  80
ATOM     80  C   UNL A   1      45.582  26.239  33.234  1.00  0.00    -0.014 A 
ATOM     81  C   UNL A   1      46.343  26.036  34.401  1.00  0.00     0.010 A 
ATOM     82  C   UNL A   1      44.775  25.191  32.759  1.00  0.00     0.010 A 
ATOM     83  C   UNL A   1      46.342  24.796  35.044  1.00  0.00     0.020 A 
ATOM     84  C   UNL A   1      44.741  23.959  33.422  1.00  0.00     0.020 A 
ATOM     85  C   UNL A   1      45.550  23.761  34.542  1.00  0.00     0.054 A 
BRANCH  85  86
ATOM     86  S   UNL A   1      45.607  22.145  35.363  1.00  0.00     0.124 S 
ATOM     87  O   UNL A   1      44.493  21.446  34.727  1.00  0.00    -0.237 OA
ATOM     88  O   UNL A   1      46.939  21.657  35.012  1.00  0.00    -0.237 OA
ATOM     89  O   UNL A   1      45.416  22.469  36.774  1.00  0.00    -0.744 OA
ENDBRANCH  85  86
ENDBRANCH  57  80
BRANCH  69  90
ATOM     90  C   UNL A   1      50.122  28.720  28.496  1.00  0.00    -0.014 A 
ATOM     91  C   UNL A   1      51.415  29.123  28.880  1.00  0.00     0.010 A 
ATOM     92  C   UNL A   1      49.970  27.897  27.365  1.00  0.00     0.010 A 
ATOM     93  C   UNL A   1      52.528  28.762  28.116  1.00  0.00     0.020 A 
ATOM     94  C   UNL A   1      51.086  27.501  26.622  1.00  0.00     0.020 A 
ATOM     95  C   UNL A   1      52.353  27.964  26.983  1.00  0.00     0.054 A 
BRANCH  95  96
ATOM     96  S   UNL A   1      53.801  27.560  25.969  1.00  0.00     0.124 S 
ATOM     97  O   UNL A   1      53.222  27.460  24.632  1.00  0.00    -0.237 OA
ATOM     98  O   UNL A   1      54.677  28.708  26.192  1.00  0.00    -0.237 OA
ATOM     99  O   UNL A   1      54.280  26.302  26.537  1.00  0.00    -0.744 OA
ENDBRANCH  95  96
ENDBRANCH  69  90
ENDBRANCH  43  44
ENDBRANCH  36  38
ENDBRANCH  35  36
ENDBRANCH  34  35
ENDBRANCH  33  34
ENDBRANCH  32  33
ENDBRANCH  31  32
ENDBRANCH   1  31
TORSDOF 25
ENDMDL
