MODEL 1
REMARK VINA RESULT:     -11.9      0.000      0.000
REMARK SMILES CCC(=O)N1CCC[C@](C[C@H]2CC(c3ccc(C)cc3)=NO2)(C(=O)OCCOCCOCCOC(=O)c2ccc(-c3c4nc(c(-c5ccc(S(=O)(=O)[O-])cc5)c5ccc([nH]5)c(-c5ccc(S(=O)(=O)[O-])cc5)c5nc(c(-c6ccc(S(=O)(=O)[O-])cc6)c6ccc3[nH]6)C=C5)C=C4)cc2)C1
REMARK SMILES IDX 29 1 28 2 27 3 26 4 25 5 23 6 24 7 9 8 5 9 6 10 97 11 7 12
REMARK SMILES IDX 8 13 3 14 4 15 2 16 1 17 10 18 11 19 12 20 22 21 13 22 21 23
REMARK SMILES IDX 14 24 15 25 20 26 16 27 19 28 17 29 18 30 30 31 31 32 32 33
REMARK SMILES IDX 33 34 34 35 35 36 36 37 37 38 38 39 96 40 39 41 95 42 40 43
REMARK SMILES IDX 41 44 42 45 89 46 43 47 94 48 88 49 90 50 44 51 93 52 87 53
REMARK SMILES IDX 86 54 45 56 75 57 56 58 74 59 57 60 60 61 73 62 91 63 58 64
REMARK SMILES IDX 59 65 72 67 92 68 61 69 46 70 47 71 55 72 48 73 54 74 49 75
REMARK SMILES IDX 50 76 51 77 52 78 53 79 76 80 77 81 85 82 78 83 84 84 79 85
REMARK SMILES IDX 80 86 81 87 82 88 83 89 62 90 63 91 71 92 64 93 70 94 65 95
REMARK SMILES IDX 66 96 67 97 68 98 69 99
REMARK H PARENT 90 55 60 66
REMARK Flexibility Score: inf
ROOT
ATOM      1  C   UNL A   1      32.297  29.816  25.522  1.00  0.00     0.188 C 
ENDROOT
BRANCH   1   2
ATOM      2  O   UNL A   1      33.223  29.456  24.467  1.00  0.00    -0.376 OA
BRANCH   2   3
ATOM      3  C   UNL A   1      34.110  28.308  24.375  1.00  0.00     0.202 C 
BRANCH   3   4
ATOM      4  C   UNL A   1      33.996  26.652  24.987  1.00  0.00     0.261 C 
BRANCH   4   5
ATOM      5  O   UNL A   1      34.495  25.082  24.404  1.00  0.00    -0.463 OA
BRANCH   5   6
ATOM      6  C   UNL A   1      34.073  23.704  24.411  1.00  0.00     0.314 C 
ATOM      7  O   UNL A   1      33.730  23.069  23.411  1.00  0.00    -0.252 OA
BRANCH   6   8
ATOM      8  C   UNL A   1      33.598  22.904  25.653  1.00  0.00     0.089 C 
ATOM      9  N   UNL A   1      35.865  22.036  26.031  1.00  0.00    -0.342 N 
ATOM     10  C   UNL A   1      35.518  20.698  25.569  1.00  0.00     0.119 C 
ATOM     11  C   UNL A   1      34.721  22.713  26.697  1.00  0.00     0.138 C 
ATOM     12  C   UNL A   1      34.234  20.612  24.738  1.00  0.00     0.023 C 
ATOM     13  C   UNL A   1      33.107  21.554  25.143  1.00  0.00     0.022 C 
BRANCH   9  14
ATOM     14  C   UNL A   1      37.069  22.601  25.552  1.00  0.00     0.222 C 
ATOM     15  O   UNL A   1      37.836  21.941  24.838  1.00  0.00    -0.275 OA
BRANCH  14  16
ATOM     16  C   UNL A   1      37.526  23.991  26.021  1.00  0.00     0.097 C 
ATOM     17  C   UNL A   1      38.801  24.112  26.860  1.00  0.00     0.014 C 
ENDBRANCH  14  16
ENDBRANCH   9  14
BRANCH   8  18
ATOM     18  C   UNL A   1      32.248  23.797  26.086  1.00  0.00     0.069 C 
BRANCH  18  19
ATOM     19  C   UNL A   1      30.791  23.863  25.686  1.00  0.00     0.212 C 
ATOM     20  C   UNL A   1      30.154  25.216  25.656  1.00  0.00     0.108 C 
ATOM     21  O   UNL A   1      30.613  23.268  24.409  1.00  0.00    -0.392 OA
ATOM     22  C   UNL A   1      30.251  25.382  24.194  1.00  0.00     0.091 C 
ATOM     23  N   UNL A   1      30.480  24.317  23.497  1.00  0.00    -0.090 NA
BRANCH  22  24
ATOM     24  C   UNL A   1      29.976  26.657  23.568  1.00  0.00    -0.001 A 
ATOM     25  C   UNL A   1      30.960  27.380  22.903  1.00  0.00     0.010 A 
ATOM     26  C   UNL A   1      28.666  27.110  23.678  1.00  0.00     0.010 A 
ATOM     27  C   UNL A   1      30.608  28.588  22.314  1.00  0.00     0.004 A 
ATOM     28  C   UNL A   1      28.326  28.323  23.114  1.00  0.00     0.004 A 
ATOM     29  C   UNL A   1      29.293  29.064  22.423  1.00  0.00    -0.051 A 
ATOM     30  C   UNL A   1      28.899  30.381  21.836  1.00  0.00     0.044 C 
ENDBRANCH  22  24
ENDBRANCH  18  19
ENDBRANCH   8  18
ENDBRANCH   6   8
ENDBRANCH   5   6
ENDBRANCH   4   5
ENDBRANCH   3   4
ENDBRANCH   2   3
ENDBRANCH   1   2
BRANCH   1  31
ATOM     31  C   UNL A   1      32.683  30.002  26.985  1.00  0.00     0.188 C 
BRANCH  31  32
ATOM     32  O   UNL A   1      32.918  31.361  27.265  1.00  0.00    -0.376 OA
BRANCH  32  33
ATOM     33  C   UNL A   1      33.968  31.678  28.156  1.00  0.00     0.202 C 
BRANCH  33  34
ATOM     34  C   UNL A   1      35.175  32.479  27.606  1.00  0.00     0.261 C 
BRANCH  34  35
ATOM     35  O   UNL A   1      35.664  33.574  28.441  1.00  0.00    -0.460 OA
BRANCH  35  36
ATOM     36  C   UNL A   1      35.932  33.420  29.799  1.00  0.00     0.338 C 
ATOM     37  O   UNL A   1      35.226  33.917  30.649  1.00  0.00    -0.246 OA
BRANCH  36  38
ATOM     38  C   UNL A   1      36.918  32.327  30.071  1.00  0.00     0.060 A 
ATOM     39  C   UNL A   1      36.795  31.051  30.631  1.00  0.00     0.016 A 
ATOM     40  C   UNL A   1      38.155  32.610  29.648  1.00  0.00     0.016 A 
ATOM     41  C   UNL A   1      37.961  30.217  30.995  1.00  0.00     0.010 A 
ATOM     42  C   UNL A   1      39.218  31.883  30.159  1.00  0.00     0.010 A 
ATOM     43  C   UNL A   1      39.296  30.633  30.839  1.00  0.00    -0.014 A 
BRANCH  43  44
ATOM     44  C   UNL A   1      40.785  29.703  31.062  1.00  0.00     0.031 A 
ATOM     45  C   UNL A   1      41.417  28.174  30.435  1.00  0.00     0.074 A 
ATOM     46  C   UNL A   1      41.753  30.378  31.702  1.00  0.00     0.049 A 
ATOM     47  N   UNL A   1      42.642  27.693  30.557  1.00  0.00    -0.248 NA
ATOM     48  C   UNL A   1      40.791  27.164  29.543  1.00  0.00     0.031 C 
ATOM     49  C   UNL A   1      43.202  30.190  31.714  1.00  0.00     0.029 A 
ATOM     50  N   UNL A   1      41.567  31.396  32.629  1.00  0.00    -0.354 N 
ATOM     51  C   UNL A   1      42.837  26.595  29.661  1.00  0.00     0.074 A 
ATOM     52  C   UNL A   1      41.580  26.141  29.280  1.00  0.00     0.031 C 
ATOM     53  C   UNL A   1      43.682  30.757  32.837  1.00  0.00     0.029 A 
ATOM     54  C   UNL A   1      42.514  31.128  33.621  1.00  0.00     0.049 A 
ATOM     55  H   UNL A   1      40.917  32.135  32.596  1.00  0.00     0.167 HD
ATOM     56  C   UNL A   1      44.048  26.204  29.165  1.00  0.00     0.031 A 
ATOM     57  C   UNL A   1      42.057  30.491  34.740  1.00  0.00     0.031 A 
ATOM     58  C   UNL A   1      44.998  26.573  30.174  1.00  0.00     0.049 A 
ATOM     59  C   UNL A   1      42.704  29.113  34.910  1.00  0.00     0.074 A 
ATOM     60  C   UNL A   1      45.850  27.626  30.406  1.00  0.00     0.029 A 
ATOM     61  N   UNL A   1      44.697  26.033  31.405  1.00  0.00    -0.354 N 
ATOM     62  N   UNL A   1      43.459  28.499  34.027  1.00  0.00    -0.248 NA
ATOM     63  C   UNL A   1      42.571  28.331  36.129  1.00  0.00     0.031 C 
ATOM     64  C   UNL A   1      45.885  27.806  31.840  1.00  0.00     0.029 A 
ATOM     65  C   UNL A   1      45.132  26.807  32.448  1.00  0.00     0.049 A 
ATOM     66  H   UNL A   1      44.219  25.180  31.522  1.00  0.00     0.167 HD
ATOM     67  C   UNL A   1      43.875  27.277  34.495  1.00  0.00     0.074 A 
ATOM     68  C   UNL A   1      43.267  27.221  35.819  1.00  0.00     0.031 C 
ATOM     69  C   UNL A   1      44.660  26.400  33.776  1.00  0.00     0.031 A 
BRANCH  56  70
ATOM     70  C   UNL A   1      44.364  25.488  27.829  1.00  0.00    -0.014 A 
ATOM     71  C   UNL A   1      44.398  24.077  27.820  1.00  0.00     0.010 A 
ATOM     72  C   UNL A   1      44.787  26.084  26.610  1.00  0.00     0.010 A 
ATOM     73  C   UNL A   1      44.885  23.323  26.725  1.00  0.00     0.020 A 
ATOM     74  C   UNL A   1      45.277  25.343  25.501  1.00  0.00     0.020 A 
ATOM     75  C   UNL A   1      45.345  23.959  25.575  1.00  0.00     0.054 A 
BRANCH  75  76
ATOM     76  S   UNL A   1      46.072  22.965  24.231  1.00  0.00     0.124 S 
ATOM     77  O   UNL A   1      47.106  23.854  23.703  1.00  0.00    -0.237 OA
ATOM     78  O   UNL A   1      46.562  21.785  24.936  1.00  0.00    -0.237 OA
ATOM     79  O   UNL A   1      44.952  22.724  23.324  1.00  0.00    -0.744 OA
ENDBRANCH  75  76
ENDBRANCH  56  70
BRANCH  57  80
ATOM     80  C   UNL A   1      40.661  30.977  35.136  1.00  0.00    -0.014 A 
ATOM     81  C   UNL A   1      40.548  32.336  35.554  1.00  0.00     0.010 A 
ATOM     82  C   UNL A   1      39.461  30.340  34.768  1.00  0.00     0.010 A 
ATOM     83  C   UNL A   1      39.351  33.064  35.452  1.00  0.00     0.020 A 
ATOM     84  C   UNL A   1      38.228  31.055  34.740  1.00  0.00     0.020 A 
ATOM     85  C   UNL A   1      38.198  32.429  35.011  1.00  0.00     0.054 A 
BRANCH  85  86
ATOM     86  S   UNL A   1      36.743  33.476  34.635  1.00  0.00     0.124 S 
ATOM     87  O   UNL A   1      37.354  34.723  34.187  1.00  0.00    -0.237 OA
ATOM     88  O   UNL A   1      36.062  32.712  33.589  1.00  0.00    -0.237 OA
ATOM     89  O   UNL A   1      36.038  33.558  35.912  1.00  0.00    -0.744 OA
ENDBRANCH  85  86
ENDBRANCH  57  80
BRANCH  69  90
ATOM     90  C   UNL A   1      44.950  24.960  34.226  1.00  0.00    -0.014 A 
ATOM     91  C   UNL A   1      44.016  23.928  34.107  1.00  0.00     0.010 A 
ATOM     92  C   UNL A   1      46.175  24.597  34.854  1.00  0.00     0.010 A 
ATOM     93  C   UNL A   1      44.325  22.607  34.474  1.00  0.00     0.020 A 
ATOM     94  C   UNL A   1      46.497  23.295  35.236  1.00  0.00     0.020 A 
ATOM     95  C   UNL A   1      45.567  22.299  35.030  1.00  0.00     0.054 A 
BRANCH  95  96
ATOM     96  S   UNL A   1      45.905  20.615  35.581  1.00  0.00     0.124 S 
ATOM     97  O   UNL A   1      45.899  20.763  37.033  1.00  0.00    -0.237 OA
ATOM     98  O   UNL A   1      44.782  19.875  35.016  1.00  0.00    -0.237 OA
ATOM     99  O   UNL A   1      47.211  20.310  34.996  1.00  0.00    -0.744 OA
ENDBRANCH  95  96
ENDBRANCH  69  90
ENDBRANCH  43  44
ENDBRANCH  36  38
ENDBRANCH  35  36
ENDBRANCH  34  35
ENDBRANCH  33  34
ENDBRANCH  32  33
ENDBRANCH  31  32
ENDBRANCH   1  31
TORSDOF 25
ENDMDL
MODEL 2
REMARK VINA RESULT:     -11.3      1.952      5.019
REMARK SMILES CCC(=O)N1CCC[C@](C[C@H]2CC(c3ccc(C)cc3)=NO2)(C(=O)OCCOCCOCCOC(=O)c2ccc(-c3c4nc(c(-c5ccc(S(=O)(=O)[O-])cc5)c5ccc([nH]5)c(-c5ccc(S(=O)(=O)[O-])cc5)c5nc(c(-c6ccc(S(=O)(=O)[O-])cc6)c6ccc3[nH]6)C=C5)C=C4)cc2)C1
REMARK SMILES IDX 29 1 28 2 27 3 26 4 25 5 23 6 24 7 9 8 5 9 6 10 97 11 7 12
REMARK SMILES IDX 8 13 3 14 4 15 2 16 1 17 10 18 11 19 12 20 22 21 13 22 21 23
REMARK SMILES IDX 14 24 15 25 20 26 16 27 19 28 17 29 18 30 30 31 31 32 32 33
REMARK SMILES IDX 33 34 34 35 35 36 36 37 37 38 38 39 96 40 39 41 95 42 40 43
REMARK SMILES IDX 41 44 42 45 89 46 43 47 94 48 88 49 90 50 44 51 93 52 87 53
REMARK SMILES IDX 86 54 45 56 75 57 56 58 74 59 57 60 60 61 73 62 91 63 58 64
REMARK SMILES IDX 59 65 72 67 92 68 61 69 46 70 47 71 55 72 48 73 54 74 49 75
REMARK SMILES IDX 50 76 51 77 52 78 53 79 76 80 77 81 85 82 78 83 84 84 79 85
REMARK SMILES IDX 80 86 81 87 82 88 83 89 62 90 63 91 71 92 64 93 70 94 65 95
REMARK SMILES IDX 66 96 67 97 68 98 69 99
REMARK H PARENT 90 55 60 66
REMARK Flexibility Score: inf
ROOT
ATOM      1  C   UNL A   1      31.615  27.440  22.720  1.00  0.00     0.188 C 
ENDROOT
BRANCH   1   2
ATOM      2  O   UNL A   1      30.665  26.451  23.187  1.00  0.00    -0.376 OA
BRANCH   2   3
ATOM      3  C   UNL A   1      30.252  26.145  24.547  1.00  0.00     0.202 C 
BRANCH   3   4
ATOM      4  C   UNL A   1      30.769  24.917  25.710  1.00  0.00     0.261 C 
BRANCH   4   5
ATOM      5  O   UNL A   1      31.999  23.675  25.732  1.00  0.00    -0.463 OA
BRANCH   5   6
ATOM      6  C   UNL A   1      33.372  23.458  25.351  1.00  0.00     0.314 C 
ATOM      7  O   UNL A   1      33.786  23.452  24.190  1.00  0.00    -0.252 OA
BRANCH   6   8
ATOM      8  C   UNL A   1      34.473  22.819  26.239  1.00  0.00     0.089 C 
ATOM      9  N   UNL A   1      33.546  20.574  25.869  1.00  0.00    -0.342 N 
ATOM     10  C   UNL A   1      33.007  20.485  27.221  1.00  0.00     0.119 C 
ATOM     11  C   UNL A   1      34.801  21.369  25.818  1.00  0.00     0.138 C 
ATOM     12  C   UNL A   1      32.872  21.823  27.954  1.00  0.00     0.023 C 
ATOM     13  C   UNL A   1      33.956  22.856  27.673  1.00  0.00     0.022 C 
BRANCH   9  14
ATOM     14  C   UNL A   1      32.706  20.180  24.803  1.00  0.00     0.222 C 
ATOM     15  O   UNL A   1      31.797  20.923  24.408  1.00  0.00    -0.275 OA
BRANCH  14  16
ATOM     16  C   UNL A   1      32.803  18.768  24.206  1.00  0.00     0.097 C 
ATOM     17  C   UNL A   1      34.153  18.045  24.217  1.00  0.00     0.014 C 
ENDBRANCH  14  16
ENDBRANCH   9  14
BRANCH   8  18
ATOM     18  C   UNL A   1      35.674  23.981  26.109  1.00  0.00     0.069 C 
BRANCH  18  19
ATOM     19  C   UNL A   1      36.981  24.141  25.366  1.00  0.00     0.212 C 
ATOM     20  C   UNL A   1      38.234  23.812  26.115  1.00  0.00     0.108 C 
ATOM     21  O   UNL A   1      36.963  23.358  24.181  1.00  0.00    -0.392 OA
ATOM     22  C   UNL A   1      38.406  22.475  25.518  1.00  0.00     0.091 C 
ATOM     23  N   UNL A   1      37.731  22.222  24.443  1.00  0.00    -0.090 NA
BRANCH  22  24
ATOM     24  C   UNL A   1      39.379  21.543  26.043  1.00  0.00    -0.001 A 
ATOM     25  C   UNL A   1      39.517  20.255  25.537  1.00  0.00     0.010 A 
ATOM     26  C   UNL A   1      40.166  22.020  27.086  1.00  0.00     0.010 A 
ATOM     27  C   UNL A   1      40.489  19.429  26.087  1.00  0.00     0.004 A 
ATOM     28  C   UNL A   1      41.114  21.187  27.646  1.00  0.00     0.004 A 
ATOM     29  C   UNL A   1      41.285  19.891  27.145  1.00  0.00    -0.051 A 
ATOM     30  C   UNL A   1      42.308  19.008  27.783  1.00  0.00     0.044 C 
ENDBRANCH  22  24
ENDBRANCH  18  19
ENDBRANCH   8  18
ENDBRANCH   6   8
ENDBRANCH   5   6
ENDBRANCH   4   5
ENDBRANCH   3   4
ENDBRANCH   2   3
ENDBRANCH   1   2
BRANCH   1  31
ATOM     31  C   UNL A   1      31.834  28.803  23.368  1.00  0.00     0.188 C 
BRANCH  31  32
ATOM     32  O   UNL A   1      32.179  28.655  24.725  1.00  0.00    -0.376 OA
BRANCH  32  33
ATOM     33  C   UNL A   1      31.963  29.756  25.583  1.00  0.00     0.202 C 
BRANCH  33  34
ATOM     34  C   UNL A   1      33.136  30.218  26.485  1.00  0.00     0.261 C 
BRANCH  34  35
ATOM     35  O   UNL A   1      32.939  31.466  27.220  1.00  0.00    -0.460 OA
BRANCH  35  36
ATOM     36  C   UNL A   1      33.991  32.167  27.804  1.00  0.00     0.338 C 
ATOM     37  O   UNL A   1      33.868  33.313  28.174  1.00  0.00    -0.246 OA
BRANCH  36  38
ATOM     38  C   UNL A   1      35.111  31.270  28.234  1.00  0.00     0.060 A 
ATOM     39  C   UNL A   1      35.162  30.133  29.046  1.00  0.00     0.016 A 
ATOM     40  C   UNL A   1      36.290  31.596  27.691  1.00  0.00     0.016 A 
ATOM     41  C   UNL A   1      36.432  29.527  29.503  1.00  0.00     0.010 A 
ATOM     42  C   UNL A   1      37.450  31.114  28.276  1.00  0.00     0.010 A 
ATOM     43  C   UNL A   1      37.701  30.048  29.189  1.00  0.00    -0.014 A 
BRANCH  43  44
ATOM     44  C   UNL A   1      39.299  29.356  29.509  1.00  0.00     0.031 A 
ATOM     45  C   UNL A   1      40.063  27.783  29.242  1.00  0.00     0.074 A 
ATOM     46  C   UNL A   1      40.220  30.266  29.863  1.00  0.00     0.049 A 
ATOM     47  N   UNL A   1      41.340  27.470  29.373  1.00  0.00    -0.248 NA
ATOM     48  C   UNL A   1      39.502  26.518  28.700  1.00  0.00     0.031 C 
ATOM     49  C   UNL A   1      41.679  30.226  29.793  1.00  0.00     0.029 A 
ATOM     50  N   UNL A   1      39.975  31.471  30.510  1.00  0.00    -0.354 N 
ATOM     51  C   UNL A   1      41.605  26.197  28.776  1.00  0.00     0.074 A 
ATOM     52  C   UNL A   1      40.386  25.541  28.640  1.00  0.00     0.031 C 
ATOM     53  C   UNL A   1      42.159  31.114  30.684  1.00  0.00     0.029 A 
ATOM     54  C   UNL A   1      41.007  31.568  31.448  1.00  0.00     0.049 A 
ATOM     55  H   UNL A   1      39.244  32.110  30.346  1.00  0.00     0.167 HD
ATOM     56  C   UNL A   1      42.819  25.806  28.291  1.00  0.00     0.031 A 
ATOM     57  C   UNL A   1      40.697  31.211  32.729  1.00  0.00     0.031 A 
ATOM     58  C   UNL A   1      43.781  26.518  29.081  1.00  0.00     0.049 A 
ATOM     59  C   UNL A   1      41.508  29.996  33.190  1.00  0.00     0.074 A 
ATOM     60  C   UNL A   1      44.519  27.671  28.955  1.00  0.00     0.029 A 
ATOM     61  N   UNL A   1      43.621  26.298  30.431  1.00  0.00    -0.354 N 
ATOM     62  N   UNL A   1      42.272  29.243  32.430  1.00  0.00    -0.248 NA
ATOM     63  C   UNL A   1      41.542  29.556  34.576  1.00  0.00     0.031 C 
ATOM     64  C   UNL A   1      44.621  28.227  30.286  1.00  0.00     0.029 A 
ATOM     65  C   UNL A   1      44.027  27.360  31.196  1.00  0.00     0.049 A 
ATOM     66  H   UNL A   1      43.253  25.465  30.807  1.00  0.00     0.167 HD
ATOM     67  C   UNL A   1      42.855  28.235  33.158  1.00  0.00     0.074 A 
ATOM     68  C   UNL A   1      42.341  28.475  34.501  1.00  0.00     0.031 C 
ATOM     69  C   UNL A   1      43.689  27.277  32.621  1.00  0.00     0.031 A 
BRANCH  56  70
ATOM     70  C   UNL A   1      43.132  24.794  27.161  1.00  0.00    -0.014 A 
ATOM     71  C   UNL A   1      43.726  23.563  27.514  1.00  0.00     0.010 A 
ATOM     72  C   UNL A   1      43.037  25.009  25.759  1.00  0.00     0.010 A 
ATOM     73  C   UNL A   1      44.254  22.659  26.561  1.00  0.00     0.020 A 
ATOM     74  C   UNL A   1      43.560  24.112  24.789  1.00  0.00     0.020 A 
ATOM     75  C   UNL A   1      44.190  22.946  25.199  1.00  0.00     0.054 A 
BRANCH  75  76
ATOM     76  S   UNL A   1      44.982  21.817  24.007  1.00  0.00     0.124 S 
ATOM     77  O   UNL A   1      44.597  20.501  24.513  1.00  0.00    -0.237 OA
ATOM     78  O   UNL A   1      44.366  22.206  22.742  1.00  0.00    -0.237 OA
ATOM     79  O   UNL A   1      46.406  22.124  24.123  1.00  0.00    -0.744 OA
ENDBRANCH  75  76
ENDBRANCH  56  70
BRANCH  57  80
ATOM     80  C   UNL A   1      39.281  31.650  33.111  1.00  0.00    -0.014 A 
ATOM     81  C   UNL A   1      39.055  33.052  33.235  1.00  0.00     0.010 A 
ATOM     82  C   UNL A   1      38.134  30.846  32.975  1.00  0.00     0.010 A 
ATOM     83  C   UNL A   1      37.787  33.634  33.066  1.00  0.00     0.020 A 
ATOM     84  C   UNL A   1      36.836  31.428  32.883  1.00  0.00     0.020 A 
ATOM     85  C   UNL A   1      36.682  32.821  32.855  1.00  0.00     0.054 A 
BRANCH  85  86
ATOM     86  S   UNL A   1      35.114  33.630  32.369  1.00  0.00     0.124 S 
ATOM     87  O   UNL A   1      35.406  34.114  31.024  1.00  0.00    -0.237 OA
ATOM     88  O   UNL A   1      34.153  32.527  32.432  1.00  0.00    -0.237 OA
ATOM     89  O   UNL A   1      34.937  34.674  33.375  1.00  0.00    -0.744 OA
ENDBRANCH  85  86
ENDBRANCH  57  80
BRANCH  69  90
ATOM     90  C   UNL A   1      44.170  26.042  33.399  1.00  0.00    -0.014 A 
ATOM     91  C   UNL A   1      44.245  24.770  32.827  1.00  0.00     0.010 A 
ATOM     92  C   UNL A   1      44.515  26.106  34.779  1.00  0.00     0.010 A 
ATOM     93  C   UNL A   1      44.742  23.667  33.542  1.00  0.00     0.020 A 
ATOM     94  C   UNL A   1      45.000  25.022  35.511  1.00  0.00     0.020 A 
ATOM     95  C   UNL A   1      45.122  23.803  34.878  1.00  0.00     0.054 A 
BRANCH  95  96
ATOM     96  S   UNL A   1      45.667  22.354  35.803  1.00  0.00     0.124 S 
ATOM     97  O   UNL A   1      47.097  22.329  35.516  1.00  0.00    -0.237 OA
ATOM     98  O   UNL A   1      45.302  22.707  37.171  1.00  0.00    -0.237 OA
ATOM     99  O   UNL A   1      44.899  21.254  35.218  1.00  0.00    -0.744 OA
ENDBRANCH  95  96
ENDBRANCH  69  90
ENDBRANCH  43  44
ENDBRANCH  36  38
ENDBRANCH  35  36
ENDBRANCH  34  35
ENDBRANCH  33  34
ENDBRANCH  32  33
ENDBRANCH  31  32
ENDBRANCH   1  31
TORSDOF 25
ENDMDL
MODEL 3
REMARK VINA RESULT:      -9.7      5.203     11.594
REMARK SMILES CCC(=O)N1CCC[C@](C[C@H]2CC(c3ccc(C)cc3)=NO2)(C(=O)OCCOCCOCCOC(=O)c2ccc(-c3c4nc(c(-c5ccc(S(=O)(=O)[O-])cc5)c5ccc([nH]5)c(-c5ccc(S(=O)(=O)[O-])cc5)c5nc(c(-c6ccc(S(=O)(=O)[O-])cc6)c6ccc3[nH]6)C=C5)C=C4)cc2)C1
REMARK SMILES IDX 29 1 28 2 27 3 26 4 25 5 23 6 24 7 9 8 5 9 6 10 97 11 7 12
REMARK SMILES IDX 8 13 3 14 4 15 2 16 1 17 10 18 11 19 12 20 22 21 13 22 21 23
REMARK SMILES IDX 14 24 15 25 20 26 16 27 19 28 17 29 18 30 30 31 31 32 32 33
REMARK SMILES IDX 33 34 34 35 35 36 36 37 37 38 38 39 96 40 39 41 95 42 40 43
REMARK SMILES IDX 41 44 42 45 89 46 43 47 94 48 88 49 90 50 44 51 93 52 87 53
REMARK SMILES IDX 86 54 45 56 75 57 56 58 74 59 57 60 60 61 73 62 91 63 58 64
REMARK SMILES IDX 59 65 72 67 92 68 61 69 46 70 47 71 55 72 48 73 54 74 49 75
REMARK SMILES IDX 50 76 51 77 52 78 53 79 76 80 77 81 85 82 78 83 84 84 79 85
REMARK SMILES IDX 80 86 81 87 82 88 83 89 62 90 63 91 71 92 64 93 70 94 65 95
REMARK SMILES IDX 66 96 67 97 68 98 69 99
REMARK H PARENT 90 55 60 66
REMARK Flexibility Score: inf
ROOT
ATOM      1  C   UNL A   1      38.471  23.990  26.838  1.00  0.00     0.188 C 
ENDROOT
BRANCH   1   2
ATOM      2  O   UNL A   1      37.488  24.223  25.799  1.00  0.00    -0.376 OA
BRANCH   2   3
ATOM      3  C   UNL A   1      36.189  23.599  25.607  1.00  0.00     0.202 C 
BRANCH   3   4
ATOM      4  C   UNL A   1      34.554  24.057  26.099  1.00  0.00     0.261 C 
BRANCH   4   5
ATOM      5  O   UNL A   1      33.660  25.558  26.173  1.00  0.00    -0.463 OA
BRANCH   5   6
ATOM      6  C   UNL A   1      32.638  26.283  25.462  1.00  0.00     0.314 C 
ATOM      7  O   UNL A   1      31.427  26.162  25.657  1.00  0.00    -0.252 OA
BRANCH   6   8
ATOM      8  C   UNL A   1      32.818  27.016  24.106  1.00  0.00     0.089 C 
ATOM      9  N   UNL A   1      33.322  29.130  25.250  1.00  0.00    -0.342 N 
ATOM     10  C   UNL A   1      32.032  29.717  24.908  1.00  0.00     0.119 C 
ATOM     11  C   UNL A   1      33.809  28.197  24.200  1.00  0.00     0.138 C 
ATOM     12  C   UNL A   1      30.956  28.714  24.484  1.00  0.00     0.023 C 
ATOM     13  C   UNL A   1      31.437  27.508  23.687  1.00  0.00     0.022 C 
BRANCH   9  14
ATOM     14  C   UNL A   1      33.774  29.274  26.582  1.00  0.00     0.222 C 
ATOM     15  O   UNL A   1      34.581  28.469  27.066  1.00  0.00    -0.275 OA
BRANCH  14  16
ATOM     16  C   UNL A   1      33.167  30.341  27.506  1.00  0.00     0.097 C 
ATOM     17  C   UNL A   1      33.630  31.795  27.370  1.00  0.00     0.014 C 
ENDBRANCH  14  16
ENDBRANCH   9  14
BRANCH   8  18
ATOM     18  C   UNL A   1      33.209  25.721  23.116  1.00  0.00     0.069 C 
BRANCH  18  19
ATOM     19  C   UNL A   1      32.469  24.737  22.238  1.00  0.00     0.212 C 
ATOM     20  C   UNL A   1      33.122  23.412  22.001  1.00  0.00     0.108 C 
ATOM     21  O   UNL A   1      31.173  24.497  22.768  1.00  0.00    -0.392 OA
ATOM     22  C   UNL A   1      32.310  22.679  22.990  1.00  0.00     0.091 C 
ATOM     23  N   UNL A   1      31.226  23.254  23.401  1.00  0.00    -0.090 NA
BRANCH  22  24
ATOM     24  C   UNL A   1      32.650  21.329  23.380  1.00  0.00    -0.001 A 
ATOM     25  C   UNL A   1      33.492  21.060  24.454  1.00  0.00     0.010 A 
ATOM     26  C   UNL A   1      32.081  20.319  22.610  1.00  0.00     0.010 A 
ATOM     27  C   UNL A   1      33.754  19.733  24.773  1.00  0.00     0.004 A 
ATOM     28  C   UNL A   1      32.364  19.003  22.915  1.00  0.00     0.004 A 
ATOM     29  C   UNL A   1      33.195  18.703  24.002  1.00  0.00    -0.051 A 
ATOM     30  C   UNL A   1      33.496  17.270  24.296  1.00  0.00     0.044 C 
ENDBRANCH  22  24
ENDBRANCH  18  19
ENDBRANCH   8  18
ENDBRANCH   6   8
ENDBRANCH   5   6
ENDBRANCH   4   5
ENDBRANCH   3   4
ENDBRANCH   2   3
ENDBRANCH   1   2
BRANCH   1  31
ATOM     31  C   UNL A   1      39.869  24.599  26.859  1.00  0.00     0.188 C 
BRANCH  31  32
ATOM     32  O   UNL A   1      39.798  25.993  27.034  1.00  0.00    -0.376 OA
BRANCH  32  33
ATOM     33  C   UNL A   1      39.624  26.484  28.348  1.00  0.00     0.202 C 
BRANCH  33  34
ATOM     34  C   UNL A   1      38.975  27.880  28.524  1.00  0.00     0.261 C 
BRANCH  34  35
ATOM     35  O   UNL A   1      38.196  28.086  29.744  1.00  0.00    -0.460 OA
BRANCH  35  36
ATOM     36  C   UNL A   1      37.419  29.223  29.954  1.00  0.00     0.338 C 
ATOM     37  O   UNL A   1      36.284  29.306  29.539  1.00  0.00    -0.246 OA
BRANCH  36  38
ATOM     38  C   UNL A   1      37.987  30.121  31.009  1.00  0.00     0.060 A 
ATOM     39  C   UNL A   1      38.898  31.181  30.967  1.00  0.00     0.016 A 
ATOM     40  C   UNL A   1      37.484  29.893  32.227  1.00  0.00     0.016 A 
ATOM     41  C   UNL A   1      39.476  31.794  32.183  1.00  0.00     0.010 A 
ATOM     42  C   UNL A   1      38.172  30.366  33.333  1.00  0.00     0.010 A 
ATOM     43  C   UNL A   1      39.188  31.355  33.488  1.00  0.00    -0.014 A 
BRANCH  43  44
ATOM     44  C   UNL A   1      39.656  32.078  35.035  1.00  0.00     0.031 A 
ATOM     45  C   UNL A   1      38.790  32.825  36.385  1.00  0.00     0.074 A 
ATOM     46  C   UNL A   1      40.936  31.853  35.371  1.00  0.00     0.049 A 
ATOM     47  N   UNL A   1      39.271  33.160  37.569  1.00  0.00    -0.248 NA
ATOM     48  C   UNL A   1      37.345  33.123  36.557  1.00  0.00     0.031 C 
ATOM     49  C   UNL A   1      41.599  31.870  36.673  1.00  0.00     0.029 A 
ATOM     50  N   UNL A   1      41.991  31.648  34.490  1.00  0.00    -0.354 N 
ATOM     51  C   UNL A   1      38.203  33.446  38.477  1.00  0.00     0.074 A 
ATOM     52  C   UNL A   1      37.064  33.685  37.717  1.00  0.00     0.031 C 
ATOM     53  C   UNL A   1      42.914  32.075  36.464  1.00  0.00     0.029 A 
ATOM     54  C   UNL A   1      43.044  32.380  35.047  1.00  0.00     0.049 A 
ATOM     55  H   UNL A   1      41.996  31.112  33.665  1.00  0.00     0.167 HD
ATOM     56  C   UNL A   1      38.287  33.331  39.835  1.00  0.00     0.031 A 
ATOM     57  C   UNL A   1      43.280  33.610  34.504  1.00  0.00     0.031 A 
ATOM     58  C   UNL A   1      39.667  33.575  40.143  1.00  0.00     0.049 A 
ATOM     59  C   UNL A   1      43.056  34.731  35.525  1.00  0.00     0.074 A 
ATOM     60  C   UNL A   1      40.786  32.814  40.381  1.00  0.00     0.029 A 
ATOM     61  N   UNL A   1      40.109  34.785  39.656  1.00  0.00    -0.354 N 
ATOM     62  N   UNL A   1      42.523  34.594  36.719  1.00  0.00    -0.248 NA
ATOM     63  C   UNL A   1      43.458  36.107  35.279  1.00  0.00     0.031 C 
ATOM     64  C   UNL A   1      41.899  33.556  39.830  1.00  0.00     0.029 A 
ATOM     65  C   UNL A   1      41.446  34.782  39.356  1.00  0.00     0.049 A 
ATOM     66  H   UNL A   1      39.526  35.569  39.535  1.00  0.00     0.167 HD
ATOM     67  C   UNL A   1      42.466  35.798  37.377  1.00  0.00     0.074 A 
ATOM     68  C   UNL A   1      43.054  36.716  36.409  1.00  0.00     0.031 C 
ATOM     69  C   UNL A   1      41.935  35.965  38.638  1.00  0.00     0.031 A 
BRANCH  56  70
ATOM     70  C   UNL A   1      37.161  33.035  40.856  1.00  0.00    -0.014 A 
ATOM     71  C   UNL A   1      37.138  33.776  42.057  1.00  0.00     0.010 A 
ATOM     72  C   UNL A   1      36.209  31.981  40.809  1.00  0.00     0.010 A 
ATOM     73  C   UNL A   1      36.299  33.450  43.150  1.00  0.00     0.020 A 
ATOM     74  C   UNL A   1      35.358  31.641  41.896  1.00  0.00     0.020 A 
ATOM     75  C   UNL A   1      35.426  32.368  43.076  1.00  0.00     0.054 A 
BRANCH  75  76
ATOM     76  S   UNL A   1      34.445  31.905  44.540  1.00  0.00     0.124 S 
ATOM     77  O   UNL A   1      34.482  30.445  44.498  1.00  0.00    -0.237 OA
ATOM     78  O   UNL A   1      35.194  32.519  45.633  1.00  0.00    -0.237 OA
ATOM     79  O   UNL A   1      33.131  32.491  44.284  1.00  0.00    -0.744 OA
ENDBRANCH  75  76
ENDBRANCH  56  70
BRANCH  57  80
ATOM     80  C   UNL A   1      43.077  33.608  32.988  1.00  0.00    -0.014 A 
ATOM     81  C   UNL A   1      41.922  34.283  32.494  1.00  0.00     0.010 A 
ATOM     82  C   UNL A   1      44.090  33.343  32.048  1.00  0.00     0.010 A 
ATOM     83  C   UNL A   1      41.851  34.811  31.193  1.00  0.00     0.020 A 
ATOM     84  C   UNL A   1      43.986  33.808  30.704  1.00  0.00     0.020 A 
ATOM     85  C   UNL A   1      42.901  34.602  30.309  1.00  0.00     0.054 A 
BRANCH  85  86
ATOM     86  S   UNL A   1      42.883  35.534  28.734  1.00  0.00     0.124 S 
ATOM     87  O   UNL A   1      43.629  36.743  29.070  1.00  0.00    -0.237 OA
ATOM     88  O   UNL A   1      43.568  34.623  27.816  1.00  0.00    -0.237 OA
ATOM     89  O   UNL A   1      41.461  35.740  28.470  1.00  0.00    -0.744 OA
ENDBRANCH  85  86
ENDBRANCH  57  80
BRANCH  69  90
ATOM     90  C   UNL A   1      41.692  37.340  39.279  1.00  0.00    -0.014 A 
ATOM     91  C   UNL A   1      42.731  38.211  39.617  1.00  0.00     0.010 A 
ATOM     92  C   UNL A   1      40.387  37.791  39.628  1.00  0.00     0.010 A 
ATOM     93  C   UNL A   1      42.481  39.486  40.150  1.00  0.00     0.020 A 
ATOM     94  C   UNL A   1      40.118  39.048  40.168  1.00  0.00     0.020 A 
ATOM     95  C   UNL A   1      41.174  39.899  40.416  1.00  0.00     0.054 A 
BRANCH  95  96
ATOM     96  S   UNL A   1      40.884  41.502  41.188  1.00  0.00     0.124 S 
ATOM     97  O   UNL A   1      39.474  41.413  41.554  1.00  0.00    -0.237 OA
ATOM     98  O   UNL A   1      41.828  41.484  42.301  1.00  0.00    -0.237 OA
ATOM     99  O   UNL A   1      41.188  42.464  40.129  1.00  0.00    -0.744 OA
ENDBRANCH  95  96
ENDBRANCH  69  90
ENDBRANCH  43  44
ENDBRANCH  36  38
ENDBRANCH  35  36
ENDBRANCH  34  35
ENDBRANCH  33  34
ENDBRANCH  32  33
ENDBRANCH  31  32
ENDBRANCH   1  31
TORSDOF 25
ENDMDL
