MODEL 1
REMARK VINA RESULT:      -7.5      0.000      0.000
REMARK SMILES CC[C@@](C)([NH2+]CCC(=O)NC(C)C)C(=O)OCCOCCOCCOC(=O)c1ccc(-c2c3nc(c(-c4ccc(S(=O)(=O)[O-])cc4)c4ccc([nH]4)c(-c4ccc(S(=O)(=O)[O-])cc4)c4nc(c(-c5ccc(S(=O)(=O)[O-])cc5)c5ccc2[nH]5)C=C4)C=C3)cc1
REMARK SMILES IDX 20 1 19 2 18 3 17 4 16 5 14 6 15 7 3 8 4 9 2 10 1 11 5 12
REMARK SMILES IDX 6 15 7 16 8 17 9 18 10 19 11 21 12 22 13 23 21 24 22 25
REMARK SMILES IDX 23 26 24 27 25 28 26 29 27 30 28 31 29 32 87 33 30 34 86 35
REMARK SMILES IDX 31 36 32 37 33 38 80 39 34 40 85 41 79 42 81 43 35 44 84 45
REMARK SMILES IDX 78 46 77 47 36 49 66 50 47 51 65 52 48 53 51 54 64 55 82 56
REMARK SMILES IDX 49 57 50 58 63 60 83 61 52 62 37 63 38 64 46 65 39 66 45 67
REMARK SMILES IDX 40 68 41 69 42 70 43 71 44 72 67 73 68 74 76 75 69 76 75 77
REMARK SMILES IDX 70 78 71 79 72 80 73 81 74 82 53 83 54 84 62 85 55 86 61 87
REMARK SMILES IDX 56 88 57 89 58 90 59 91 60 92
REMARK H PARENT 5 13 5 14 10 20 81 48 51 59
REMARK Flexibility Score: inf
ROOT
ATOM      1  C   UNL A   1      31.082  29.941  24.935  1.00  0.00     0.188 C 
ENDROOT
BRANCH   1   2
ATOM      2  O   UNL A   1      30.378  29.310  23.878  1.00  0.00    -0.376 OA
BRANCH   2   3
ATOM      3  C   UNL A   1      30.738  27.956  23.630  1.00  0.00     0.202 C 
BRANCH   3   4
ATOM      4  C   UNL A   1      29.724  26.911  24.110  1.00  0.00     0.261 C 
BRANCH   4   5
ATOM      5  O   UNL A   1      30.226  25.564  24.108  1.00  0.00    -0.459 OA
BRANCH   5   6
ATOM      6  C   UNL A   1      30.739  25.083  25.269  1.00  0.00     0.367 C 
ATOM      7  O   UNL A   1      30.282  25.369  26.370  1.00  0.00    -0.245 OA
BRANCH   6   8
ATOM      8  C   UNL A   1      31.966  24.138  25.054  1.00  0.00     0.191 C 
ATOM      9  C   UNL A   1      32.023  23.842  23.553  1.00  0.00     0.092 C 
BRANCH   8  10
ATOM     10  C   UNL A   1      33.259  24.858  25.554  1.00  0.00     0.077 C 
ATOM     11  C   UNL A   1      33.794  26.018  24.726  1.00  0.00     0.011 C 
ENDBRANCH   8  10
BRANCH   8  12
ATOM     12  N   UNL A   1      31.906  22.912  25.885  1.00  0.00    -0.332 N 
ATOM     13  H   UNL A   1      30.945  22.870  26.225  1.00  0.00     0.347 HD
ATOM     14  H   UNL A   1      32.708  23.082  26.491  1.00  0.00     0.347 HD
BRANCH  12  15
ATOM     15  C   UNL A   1      32.212  21.564  25.457  1.00  0.00     0.271 C 
BRANCH  15  16
ATOM     16  C   UNL A   1      33.640  21.035  25.614  1.00  0.00     0.161 C 
BRANCH  16  17
ATOM     17  C   UNL A   1      34.546  21.615  26.690  1.00  0.00     0.225 C 
ATOM     18  O   UNL A   1      34.148  21.700  27.856  1.00  0.00    -0.275 OA
ATOM     19  N   UNL A   1      35.849  21.937  26.450  1.00  0.00    -0.354 N 
ATOM     20  H   UNL A   1      36.410  22.023  27.255  1.00  0.00     0.163 HD
BRANCH  19  21
ATOM     21  C   UNL A   1      36.535  22.173  25.194  1.00  0.00     0.075 C 
ATOM     22  C   UNL A   1      36.913  23.647  25.086  1.00  0.00     0.030 C 
ATOM     23  C   UNL A   1      37.740  21.266  24.993  1.00  0.00     0.030 C 
ENDBRANCH  19  21
ENDBRANCH  16  17
ENDBRANCH  15  16
ENDBRANCH  12  15
ENDBRANCH   8  12
ENDBRANCH   6   8
ENDBRANCH   5   6
ENDBRANCH   4   5
ENDBRANCH   3   4
ENDBRANCH   2   3
ENDBRANCH   1   2
BRANCH   1  24
ATOM     24  C   UNL A   1      32.544  29.479  25.085  1.00  0.00     0.188 C 
BRANCH  24  25
ATOM     25  O   UNL A   1      33.402  30.065  26.051  1.00  0.00    -0.376 OA
BRANCH  25  26
ATOM     26  C   UNL A   1      32.822  30.578  27.239  1.00  0.00     0.202 C 
BRANCH  26  27
ATOM     27  C   UNL A   1      32.964  32.078  27.543  1.00  0.00     0.261 C 
BRANCH  27  28
ATOM     28  O   UNL A   1      34.311  32.535  27.768  1.00  0.00    -0.460 OA
BRANCH  28  29
ATOM     29  C   UNL A   1      34.507  33.218  28.927  1.00  0.00     0.338 C 
ATOM     30  O   UNL A   1      33.659  33.761  29.612  1.00  0.00    -0.246 OA
BRANCH  29  31
ATOM     31  C   UNL A   1      35.906  33.046  29.383  1.00  0.00     0.060 A 
ATOM     32  C   UNL A   1      36.359  33.845  30.444  1.00  0.00     0.016 A 
ATOM     33  C   UNL A   1      36.777  32.158  28.752  1.00  0.00     0.016 A 
ATOM     34  C   UNL A   1      37.686  33.768  30.872  1.00  0.00     0.010 A 
ATOM     35  C   UNL A   1      38.117  32.107  29.160  1.00  0.00     0.010 A 
ATOM     36  C   UNL A   1      38.583  32.926  30.206  1.00  0.00    -0.014 A 
BRANCH  36  37
ATOM     37  C   UNL A   1      40.038  33.022  30.482  1.00  0.00     0.031 A 
ATOM     38  C   UNL A   1      40.663  32.018  31.415  1.00  0.00     0.074 A 
ATOM     39  C   UNL A   1      40.799  33.980  29.920  1.00  0.00     0.049 A 
ATOM     40  N   UNL A   1      41.886  31.962  31.871  1.00  0.00    -0.248 NA
ATOM     41  C   UNL A   1      39.790  30.933  31.893  1.00  0.00     0.031 C 
ATOM     42  C   UNL A   1      40.334  34.977  28.957  1.00  0.00     0.029 A 
ATOM     43  N   UNL A   1      42.128  34.278  30.100  1.00  0.00    -0.354 N 
ATOM     44  C   UNL A   1      41.929  30.848  32.701  1.00  0.00     0.074 A 
ATOM     45  C   UNL A   1      40.605  30.263  32.693  1.00  0.00     0.031 C 
ATOM     46  C   UNL A   1      41.359  35.793  28.648  1.00  0.00     0.029 A 
ATOM     47  C   UNL A   1      42.537  35.401  29.420  1.00  0.00     0.049 A 
ATOM     48  H   UNL A   1      42.730  33.739  30.661  1.00  0.00     0.167 HD
ATOM     49  C   UNL A   1      42.973  30.357  33.410  1.00  0.00     0.031 A 
ATOM     50  C   UNL A   1      43.716  36.057  29.445  1.00  0.00     0.031 A 
ATOM     51  C   UNL A   1      44.286  30.945  33.434  1.00  0.00     0.049 A 
ATOM     52  C   UNL A   1      44.837  35.543  30.314  1.00  0.00     0.074 A 
ATOM     53  C   UNL A   1      45.409  30.510  34.115  1.00  0.00     0.029 A 
ATOM     54  N   UNL A   1      44.649  32.100  32.760  1.00  0.00    -0.354 N 
ATOM     55  N   UNL A   1      44.868  34.476  31.077  1.00  0.00    -0.248 NA
ATOM     56  C   UNL A   1      46.084  36.322  30.324  1.00  0.00     0.031 C 
ATOM     57  C   UNL A   1      46.437  31.432  33.897  1.00  0.00     0.029 A 
ATOM     58  C   UNL A   1      45.971  32.408  33.031  1.00  0.00     0.049 A 
ATOM     59  H   UNL A   1      44.055  32.623  32.173  1.00  0.00     0.167 HD
ATOM     60  C   UNL A   1      46.144  34.444  31.633  1.00  0.00     0.074 A 
ATOM     61  C   UNL A   1      46.859  35.587  31.109  1.00  0.00     0.031 C 
ATOM     62  C   UNL A   1      46.676  33.546  32.499  1.00  0.00     0.031 A 
BRANCH  49  63
ATOM     63  C   UNL A   1      42.730  29.137  34.254  1.00  0.00    -0.014 A 
ATOM     64  C   UNL A   1      42.331  29.248  35.598  1.00  0.00     0.010 A 
ATOM     65  C   UNL A   1      42.843  27.859  33.675  1.00  0.00     0.010 A 
ATOM     66  C   UNL A   1      42.072  28.102  36.353  1.00  0.00     0.020 A 
ATOM     67  C   UNL A   1      42.563  26.712  34.420  1.00  0.00     0.020 A 
ATOM     68  C   UNL A   1      42.189  26.841  35.759  1.00  0.00     0.054 A 
BRANCH  68  69
ATOM     69  S   UNL A   1      41.803  25.373  36.751  1.00  0.00     0.124 S 
ATOM     70  O   UNL A   1      41.925  24.302  35.765  1.00  0.00    -0.237 OA
ATOM     71  O   UNL A   1      42.840  25.399  37.780  1.00  0.00    -0.237 OA
ATOM     72  O   UNL A   1      40.447  25.624  37.231  1.00  0.00    -0.744 OA
ENDBRANCH  68  69
ENDBRANCH  49  63
BRANCH  50  73
ATOM     73  C   UNL A   1      43.897  37.308  28.656  1.00  0.00    -0.014 A 
ATOM     74  C   UNL A   1      44.508  37.278  27.390  1.00  0.00     0.010 A 
ATOM     75  C   UNL A   1      43.490  38.545  29.188  1.00  0.00     0.010 A 
ATOM     76  C   UNL A   1      44.735  38.464  26.684  1.00  0.00     0.020 A 
ATOM     77  C   UNL A   1      43.687  39.729  28.473  1.00  0.00     0.020 A 
ATOM     78  C   UNL A   1      44.323  39.683  27.232  1.00  0.00     0.054 A 
BRANCH  78  79
ATOM     79  S   UNL A   1      44.598  41.206  26.285  1.00  0.00     0.124 S 
ATOM     80  O   UNL A   1      44.458  42.232  27.314  1.00  0.00    -0.237 OA
ATOM     81  O   UNL A   1      45.948  41.014  25.762  1.00  0.00    -0.237 OA
ATOM     82  O   UNL A   1      43.538  41.177  25.279  1.00  0.00    -0.744 OA
ENDBRANCH  78  79
ENDBRANCH  50  73
BRANCH  62  83
ATOM     83  C   UNL A   1      48.115  33.734  32.908  1.00  0.00    -0.014 A 
ATOM     84  C   UNL A   1      49.167  33.187  32.153  1.00  0.00     0.010 A 
ATOM     85  C   UNL A   1      48.417  34.523  34.033  1.00  0.00     0.010 A 
ATOM     86  C   UNL A   1      50.496  33.401  32.534  1.00  0.00     0.020 A 
ATOM     87  C   UNL A   1      49.743  34.761  34.402  1.00  0.00     0.020 A 
ATOM     88  C   UNL A   1      50.775  34.186  33.657  1.00  0.00     0.054 A 
BRANCH  88  89
ATOM     89  S   UNL A   1      52.507  34.485  34.107  1.00  0.00     0.124 S 
ATOM     90  O   UNL A   1      53.087  33.150  33.987  1.00  0.00    -0.237 OA
ATOM     91  O   UNL A   1      52.940  35.450  33.100  1.00  0.00    -0.237 OA
ATOM     92  O   UNL A   1      52.426  35.008  35.469  1.00  0.00    -0.744 OA
ENDBRANCH  88  89
ENDBRANCH  62  83
ENDBRANCH  36  37
ENDBRANCH  29  31
ENDBRANCH  28  29
ENDBRANCH  27  28
ENDBRANCH  26  27
ENDBRANCH  25  26
ENDBRANCH  24  25
ENDBRANCH   1  24
TORSDOF 26
ENDMDL
MODEL 2
REMARK VINA RESULT:      -7.4      5.295      6.914
REMARK SMILES CC[C@@](C)([NH2+]CCC(=O)NC(C)C)C(=O)OCCOCCOCCOC(=O)c1ccc(-c2c3nc(c(-c4ccc(S(=O)(=O)[O-])cc4)c4ccc([nH]4)c(-c4ccc(S(=O)(=O)[O-])cc4)c4nc(c(-c5ccc(S(=O)(=O)[O-])cc5)c5ccc2[nH]5)C=C4)C=C3)cc1
REMARK SMILES IDX 20 1 19 2 18 3 17 4 16 5 14 6 15 7 3 8 4 9 2 10 1 11 5 12
REMARK SMILES IDX 6 15 7 16 8 17 9 18 10 19 11 21 12 22 13 23 21 24 22 25
REMARK SMILES IDX 23 26 24 27 25 28 26 29 27 30 28 31 29 32 87 33 30 34 86 35
REMARK SMILES IDX 31 36 32 37 33 38 80 39 34 40 85 41 79 42 81 43 35 44 84 45
REMARK SMILES IDX 78 46 77 47 36 49 66 50 47 51 65 52 48 53 51 54 64 55 82 56
REMARK SMILES IDX 49 57 50 58 63 60 83 61 52 62 37 63 38 64 46 65 39 66 45 67
REMARK SMILES IDX 40 68 41 69 42 70 43 71 44 72 67 73 68 74 76 75 69 76 75 77
REMARK SMILES IDX 70 78 71 79 72 80 73 81 74 82 53 83 54 84 62 85 55 86 61 87
REMARK SMILES IDX 56 88 57 89 58 90 59 91 60 92
REMARK H PARENT 5 13 5 14 10 20 81 48 51 59
REMARK Flexibility Score: inf
ROOT
ATOM      1  C   UNL A   1      32.647  28.276  23.002  1.00  0.00     0.188 C 
ENDROOT
BRANCH   1   2
ATOM      2  O   UNL A   1      32.177  26.938  22.989  1.00  0.00    -0.376 OA
BRANCH   2   3
ATOM      3  C   UNL A   1      32.694  26.101  24.016  1.00  0.00     0.202 C 
BRANCH   3   4
ATOM      4  C   UNL A   1      31.896  24.818  24.280  1.00  0.00     0.261 C 
BRANCH   4   5
ATOM      5  O   UNL A   1      32.421  23.656  23.618  1.00  0.00    -0.459 OA
BRANCH   5   6
ATOM      6  C   UNL A   1      33.770  23.529  23.543  1.00  0.00     0.367 C 
ATOM      7  O   UNL A   1      34.456  24.159  22.745  1.00  0.00    -0.245 OA
BRANCH   6   8
ATOM      8  C   UNL A   1      34.350  22.501  24.567  1.00  0.00     0.191 C 
ATOM      9  C   UNL A   1      35.746  22.128  24.060  1.00  0.00     0.092 C 
BRANCH   8  10
ATOM     10  C   UNL A   1      34.402  23.161  25.982  1.00  0.00     0.077 C 
ATOM     11  C   UNL A   1      33.449  22.639  27.048  1.00  0.00     0.011 C 
ENDBRANCH   8  10
BRANCH   8  12
ATOM     12  N   UNL A   1      33.472  21.323  24.765  1.00  0.00    -0.332 N 
ATOM     13  H   UNL A   1      32.620  21.537  24.247  1.00  0.00     0.347 HD
ATOM     14  H   UNL A   1      33.507  21.257  25.782  1.00  0.00     0.347 HD
BRANCH  12  15
ATOM     15  C   UNL A   1      33.780  19.950  24.428  1.00  0.00     0.271 C 
BRANCH  15  16
ATOM     16  C   UNL A   1      32.635  18.963  24.185  1.00  0.00     0.161 C 
BRANCH  16  17
ATOM     17  C   UNL A   1      32.778  17.890  23.116  1.00  0.00     0.225 C 
ATOM     18  O   UNL A   1      32.419  18.119  21.955  1.00  0.00    -0.275 OA
ATOM     19  N   UNL A   1      33.410  16.706  23.351  1.00  0.00    -0.354 N 
ATOM     20  H   UNL A   1      33.699  16.221  22.544  1.00  0.00     0.163 HD
BRANCH  19  21
ATOM     21  C   UNL A   1      33.723  16.050  24.606  1.00  0.00     0.075 C 
ATOM     22  C   UNL A   1      35.134  16.431  25.046  1.00  0.00     0.030 C 
ATOM     23  C   UNL A   1      32.700  16.328  25.697  1.00  0.00     0.030 C 
ENDBRANCH  19  21
ENDBRANCH  16  17
ENDBRANCH  15  16
ENDBRANCH  12  15
ENDBRANCH   8  12
ENDBRANCH   6   8
ENDBRANCH   5   6
ENDBRANCH   4   5
ENDBRANCH   3   4
ENDBRANCH   2   3
ENDBRANCH   1   2
BRANCH   1  24
ATOM     24  C   UNL A   1      32.861  28.857  24.414  1.00  0.00     0.188 C 
BRANCH  24  25
ATOM     25  O   UNL A   1      31.781  29.407  25.150  1.00  0.00    -0.376 OA
BRANCH  25  26
ATOM     26  C   UNL A   1      31.939  30.702  25.706  1.00  0.00     0.202 C 
BRANCH  26  27
ATOM     27  C   UNL A   1      32.590  30.838  27.091  1.00  0.00     0.261 C 
BRANCH  27  28
ATOM     28  O   UNL A   1      34.018  30.656  27.119  1.00  0.00    -0.460 OA
BRANCH  28  29
ATOM     29  C   UNL A   1      34.442  29.453  27.589  1.00  0.00     0.338 C 
ATOM     30  O   UNL A   1      33.982  28.357  27.323  1.00  0.00    -0.246 OA
BRANCH  29  31
ATOM     31  C   UNL A   1      35.709  29.621  28.338  1.00  0.00     0.060 A 
ATOM     32  C   UNL A   1      36.847  30.038  27.629  1.00  0.00     0.016 A 
ATOM     33  C   UNL A   1      35.799  29.327  29.698  1.00  0.00     0.016 A 
ATOM     34  C   UNL A   1      38.079  30.152  28.273  1.00  0.00     0.010 A 
ATOM     35  C   UNL A   1      37.045  29.408  30.335  1.00  0.00     0.010 A 
ATOM     36  C   UNL A   1      38.194  29.799  29.622  1.00  0.00    -0.014 A 
BRANCH  36  37
ATOM     37  C   UNL A   1      39.535  29.673  30.247  1.00  0.00     0.031 A 
ATOM     38  C   UNL A   1      40.458  28.588  29.759  1.00  0.00     0.074 A 
ATOM     39  C   UNL A   1      39.933  30.501  31.231  1.00  0.00     0.049 A 
ATOM     40  N   UNL A   1      41.630  28.233  30.214  1.00  0.00    -0.248 NA
ATOM     41  C   UNL A   1      39.996  27.802  28.602  1.00  0.00     0.031 C 
ATOM     42  C   UNL A   1      39.163  31.627  31.757  1.00  0.00     0.029 A 
ATOM     43  N   UNL A   1      41.087  30.504  31.976  1.00  0.00    -0.354 N 
ATOM     44  C   UNL A   1      42.042  27.174  29.412  1.00  0.00     0.074 A 
ATOM     45  C   UNL A   1      40.988  26.938  28.448  1.00  0.00     0.031 C 
ATOM     46  C   UNL A   1      39.857  32.198  32.757  1.00  0.00     0.029 A 
ATOM     47  C   UNL A   1      41.099  31.456  32.968  1.00  0.00     0.049 A 
ATOM     48  H   UNL A   1      41.834  29.885  31.814  1.00  0.00     0.167 HD
ATOM     49  C   UNL A   1      43.190  26.459  29.473  1.00  0.00     0.031 A 
ATOM     50  C   UNL A   1      41.993  31.680  33.954  1.00  0.00     0.031 A 
ATOM     51  C   UNL A   1      44.232  26.678  30.440  1.00  0.00     0.049 A 
ATOM     52  C   UNL A   1      43.221  30.810  34.058  1.00  0.00     0.074 A 
ATOM     53  C   UNL A   1      45.436  26.009  30.571  1.00  0.00     0.029 A 
ATOM     54  N   UNL A   1      44.191  27.628  31.448  1.00  0.00    -0.354 N 
ATOM     55  N   UNL A   1      43.606  29.826  33.279  1.00  0.00    -0.248 NA
ATOM     56  C   UNL A   1      44.138  31.082  35.175  1.00  0.00     0.031 C 
ATOM     57  C   UNL A   1      46.100  26.518  31.692  1.00  0.00     0.029 A 
ATOM     58  C   UNL A   1      45.335  27.544  32.222  1.00  0.00     0.049 A 
ATOM     59  H   UNL A   1      43.456  28.269  31.591  1.00  0.00     0.167 HD
ATOM     60  C   UNL A   1      44.820  29.384  33.797  1.00  0.00     0.074 A 
ATOM     61  C   UNL A   1      45.114  30.215  34.945  1.00  0.00     0.031 C 
ATOM     62  C   UNL A   1      45.621  28.380  33.360  1.00  0.00     0.031 A 
BRANCH  49  63
ATOM     63  C   UNL A   1      43.367  25.339  28.486  1.00  0.00    -0.014 A 
ATOM     64  C   UNL A   1      43.008  24.018  28.810  1.00  0.00     0.010 A 
ATOM     65  C   UNL A   1      43.842  25.624  27.193  1.00  0.00     0.010 A 
ATOM     66  C   UNL A   1      43.143  22.999  27.864  1.00  0.00     0.020 A 
ATOM     67  C   UNL A   1      43.957  24.611  26.237  1.00  0.00     0.020 A 
ATOM     68  C   UNL A   1      43.616  23.302  26.583  1.00  0.00     0.054 A 
BRANCH  68  69
ATOM     69  S   UNL A   1      43.740  21.967  25.362  1.00  0.00     0.124 S 
ATOM     70  O   UNL A   1      43.592  22.695  24.104  1.00  0.00    -0.237 OA
ATOM     71  O   UNL A   1      45.069  21.419  25.619  1.00  0.00    -0.237 OA
ATOM     72  O   UNL A   1      42.628  21.082  25.701  1.00  0.00    -0.744 OA
ENDBRANCH  68  69
ENDBRANCH  49  63
BRANCH  50  73
ATOM     73  C   UNL A   1      41.747  32.748  34.963  1.00  0.00    -0.014 A 
ATOM     74  C   UNL A   1      42.148  34.073  34.719  1.00  0.00     0.010 A 
ATOM     75  C   UNL A   1      41.142  32.433  36.193  1.00  0.00     0.010 A 
ATOM     76  C   UNL A   1      41.974  35.058  35.697  1.00  0.00     0.020 A 
ATOM     77  C   UNL A   1      40.940  33.420  37.162  1.00  0.00     0.020 A 
ATOM     78  C   UNL A   1      41.371  34.724  36.913  1.00  0.00     0.054 A 
BRANCH  78  79
ATOM     79  S   UNL A   1      41.126  36.022  38.157  1.00  0.00     0.124 S 
ATOM     80  O   UNL A   1      40.071  36.827  37.550  1.00  0.00    -0.237 OA
ATOM     81  O   UNL A   1      40.739  35.258  39.340  1.00  0.00    -0.237 OA
ATOM     82  O   UNL A   1      42.436  36.665  38.240  1.00  0.00    -0.744 OA
ENDBRANCH  78  79
ENDBRANCH  50  73
BRANCH  62  83
ATOM     83  C   UNL A   1      46.915  28.145  34.096  1.00  0.00    -0.014 A 
ATOM     84  C   UNL A   1      48.084  28.853  33.765  1.00  0.00     0.010 A 
ATOM     85  C   UNL A   1      46.943  27.244  35.176  1.00  0.00     0.010 A 
ATOM     86  C   UNL A   1      49.266  28.640  34.482  1.00  0.00     0.020 A 
ATOM     87  C   UNL A   1      48.115  27.049  35.912  1.00  0.00     0.020 A 
ATOM     88  C   UNL A   1      49.273  27.739  35.551  1.00  0.00     0.054 A 
BRANCH  88  89
ATOM     89  S   UNL A   1      50.807  27.512  36.494  1.00  0.00     0.124 S 
ATOM     90  O   UNL A   1      51.606  28.652  36.053  1.00  0.00    -0.237 OA
ATOM     91  O   UNL A   1      50.345  27.566  37.878  1.00  0.00    -0.237 OA
ATOM     92  O   UNL A   1      51.292  26.206  36.056  1.00  0.00    -0.744 OA
ENDBRANCH  88  89
ENDBRANCH  62  83
ENDBRANCH  36  37
ENDBRANCH  29  31
ENDBRANCH  28  29
ENDBRANCH  27  28
ENDBRANCH  26  27
ENDBRANCH  25  26
ENDBRANCH  24  25
ENDBRANCH   1  24
TORSDOF 26
ENDMDL
MODEL 3
REMARK VINA RESULT:      -7.4      4.542      6.037
REMARK SMILES CC[C@@](C)([NH2+]CCC(=O)NC(C)C)C(=O)OCCOCCOCCOC(=O)c1ccc(-c2c3nc(c(-c4ccc(S(=O)(=O)[O-])cc4)c4ccc([nH]4)c(-c4ccc(S(=O)(=O)[O-])cc4)c4nc(c(-c5ccc(S(=O)(=O)[O-])cc5)c5ccc2[nH]5)C=C4)C=C3)cc1
REMARK SMILES IDX 20 1 19 2 18 3 17 4 16 5 14 6 15 7 3 8 4 9 2 10 1 11 5 12
REMARK SMILES IDX 6 15 7 16 8 17 9 18 10 19 11 21 12 22 13 23 21 24 22 25
REMARK SMILES IDX 23 26 24 27 25 28 26 29 27 30 28 31 29 32 87 33 30 34 86 35
REMARK SMILES IDX 31 36 32 37 33 38 80 39 34 40 85 41 79 42 81 43 35 44 84 45
REMARK SMILES IDX 78 46 77 47 36 49 66 50 47 51 65 52 48 53 51 54 64 55 82 56
REMARK SMILES IDX 49 57 50 58 63 60 83 61 52 62 37 63 38 64 46 65 39 66 45 67
REMARK SMILES IDX 40 68 41 69 42 70 43 71 44 72 67 73 68 74 76 75 69 76 75 77
REMARK SMILES IDX 70 78 71 79 72 80 73 81 74 82 53 83 54 84 62 85 55 86 61 87
REMARK SMILES IDX 56 88 57 89 58 90 59 91 60 92
REMARK H PARENT 5 13 5 14 10 20 81 48 51 59
REMARK Flexibility Score: inf
ROOT
ATOM      1  C   UNL A   1      32.676  28.288  23.087  1.00  0.00     0.188 C 
ENDROOT
BRANCH   1   2
ATOM      2  O   UNL A   1      32.182  26.961  22.985  1.00  0.00    -0.376 OA
BRANCH   2   3
ATOM      3  C   UNL A   1      32.587  26.080  24.025  1.00  0.00     0.202 C 
BRANCH   3   4
ATOM      4  C   UNL A   1      31.789  24.774  24.124  1.00  0.00     0.261 C 
BRANCH   4   5
ATOM      5  O   UNL A   1      32.411  23.656  23.470  1.00  0.00    -0.459 OA
BRANCH   5   6
ATOM      6  C   UNL A   1      33.767  23.592  23.487  1.00  0.00     0.367 C 
ATOM      7  O   UNL A   1      34.475  24.253  22.734  1.00  0.00    -0.245 OA
BRANCH   6   8
ATOM      8  C   UNL A   1      34.323  22.592  24.552  1.00  0.00     0.191 C 
ATOM      9  C   UNL A   1      35.717  22.181  24.070  1.00  0.00     0.092 C 
BRANCH   8  10
ATOM     10  C   UNL A   1      34.374  23.302  25.942  1.00  0.00     0.077 C 
ATOM     11  C   UNL A   1      33.401  22.836  27.016  1.00  0.00     0.011 C 
ENDBRANCH   8  10
BRANCH   8  12
ATOM     12  N   UNL A   1      33.425  21.435  24.784  1.00  0.00    -0.332 N 
ATOM     13  H   UNL A   1      32.569  21.658  24.276  1.00  0.00     0.347 HD
ATOM     14  H   UNL A   1      33.477  21.386  25.801  1.00  0.00     0.347 HD
BRANCH  12  15
ATOM     15  C   UNL A   1      33.701  20.051  24.465  1.00  0.00     0.271 C 
BRANCH  15  16
ATOM     16  C   UNL A   1      32.535  19.075  24.294  1.00  0.00     0.161 C 
BRANCH  16  17
ATOM     17  C   UNL A   1      32.679  17.881  23.362  1.00  0.00     0.225 C 
ATOM     18  O   UNL A   1      32.351  17.978  22.174  1.00  0.00    -0.275 OA
ATOM     19  N   UNL A   1      33.282  16.722  23.750  1.00  0.00    -0.354 N 
ATOM     20  H   UNL A   1      33.579  16.141  23.013  1.00  0.00     0.163 HD
BRANCH  19  21
ATOM     21  C   UNL A   1      33.554  16.213  25.081  1.00  0.00     0.075 C 
ATOM     22  C   UNL A   1      32.631  15.034  25.377  1.00  0.00     0.030 C 
ATOM     23  C   UNL A   1      35.015  15.851  25.295  1.00  0.00     0.030 C 
ENDBRANCH  19  21
ENDBRANCH  16  17
ENDBRANCH  15  16
ENDBRANCH  12  15
ENDBRANCH   8  12
ENDBRANCH   6   8
ENDBRANCH   5   6
ENDBRANCH   4   5
ENDBRANCH   3   4
ENDBRANCH   2   3
ENDBRANCH   1   2
BRANCH   1  24
ATOM     24  C   UNL A   1      32.826  28.796  24.534  1.00  0.00     0.188 C 
BRANCH  24  25
ATOM     25  O   UNL A   1      31.720  29.335  25.240  1.00  0.00    -0.376 OA
BRANCH  25  26
ATOM     26  C   UNL A   1      31.817  30.664  25.725  1.00  0.00     0.202 C 
BRANCH  26  27
ATOM     27  C   UNL A   1      32.541  30.913  27.057  1.00  0.00     0.261 C 
BRANCH  27  28
ATOM     28  O   UNL A   1      33.953  30.631  27.052  1.00  0.00    -0.460 OA
BRANCH  28  29
ATOM     29  C   UNL A   1      34.324  29.514  27.731  1.00  0.00     0.338 C 
ATOM     30  O   UNL A   1      33.714  28.463  27.808  1.00  0.00    -0.246 OA
BRANCH  29  31
ATOM     31  C   UNL A   1      35.714  29.662  28.224  1.00  0.00     0.060 A 
ATOM     32  C   UNL A   1      36.697  30.083  27.316  1.00  0.00     0.016 A 
ATOM     33  C   UNL A   1      36.061  29.344  29.537  1.00  0.00     0.016 A 
ATOM     34  C   UNL A   1      38.032  30.178  27.713  1.00  0.00     0.010 A 
ATOM     35  C   UNL A   1      37.407  29.407  29.924  1.00  0.00     0.010 A 
ATOM     36  C   UNL A   1      38.401  29.803  29.009  1.00  0.00    -0.014 A 
BRANCH  36  37
ATOM     37  C   UNL A   1      39.836  29.657  29.362  1.00  0.00     0.031 A 
ATOM     38  C   UNL A   1      40.512  28.338  29.100  1.00  0.00     0.074 A 
ATOM     39  C   UNL A   1      40.532  30.672  29.906  1.00  0.00     0.049 A 
ATOM     40  N   UNL A   1      41.723  27.953  29.408  1.00  0.00    -0.248 NA
ATOM     41  C   UNL A   1      39.716  27.319  28.395  1.00  0.00     0.031 C 
ATOM     42  C   UNL A   1      40.017  32.017  30.157  1.00  0.00     0.029 A 
ATOM     43  N   UNL A   1      41.827  30.717  30.361  1.00  0.00    -0.354 N 
ATOM     44  C   UNL A   1      41.831  26.645  28.949  1.00  0.00     0.074 A 
ATOM     45  C   UNL A   1      40.560  26.298  28.352  1.00  0.00     0.031 C 
ATOM     46  C   UNL A   1      40.980  32.749  30.746  1.00  0.00     0.029 A 
ATOM     47  C   UNL A   1      42.164  31.915  30.947  1.00  0.00     0.049 A 
ATOM     48  H   UNL A   1      42.455  29.964  30.276  1.00  0.00     0.167 HD
ATOM     49  C   UNL A   1      42.891  25.805  29.023  1.00  0.00     0.031 A 
ATOM     50  C   UNL A   1      43.286  32.283  31.601  1.00  0.00     0.031 A 
ATOM     51  C   UNL A   1      44.151  26.140  29.631  1.00  0.00     0.049 A 
ATOM     52  C   UNL A   1      44.419  31.299  31.750  1.00  0.00     0.074 A 
ATOM     53  C   UNL A   1      45.286  25.355  29.741  1.00  0.00     0.029 A 
ATOM     54  N   UNL A   1      44.439  27.349  30.242  1.00  0.00    -0.354 N 
ATOM     55  N   UNL A   1      44.514  30.072  31.293  1.00  0.00    -0.248 NA
ATOM     56  C   UNL A   1      45.599  31.750  32.504  1.00  0.00     0.031 C 
ATOM     57  C   UNL A   1      46.243  26.070  30.469  1.00  0.00     0.029 A 
ATOM     58  C   UNL A   1      45.724  27.322  30.757  1.00  0.00     0.049 A 
ATOM     59  H   UNL A   1      43.822  28.115  30.301  1.00  0.00     0.167 HD
ATOM     60  C   UNL A   1      45.772  29.619  31.680  1.00  0.00     0.074 A 
ATOM     61  C   UNL A   1      46.408  30.705  32.395  1.00  0.00     0.031 C 
ATOM     62  C   UNL A   1      46.350  28.412  31.462  1.00  0.00     0.031 A 
BRANCH  49  63
ATOM     63  C   UNL A   1      42.723  24.421  28.461  1.00  0.00    -0.014 A 
ATOM     64  C   UNL A   1      42.294  23.353  29.270  1.00  0.00     0.010 A 
ATOM     65  C   UNL A   1      42.939  24.198  27.089  1.00  0.00     0.010 A 
ATOM     66  C   UNL A   1      42.106  22.083  28.720  1.00  0.00     0.020 A 
ATOM     67  C   UNL A   1      42.730  22.935  26.531  1.00  0.00     0.020 A 
ATOM     68  C   UNL A   1      42.325  21.882  27.353  1.00  0.00     0.054 A 
BRANCH  68  69
ATOM     69  S   UNL A   1      42.030  20.233  26.658  1.00  0.00     0.124 S 
ATOM     70  O   UNL A   1      41.925  20.523  25.230  1.00  0.00    -0.237 OA
ATOM     71  O   UNL A   1      43.224  19.497  27.063  1.00  0.00    -0.237 OA
ATOM     72  O   UNL A   1      40.789  19.803  27.297  1.00  0.00    -0.744 OA
ENDBRANCH  68  69
ENDBRANCH  49  63
BRANCH  50  73
ATOM     73  C   UNL A   1      43.388  33.637  32.213  1.00  0.00    -0.014 A 
ATOM     74  C   UNL A   1      43.947  34.710  31.497  1.00  0.00     0.010 A 
ATOM     75  C   UNL A   1      42.957  33.850  33.535  1.00  0.00     0.010 A 
ATOM     76  C   UNL A   1      44.100  35.963  32.101  1.00  0.00     0.020 A 
ATOM     77  C   UNL A   1      43.082  35.107  34.133  1.00  0.00     0.020 A 
ATOM     78  C   UNL A   1      43.667  36.152  33.417  1.00  0.00     0.054 A 
BRANCH  78  79
ATOM     79  S   UNL A   1      43.846  37.793  34.171  1.00  0.00     0.124 S 
ATOM     80  O   UNL A   1      42.992  38.613  33.319  1.00  0.00    -0.237 OA
ATOM     81  O   UNL A   1      43.358  37.570  35.530  1.00  0.00    -0.237 OA
ATOM     82  O   UNL A   1      45.279  38.060  34.067  1.00  0.00    -0.744 OA
ENDBRANCH  78  79
ENDBRANCH  50  73
BRANCH  62  83
ATOM     83  C   UNL A   1      47.757  28.207  31.963  1.00  0.00    -0.014 A 
ATOM     84  C   UNL A   1      48.870  28.579  31.190  1.00  0.00     0.010 A 
ATOM     85  C   UNL A   1      47.962  27.689  33.255  1.00  0.00     0.010 A 
ATOM     86  C   UNL A   1      50.166  28.408  31.689  1.00  0.00     0.020 A 
ATOM     87  C   UNL A   1      49.254  27.541  33.767  1.00  0.00     0.020 A 
ATOM     88  C   UNL A   1      50.350  27.890  32.975  1.00  0.00     0.054 A 
BRANCH  88  89
ATOM     89  S   UNL A   1      52.038  27.717  33.616  1.00  0.00     0.124 S 
ATOM     90  O   UNL A   1      52.429  29.109  33.820  1.00  0.00    -0.237 OA
ATOM     91  O   UNL A   1      51.842  26.934  34.833  1.00  0.00    -0.237 OA
ATOM     92  O   UNL A   1      52.746  27.023  32.543  1.00  0.00    -0.744 OA
ENDBRANCH  88  89
ENDBRANCH  62  83
ENDBRANCH  36  37
ENDBRANCH  29  31
ENDBRANCH  28  29
ENDBRANCH  27  28
ENDBRANCH  26  27
ENDBRANCH  25  26
ENDBRANCH  24  25
ENDBRANCH   1  24
TORSDOF 26
ENDMDL
