MODEL 1
REMARK VINA RESULT:      -9.7      0.000      0.000
REMARK SMILES O=C(OCCOCCOCCOC(=O)[C@H](Cc1ccc(O)cc1)NC(=O)c1ccc(Cl)s1)c1ccc(-c2c3nc(c(-c4ccc(S(=O)(=O)[O-])cc4)c4ccc([nH]4)c(-c4ccc(S(=O)(=O)[O-])cc4)c4nc(c(-c5ccc(S(=O)(=O)[O-])cc5)c5ccc2[nH]5)C=C4)C=C3)cc1
REMARK SMILES IDX 7 1 6 2 5 3 4 4 3 5 2 6 1 7 33 8 34 9 92 10 35 11 91 12
REMARK SMILES IDX 36 13 37 14 38 15 85 16 39 17 90 18 84 19 86 20 40 21 89 22
REMARK SMILES IDX 83 23 82 24 41 26 71 27 52 28 70 29 53 30 56 31 69 32 87 33
REMARK SMILES IDX 54 34 55 35 68 37 88 38 57 39 42 40 43 41 51 42 44 43 50 44
REMARK SMILES IDX 45 45 46 46 47 47 48 48 49 49 72 50 73 51 81 52 74 53 80 54
REMARK SMILES IDX 75 55 76 56 77 57 78 58 79 59 58 60 59 61 67 62 60 63 66 64
REMARK SMILES IDX 61 65 62 66 63 67 64 68 65 69 8 70 9 71 10 72 11 73 12 74
REMARK SMILES IDX 13 75 14 76 15 77 24 78 25 79 26 81 27 82 28 83 32 84 29 85
REMARK SMILES IDX 30 86 31 87 16 88 17 89 18 90 23 91 19 92 22 93 20 94 21 95
REMARK H PARENT 86 25 56 36 24 80 21 96
REMARK Flexibility Score: inf
ROOT
ATOM      1  C   UNL A   1      36.667  22.148  24.496  1.00  0.00     0.188 C 
ENDROOT
BRANCH   1   2
ATOM      2  O   UNL A   1      38.005  21.864  24.923  1.00  0.00    -0.376 OA
BRANCH   2   3
ATOM      3  C   UNL A   1      38.291  20.462  25.005  1.00  0.00     0.202 C 
BRANCH   3   4
ATOM      4  C   UNL A   1      39.284  20.090  26.113  1.00  0.00     0.261 C 
BRANCH   4   5
ATOM      5  O   UNL A   1      40.421  19.384  25.603  1.00  0.00    -0.460 OA
BRANCH   5   6
ATOM      6  C   UNL A   1      41.720  19.604  25.920  1.00  0.00     0.338 C 
ATOM      7  O   UNL A   1      42.514  18.673  25.780  1.00  0.00    -0.246 OA
BRANCH   6   8
ATOM      8  C   UNL A   1      42.256  20.917  26.406  1.00  0.00     0.060 A 
ATOM      9  C   UNL A   1      42.476  21.287  27.741  1.00  0.00     0.016 A 
ATOM     10  C   UNL A   1      42.693  21.797  25.412  1.00  0.00     0.016 A 
ATOM     11  C   UNL A   1      43.082  22.500  28.087  1.00  0.00     0.010 A 
ATOM     12  C   UNL A   1      43.353  22.979  25.750  1.00  0.00     0.010 A 
ATOM     13  C   UNL A   1      43.547  23.348  27.093  1.00  0.00    -0.014 A 
BRANCH  13  14
ATOM     14  C   UNL A   1      44.127  24.679  27.401  1.00  0.00     0.031 A 
ATOM     15  C   UNL A   1      43.152  25.793  27.643  1.00  0.00     0.074 A 
ATOM     16  C   UNL A   1      45.454  24.917  27.378  1.00  0.00     0.049 A 
ATOM     17  N   UNL A   1      43.357  27.078  27.711  1.00  0.00    -0.248 NA
ATOM     18  C   UNL A   1      41.741  25.394  27.811  1.00  0.00     0.031 C 
ATOM     19  C   UNL A   1      46.510  23.915  27.231  1.00  0.00     0.029 A 
ATOM     20  N   UNL A   1      46.147  26.103  27.408  1.00  0.00    -0.354 N 
ATOM     21  C   UNL A   1      42.101  27.636  27.908  1.00  0.00     0.074 A 
ATOM     22  C   UNL A   1      41.134  26.567  27.837  1.00  0.00     0.031 C 
ATOM     23  C   UNL A   1      47.691  24.527  27.044  1.00  0.00     0.029 A 
ATOM     24  C   UNL A   1      47.484  25.967  27.103  1.00  0.00     0.049 A 
ATOM     25  H   UNL A   1      45.728  26.967  27.625  1.00  0.00     0.167 HD
ATOM     26  C   UNL A   1      41.786  28.919  28.190  1.00  0.00     0.031 A 
ATOM     27  C   UNL A   1      48.433  26.899  26.888  1.00  0.00     0.031 A 
ATOM     28  C   UNL A   1      42.768  29.959  28.283  1.00  0.00     0.049 A 
ATOM     29  C   UNL A   1      48.067  28.338  27.125  1.00  0.00     0.074 A 
ATOM     30  C   UNL A   1      42.596  31.283  28.633  1.00  0.00     0.029 A 
ATOM     31  N   UNL A   1      44.119  29.777  28.019  1.00  0.00    -0.354 N 
ATOM     32  N   UNL A   1      46.889  28.846  27.403  1.00  0.00    -0.248 NA
ATOM     33  C   UNL A   1      49.158  29.318  27.093  1.00  0.00     0.031 C 
ATOM     34  C   UNL A   1      43.842  31.913  28.536  1.00  0.00     0.029 A 
ATOM     35  C   UNL A   1      44.796  30.969  28.181  1.00  0.00     0.049 A 
ATOM     36  H   UNL A   1      44.534  28.924  27.755  1.00  0.00     0.167 HD
ATOM     37  C   UNL A   1      47.105  30.197  27.639  1.00  0.00     0.074 A 
ATOM     38  C   UNL A   1      48.527  30.427  27.456  1.00  0.00     0.031 C 
ATOM     39  C   UNL A   1      46.215  31.154  28.001  1.00  0.00     0.031 A 
BRANCH  26  40
ATOM     40  C   UNL A   1      40.329  29.218  28.416  1.00  0.00    -0.014 A 
ATOM     41  C   UNL A   1      39.423  29.254  27.336  1.00  0.00     0.010 A 
ATOM     42  C   UNL A   1      39.873  29.552  29.702  1.00  0.00     0.010 A 
ATOM     43  C   UNL A   1      38.117  29.711  27.522  1.00  0.00     0.020 A 
ATOM     44  C   UNL A   1      38.553  29.974  29.898  1.00  0.00     0.020 A 
ATOM     45  C   UNL A   1      37.695  30.082  28.800  1.00  0.00     0.054 A 
BRANCH  45  46
ATOM     46  S   UNL A   1      36.009  30.716  29.005  1.00  0.00     0.124 S 
ATOM     47  O   UNL A   1      35.976  31.800  28.026  1.00  0.00    -0.237 OA
ATOM     48  O   UNL A   1      35.188  29.553  28.678  1.00  0.00    -0.237 OA
ATOM     49  O   UNL A   1      35.964  31.135  30.403  1.00  0.00    -0.744 OA
ENDBRANCH  45  46
ENDBRANCH  26  40
BRANCH  27  50
ATOM     50  C   UNL A   1      49.808  26.493  26.482  1.00  0.00    -0.014 A 
ATOM     51  C   UNL A   1      50.706  25.950  27.417  1.00  0.00     0.010 A 
ATOM     52  C   UNL A   1      50.218  26.611  25.139  1.00  0.00     0.010 A 
ATOM     53  C   UNL A   1      51.985  25.540  27.023  1.00  0.00     0.020 A 
ATOM     54  C   UNL A   1      51.492  26.187  24.737  1.00  0.00     0.020 A 
ATOM     55  C   UNL A   1      52.368  25.657  25.684  1.00  0.00     0.054 A 
BRANCH  55  56
ATOM     56  S   UNL A   1      54.006  25.046  25.190  1.00  0.00     0.124 S 
ATOM     57  O   UNL A   1      54.824  25.386  26.349  1.00  0.00    -0.237 OA
ATOM     58  O   UNL A   1      53.758  23.620  24.986  1.00  0.00    -0.237 OA
ATOM     59  O   UNL A   1      54.299  25.797  23.970  1.00  0.00    -0.744 OA
ENDBRANCH  55  56
ENDBRANCH  27  50
BRANCH  39  60
ATOM     60  C   UNL A   1      46.755  32.527  28.276  1.00  0.00    -0.014 A 
ATOM     61  C   UNL A   1      47.248  32.875  29.545  1.00  0.00     0.010 A 
ATOM     62  C   UNL A   1      46.869  33.441  27.213  1.00  0.00     0.010 A 
ATOM     63  C   UNL A   1      47.844  34.121  29.745  1.00  0.00     0.020 A 
ATOM     64  C   UNL A   1      47.491  34.675  27.402  1.00  0.00     0.020 A 
ATOM     65  C   UNL A   1      47.971  35.008  28.669  1.00  0.00     0.054 A 
BRANCH  65  66
ATOM     66  S   UNL A   1      48.837  36.578  28.934  1.00  0.00     0.124 S 
ATOM     67  O   UNL A   1      47.759  37.549  28.774  1.00  0.00    -0.237 OA
ATOM     68  O   UNL A   1      49.356  36.431  30.291  1.00  0.00    -0.237 OA
ATOM     69  O   UNL A   1      49.852  36.595  27.883  1.00  0.00    -0.744 OA
ENDBRANCH  65  66
ENDBRANCH  39  60
ENDBRANCH  13  14
ENDBRANCH   6   8
ENDBRANCH   5   6
ENDBRANCH   4   5
ENDBRANCH   3   4
ENDBRANCH   2   3
ENDBRANCH   1   2
BRANCH   1  70
ATOM     70  C   UNL A   1      35.628  21.277  25.210  1.00  0.00     0.188 C 
BRANCH  70  71
ATOM     71  O   UNL A   1      34.524  21.949  25.807  1.00  0.00    -0.376 OA
BRANCH  71  72
ATOM     72  C   UNL A   1      34.377  21.838  27.222  1.00  0.00     0.202 C 
BRANCH  72  73
ATOM     73  C   UNL A   1      33.018  22.208  27.848  1.00  0.00     0.261 C 
BRANCH  73  74
ATOM     74  O   UNL A   1      32.550  23.548  27.572  1.00  0.00    -0.462 OA
BRANCH  74  75
ATOM     75  C   UNL A   1      31.391  23.632  26.855  1.00  0.00     0.329 C 
ATOM     76  O   UNL A   1      30.285  23.350  27.310  1.00  0.00    -0.250 OA
BRANCH  75  77
ATOM     77  C   UNL A   1      31.556  24.261  25.455  1.00  0.00     0.197 C 
BRANCH  77  78
ATOM     78  N   UNL A   1      32.254  23.283  24.609  1.00  0.00    -0.338 N 
ATOM     79  C   UNL A   1      32.736  23.466  23.340  1.00  0.00     0.262 C 
ATOM     80  H   UNL A   1      32.389  22.389  24.999  1.00  0.00     0.164 HD
ATOM     81  O   UNL A   1      33.024  22.461  22.686  1.00  0.00    -0.268 OA
BRANCH  79  82
ATOM     82  C   UNL A   1      32.873  24.821  22.865  1.00  0.00     0.093 A 
ATOM     83  C   UNL A   1      32.295  25.408  21.753  1.00  0.00     0.027 A 
ATOM     84  S   UNL A   1      33.888  25.911  23.706  1.00  0.00    -0.118 S 
ATOM     85  C   UNL A   1      32.752  26.744  21.554  1.00  0.00     0.033 A 
ATOM     86  C   UNL A   1      33.623  27.115  22.546  1.00  0.00     0.094 A 
ATOM     87  Cl  UNL A   1      34.422  28.626  22.696  1.00  0.00    -0.072 Cl
ENDBRANCH  79  82
ENDBRANCH  77  78
BRANCH  77  88
ATOM     88  C   UNL A   1      30.282  24.731  24.765  1.00  0.00     0.072 C 
BRANCH  88  89
ATOM     89  C   UNL A   1      30.174  26.232  24.547  1.00  0.00    -0.045 A 
ATOM     90  C   UNL A   1      31.012  27.103  25.258  1.00  0.00     0.007 A 
ATOM     91  C   UNL A   1      29.326  26.780  23.572  1.00  0.00     0.007 A 
ATOM     92  C   UNL A   1      31.073  28.464  24.940  1.00  0.00     0.046 A 
ATOM     93  C   UNL A   1      29.407  28.134  23.229  1.00  0.00     0.046 A 
ATOM     94  C   UNL A   1      30.300  28.959  23.897  1.00  0.00     0.115 A 
BRANCH  94  95
ATOM     95  O   UNL A   1      30.415  30.252  23.482  1.00  0.00    -0.508 OA
ATOM     96  H   UNL A   1      30.299  30.466  22.577  1.00  0.00     0.293 HD
ENDBRANCH  94  95
ENDBRANCH  88  89
ENDBRANCH  77  88
ENDBRANCH  75  77
ENDBRANCH  74  75
ENDBRANCH  73  74
ENDBRANCH  72  73
ENDBRANCH  71  72
ENDBRANCH  70  71
ENDBRANCH   1  70
TORSDOF 25
ENDMDL
MODEL 2
REMARK VINA RESULT:      -9.4      6.281      8.900
REMARK SMILES O=C(OCCOCCOCCOC(=O)[C@H](Cc1ccc(O)cc1)NC(=O)c1ccc(Cl)s1)c1ccc(-c2c3nc(c(-c4ccc(S(=O)(=O)[O-])cc4)c4ccc([nH]4)c(-c4ccc(S(=O)(=O)[O-])cc4)c4nc(c(-c5ccc(S(=O)(=O)[O-])cc5)c5ccc2[nH]5)C=C4)C=C3)cc1
REMARK SMILES IDX 7 1 6 2 5 3 4 4 3 5 2 6 1 7 33 8 34 9 92 10 35 11 91 12
REMARK SMILES IDX 36 13 37 14 38 15 85 16 39 17 90 18 84 19 86 20 40 21 89 22
REMARK SMILES IDX 83 23 82 24 41 26 71 27 52 28 70 29 53 30 56 31 69 32 87 33
REMARK SMILES IDX 54 34 55 35 68 37 88 38 57 39 42 40 43 41 51 42 44 43 50 44
REMARK SMILES IDX 45 45 46 46 47 47 48 48 49 49 72 50 73 51 81 52 74 53 80 54
REMARK SMILES IDX 75 55 76 56 77 57 78 58 79 59 58 60 59 61 67 62 60 63 66 64
REMARK SMILES IDX 61 65 62 66 63 67 64 68 65 69 8 70 9 71 10 72 11 73 12 74
REMARK SMILES IDX 13 75 14 76 15 77 24 78 25 79 26 81 27 82 28 83 32 84 29 85
REMARK SMILES IDX 30 86 31 87 16 88 17 89 18 90 23 91 19 92 22 93 20 94 21 95
REMARK H PARENT 86 25 56 36 24 80 21 96
REMARK Flexibility Score: inf
ROOT
ATOM      1  C   UNL A   1      40.718  21.037  26.943  1.00  0.00     0.188 C 
ENDROOT
BRANCH   1   2
ATOM      2  O   UNL A   1      42.093  21.414  26.813  1.00  0.00    -0.376 OA
BRANCH   2   3
ATOM      3  C   UNL A   1      42.282  22.647  26.107  1.00  0.00     0.202 C 
BRANCH   3   4
ATOM      4  C   UNL A   1      43.197  23.645  26.826  1.00  0.00     0.261 C 
BRANCH   4   5
ATOM      5  O   UNL A   1      43.243  24.911  26.159  1.00  0.00    -0.460 OA
BRANCH   5   6
ATOM      6  C   UNL A   1      42.303  25.885  26.204  1.00  0.00     0.338 C 
ATOM      7  O   UNL A   1      41.767  26.221  25.147  1.00  0.00    -0.246 OA
BRANCH   6   8
ATOM      8  C   UNL A   1      41.853  26.561  27.464  1.00  0.00     0.060 A 
ATOM      9  C   UNL A   1      40.809  26.149  28.306  1.00  0.00     0.016 A 
ATOM     10  C   UNL A   1      42.644  27.630  27.894  1.00  0.00     0.016 A 
ATOM     11  C   UNL A   1      40.535  26.789  29.520  1.00  0.00     0.010 A 
ATOM     12  C   UNL A   1      42.414  28.232  29.131  1.00  0.00     0.010 A 
ATOM     13  C   UNL A   1      41.350  27.824  29.955  1.00  0.00    -0.014 A 
BRANCH  13  14
ATOM     14  C   UNL A   1      41.060  28.587  31.194  1.00  0.00     0.031 A 
ATOM     15  C   UNL A   1      39.982  29.626  31.102  1.00  0.00     0.074 A 
ATOM     16  C   UNL A   1      41.778  28.435  32.326  1.00  0.00     0.049 A 
ATOM     17  N   UNL A   1      39.671  30.578  31.936  1.00  0.00    -0.248 NA
ATOM     18  C   UNL A   1      39.154  29.595  29.882  1.00  0.00     0.031 C 
ATOM     19  C   UNL A   1      42.797  27.415  32.574  1.00  0.00     0.029 A 
ATOM     20  N   UNL A   1      41.807  29.196  33.470  1.00  0.00    -0.354 N 
ATOM     21  C   UNL A   1      38.629  31.266  31.330  1.00  0.00     0.074 A 
ATOM     22  C   UNL A   1      38.437  30.696  30.018  1.00  0.00     0.031 C 
ATOM     23  C   UNL A   1      43.444  27.692  33.718  1.00  0.00     0.029 A 
ATOM     24  C   UNL A   1      42.854  28.884  34.311  1.00  0.00     0.049 A 
ATOM     25  H   UNL A   1      41.144  29.896  33.670  1.00  0.00     0.167 HD
ATOM     26  C   UNL A   1      37.853  32.243  31.847  1.00  0.00     0.031 A 
ATOM     27  C   UNL A   1      43.293  29.497  35.427  1.00  0.00     0.031 A 
ATOM     28  C   UNL A   1      38.046  32.774  33.164  1.00  0.00     0.049 A 
ATOM     29  C   UNL A   1      42.477  30.638  35.966  1.00  0.00     0.074 A 
ATOM     30  C   UNL A   1      37.291  33.712  33.838  1.00  0.00     0.029 A 
ATOM     31  N   UNL A   1      39.084  32.401  34.007  1.00  0.00    -0.354 N 
ATOM     32  N   UNL A   1      41.433  31.222  35.426  1.00  0.00    -0.248 NA
ATOM     33  C   UNL A   1      42.845  31.156  37.288  1.00  0.00     0.031 C 
ATOM     34  C   UNL A   1      37.901  33.939  35.077  1.00  0.00     0.029 A 
ATOM     35  C   UNL A   1      39.002  33.102  35.194  1.00  0.00     0.049 A 
ATOM     36  H   UNL A   1      39.776  31.735  33.792  1.00  0.00     0.167 HD
ATOM     37  C   UNL A   1      40.981  32.137  36.368  1.00  0.00     0.074 A 
ATOM     38  C   UNL A   1      41.876  32.037  37.505  1.00  0.00     0.031 C 
ATOM     39  C   UNL A   1      39.908  32.964  36.309  1.00  0.00     0.031 A 
BRANCH  26  40
ATOM     40  C   UNL A   1      36.748  32.760  30.966  1.00  0.00    -0.014 A 
ATOM     41  C   UNL A   1      37.013  33.707  29.955  1.00  0.00     0.010 A 
ATOM     42  C   UNL A   1      35.421  32.366  31.202  1.00  0.00     0.010 A 
ATOM     43  C   UNL A   1      35.965  34.321  29.267  1.00  0.00     0.020 A 
ATOM     44  C   UNL A   1      34.371  32.951  30.486  1.00  0.00     0.020 A 
ATOM     45  C   UNL A   1      34.649  33.948  29.547  1.00  0.00     0.054 A 
BRANCH  45  46
ATOM     46  S   UNL A   1      33.305  34.793  28.671  1.00  0.00     0.124 S 
ATOM     47  O   UNL A   1      32.455  35.230  29.777  1.00  0.00    -0.237 OA
ATOM     48  O   UNL A   1      34.006  35.860  27.962  1.00  0.00    -0.237 OA
ATOM     49  O   UNL A   1      32.737  33.751  27.821  1.00  0.00    -0.744 OA
ENDBRANCH  45  46
ENDBRANCH  26  40
BRANCH  27  50
ATOM     50  C   UNL A   1      44.519  29.009  36.120  1.00  0.00    -0.014 A 
ATOM     51  C   UNL A   1      45.777  29.573  35.845  1.00  0.00     0.010 A 
ATOM     52  C   UNL A   1      44.429  27.997  37.096  1.00  0.00     0.010 A 
ATOM     53  C   UNL A   1      46.920  29.132  36.523  1.00  0.00     0.020 A 
ATOM     54  C   UNL A   1      45.568  27.564  37.789  1.00  0.00     0.020 A 
ATOM     55  C   UNL A   1      46.808  28.134  37.494  1.00  0.00     0.054 A 
BRANCH  55  56
ATOM     56  S   UNL A   1      48.296  27.637  38.410  1.00  0.00     0.124 S 
ATOM     57  O   UNL A   1      48.030  26.230  38.687  1.00  0.00    -0.237 OA
ATOM     58  O   UNL A   1      49.359  27.901  37.441  1.00  0.00    -0.237 OA
ATOM     59  O   UNL A   1      48.294  28.520  39.574  1.00  0.00    -0.744 OA
ENDBRANCH  55  56
ENDBRANCH  27  50
BRANCH  39  60
ATOM     60  C   UNL A   1      39.607  33.790  37.526  1.00  0.00    -0.014 A 
ATOM     61  C   UNL A   1      38.777  33.302  38.549  1.00  0.00     0.010 A 
ATOM     62  C   UNL A   1      40.259  35.025  37.690  1.00  0.00     0.010 A 
ATOM     63  C   UNL A   1      38.602  34.044  39.719  1.00  0.00     0.020 A 
ATOM     64  C   UNL A   1      40.110  35.754  38.870  1.00  0.00     0.020 A 
ATOM     65  C   UNL A   1      39.278  35.259  39.875  1.00  0.00     0.054 A 
BRANCH  65  66
ATOM     66  S   UNL A   1      39.110  36.152  41.443  1.00  0.00     0.124 S 
ATOM     67  O   UNL A   1      38.981  37.535  40.992  1.00  0.00    -0.237 OA
ATOM     68  O   UNL A   1      37.904  35.563  42.018  1.00  0.00    -0.237 OA
ATOM     69  O   UNL A   1      40.348  35.841  42.153  1.00  0.00    -0.744 OA
ENDBRANCH  65  66
ENDBRANCH  39  60
ENDBRANCH  13  14
ENDBRANCH   6   8
ENDBRANCH   5   6
ENDBRANCH   4   5
ENDBRANCH   3   4
ENDBRANCH   2   3
ENDBRANCH   1   2
BRANCH   1  70
ATOM     70  C   UNL A   1      39.797  21.860  26.037  1.00  0.00     0.188 C 
BRANCH  70  71
ATOM     71  O   UNL A   1      38.680  22.491  26.655  1.00  0.00    -0.376 OA
BRANCH  71  72
ATOM     72  C   UNL A   1      38.112  23.618  25.989  1.00  0.00     0.202 C 
BRANCH  72  73
ATOM     73  C   UNL A   1      36.584  23.656  25.786  1.00  0.00     0.261 C 
BRANCH  73  74
ATOM     74  O   UNL A   1      36.053  22.664  24.880  1.00  0.00    -0.462 OA
BRANCH  74  75
ATOM     75  C   UNL A   1      35.126  23.118  23.985  1.00  0.00     0.329 C 
ATOM     76  O   UNL A   1      35.316  23.167  22.772  1.00  0.00    -0.250 OA
BRANCH  75  77
ATOM     77  C   UNL A   1      33.747  23.428  24.603  1.00  0.00     0.197 C 
BRANCH  77  78
ATOM     78  N   UNL A   1      32.913  24.026  23.551  1.00  0.00    -0.338 N 
ATOM     79  C   UNL A   1      32.073  25.102  23.658  1.00  0.00     0.262 C 
ATOM     80  H   UNL A   1      32.964  23.602  22.664  1.00  0.00     0.164 HD
ATOM     81  O   UNL A   1      31.245  25.273  22.760  1.00  0.00    -0.268 OA
BRANCH  79  82
ATOM     82  C   UNL A   1      32.220  25.954  24.812  1.00  0.00     0.093 A 
ATOM     83  C   UNL A   1      31.356  26.119  25.880  1.00  0.00     0.027 A 
ATOM     84  S   UNL A   1      33.601  26.955  24.950  1.00  0.00    -0.118 S 
ATOM     85  C   UNL A   1      31.802  27.131  26.779  1.00  0.00     0.033 A 
ATOM     86  C   UNL A   1      33.000  27.656  26.369  1.00  0.00     0.094 A 
ATOM     87  Cl  UNL A   1      33.892  28.902  27.142  1.00  0.00    -0.072 Cl
ENDBRANCH  79  82
ENDBRANCH  77  78
BRANCH  77  88
ATOM     88  C   UNL A   1      33.011  22.261  25.248  1.00  0.00     0.072 C 
BRANCH  88  89
ATOM     89  C   UNL A   1      33.023  20.963  24.454  1.00  0.00    -0.045 A 
ATOM     90  C   UNL A   1      33.684  19.837  24.966  1.00  0.00     0.007 A 
ATOM     91  C   UNL A   1      32.301  20.820  23.260  1.00  0.00     0.007 A 
ATOM     92  C   UNL A   1      33.548  18.585  24.359  1.00  0.00     0.046 A 
ATOM     93  C   UNL A   1      32.136  19.563  22.667  1.00  0.00     0.046 A 
ATOM     94  C   UNL A   1      32.739  18.450  23.238  1.00  0.00     0.115 A 
BRANCH  94  95
ATOM     95  O   UNL A   1      32.491  17.230  22.685  1.00  0.00    -0.508 OA
ATOM     96  H   UNL A   1      33.043  16.903  22.002  1.00  0.00     0.293 HD
ENDBRANCH  94  95
ENDBRANCH  88  89
ENDBRANCH  77  88
ENDBRANCH  75  77
ENDBRANCH  74  75
ENDBRANCH  73  74
ENDBRANCH  72  73
ENDBRANCH  71  72
ENDBRANCH  70  71
ENDBRANCH   1  70
TORSDOF 25
ENDMDL
MODEL 3
REMARK VINA RESULT:      -9.3      2.275      8.651
REMARK SMILES O=C(OCCOCCOCCOC(=O)[C@H](Cc1ccc(O)cc1)NC(=O)c1ccc(Cl)s1)c1ccc(-c2c3nc(c(-c4ccc(S(=O)(=O)[O-])cc4)c4ccc([nH]4)c(-c4ccc(S(=O)(=O)[O-])cc4)c4nc(c(-c5ccc(S(=O)(=O)[O-])cc5)c5ccc2[nH]5)C=C4)C=C3)cc1
REMARK SMILES IDX 7 1 6 2 5 3 4 4 3 5 2 6 1 7 33 8 34 9 92 10 35 11 91 12
REMARK SMILES IDX 36 13 37 14 38 15 85 16 39 17 90 18 84 19 86 20 40 21 89 22
REMARK SMILES IDX 83 23 82 24 41 26 71 27 52 28 70 29 53 30 56 31 69 32 87 33
REMARK SMILES IDX 54 34 55 35 68 37 88 38 57 39 42 40 43 41 51 42 44 43 50 44
REMARK SMILES IDX 45 45 46 46 47 47 48 48 49 49 72 50 73 51 81 52 74 53 80 54
REMARK SMILES IDX 75 55 76 56 77 57 78 58 79 59 58 60 59 61 67 62 60 63 66 64
REMARK SMILES IDX 61 65 62 66 63 67 64 68 65 69 8 70 9 71 10 72 11 73 12 74
REMARK SMILES IDX 13 75 14 76 15 77 24 78 25 79 26 81 27 82 28 83 32 84 29 85
REMARK SMILES IDX 30 86 31 87 16 88 17 89 18 90 23 91 19 92 22 93 20 94 21 95
REMARK H PARENT 86 25 56 36 24 80 21 96
REMARK Flexibility Score: inf
ROOT
ATOM      1  C   UNL A   1      35.804  32.869  28.167  1.00  0.00     0.188 C 
ENDROOT
BRANCH   1   2
ATOM      2  O   UNL A   1      36.061  33.291  29.511  1.00  0.00    -0.376 OA
BRANCH   2   3
ATOM      3  C   UNL A   1      35.021  32.929  30.430  1.00  0.00     0.202 C 
BRANCH   3   4
ATOM      4  C   UNL A   1      35.335  31.685  31.270  1.00  0.00     0.261 C 
BRANCH   4   5
ATOM      5  O   UNL A   1      36.682  31.687  31.754  1.00  0.00    -0.460 OA
BRANCH   5   6
ATOM      6  C   UNL A   1      37.434  30.603  32.061  1.00  0.00     0.338 C 
ATOM      7  O   UNL A   1      36.987  29.804  32.884  1.00  0.00    -0.246 OA
BRANCH   6   8
ATOM      8  C   UNL A   1      38.765  30.300  31.441  1.00  0.00     0.060 A 
ATOM      9  C   UNL A   1      39.822  29.594  32.035  1.00  0.00     0.016 A 
ATOM     10  C   UNL A   1      38.900  30.652  30.095  1.00  0.00     0.016 A 
ATOM     11  C   UNL A   1      40.988  29.270  31.333  1.00  0.00     0.010 A 
ATOM     12  C   UNL A   1      40.034  30.278  29.373  1.00  0.00     0.010 A 
ATOM     13  C   UNL A   1      41.096  29.589  29.987  1.00  0.00    -0.014 A 
BRANCH  13  14
ATOM     14  C   UNL A   1      42.338  29.339  29.215  1.00  0.00     0.031 A 
ATOM     15  C   UNL A   1      42.540  27.942  28.708  1.00  0.00     0.074 A 
ATOM     16  C   UNL A   1      43.291  30.278  29.047  1.00  0.00     0.049 A 
ATOM     17  N   UNL A   1      43.607  27.384  28.210  1.00  0.00    -0.248 NA
ATOM     18  C   UNL A   1      41.372  27.045  28.800  1.00  0.00     0.031 C 
ATOM     19  C   UNL A   1      43.191  31.689  29.421  1.00  0.00     0.029 A 
ATOM     20  N   UNL A   1      44.577  30.167  28.575  1.00  0.00    -0.354 N 
ATOM     21  C   UNL A   1      43.241  26.070  27.950  1.00  0.00     0.074 A 
ATOM     22  C   UNL A   1      41.899  25.886  28.446  1.00  0.00     0.031 C 
ATOM     23  C   UNL A   1      44.393  32.276  29.299  1.00  0.00     0.029 A 
ATOM     24  C   UNL A   1      45.341  31.294  28.792  1.00  0.00     0.049 A 
ATOM     25  H   UNL A   1      44.919  29.361  28.125  1.00  0.00     0.167 HD
ATOM     26  C   UNL A   1      43.939  25.117  27.294  1.00  0.00     0.031 A 
ATOM     27  C   UNL A   1      46.660  31.506  28.611  1.00  0.00     0.031 A 
ATOM     28  C   UNL A   1      45.261  25.333  26.785  1.00  0.00     0.049 A 
ATOM     29  C   UNL A   1      47.460  30.418  27.952  1.00  0.00     0.074 A 
ATOM     30  C   UNL A   1      46.051  24.481  26.040  1.00  0.00     0.029 A 
ATOM     31  N   UNL A   1      45.986  26.501  26.978  1.00  0.00    -0.354 N 
ATOM     32  N   UNL A   1      47.076  29.205  27.625  1.00  0.00    -0.248 NA
ATOM     33  C   UNL A   1      48.839  30.740  27.571  1.00  0.00     0.031 C 
ATOM     34  C   UNL A   1      47.276  25.121  25.820  1.00  0.00     0.029 A 
ATOM     35  C   UNL A   1      47.226  26.390  26.380  1.00  0.00     0.049 A 
ATOM     36  H   UNL A   1      45.665  27.292  27.468  1.00  0.00     0.167 HD
ATOM     37  C   UNL A   1      48.146  28.639  26.946  1.00  0.00     0.074 A 
ATOM     38  C   UNL A   1      49.197  29.640  26.922  1.00  0.00     0.031 C 
ATOM     39  C   UNL A   1      48.242  27.415  26.369  1.00  0.00     0.031 A 
BRANCH  26  40
ATOM     40  C   UNL A   1      43.252  23.791  27.108  1.00  0.00    -0.014 A 
ATOM     41  C   UNL A   1      43.293  22.808  28.118  1.00  0.00     0.010 A 
ATOM     42  C   UNL A   1      42.636  23.486  25.883  1.00  0.00     0.010 A 
ATOM     43  C   UNL A   1      42.819  21.519  27.872  1.00  0.00     0.020 A 
ATOM     44  C   UNL A   1      42.123  22.206  25.648  1.00  0.00     0.020 A 
ATOM     45  C   UNL A   1      42.249  21.222  26.632  1.00  0.00     0.054 A 
BRANCH  45  46
ATOM     46  S   UNL A   1      41.682  19.528  26.323  1.00  0.00     0.124 S 
ATOM     47  O   UNL A   1      42.016  18.866  27.582  1.00  0.00    -0.237 OA
ATOM     48  O   UNL A   1      40.255  19.708  26.071  1.00  0.00    -0.237 OA
ATOM     49  O   UNL A   1      42.469  19.105  25.168  1.00  0.00    -0.744 OA
ENDBRANCH  45  46
ENDBRANCH  26  40
BRANCH  27  50
ATOM     50  C   UNL A   1      47.274  32.804  29.009  1.00  0.00    -0.014 A 
ATOM     51  C   UNL A   1      47.809  32.985  30.296  1.00  0.00     0.010 A 
ATOM     52  C   UNL A   1      47.364  33.862  28.083  1.00  0.00     0.010 A 
ATOM     53  C   UNL A   1      48.413  34.197  30.653  1.00  0.00     0.020 A 
ATOM     54  C   UNL A   1      47.982  35.070  28.430  1.00  0.00     0.020 A 
ATOM     55  C   UNL A   1      48.501  35.230  29.716  1.00  0.00     0.054 A 
BRANCH  55  56
ATOM     56  S   UNL A   1      49.358  36.762  30.185  1.00  0.00     0.124 S 
ATOM     57  O   UNL A   1      49.690  36.512  31.583  1.00  0.00    -0.237 OA
ATOM     58  O   UNL A   1      50.490  36.779  29.260  1.00  0.00    -0.237 OA
ATOM     59  O   UNL A   1      48.358  37.801  29.949  1.00  0.00    -0.744 OA
ENDBRANCH  55  56
ENDBRANCH  27  50
BRANCH  39  60
ATOM     60  C   UNL A   1      49.503  27.104  25.618  1.00  0.00    -0.014 A 
ATOM     61  C   UNL A   1      49.671  27.500  24.281  1.00  0.00     0.010 A 
ATOM     62  C   UNL A   1      50.574  26.504  26.304  1.00  0.00     0.010 A 
ATOM     63  C   UNL A   1      50.894  27.295  23.640  1.00  0.00     0.020 A 
ATOM     64  C   UNL A   1      51.807  26.326  25.675  1.00  0.00     0.020 A 
ATOM     65  C   UNL A   1      51.956  26.719  24.345  1.00  0.00     0.054 A 
BRANCH  65  66
ATOM     66  S   UNL A   1      53.561  26.556  23.520  1.00  0.00     0.124 S 
ATOM     67  O   UNL A   1      54.258  25.617  24.394  1.00  0.00    -0.237 OA
ATOM     68  O   UNL A   1      53.192  26.037  22.205  1.00  0.00    -0.237 OA
ATOM     69  O   UNL A   1      54.091  27.918  23.519  1.00  0.00    -0.744 OA
ENDBRANCH  65  66
ENDBRANCH  39  60
ENDBRANCH  13  14
ENDBRANCH   6   8
ENDBRANCH   5   6
ENDBRANCH   4   5
ENDBRANCH   3   4
ENDBRANCH   2   3
ENDBRANCH   1   2
BRANCH   1  70
ATOM     70  C   UNL A   1      36.209  31.412  27.922  1.00  0.00     0.188 C 
BRANCH  70  71
ATOM     71  O   UNL A   1      35.188  30.526  27.475  1.00  0.00    -0.376 OA
BRANCH  71  72
ATOM     72  C   UNL A   1      33.860  31.042  27.398  1.00  0.00     0.202 C 
BRANCH  72  73
ATOM     73  C   UNL A   1      32.689  30.043  27.315  1.00  0.00     0.261 C 
BRANCH  73  74
ATOM     74  O   UNL A   1      32.975  28.807  26.622  1.00  0.00    -0.462 OA
BRANCH  74  75
ATOM     75  C   UNL A   1      32.582  28.759  25.315  1.00  0.00     0.329 C 
ATOM     76  O   UNL A   1      33.076  29.450  24.427  1.00  0.00    -0.250 OA
BRANCH  75  77
ATOM     77  C   UNL A   1      31.559  27.646  25.002  1.00  0.00     0.197 C 
BRANCH  77  78
ATOM     78  N   UNL A   1      31.739  27.261  23.595  1.00  0.00    -0.338 N 
ATOM     79  C   UNL A   1      30.832  27.368  22.575  1.00  0.00     0.262 C 
ATOM     80  H   UNL A   1      32.616  26.880  23.358  1.00  0.00     0.164 HD
ATOM     81  O   UNL A   1      31.054  26.730  21.543  1.00  0.00    -0.268 OA
BRANCH  79  82
ATOM     82  C   UNL A   1      29.687  28.218  22.784  1.00  0.00     0.093 A 
ATOM     83  C   UNL A   1      28.392  27.858  23.113  1.00  0.00     0.027 A 
ATOM     84  S   UNL A   1      29.847  29.910  22.589  1.00  0.00    -0.118 S 
ATOM     85  C   UNL A   1      27.512  28.979  23.132  1.00  0.00     0.033 A 
ATOM     86  C   UNL A   1      28.190  30.138  22.855  1.00  0.00     0.094 A 
ATOM     87  Cl  UNL A   1      27.526  31.718  22.762  1.00  0.00    -0.072 Cl
ENDBRANCH  79  82
ENDBRANCH  77  78
BRANCH  77  88
ATOM     88  C   UNL A   1      31.606  26.409  25.889  1.00  0.00     0.072 C 
BRANCH  88  89
ATOM     89  C   UNL A   1      32.594  25.334  25.460  1.00  0.00    -0.045 A 
ATOM     90  C   UNL A   1      32.128  24.162  24.847  1.00  0.00     0.007 A 
ATOM     91  C   UNL A   1      33.981  25.521  25.563  1.00  0.00     0.007 A 
ATOM     92  C   UNL A   1      33.017  23.251  24.268  1.00  0.00     0.046 A 
ATOM     93  C   UNL A   1      34.871  24.627  24.957  1.00  0.00     0.046 A 
ATOM     94  C   UNL A   1      34.380  23.514  24.291  1.00  0.00     0.115 A 
BRANCH  94  95
ATOM     95  O   UNL A   1      35.268  22.710  23.641  1.00  0.00    -0.508 OA
ATOM     96  H   UNL A   1      35.851  23.074  23.004  1.00  0.00     0.293 HD
ENDBRANCH  94  95
ENDBRANCH  88  89
ENDBRANCH  77  88
ENDBRANCH  75  77
ENDBRANCH  74  75
ENDBRANCH  73  74
ENDBRANCH  72  73
ENDBRANCH  71  72
ENDBRANCH  70  71
ENDBRANCH   1  70
TORSDOF 25
ENDMDL
