MODEL 1
REMARK VINA RESULT:     -10.5      0.000      0.000
REMARK SMILES CC(C)=C1[C@H]2CC[C@@H]1[C@H](C(=O)NNC(=O)c1ccoc1C)[C@H]2C(=O)OCCOCCOCCOC(=O)c1ccc(-c2c3nc(c(-c4ccc(S(=O)(=O)[O-])cc4)c4ccc([nH]4)c(-c4ccc(S(=O)(=O)[O-])cc4)c4nc(c(-c5ccc(S(=O)(=O)[O-])cc5)c5ccc2[nH]5)C=C4)C=C3)cc1
REMARK SMILES IDX 29 1 28 2 27 3 26 4 25 5 23 6 24 7 22 8 1 9 2 10 3 11 4 12
REMARK SMILES IDX 5 13 8 14 6 15 7 16 9 17 10 18 11 19 12 20 13 22 14 23 15 25
REMARK SMILES IDX 16 26 17 27 20 28 18 29 19 30 21 31 30 32 31 33 32 34 33 35
REMARK SMILES IDX 34 36 35 37 36 38 37 39 38 40 96 41 39 42 95 43 40 44 41 45
REMARK SMILES IDX 42 46 89 47 43 48 94 49 88 50 90 51 44 52 93 53 87 54 86 55
REMARK SMILES IDX 45 57 75 58 56 59 74 60 57 61 60 62 73 63 91 64 58 65 59 66
REMARK SMILES IDX 72 68 92 69 61 70 46 71 47 72 55 73 48 74 54 75 49 76 50 77
REMARK SMILES IDX 51 78 52 79 53 80 76 81 77 82 85 83 78 84 84 85 79 86 80 87
REMARK SMILES IDX 81 88 82 89 83 90 62 91 63 92 71 93 64 94 70 95 65 96 66 97
REMARK SMILES IDX 67 98 68 99 69 100
REMARK H PARENT 12 21 13 24 90 56 60 67
REMARK Flexibility Score: inf
ROOT
ATOM      1  C   UNL A   1      34.001  28.919  23.586  1.00  0.00     0.188 C 
ENDROOT
BRANCH   1   2
ATOM      2  O   UNL A   1      33.643  27.703  22.954  1.00  0.00    -0.376 OA
BRANCH   2   3
ATOM      3  C   UNL A   1      32.293  27.551  22.530  1.00  0.00     0.202 C 
BRANCH   3   4
ATOM      4  C   UNL A   1      31.777  26.150  22.174  1.00  0.00     0.261 C 
BRANCH   4   5
ATOM      5  O   UNL A   1      32.824  25.196  21.889  1.00  0.00    -0.463 OA
BRANCH   5   6
ATOM      6  C   UNL A   1      32.835  24.118  22.701  1.00  0.00     0.310 C 
ATOM      7  O   UNL A   1      32.099  23.144  22.537  1.00  0.00    -0.252 OA
BRANCH   6   8
ATOM      8  C   UNL A   1      33.926  24.071  23.768  1.00  0.00     0.119 C 
ATOM      9  C   UNL A   1      30.452  23.917  26.707  1.00  0.00     0.039 C 
ATOM     10  C   UNL A   1      31.526  24.765  26.100  1.00  0.00    -0.077 C 
ATOM     11  C   UNL A   1      31.216  26.238  25.988  1.00  0.00     0.039 C 
ATOM     12  C   UNL A   1      32.709  24.268  25.704  1.00  0.00    -0.064 C 
ATOM     13  C   UNL A   1      33.804  24.991  24.989  1.00  0.00     0.030 C 
ATOM     14  C   UNL A   1      33.410  22.927  25.841  1.00  0.00     0.029 C 
ATOM     15  C   UNL A   1      34.956  24.759  25.993  1.00  0.00     0.009 C 
ATOM     16  C   UNL A   1      34.577  23.442  26.692  1.00  0.00     0.009 C 
ATOM     17  C   UNL A   1      33.845  22.639  24.374  1.00  0.00     0.102 C 
BRANCH  17  18
ATOM     18  C   UNL A   1      35.139  21.841  24.170  1.00  0.00     0.243 C 
ATOM     19  O   UNL A   1      36.137  22.341  23.648  1.00  0.00    -0.273 OA
ATOM     20  N   UNL A   1      35.243  20.545  24.624  1.00  0.00    -0.267 N 
ATOM     21  H   UNL A   1      35.960  19.991  24.238  1.00  0.00     0.191 HD
BRANCH  20  22
ATOM     22  N   UNL A   1      34.421  19.946  25.581  1.00  0.00    -0.263 N 
ATOM     23  C   UNL A   1      33.274  19.213  25.323  1.00  0.00     0.273 C 
ATOM     24  H   UNL A   1      34.680  20.054  26.524  1.00  0.00     0.191 HD
ATOM     25  O   UNL A   1      32.484  19.012  26.246  1.00  0.00    -0.267 OA
BRANCH  23  26
ATOM     26  C   UNL A   1      33.027  18.696  23.988  1.00  0.00     0.082 A 
ATOM     27  C   UNL A   1      32.267  19.327  22.957  1.00  0.00     0.056 A 
ATOM     28  C   UNL A   1      33.336  17.439  23.490  1.00  0.00     0.113 A 
ATOM     29  C   UNL A   1      32.226  18.453  21.898  1.00  0.00     0.196 A 
ATOM     30  O   UNL A   1      32.892  17.313  22.207  1.00  0.00    -0.469 OA
ATOM     31  C   UNL A   1      33.968  16.225  24.053  1.00  0.00     0.088 C 
ENDBRANCH  23  26
ENDBRANCH  20  22
ENDBRANCH  17  18
ENDBRANCH   6   8
ENDBRANCH   5   6
ENDBRANCH   4   5
ENDBRANCH   3   4
ENDBRANCH   2   3
ENDBRANCH   1   2
BRANCH   1  32
ATOM     32  C   UNL A   1      33.279  29.238  24.894  1.00  0.00     0.188 C 
BRANCH  32  33
ATOM     33  O   UNL A   1      33.888  28.886  26.121  1.00  0.00    -0.376 OA
BRANCH  33  34
ATOM     34  C   UNL A   1      34.226  29.848  27.113  1.00  0.00     0.202 C 
BRANCH  34  35
ATOM     35  C   UNL A   1      35.667  30.214  27.527  1.00  0.00     0.261 C 
BRANCH  35  36
ATOM     36  O   UNL A   1      36.550  29.157  27.897  1.00  0.00    -0.460 OA
BRANCH  36  37
ATOM     37  C   UNL A   1      37.166  29.256  29.095  1.00  0.00     0.338 C 
ATOM     38  O   UNL A   1      36.630  29.234  30.192  1.00  0.00    -0.246 OA
BRANCH  37  39
ATOM     39  C   UNL A   1      38.624  29.105  28.838  1.00  0.00     0.060 A 
ATOM     40  C   UNL A   1      39.063  29.130  27.508  1.00  0.00     0.016 A 
ATOM     41  C   UNL A   1      39.559  29.093  29.881  1.00  0.00     0.016 A 
ATOM     42  C   UNL A   1      40.431  29.131  27.217  1.00  0.00     0.010 A 
ATOM     43  C   UNL A   1      40.926  29.077  29.589  1.00  0.00     0.010 A 
ATOM     44  C   UNL A   1      41.370  29.072  28.255  1.00  0.00    -0.014 A 
BRANCH  44  45
ATOM     45  C   UNL A   1      42.798  28.791  27.962  1.00  0.00     0.031 A 
ATOM     46  C   UNL A   1      43.786  29.909  28.166  1.00  0.00     0.074 A 
ATOM     47  C   UNL A   1      43.222  27.593  27.520  1.00  0.00     0.049 A 
ATOM     48  N   UNL A   1      45.067  29.944  27.906  1.00  0.00    -0.248 NA
ATOM     49  C   UNL A   1      43.251  31.156  28.736  1.00  0.00     0.031 C 
ATOM     50  C   UNL A   1      42.385  26.411  27.325  1.00  0.00     0.029 A 
ATOM     51  N   UNL A   1      44.478  27.181  27.142  1.00  0.00    -0.354 N 
ATOM     52  C   UNL A   1      45.488  31.217  28.270  1.00  0.00     0.074 A 
ATOM     53  C   UNL A   1      44.322  31.933  28.741  1.00  0.00     0.031 C 
ATOM     54  C   UNL A   1      43.150  25.408  26.853  1.00  0.00     0.029 A 
ATOM     55  C   UNL A   1      44.520  25.889  26.673  1.00  0.00     0.049 A 
ATOM     56  H   UNL A   1      45.274  27.757  27.203  1.00  0.00     0.167 HD
ATOM     57  C   UNL A   1      46.732  31.748  28.219  1.00  0.00     0.031 A 
ATOM     58  C   UNL A   1      45.539  25.186  26.134  1.00  0.00     0.031 A 
ATOM     59  C   UNL A   1      47.888  31.048  27.730  1.00  0.00     0.049 A 
ATOM     60  C   UNL A   1      46.899  25.829  25.999  1.00  0.00     0.074 A 
ATOM     61  C   UNL A   1      49.194  31.500  27.649  1.00  0.00     0.029 A 
ATOM     62  N   UNL A   1      47.879  29.757  27.225  1.00  0.00    -0.354 N 
ATOM     63  N   UNL A   1      47.288  27.026  26.371  1.00  0.00    -0.248 NA
ATOM     64  C   UNL A   1      47.957  25.023  25.372  1.00  0.00     0.031 C 
ATOM     65  C   UNL A   1      49.961  30.506  27.033  1.00  0.00     0.029 A 
ATOM     66  C   UNL A   1      49.150  29.408  26.800  1.00  0.00     0.049 A 
ATOM     67  H   UNL A   1      47.087  29.175  27.178  1.00  0.00     0.167 HD
ATOM     68  C   UNL A   1      48.642  27.102  26.049  1.00  0.00     0.074 A 
ATOM     69  C   UNL A   1      49.007  25.829  25.468  1.00  0.00     0.031 C 
ATOM     70  C   UNL A   1      49.503  28.136  26.221  1.00  0.00     0.031 A 
BRANCH  57  71
ATOM     71  C   UNL A   1      46.893  33.175  28.668  1.00  0.00    -0.014 A 
ATOM     72  C   UNL A   1      46.726  34.247  27.772  1.00  0.00     0.010 A 
ATOM     73  C   UNL A   1      47.191  33.449  30.016  1.00  0.00     0.010 A 
ATOM     74  C   UNL A   1      46.892  35.564  28.209  1.00  0.00     0.020 A 
ATOM     75  C   UNL A   1      47.327  34.765  30.462  1.00  0.00     0.020 A 
ATOM     76  C   UNL A   1      47.193  35.814  29.551  1.00  0.00     0.054 A 
BRANCH  76  77
ATOM     77  S   UNL A   1      47.380  37.535  30.092  1.00  0.00     0.124 S 
ATOM     78  O   UNL A   1      47.891  37.369  31.450  1.00  0.00    -0.237 OA
ATOM     79  O   UNL A   1      48.331  38.073  29.124  1.00  0.00    -0.237 OA
ATOM     80  O   UNL A   1      46.026  38.077  30.000  1.00  0.00    -0.744 OA
ENDBRANCH  76  77
ENDBRANCH  57  71
BRANCH  58  81
ATOM     81  C   UNL A   1      45.315  23.793  25.652  1.00  0.00    -0.014 A 
ATOM     82  C   UNL A   1      44.945  23.546  24.318  1.00  0.00     0.010 A 
ATOM     83  C   UNL A   1      45.452  22.704  26.533  1.00  0.00     0.010 A 
ATOM     84  C   UNL A   1      44.705  22.241  23.878  1.00  0.00     0.020 A 
ATOM     85  C   UNL A   1      45.245  21.395  26.090  1.00  0.00     0.020 A 
ATOM     86  C   UNL A   1      44.864  21.174  24.766  1.00  0.00     0.054 A 
BRANCH  86  87
ATOM     87  S   UNL A   1      44.620  19.486  24.146  1.00  0.00     0.124 S 
ATOM     88  O   UNL A   1      43.383  19.093  24.813  1.00  0.00    -0.237 OA
ATOM     89  O   UNL A   1      44.523  19.702  22.704  1.00  0.00    -0.237 OA
ATOM     90  O   UNL A   1      45.822  18.783  24.586  1.00  0.00    -0.744 OA
ENDBRANCH  86  87
ENDBRANCH  58  81
BRANCH  70  91
ATOM     91  C   UNL A   1      50.941  27.931  25.810  1.00  0.00    -0.014 A 
ATOM     92  C   UNL A   1      51.897  27.430  26.712  1.00  0.00     0.010 A 
ATOM     93  C   UNL A   1      51.324  28.182  24.480  1.00  0.00     0.010 A 
ATOM     94  C   UNL A   1      53.215  27.213  26.298  1.00  0.00     0.020 A 
ATOM     95  C   UNL A   1      52.633  27.937  24.054  1.00  0.00     0.020 A 
ATOM     96  C   UNL A   1      53.574  27.466  24.970  1.00  0.00     0.054 A 
BRANCH  96  97
ATOM     97  S   UNL A   1      55.279  27.131  24.448  1.00  0.00     0.124 S 
ATOM     98  O   UNL A   1      55.301  25.672  24.393  1.00  0.00    -0.237 OA
ATOM     99  O   UNL A   1      55.357  27.810  23.156  1.00  0.00    -0.237 OA
ATOM    100  O   UNL A   1      56.090  27.727  25.508  1.00  0.00    -0.744 OA
ENDBRANCH  96  97
ENDBRANCH  70  91
ENDBRANCH  44  45
ENDBRANCH  37  39
ENDBRANCH  36  37
ENDBRANCH  35  36
ENDBRANCH  34  35
ENDBRANCH  33  34
ENDBRANCH  32  33
ENDBRANCH   1  32
TORSDOF 23
ENDMDL
MODEL 2
REMARK VINA RESULT:     -10.3      6.514     11.909
REMARK SMILES CC(C)=C1[C@H]2CC[C@@H]1[C@H](C(=O)NNC(=O)c1ccoc1C)[C@H]2C(=O)OCCOCCOCCOC(=O)c1ccc(-c2c3nc(c(-c4ccc(S(=O)(=O)[O-])cc4)c4ccc([nH]4)c(-c4ccc(S(=O)(=O)[O-])cc4)c4nc(c(-c5ccc(S(=O)(=O)[O-])cc5)c5ccc2[nH]5)C=C4)C=C3)cc1
REMARK SMILES IDX 29 1 28 2 27 3 26 4 25 5 23 6 24 7 22 8 1 9 2 10 3 11 4 12
REMARK SMILES IDX 5 13 8 14 6 15 7 16 9 17 10 18 11 19 12 20 13 22 14 23 15 25
REMARK SMILES IDX 16 26 17 27 20 28 18 29 19 30 21 31 30 32 31 33 32 34 33 35
REMARK SMILES IDX 34 36 35 37 36 38 37 39 38 40 96 41 39 42 95 43 40 44 41 45
REMARK SMILES IDX 42 46 89 47 43 48 94 49 88 50 90 51 44 52 93 53 87 54 86 55
REMARK SMILES IDX 45 57 75 58 56 59 74 60 57 61 60 62 73 63 91 64 58 65 59 66
REMARK SMILES IDX 72 68 92 69 61 70 46 71 47 72 55 73 48 74 54 75 49 76 50 77
REMARK SMILES IDX 51 78 52 79 53 80 76 81 77 82 85 83 78 84 84 85 79 86 80 87
REMARK SMILES IDX 81 88 82 89 83 90 62 91 63 92 71 93 64 94 70 95 65 96 66 97
REMARK SMILES IDX 67 98 68 99 69 100
REMARK H PARENT 12 21 13 24 90 56 60 67
REMARK Flexibility Score: inf
ROOT
ATOM      1  C   UNL A   1      40.479  20.076  26.385  1.00  0.00     0.188 C 
ENDROOT
BRANCH   1   2
ATOM      2  O   UNL A   1      39.523  21.086  26.651  1.00  0.00    -0.376 OA
BRANCH   2   3
ATOM      3  C   UNL A   1      38.843  21.662  25.542  1.00  0.00     0.202 C 
BRANCH   3   4
ATOM      4  C   UNL A   1      37.310  21.611  25.498  1.00  0.00     0.261 C 
BRANCH   4   5
ATOM      5  O   UNL A   1      36.739  22.188  24.304  1.00  0.00    -0.463 OA
BRANCH   5   6
ATOM      6  C   UNL A   1      36.013  23.306  24.514  1.00  0.00     0.310 C 
ATOM      7  O   UNL A   1      36.425  24.264  25.169  1.00  0.00    -0.252 OA
BRANCH   6   8
ATOM      8  C   UNL A   1      34.687  23.416  23.763  1.00  0.00     0.119 C 
ATOM      9  C   UNL A   1      32.820  22.288  27.760  1.00  0.00     0.039 C 
ATOM     10  C   UNL A   1      33.192  21.818  26.388  1.00  0.00    -0.077 C 
ATOM     11  C   UNL A   1      33.537  20.353  26.266  1.00  0.00     0.039 C 
ATOM     12  C   UNL A   1      33.193  22.628  25.316  1.00  0.00    -0.064 C 
ATOM     13  C   UNL A   1      33.649  22.301  23.931  1.00  0.00     0.030 C 
ATOM     14  C   UNL A   1      32.730  24.049  25.044  1.00  0.00     0.029 C 
ATOM     15  C   UNL A   1      32.349  22.612  23.157  1.00  0.00     0.009 C 
ATOM     16  C   UNL A   1      31.649  23.674  24.024  1.00  0.00     0.009 C 
ATOM     17  C   UNL A   1      33.983  24.671  24.359  1.00  0.00     0.102 C 
BRANCH  17  18
ATOM     18  C   UNL A   1      33.738  25.762  23.308  1.00  0.00     0.243 C 
ATOM     19  O   UNL A   1      33.818  25.531  22.101  1.00  0.00    -0.273 OA
ATOM     20  N   UNL A   1      33.362  27.030  23.689  1.00  0.00    -0.267 N 
ATOM     21  H   UNL A   1      33.486  27.751  23.031  1.00  0.00     0.191 HD
BRANCH  20  22
ATOM     22  N   UNL A   1      32.820  27.385  24.927  1.00  0.00    -0.263 N 
ATOM     23  C   UNL A   1      31.702  28.178  25.128  1.00  0.00     0.273 C 
ATOM     24  H   UNL A   1      33.274  27.040  25.729  1.00  0.00     0.191 HD
ATOM     25  O   UNL A   1      31.519  28.664  26.244  1.00  0.00    -0.267 OA
BRANCH  23  26
ATOM     26  C   UNL A   1      30.774  28.414  24.035  1.00  0.00     0.082 A 
ATOM     27  C   UNL A   1      30.633  29.620  23.283  1.00  0.00     0.056 A 
ATOM     28  C   UNL A   1      29.742  27.595  23.602  1.00  0.00     0.113 A 
ATOM     29  C   UNL A   1      29.588  29.428  22.412  1.00  0.00     0.196 A 
ATOM     30  O   UNL A   1      29.056  28.192  22.586  1.00  0.00    -0.469 OA
ATOM     31  C   UNL A   1      29.206  26.284  24.030  1.00  0.00     0.088 C 
ENDBRANCH  23  26
ENDBRANCH  20  22
ENDBRANCH  17  18
ENDBRANCH   6   8
ENDBRANCH   5   6
ENDBRANCH   4   5
ENDBRANCH   3   4
ENDBRANCH   2   3
ENDBRANCH   1   2
BRANCH   1  32
ATOM     32  C   UNL A   1      41.943  20.457  26.600  1.00  0.00     0.188 C 
BRANCH  32  33
ATOM     33  O   UNL A   1      42.278  21.816  26.804  1.00  0.00    -0.376 OA
BRANCH  33  34
ATOM     34  C   UNL A   1      43.321  22.464  26.084  1.00  0.00     0.202 C 
BRANCH  34  35
ATOM     35  C   UNL A   1      43.168  23.801  25.329  1.00  0.00     0.261 C 
BRANCH  35  36
ATOM     36  O   UNL A   1      43.265  25.011  26.077  1.00  0.00    -0.460 OA
BRANCH  36  37
ATOM     37  C   UNL A   1      42.309  25.943  25.872  1.00  0.00     0.338 C 
ATOM     38  O   UNL A   1      41.571  26.027  24.903  1.00  0.00    -0.246 OA
BRANCH  37  39
ATOM     39  C   UNL A   1      42.132  26.663  27.163  1.00  0.00     0.060 A 
ATOM     40  C   UNL A   1      41.210  26.147  28.082  1.00  0.00     0.016 A 
ATOM     41  C   UNL A   1      42.961  27.731  27.531  1.00  0.00     0.016 A 
ATOM     42  C   UNL A   1      41.105  26.700  29.362  1.00  0.00     0.010 A 
ATOM     43  C   UNL A   1      42.843  28.295  28.805  1.00  0.00     0.010 A 
ATOM     44  C   UNL A   1      41.898  27.799  29.720  1.00  0.00    -0.014 A 
BRANCH  44  45
ATOM     45  C   UNL A   1      41.605  28.567  30.956  1.00  0.00     0.031 A 
ATOM     46  C   UNL A   1      40.449  29.531  30.922  1.00  0.00     0.074 A 
ATOM     47  C   UNL A   1      42.335  28.434  32.079  1.00  0.00     0.049 A 
ATOM     48  N   UNL A   1      40.041  30.373  31.835  1.00  0.00    -0.248 NA
ATOM     49  C   UNL A   1      39.651  29.548  29.684  1.00  0.00     0.031 C 
ATOM     50  C   UNL A   1      43.447  27.505  32.268  1.00  0.00     0.029 A 
ATOM     51  N   UNL A   1      42.247  29.102  33.277  1.00  0.00    -0.354 N 
ATOM     52  C   UNL A   1      38.948  31.026  31.280  1.00  0.00     0.074 A 
ATOM     53  C   UNL A   1      38.774  30.505  29.942  1.00  0.00     0.031 C 
ATOM     54  C   UNL A   1      43.947  27.671  33.507  1.00  0.00     0.029 A 
ATOM     55  C   UNL A   1      43.218  28.744  34.183  1.00  0.00     0.049 A 
ATOM     56  H   UNL A   1      41.554  29.774  33.469  1.00  0.00     0.167 HD
ATOM     57  C   UNL A   1      38.155  31.976  31.830  1.00  0.00     0.031 A 
ATOM     58  C   UNL A   1      43.503  29.244  35.405  1.00  0.00     0.031 A 
ATOM     59  C   UNL A   1      38.339  32.514  33.151  1.00  0.00     0.049 A 
ATOM     60  C   UNL A   1      42.664  30.369  35.964  1.00  0.00     0.074 A 
ATOM     61  C   UNL A   1      37.581  33.472  33.800  1.00  0.00     0.029 A 
ATOM     62  N   UNL A   1      39.358  32.154  34.019  1.00  0.00    -0.354 N 
ATOM     63  N   UNL A   1      41.616  30.960  35.437  1.00  0.00    -0.248 NA
ATOM     64  C   UNL A   1      43.047  30.893  37.284  1.00  0.00     0.031 C 
ATOM     65  C   UNL A   1      38.181  33.739  35.034  1.00  0.00     0.029 A 
ATOM     66  C   UNL A   1      39.269  32.895  35.185  1.00  0.00     0.049 A 
ATOM     67  H   UNL A   1      40.043  31.472  33.834  1.00  0.00     0.167 HD
ATOM     68  C   UNL A   1      41.201  31.903  36.375  1.00  0.00     0.074 A 
ATOM     69  C   UNL A   1      42.098  31.793  37.506  1.00  0.00     0.031 C 
ATOM     70  C   UNL A   1      40.168  32.779  36.305  1.00  0.00     0.031 A 
BRANCH  57  71
ATOM     71  C   UNL A   1      37.040  32.524  30.981  1.00  0.00    -0.014 A 
ATOM     72  C   UNL A   1      37.271  33.543  30.040  1.00  0.00     0.010 A 
ATOM     73  C   UNL A   1      35.745  31.989  31.108  1.00  0.00     0.010 A 
ATOM     74  C   UNL A   1      36.218  34.044  29.270  1.00  0.00     0.020 A 
ATOM     75  C   UNL A   1      34.697  32.466  30.319  1.00  0.00     0.020 A 
ATOM     76  C   UNL A   1      34.938  33.503  29.416  1.00  0.00     0.054 A 
BRANCH  76  77
ATOM     77  S   UNL A   1      33.596  34.159  28.386  1.00  0.00     0.124 S 
ATOM     78  O   UNL A   1      32.729  34.781  29.383  1.00  0.00    -0.237 OA
ATOM     79  O   UNL A   1      34.297  35.083  27.499  1.00  0.00    -0.237 OA
ATOM     80  O   UNL A   1      33.045  32.972  27.737  1.00  0.00    -0.744 OA
ENDBRANCH  76  77
ENDBRANCH  57  71
BRANCH  58  81
ATOM     81  C   UNL A   1      44.653  28.706  36.185  1.00  0.00    -0.014 A 
ATOM     82  C   UNL A   1      44.473  27.642  37.087  1.00  0.00     0.010 A 
ATOM     83  C   UNL A   1      45.935  29.270  36.044  1.00  0.00     0.010 A 
ATOM     84  C   UNL A   1      45.548  27.161  37.840  1.00  0.00     0.020 A 
ATOM     85  C   UNL A   1      47.019  28.771  36.772  1.00  0.00     0.020 A 
ATOM     86  C   UNL A   1      46.816  27.724  37.672  1.00  0.00     0.054 A 
BRANCH  86  87
ATOM     87  S   UNL A   1      48.206  27.028  38.607  1.00  0.00     0.124 S 
ATOM     88  O   UNL A   1      48.286  25.674  38.070  1.00  0.00    -0.237 OA
ATOM     89  O   UNL A   1      49.300  27.924  38.239  1.00  0.00    -0.237 OA
ATOM     90  O   UNL A   1      47.767  27.128  39.997  1.00  0.00    -0.744 OA
ENDBRANCH  86  87
ENDBRANCH  58  81
BRANCH  70  91
ATOM     91  C   UNL A   1      39.920  33.673  37.496  1.00  0.00    -0.014 A 
ATOM     92  C   UNL A   1      40.349  35.012  37.510  1.00  0.00     0.010 A 
ATOM     93  C   UNL A   1      39.186  33.180  38.591  1.00  0.00     0.010 A 
ATOM     94  C   UNL A   1      40.075  35.831  38.609  1.00  0.00     0.020 A 
ATOM     95  C   UNL A   1      38.882  34.005  39.678  1.00  0.00     0.020 A 
ATOM     96  C   UNL A   1      39.340  35.323  39.686  1.00  0.00     0.054 A 
BRANCH  96  97
ATOM     97  S   UNL A   1      38.958  36.421  41.079  1.00  0.00     0.124 S 
ATOM     98  O   UNL A   1      38.596  37.662  40.398  1.00  0.00    -0.237 OA
ATOM     99  O   UNL A   1      37.859  35.724  41.743  1.00  0.00    -0.237 OA
ATOM    100  O   UNL A   1      40.206  36.468  41.836  1.00  0.00    -0.744 OA
ENDBRANCH  96  97
ENDBRANCH  70  91
ENDBRANCH  44  45
ENDBRANCH  37  39
ENDBRANCH  36  37
ENDBRANCH  35  36
ENDBRANCH  34  35
ENDBRANCH  33  34
ENDBRANCH  32  33
ENDBRANCH   1  32
TORSDOF 23
ENDMDL
MODEL 3
REMARK VINA RESULT:     -10.3      2.087      8.284
REMARK SMILES CC(C)=C1[C@H]2CC[C@@H]1[C@H](C(=O)NNC(=O)c1ccoc1C)[C@H]2C(=O)OCCOCCOCCOC(=O)c1ccc(-c2c3nc(c(-c4ccc(S(=O)(=O)[O-])cc4)c4ccc([nH]4)c(-c4ccc(S(=O)(=O)[O-])cc4)c4nc(c(-c5ccc(S(=O)(=O)[O-])cc5)c5ccc2[nH]5)C=C4)C=C3)cc1
REMARK SMILES IDX 29 1 28 2 27 3 26 4 25 5 23 6 24 7 22 8 1 9 2 10 3 11 4 12
REMARK SMILES IDX 5 13 8 14 6 15 7 16 9 17 10 18 11 19 12 20 13 22 14 23 15 25
REMARK SMILES IDX 16 26 17 27 20 28 18 29 19 30 21 31 30 32 31 33 32 34 33 35
REMARK SMILES IDX 34 36 35 37 36 38 37 39 38 40 96 41 39 42 95 43 40 44 41 45
REMARK SMILES IDX 42 46 89 47 43 48 94 49 88 50 90 51 44 52 93 53 87 54 86 55
REMARK SMILES IDX 45 57 75 58 56 59 74 60 57 61 60 62 73 63 91 64 58 65 59 66
REMARK SMILES IDX 72 68 92 69 61 70 46 71 47 72 55 73 48 74 54 75 49 76 50 77
REMARK SMILES IDX 51 78 52 79 53 80 76 81 77 82 85 83 78 84 84 85 79 86 80 87
REMARK SMILES IDX 81 88 82 89 83 90 62 91 63 92 71 93 64 94 70 95 65 96 66 97
REMARK SMILES IDX 67 98 68 99 69 100
REMARK H PARENT 12 21 13 24 90 56 60 67
REMARK Flexibility Score: inf
ROOT
ATOM      1  C   UNL A   1      34.403  31.605  27.636  1.00  0.00     0.188 C 
ENDROOT
BRANCH   1   2
ATOM      2  O   UNL A   1      35.358  30.658  28.079  1.00  0.00    -0.376 OA
BRANCH   2   3
ATOM      3  C   UNL A   1      35.330  29.364  27.489  1.00  0.00     0.202 C 
BRANCH   3   4
ATOM      4  C   UNL A   1      34.141  28.976  26.600  1.00  0.00     0.261 C 
BRANCH   4   5
ATOM      5  O   UNL A   1      33.501  27.739  26.986  1.00  0.00    -0.463 OA
BRANCH   5   6
ATOM      6  C   UNL A   1      32.152  27.785  26.990  1.00  0.00     0.310 C 
ATOM      7  O   UNL A   1      31.512  28.755  27.395  1.00  0.00    -0.252 OA
BRANCH   6   8
ATOM      8  C   UNL A   1      31.423  26.626  26.312  1.00  0.00     0.119 C 
ATOM      9  C   UNL A   1      33.427  28.147  22.517  1.00  0.00     0.039 C 
ATOM     10  C   UNL A   1      32.155  28.069  23.302  1.00  0.00    -0.077 C 
ATOM     11  C   UNL A   1      31.202  29.227  23.125  1.00  0.00     0.039 C 
ATOM     12  C   UNL A   1      31.849  27.028  24.094  1.00  0.00    -0.064 C 
ATOM     13  C   UNL A   1      30.672  26.892  25.003  1.00  0.00     0.030 C 
ATOM     14  C   UNL A   1      32.456  25.658  24.346  1.00  0.00     0.029 C 
ATOM     15  C   UNL A   1      30.056  25.598  24.427  1.00  0.00     0.009 C 
ATOM     16  C   UNL A   1      31.259  24.854  23.823  1.00  0.00     0.009 C 
ATOM     17  C   UNL A   1      32.542  25.624  25.900  1.00  0.00     0.102 C 
BRANCH  17  18
ATOM     18  C   UNL A   1      32.387  24.258  26.582  1.00  0.00     0.243 C 
ATOM     19  O   UNL A   1      31.379  23.963  27.225  1.00  0.00    -0.273 OA
ATOM     20  N   UNL A   1      33.357  23.291  26.442  1.00  0.00    -0.267 N 
ATOM     21  H   UNL A   1      33.358  22.559  27.100  1.00  0.00     0.191 HD
BRANCH  20  22
ATOM     22  N   UNL A   1      34.341  23.257  25.451  1.00  0.00    -0.263 N 
ATOM     23  C   UNL A   1      34.646  22.172  24.645  1.00  0.00     0.273 C 
ATOM     24  H   UNL A   1      34.865  24.079  25.313  1.00  0.00     0.191 HD
ATOM     25  O   UNL A   1      35.720  22.170  24.044  1.00  0.00    -0.267 OA
BRANCH  23  26
ATOM     26  C   UNL A   1      33.704  21.073  24.521  1.00  0.00     0.082 A 
ATOM     27  C   UNL A   1      33.740  19.836  25.233  1.00  0.00     0.056 A 
ATOM     28  C   UNL A   1      32.683  20.926  23.594  1.00  0.00     0.113 A 
ATOM     29  C   UNL A   1      32.714  19.063  24.746  1.00  0.00     0.196 A 
ATOM     30  O   UNL A   1      32.054  19.728  23.765  1.00  0.00    -0.469 OA
ATOM     31  C   UNL A   1      32.185  21.736  22.459  1.00  0.00     0.088 C 
ENDBRANCH  23  26
ENDBRANCH  20  22
ENDBRANCH  17  18
ENDBRANCH   6   8
ENDBRANCH   5   6
ENDBRANCH   4   5
ENDBRANCH   3   4
ENDBRANCH   2   3
ENDBRANCH   1   2
BRANCH   1  32
ATOM     32  C   UNL A   1      34.103  32.760  28.591  1.00  0.00     0.188 C 
BRANCH  32  33
ATOM     33  O   UNL A   1      35.054  33.796  28.738  1.00  0.00    -0.376 OA
BRANCH  33  34
ATOM     34  C   UNL A   1      35.495  34.256  30.011  1.00  0.00     0.202 C 
BRANCH  34  35
ATOM     35  C   UNL A   1      36.126  33.363  31.099  1.00  0.00     0.261 C 
BRANCH  35  36
ATOM     36  O   UNL A   1      36.559  32.055  30.728  1.00  0.00    -0.460 OA
BRANCH  36  37
ATOM     37  C   UNL A   1      37.259  31.352  31.645  1.00  0.00     0.338 C 
ATOM     38  O   UNL A   1      36.852  30.964  32.728  1.00  0.00    -0.246 OA
BRANCH  37  39
ATOM     39  C   UNL A   1      38.505  30.897  30.971  1.00  0.00     0.060 A 
ATOM     40  C   UNL A   1      39.623  30.623  31.769  1.00  0.00     0.016 A 
ATOM     41  C   UNL A   1      38.536  30.596  29.602  1.00  0.00     0.016 A 
ATOM     42  C   UNL A   1      40.772  30.062  31.206  1.00  0.00     0.010 A 
ATOM     43  C   UNL A   1      39.692  30.051  29.036  1.00  0.00     0.010 A 
ATOM     44  C   UNL A   1      40.826  29.803  29.829  1.00  0.00    -0.014 A 
BRANCH  44  45
ATOM     45  C   UNL A   1      42.117  29.476  29.175  1.00  0.00     0.031 A 
ATOM     46  C   UNL A   1      42.301  28.077  28.650  1.00  0.00     0.074 A 
ATOM     47  C   UNL A   1      43.110  30.376  29.049  1.00  0.00     0.049 A 
ATOM     48  N   UNL A   1      43.356  27.522  28.115  1.00  0.00    -0.248 NA
ATOM     49  C   UNL A   1      41.133  27.185  28.749  1.00  0.00     0.031 C 
ATOM     50  C   UNL A   1      43.051  31.775  29.466  1.00  0.00     0.029 A 
ATOM     51  N   UNL A   1      44.378  30.231  28.537  1.00  0.00    -0.354 N 
ATOM     52  C   UNL A   1      42.985  26.215  27.824  1.00  0.00     0.074 A 
ATOM     53  C   UNL A   1      41.618  26.052  28.268  1.00  0.00     0.031 C 
ATOM     54  C   UNL A   1      44.236  32.359  29.203  1.00  0.00     0.029 A 
ATOM     55  C   UNL A   1      45.149  31.366  28.638  1.00  0.00     0.049 A 
ATOM     56  H   UNL A   1      44.703  29.394  28.134  1.00  0.00     0.167 HD
ATOM     57  C   UNL A   1      43.712  25.234  27.240  1.00  0.00     0.031 A 
ATOM     58  C   UNL A   1      46.449  31.570  28.335  1.00  0.00     0.031 A 
ATOM     59  C   UNL A   1      45.079  25.385  26.819  1.00  0.00     0.049 A 
ATOM     60  C   UNL A   1      47.271  30.435  27.771  1.00  0.00     0.074 A 
ATOM     61  C   UNL A   1      45.896  24.451  26.207  1.00  0.00     0.029 A 
ATOM     62  N   UNL A   1      45.834  26.536  26.977  1.00  0.00    -0.354 N 
ATOM     63  N   UNL A   1      46.898  29.211  27.477  1.00  0.00    -0.248 NA
ATOM     64  C   UNL A   1      48.689  30.712  27.496  1.00  0.00     0.031 C 
ATOM     65  C   UNL A   1      47.166  25.015  26.057  1.00  0.00     0.029 A 
ATOM     66  C   UNL A   1      47.119  26.325  26.506  1.00  0.00     0.049 A 
ATOM     67  H   UNL A   1      45.506  27.378  27.366  1.00  0.00     0.167 HD
ATOM     68  C   UNL A   1      48.029  28.585  26.957  1.00  0.00     0.074 A 
ATOM     69  C   UNL A   1      49.092  29.567  26.961  1.00  0.00     0.031 C 
ATOM     70  C   UNL A   1      48.172  27.310  26.515  1.00  0.00     0.031 A 
BRANCH  57  71
ATOM     71  C   UNL A   1      43.050  23.894  27.062  1.00  0.00    -0.014 A 
ATOM     72  C   UNL A   1      42.393  23.556  25.866  1.00  0.00     0.010 A 
ATOM     73  C   UNL A   1      43.111  22.948  28.102  1.00  0.00     0.010 A 
ATOM     74  C   UNL A   1      41.776  22.310  25.728  1.00  0.00     0.020 A 
ATOM     75  C   UNL A   1      42.522  21.691  27.957  1.00  0.00     0.020 A 
ATOM     76  C   UNL A   1      41.843  21.386  26.775  1.00  0.00     0.054 A 
BRANCH  76  77
ATOM     77  S   UNL A   1      41.052  19.768  26.558  1.00  0.00     0.124 S 
ATOM     78  O   UNL A   1      40.930  19.306  27.938  1.00  0.00    -0.237 OA
ATOM     79  O   UNL A   1      39.797  20.113  25.897  1.00  0.00    -0.237 OA
ATOM     80  O   UNL A   1      42.003  19.024  25.735  1.00  0.00    -0.744 OA
ENDBRANCH  76  77
ENDBRANCH  57  71
BRANCH  58  81
ATOM     81  C   UNL A   1      47.075  32.900  28.582  1.00  0.00    -0.014 A 
ATOM     82  C   UNL A   1      47.086  33.885  27.577  1.00  0.00     0.010 A 
ATOM     83  C   UNL A   1      47.683  33.183  29.819  1.00  0.00     0.010 A 
ATOM     84  C   UNL A   1      47.703  35.120  27.802  1.00  0.00     0.020 A 
ATOM     85  C   UNL A   1      48.272  34.428  30.059  1.00  0.00     0.020 A 
ATOM     86  C   UNL A   1      48.284  35.385  29.044  1.00  0.00     0.054 A 
BRANCH  86  87
ATOM     87  S   UNL A   1      49.009  37.024  29.330  1.00  0.00     0.124 S 
ATOM     88  O   UNL A   1      49.040  37.582  27.983  1.00  0.00    -0.237 OA
ATOM     89  O   UNL A   1      48.045  37.627  30.247  1.00  0.00    -0.237 OA
ATOM     90  O   UNL A   1      50.313  36.723  29.915  1.00  0.00    -0.744 OA
ENDBRANCH  86  87
ENDBRANCH  58  81
BRANCH  70  91
ATOM     91  C   UNL A   1      49.516  26.902  25.962  1.00  0.00    -0.014 A 
ATOM     92  C   UNL A   1      49.880  27.191  24.635  1.00  0.00     0.010 A 
ATOM     93  C   UNL A   1      50.452  26.277  26.807  1.00  0.00     0.010 A 
ATOM     94  C   UNL A   1      51.145  26.836  24.156  1.00  0.00     0.020 A 
ATOM     95  C   UNL A   1      51.729  25.949  26.341  1.00  0.00     0.020 A 
ATOM     96  C   UNL A   1      52.063  26.220  25.013  1.00  0.00     0.054 A 
BRANCH  96  97
ATOM     97  S   UNL A   1      53.713  25.812  24.379  1.00  0.00     0.124 S 
ATOM     98  O   UNL A   1      54.576  26.637  25.221  1.00  0.00    -0.237 OA
ATOM     99  O   UNL A   1      53.799  24.372  24.612  1.00  0.00    -0.237 OA
ATOM    100  O   UNL A   1      53.653  26.208  22.974  1.00  0.00    -0.744 OA
ENDBRANCH  96  97
ENDBRANCH  70  91
ENDBRANCH  44  45
ENDBRANCH  37  39
ENDBRANCH  36  37
ENDBRANCH  35  36
ENDBRANCH  34  35
ENDBRANCH  33  34
ENDBRANCH  32  33
ENDBRANCH   1  32
TORSDOF 23
ENDMDL
