MODEL 1
REMARK VINA RESULT:      -9.8      0.000      0.000
REMARK SMILES CC1(C)CCCC[C@@]1(C(=O)OCCOCCOCCOC(=O)c1ccc(-c2c3nc(c(-c4ccc(S(=O)(=O)[O-])cc4)c4ccc([nH]4)c(-c4ccc(S(=O)(=O)[O-])cc4)c4nc(c(-c5ccc(S(=O)(=O)[O-])cc5)c5ccc2[nH]5)C=C4)C=C3)cc1)[NH+]1CC[NH2+]CC1
REMARK SMILES IDX 16 1 15 2 14 3 13 4 12 5 11 6 9 7 10 8 8 9 1 10 2 11 3 12
REMARK SMILES IDX 4 13 5 14 7 15 6 16 83 17 84 18 88 19 85 21 87 22 86 23
REMARK SMILES IDX 17 26 18 27 19 28 20 29 21 30 22 31 23 32 24 33 82 34 25 35
REMARK SMILES IDX 81 36 26 37 27 38 28 39 75 40 29 41 80 42 74 43 76 44 30 45
REMARK SMILES IDX 79 46 73 47 72 48 31 50 61 51 42 52 60 53 43 54 46 55 59 56
REMARK SMILES IDX 77 57 44 58 45 59 58 61 78 62 47 63 32 64 33 65 41 66 34 67
REMARK SMILES IDX 40 68 35 69 36 70 37 71 38 72 39 73 62 74 63 75 71 76 64 77
REMARK SMILES IDX 70 78 65 79 66 80 67 81 68 82 69 83 48 84 49 85 57 86 50 87
REMARK SMILES IDX 56 88 51 89 52 90 53 91 54 92 55 93
REMARK H PARENT 83 20 86 24 86 25 76 49 46 60
REMARK Flexibility Score: inf
ROOT
ATOM      1  C   UNL A   1      31.118  29.143  24.560  1.00  0.00     0.188 C 
ENDROOT
BRANCH   1   2
ATOM      2  C   UNL A   1      31.211  28.892  23.056  1.00  0.00     0.188 C 
BRANCH   2   3
ATOM      3  O   UNL A   1      31.396  27.558  22.610  1.00  0.00    -0.376 OA
BRANCH   3   4
ATOM      4  C   UNL A   1      32.727  27.070  22.530  1.00  0.00     0.202 C 
BRANCH   4   5
ATOM      5  C   UNL A   1      33.536  26.839  23.826  1.00  0.00     0.261 C 
BRANCH   5   6
ATOM      6  O   UNL A   1      34.170  25.553  24.033  1.00  0.00    -0.459 OA
BRANCH   6   7
ATOM      7  C   UNL A   1      33.730  24.906  25.152  1.00  0.00     0.368 C 
ATOM      8  O   UNL A   1      33.223  25.550  26.066  1.00  0.00    -0.245 OA
BRANCH   7   9
ATOM      9  C   UNL A   1      34.022  23.327  25.224  1.00  0.00     0.201 C 
ATOM     10  C   UNL A   1      33.075  21.068  24.029  1.00  0.00     0.018 C 
ATOM     11  C   UNL A   1      33.042  22.629  24.091  1.00  0.00     0.031 C 
ATOM     12  C   UNL A   1      33.382  23.137  22.664  1.00  0.00     0.018 C 
ATOM     13  C   UNL A   1      31.532  22.933  24.395  1.00  0.00     0.013 C 
ATOM     14  C   UNL A   1      31.125  22.566  25.820  1.00  0.00     0.001 C 
ATOM     15  C   UNL A   1      33.511  22.906  26.637  1.00  0.00     0.082 C 
ATOM     16  C   UNL A   1      32.027  23.182  26.875  1.00  0.00     0.007 C 
BRANCH   9  17
ATOM     17  N   UNL A   1      35.542  23.045  25.068  1.00  0.00    -0.311 N 
ATOM     18  C   UNL A   1      35.932  21.633  25.304  1.00  0.00     0.325 C 
ATOM     19  C   UNL A   1      36.428  23.893  25.913  1.00  0.00     0.325 C 
ATOM     20  H   UNL A   1      35.685  23.283  24.086  1.00  0.00     0.349 HD
ATOM     21  C   UNL A   1      37.435  21.265  25.382  1.00  0.00     0.322 C 
ATOM     22  C   UNL A   1      37.935  23.551  25.817  1.00  0.00     0.322 C 
ATOM     23  N   UNL A   1      38.238  22.169  26.203  1.00  0.00    -0.337 N 
ATOM     24  H   UNL A   1      39.228  21.980  26.054  1.00  0.00     0.346 HD
ATOM     25  H   UNL A   1      38.018  22.028  27.189  1.00  0.00     0.346 HD
ENDBRANCH   9  17
ENDBRANCH   7   9
ENDBRANCH   6   7
ENDBRANCH   5   6
ENDBRANCH   4   5
ENDBRANCH   3   4
ENDBRANCH   2   3
ENDBRANCH   1   2
BRANCH   1  26
ATOM     26  O   UNL A   1      32.121  29.971  25.133  1.00  0.00    -0.376 OA
BRANCH  26  27
ATOM     27  C   UNL A   1      31.704  30.833  26.191  1.00  0.00     0.202 C 
BRANCH  27  28
ATOM     28  C   UNL A   1      32.790  31.259  27.202  1.00  0.00     0.261 C 
BRANCH  28  29
ATOM     29  O   UNL A   1      34.102  30.705  26.963  1.00  0.00    -0.460 OA
BRANCH  29  30
ATOM     30  C   UNL A   1      34.394  29.547  27.599  1.00  0.00     0.338 C 
ATOM     31  O   UNL A   1      33.709  28.536  27.586  1.00  0.00    -0.246 OA
BRANCH  30  32
ATOM     32  C   UNL A   1      35.793  29.607  28.106  1.00  0.00     0.060 A 
ATOM     33  C   UNL A   1      36.810  29.904  27.191  1.00  0.00     0.016 A 
ATOM     34  C   UNL A   1      36.122  29.398  29.445  1.00  0.00     0.016 A 
ATOM     35  C   UNL A   1      38.152  29.891  27.566  1.00  0.00     0.010 A 
ATOM     36  C   UNL A   1      37.472  29.373  29.827  1.00  0.00     0.010 A 
ATOM     37  C   UNL A   1      38.496  29.549  28.875  1.00  0.00    -0.014 A 
BRANCH  37  38
ATOM     38  C   UNL A   1      39.883  29.087  29.153  1.00  0.00     0.031 A 
ATOM     39  C   UNL A   1      40.816  30.051  29.845  1.00  0.00     0.074 A 
ATOM     40  C   UNL A   1      40.302  27.836  28.887  1.00  0.00     0.049 A 
ATOM     41  N   UNL A   1      42.078  29.911  30.163  1.00  0.00    -0.248 NA
ATOM     42  C   UNL A   1      40.241  31.352  30.226  1.00  0.00     0.031 C 
ATOM     43  C   UNL A   1      39.494  26.774  28.295  1.00  0.00     0.029 A 
ATOM     44  N   UNL A   1      41.533  27.255  29.083  1.00  0.00    -0.354 N 
ATOM     45  C   UNL A   1      42.450  31.113  30.757  1.00  0.00     0.074 A 
ATOM     46  C   UNL A   1      41.295  31.981  30.718  1.00  0.00     0.031 C 
ATOM     47  C   UNL A   1      40.255  25.673  28.160  1.00  0.00     0.029 A 
ATOM     48  C   UNL A   1      41.613  25.963  28.623  1.00  0.00     0.049 A 
ATOM     49  H   UNL A   1      42.286  27.720  29.516  1.00  0.00     0.167 HD
ATOM     50  C   UNL A   1      43.641  31.467  31.299  1.00  0.00     0.031 A 
ATOM     51  C   UNL A   1      42.663  25.118  28.556  1.00  0.00     0.031 A 
ATOM     52  C   UNL A   1      44.796  30.613  31.332  1.00  0.00     0.049 A 
ATOM     53  C   UNL A   1      44.005  25.550  29.093  1.00  0.00     0.074 A 
ATOM     54  C   UNL A   1      46.051  30.881  31.851  1.00  0.00     0.029 A 
ATOM     55  N   UNL A   1      44.843  29.324  30.821  1.00  0.00    -0.354 N 
ATOM     56  N   UNL A   1      44.347  26.693  29.641  1.00  0.00    -0.248 NA
ATOM     57  C   UNL A   1      45.099  24.572  29.015  1.00  0.00     0.031 C 
ATOM     58  C   UNL A   1      46.873  29.777  31.598  1.00  0.00     0.029 A 
ATOM     59  C   UNL A   1      46.110  28.791  30.992  1.00  0.00     0.049 A 
ATOM     60  H   UNL A   1      44.086  28.856  30.398  1.00  0.00     0.167 HD
ATOM     61  C   UNL A   1      45.687  26.559  30.001  1.00  0.00     0.074 A 
ATOM     62  C   UNL A   1      46.087  25.220  29.618  1.00  0.00     0.031 C 
ATOM     63  C   UNL A   1      46.506  27.460  30.601  1.00  0.00     0.031 A 
BRANCH  50  64
ATOM     64  C   UNL A   1      43.752  32.869  31.842  1.00  0.00    -0.014 A 
ATOM     65  C   UNL A   1      43.565  33.147  33.209  1.00  0.00     0.010 A 
ATOM     66  C   UNL A   1      44.021  33.932  30.961  1.00  0.00     0.010 A 
ATOM     67  C   UNL A   1      43.572  34.466  33.671  1.00  0.00     0.020 A 
ATOM     68  C   UNL A   1      44.067  35.249  31.425  1.00  0.00     0.020 A 
ATOM     69  C   UNL A   1      43.814  35.509  32.772  1.00  0.00     0.054 A 
BRANCH  69  70
ATOM     70  S   UNL A   1      43.792  37.214  33.390  1.00  0.00     0.124 S 
ATOM     71  O   UNL A   1      45.012  37.259  34.194  1.00  0.00    -0.237 OA
ATOM     72  O   UNL A   1      43.823  38.002  32.160  1.00  0.00    -0.237 OA
ATOM     73  O   UNL A   1      42.546  37.295  34.147  1.00  0.00    -0.744 OA
ENDBRANCH  69  70
ENDBRANCH  50  64
BRANCH  51  74
ATOM     74  C   UNL A   1      42.489  23.779  27.924  1.00  0.00    -0.014 A 
ATOM     75  C   UNL A   1      42.602  23.610  26.534  1.00  0.00     0.010 A 
ATOM     76  C   UNL A   1      42.231  22.653  28.729  1.00  0.00     0.010 A 
ATOM     77  C   UNL A   1      42.466  22.341  25.961  1.00  0.00     0.020 A 
ATOM     78  C   UNL A   1      42.125  21.379  28.164  1.00  0.00     0.020 A 
ATOM     79  C   UNL A   1      42.241  21.232  26.781  1.00  0.00     0.054 A 
BRANCH  79  80
ATOM     80  S   UNL A   1      42.163  19.583  26.025  1.00  0.00     0.124 S 
ATOM     81  O   UNL A   1      40.754  19.481  25.658  1.00  0.00    -0.237 OA
ATOM     82  O   UNL A   1      43.100  19.706  24.911  1.00  0.00    -0.237 OA
ATOM     83  O   UNL A   1      42.597  18.693  27.099  1.00  0.00    -0.744 OA
ENDBRANCH  79  80
ENDBRANCH  51  74
BRANCH  63  84
ATOM     84  C   UNL A   1      47.911  27.020  30.930  1.00  0.00    -0.014 A 
ATOM     85  C   UNL A   1      48.218  26.349  32.128  1.00  0.00     0.010 A 
ATOM     86  C   UNL A   1      48.940  27.246  29.994  1.00  0.00     0.010 A 
ATOM     87  C   UNL A   1      49.532  25.957  32.404  1.00  0.00     0.020 A 
ATOM     88  C   UNL A   1      50.248  26.827  30.252  1.00  0.00     0.020 A 
ATOM     89  C   UNL A   1      50.540  26.203  31.465  1.00  0.00     0.054 A 
BRANCH  89  90
ATOM     90  S   UNL A   1      52.235  25.672  31.840  1.00  0.00     0.124 S 
ATOM     91  O   UNL A   1      52.048  24.256  32.147  1.00  0.00    -0.237 OA
ATOM     92  O   UNL A   1      52.942  25.956  30.594  1.00  0.00    -0.237 OA
ATOM     93  O   UNL A   1      52.619  26.510  32.974  1.00  0.00    -0.744 OA
ENDBRANCH  89  90
ENDBRANCH  63  84
ENDBRANCH  37  38
ENDBRANCH  30  32
ENDBRANCH  29  30
ENDBRANCH  28  29
ENDBRANCH  27  28
ENDBRANCH  26  27
ENDBRANCH   1  26
TORSDOF 21
ENDMDL
MODEL 2
REMARK VINA RESULT:      -9.7      3.535      4.149
REMARK SMILES CC1(C)CCCC[C@@]1(C(=O)OCCOCCOCCOC(=O)c1ccc(-c2c3nc(c(-c4ccc(S(=O)(=O)[O-])cc4)c4ccc([nH]4)c(-c4ccc(S(=O)(=O)[O-])cc4)c4nc(c(-c5ccc(S(=O)(=O)[O-])cc5)c5ccc2[nH]5)C=C4)C=C3)cc1)[NH+]1CC[NH2+]CC1
REMARK SMILES IDX 16 1 15 2 14 3 13 4 12 5 11 6 9 7 10 8 8 9 1 10 2 11 3 12
REMARK SMILES IDX 4 13 5 14 7 15 6 16 83 17 84 18 88 19 85 21 87 22 86 23
REMARK SMILES IDX 17 26 18 27 19 28 20 29 21 30 22 31 23 32 24 33 82 34 25 35
REMARK SMILES IDX 81 36 26 37 27 38 28 39 75 40 29 41 80 42 74 43 76 44 30 45
REMARK SMILES IDX 79 46 73 47 72 48 31 50 61 51 42 52 60 53 43 54 46 55 59 56
REMARK SMILES IDX 77 57 44 58 45 59 58 61 78 62 47 63 32 64 33 65 41 66 34 67
REMARK SMILES IDX 40 68 35 69 36 70 37 71 38 72 39 73 62 74 63 75 71 76 64 77
REMARK SMILES IDX 70 78 65 79 66 80 67 81 68 82 69 83 48 84 49 85 57 86 50 87
REMARK SMILES IDX 56 88 51 89 52 90 53 91 54 92 55 93
REMARK H PARENT 83 20 86 24 86 25 76 49 46 60
REMARK Flexibility Score: inf
ROOT
ATOM      1  C   UNL A   1      30.741  29.289  24.280  1.00  0.00     0.188 C 
ENDROOT
BRANCH   1   2
ATOM      2  C   UNL A   1      30.817  28.997  22.783  1.00  0.00     0.188 C 
BRANCH   2   3
ATOM      3  O   UNL A   1      31.810  28.091  22.327  1.00  0.00    -0.376 OA
BRANCH   3   4
ATOM      4  C   UNL A   1      31.459  26.718  22.244  1.00  0.00     0.202 C 
BRANCH   4   5
ATOM      5  C   UNL A   1      32.426  25.722  21.563  1.00  0.00     0.261 C 
BRANCH   5   6
ATOM      6  O   UNL A   1      32.884  24.571  22.313  1.00  0.00    -0.459 OA
BRANCH   6   7
ATOM      7  C   UNL A   1      33.428  24.895  23.523  1.00  0.00     0.368 C 
ATOM      8  O   UNL A   1      33.980  25.982  23.669  1.00  0.00    -0.245 OA
BRANCH   7   9
ATOM      9  C   UNL A   1      33.396  23.750  24.650  1.00  0.00     0.201 C 
ATOM     10  C   UNL A   1      31.671  21.806  25.468  1.00  0.00     0.018 C 
ATOM     11  C   UNL A   1      31.982  22.926  24.425  1.00  0.00     0.031 C 
ATOM     12  C   UNL A   1      31.938  22.255  23.026  1.00  0.00     0.018 C 
ATOM     13  C   UNL A   1      30.748  23.887  24.569  1.00  0.00     0.013 C 
ATOM     14  C   UNL A   1      30.757  24.679  25.874  1.00  0.00     0.001 C 
ATOM     15  C   UNL A   1      33.295  24.536  25.994  1.00  0.00     0.082 C 
ATOM     16  C   UNL A   1      32.059  25.426  26.108  1.00  0.00     0.007 C 
BRANCH   9  17
ATOM     17  N   UNL A   1      34.692  22.893  24.595  1.00  0.00    -0.311 N 
ATOM     18  C   UNL A   1      35.499  22.920  25.840  1.00  0.00     0.325 C 
ATOM     19  C   UNL A   1      35.611  23.216  23.469  1.00  0.00     0.325 C 
ATOM     20  H   UNL A   1      34.303  21.960  24.456  1.00  0.00     0.349 HD
ATOM     21  C   UNL A   1      36.909  22.278  25.843  1.00  0.00     0.322 C 
ATOM     22  C   UNL A   1      36.938  22.419  23.467  1.00  0.00     0.322 C 
ATOM     23  N   UNL A   1      37.732  22.619  24.684  1.00  0.00    -0.337 N 
ATOM     24  H   UNL A   1      38.556  22.019  24.660  1.00  0.00     0.346 HD
ATOM     25  H   UNL A   1      38.032  23.593  24.747  1.00  0.00     0.346 HD
ENDBRANCH   9  17
ENDBRANCH   7   9
ENDBRANCH   6   7
ENDBRANCH   5   6
ENDBRANCH   4   5
ENDBRANCH   3   4
ENDBRANCH   2   3
ENDBRANCH   1   2
BRANCH   1  26
ATOM     26  O   UNL A   1      31.824  28.830  25.077  1.00  0.00    -0.376 OA
BRANCH  26  27
ATOM     27  C   UNL A   1      31.770  29.151  26.467  1.00  0.00     0.202 C 
BRANCH  27  28
ATOM     28  C   UNL A   1      32.323  30.532  26.878  1.00  0.00     0.261 C 
BRANCH  28  29
ATOM     29  O   UNL A   1      33.753  30.683  26.754  1.00  0.00    -0.460 OA
BRANCH  29  30
ATOM     30  C   UNL A   1      34.350  31.532  27.622  1.00  0.00     0.338 C 
ATOM     31  O   UNL A   1      33.797  32.444  28.217  1.00  0.00    -0.246 OA
BRANCH  30  32
ATOM     32  C   UNL A   1      35.717  31.032  27.934  1.00  0.00     0.060 A 
ATOM     33  C   UNL A   1      35.950  29.655  27.836  1.00  0.00     0.016 A 
ATOM     34  C   UNL A   1      36.766  31.875  28.299  1.00  0.00     0.016 A 
ATOM     35  C   UNL A   1      37.175  29.097  28.198  1.00  0.00     0.010 A 
ATOM     36  C   UNL A   1      37.999  31.319  28.674  1.00  0.00     0.010 A 
ATOM     37  C   UNL A   1      38.186  29.922  28.693  1.00  0.00    -0.014 A 
BRANCH  37  38
ATOM     38  C   UNL A   1      39.281  29.310  29.494  1.00  0.00     0.031 A 
ATOM     39  C   UNL A   1      39.373  29.684  30.953  1.00  0.00     0.074 A 
ATOM     40  C   UNL A   1      40.125  28.391  28.992  1.00  0.00     0.049 A 
ATOM     41  N   UNL A   1      40.252  29.326  31.854  1.00  0.00    -0.248 NA
ATOM     42  C   UNL A   1      38.330  30.591  31.459  1.00  0.00     0.031 C 
ATOM     43  C   UNL A   1      40.108  27.873  27.626  1.00  0.00     0.029 A 
ATOM     44  N   UNL A   1      41.173  27.732  29.590  1.00  0.00    -0.354 N 
ATOM     45  C   UNL A   1      39.879  29.983  33.023  1.00  0.00     0.074 A 
ATOM     46  C   UNL A   1      38.723  30.790  32.706  1.00  0.00     0.031 C 
ATOM     47  C   UNL A   1      41.111  26.987  27.485  1.00  0.00     0.029 A 
ATOM     48  C   UNL A   1      41.862  26.903  28.738  1.00  0.00     0.049 A 
ATOM     49  H   UNL A   1      41.407  27.843  30.540  1.00  0.00     0.167 HD
ATOM     50  C   UNL A   1      40.437  29.917  34.256  1.00  0.00     0.031 A 
ATOM     51  C   UNL A   1      42.984  26.178  28.934  1.00  0.00     0.031 A 
ATOM     52  C   UNL A   1      41.593  29.125  34.576  1.00  0.00     0.049 A 
ATOM     53  C   UNL A   1      43.642  26.173  30.292  1.00  0.00     0.074 A 
ATOM     54  C   UNL A   1      42.239  28.996  35.793  1.00  0.00     0.029 A 
ATOM     55  N   UNL A   1      42.281  28.327  33.673  1.00  0.00    -0.354 N 
ATOM     56  N   UNL A   1      43.287  26.807  31.386  1.00  0.00    -0.248 NA
ATOM     57  C   UNL A   1      44.844  25.341  30.445  1.00  0.00     0.031 C 
ATOM     58  C   UNL A   1      43.354  28.170  35.611  1.00  0.00     0.029 A 
ATOM     59  C   UNL A   1      43.357  27.722  34.300  1.00  0.00     0.049 A 
ATOM     60  H   UNL A   1      42.040  28.210  32.726  1.00  0.00     0.167 HD
ATOM     61  C   UNL A   1      44.204  26.426  32.363  1.00  0.00     0.074 A 
ATOM     62  C   UNL A   1      45.120  25.498  31.733  1.00  0.00     0.031 C 
ATOM     63  C   UNL A   1      44.273  26.805  33.665  1.00  0.00     0.031 A 
BRANCH  50  64
ATOM     64  C   UNL A   1      39.824  30.782  35.328  1.00  0.00    -0.014 A 
ATOM     65  C   UNL A   1      40.474  31.936  35.806  1.00  0.00     0.010 A 
ATOM     66  C   UNL A   1      38.586  30.417  35.886  1.00  0.00     0.010 A 
ATOM     67  C   UNL A   1      39.934  32.664  36.870  1.00  0.00     0.020 A 
ATOM     68  C   UNL A   1      38.023  31.164  36.925  1.00  0.00     0.020 A 
ATOM     69  C   UNL A   1      38.715  32.266  37.428  1.00  0.00     0.054 A 
BRANCH  69  70
ATOM     70  S   UNL A   1      38.047  33.210  38.825  1.00  0.00     0.124 S 
ATOM     71  O   UNL A   1      38.622  32.505  39.968  1.00  0.00    -0.237 OA
ATOM     72  O   UNL A   1      38.574  34.552  38.586  1.00  0.00    -0.237 OA
ATOM     73  O   UNL A   1      36.601  33.076  38.675  1.00  0.00    -0.744 OA
ENDBRANCH  69  70
ENDBRANCH  50  64
BRANCH  51  74
ATOM     74  C   UNL A   1      43.575  25.418  27.796  1.00  0.00    -0.014 A 
ATOM     75  C   UNL A   1      44.499  26.016  26.923  1.00  0.00     0.010 A 
ATOM     76  C   UNL A   1      43.227  24.068  27.601  1.00  0.00     0.010 A 
ATOM     77  C   UNL A   1      45.067  25.278  25.879  1.00  0.00     0.020 A 
ATOM     78  C   UNL A   1      43.814  23.319  26.578  1.00  0.00     0.020 A 
ATOM     79  C   UNL A   1      44.730  23.930  25.720  1.00  0.00     0.054 A 
BRANCH  79  80
ATOM     80  S   UNL A   1      45.551  22.968  24.418  1.00  0.00     0.124 S 
ATOM     81  O   UNL A   1      46.187  21.900  25.183  1.00  0.00    -0.237 OA
ATOM     82  O   UNL A   1      44.430  22.562  23.575  1.00  0.00    -0.237 OA
ATOM     83  O   UNL A   1      46.465  23.930  23.807  1.00  0.00    -0.744 OA
ENDBRANCH  79  80
ENDBRANCH  51  74
BRANCH  63  84
ATOM     84  C   UNL A   1      45.350  26.182  34.520  1.00  0.00    -0.014 A 
ATOM     85  C   UNL A   1      46.616  26.777  34.669  1.00  0.00     0.010 A 
ATOM     86  C   UNL A   1      45.069  24.995  35.225  1.00  0.00     0.010 A 
ATOM     87  C   UNL A   1      47.593  26.172  35.466  1.00  0.00     0.020 A 
ATOM     88  C   UNL A   1      46.032  24.405  36.048  1.00  0.00     0.020 A 
ATOM     89  C   UNL A   1      47.296  24.987  36.148  1.00  0.00     0.054 A 
BRANCH  89  90
ATOM     90  S   UNL A   1      48.575  24.229  37.188  1.00  0.00     0.124 S 
ATOM     91  O   UNL A   1      47.896  24.125  38.477  1.00  0.00    -0.237 OA
ATOM     92  O   UNL A   1      48.832  22.962  36.509  1.00  0.00    -0.237 OA
ATOM     93  O   UNL A   1      49.676  25.190  37.140  1.00  0.00    -0.744 OA
ENDBRANCH  89  90
ENDBRANCH  63  84
ENDBRANCH  37  38
ENDBRANCH  30  32
ENDBRANCH  29  30
ENDBRANCH  28  29
ENDBRANCH  27  28
ENDBRANCH  26  27
ENDBRANCH   1  26
TORSDOF 21
ENDMDL
MODEL 3
REMARK VINA RESULT:      -9.5      3.467      4.241
REMARK SMILES CC1(C)CCCC[C@@]1(C(=O)OCCOCCOCCOC(=O)c1ccc(-c2c3nc(c(-c4ccc(S(=O)(=O)[O-])cc4)c4ccc([nH]4)c(-c4ccc(S(=O)(=O)[O-])cc4)c4nc(c(-c5ccc(S(=O)(=O)[O-])cc5)c5ccc2[nH]5)C=C4)C=C3)cc1)[NH+]1CC[NH2+]CC1
REMARK SMILES IDX 16 1 15 2 14 3 13 4 12 5 11 6 9 7 10 8 8 9 1 10 2 11 3 12
REMARK SMILES IDX 4 13 5 14 7 15 6 16 83 17 84 18 88 19 85 21 87 22 86 23
REMARK SMILES IDX 17 26 18 27 19 28 20 29 21 30 22 31 23 32 24 33 82 34 25 35
REMARK SMILES IDX 81 36 26 37 27 38 28 39 75 40 29 41 80 42 74 43 76 44 30 45
REMARK SMILES IDX 79 46 73 47 72 48 31 50 61 51 42 52 60 53 43 54 46 55 59 56
REMARK SMILES IDX 77 57 44 58 45 59 58 61 78 62 47 63 32 64 33 65 41 66 34 67
REMARK SMILES IDX 40 68 35 69 36 70 37 71 38 72 39 73 62 74 63 75 71 76 64 77
REMARK SMILES IDX 70 78 65 79 66 80 67 81 68 82 69 83 48 84 49 85 57 86 50 87
REMARK SMILES IDX 56 88 51 89 52 90 53 91 54 92 55 93
REMARK H PARENT 83 20 86 24 86 25 76 49 46 60
REMARK Flexibility Score: inf
ROOT
ATOM      1  C   UNL A   1      31.627  26.966  25.685  1.00  0.00     0.188 C 
ENDROOT
BRANCH   1   2
ATOM      2  C   UNL A   1      30.462  26.160  25.114  1.00  0.00     0.188 C 
BRANCH   2   3
ATOM      3  O   UNL A   1      30.526  24.745  25.188  1.00  0.00    -0.376 OA
BRANCH   3   4
ATOM      4  C   UNL A   1      30.530  24.153  26.479  1.00  0.00     0.202 C 
BRANCH   4   5
ATOM      5  C   UNL A   1      31.717  23.260  26.907  1.00  0.00     0.261 C 
BRANCH   5   6
ATOM      6  O   UNL A   1      33.045  23.591  26.433  1.00  0.00    -0.459 OA
BRANCH   6   7
ATOM      7  C   UNL A   1      33.987  22.661  26.768  1.00  0.00     0.368 C 
ATOM      8  O   UNL A   1      34.002  22.195  27.905  1.00  0.00    -0.245 OA
BRANCH   7   9
ATOM      9  C   UNL A   1      35.093  22.330  25.651  1.00  0.00     0.201 C 
ATOM     10  C   UNL A   1      35.629  23.091  23.089  1.00  0.00     0.018 C 
ATOM     11  C   UNL A   1      34.739  23.295  24.357  1.00  0.00     0.031 C 
ATOM     12  C   UNL A   1      34.839  24.798  24.733  1.00  0.00     0.018 C 
ATOM     13  C   UNL A   1      33.294  22.998  23.819  1.00  0.00     0.013 C 
ATOM     14  C   UNL A   1      33.060  21.519  23.522  1.00  0.00     0.001 C 
ATOM     15  C   UNL A   1      34.804  20.850  25.249  1.00  0.00     0.082 C 
ATOM     16  C   UNL A   1      33.401  20.615  24.693  1.00  0.00     0.007 C 
BRANCH   9  17
ATOM     17  N   UNL A   1      36.525  22.485  26.236  1.00  0.00    -0.311 N 
ATOM     18  C   UNL A   1      37.020  23.883  26.284  1.00  0.00     0.325 C 
ATOM     19  C   UNL A   1      37.571  21.671  25.559  1.00  0.00     0.325 C 
ATOM     20  H   UNL A   1      36.386  22.135  27.184  1.00  0.00     0.349 HD
ATOM     21  C   UNL A   1      38.501  24.149  26.652  1.00  0.00     0.322 C 
ATOM     22  C   UNL A   1      39.009  21.892  26.091  1.00  0.00     0.322 C 
ATOM     23  N   UNL A   1      39.460  23.282  25.969  1.00  0.00    -0.337 N 
ATOM     24  H   UNL A   1      40.380  23.384  26.397  1.00  0.00     0.346 HD
ATOM     25  H   UNL A   1      39.522  23.542  24.984  1.00  0.00     0.346 HD
ENDBRANCH   9  17
ENDBRANCH   7   9
ENDBRANCH   6   7
ENDBRANCH   5   6
ENDBRANCH   4   5
ENDBRANCH   3   4
ENDBRANCH   2   3
ENDBRANCH   1   2
BRANCH   1  26
ATOM     26  O   UNL A   1      31.460  27.492  26.994  1.00  0.00    -0.376 OA
BRANCH  26  27
ATOM     27  C   UNL A   1      32.505  28.335  27.478  1.00  0.00     0.202 C 
BRANCH  27  28
ATOM     28  C   UNL A   1      32.459  29.813  27.036  1.00  0.00     0.261 C 
BRANCH  28  29
ATOM     29  O   UNL A   1      33.735  30.386  26.677  1.00  0.00    -0.460 OA
BRANCH  29  30
ATOM     30  C   UNL A   1      34.283  31.247  27.565  1.00  0.00     0.338 C 
ATOM     31  O   UNL A   1      33.682  32.119  28.173  1.00  0.00    -0.246 OA
BRANCH  30  32
ATOM     32  C   UNL A   1      35.672  30.810  27.877  1.00  0.00     0.060 A 
ATOM     33  C   UNL A   1      35.977  29.451  27.741  1.00  0.00     0.016 A 
ATOM     34  C   UNL A   1      36.671  31.695  28.279  1.00  0.00     0.016 A 
ATOM     35  C   UNL A   1      37.226  28.946  28.100  1.00  0.00     0.010 A 
ATOM     36  C   UNL A   1      37.928  31.193  28.651  1.00  0.00     0.010 A 
ATOM     37  C   UNL A   1      38.187  29.808  28.631  1.00  0.00    -0.014 A 
BRANCH  37  38
ATOM     38  C   UNL A   1      39.305  29.230  29.425  1.00  0.00     0.031 A 
ATOM     39  C   UNL A   1      39.421  29.642  30.873  1.00  0.00     0.074 A 
ATOM     40  C   UNL A   1      40.152  28.308  28.930  1.00  0.00     0.049 A 
ATOM     41  N   UNL A   1      40.322  29.318  31.765  1.00  0.00    -0.248 NA
ATOM     42  C   UNL A   1      38.376  30.549  31.376  1.00  0.00     0.031 C 
ATOM     43  C   UNL A   1      40.115  27.755  27.579  1.00  0.00     0.029 A 
ATOM     44  N   UNL A   1      41.219  27.678  29.524  1.00  0.00    -0.354 N 
ATOM     45  C   UNL A   1      39.963  29.999  32.924  1.00  0.00     0.074 A 
ATOM     46  C   UNL A   1      38.791  30.784  32.609  1.00  0.00     0.031 C 
ATOM     47  C   UNL A   1      41.126  26.879  27.440  1.00  0.00     0.029 A 
ATOM     48  C   UNL A   1      41.902  26.835  28.680  1.00  0.00     0.049 A 
ATOM     49  H   UNL A   1      41.470  27.815  30.466  1.00  0.00     0.167 HD
ATOM     50  C   UNL A   1      40.545  29.971  34.147  1.00  0.00     0.031 A 
ATOM     51  C   UNL A   1      43.037  26.130  28.873  1.00  0.00     0.031 A 
ATOM     52  C   UNL A   1      41.716  29.202  34.465  1.00  0.00     0.049 A 
ATOM     53  C   UNL A   1      43.721  26.167  30.217  1.00  0.00     0.074 A 
ATOM     54  C   UNL A   1      42.388  29.112  35.672  1.00  0.00     0.029 A 
ATOM     55  N   UNL A   1      42.397  28.390  33.569  1.00  0.00    -0.354 N 
ATOM     56  N   UNL A   1      43.379  26.824  31.301  1.00  0.00    -0.248 NA
ATOM     57  C   UNL A   1      44.935  25.354  30.368  1.00  0.00     0.031 C 
ATOM     58  C   UNL A   1      43.509  28.295  35.489  1.00  0.00     0.029 A 
ATOM     59  C   UNL A   1      43.493  27.814  34.190  1.00  0.00     0.049 A 
ATOM     60  H   UNL A   1      42.139  28.246  32.629  1.00  0.00     0.167 HD
ATOM     61  C   UNL A   1      44.319  26.479  32.270  1.00  0.00     0.074 A 
ATOM     62  C   UNL A   1      45.235  25.547  31.646  1.00  0.00     0.031 C 
ATOM     63  C   UNL A   1      44.408  26.892  33.560  1.00  0.00     0.031 A 
BRANCH  50  64
ATOM     64  C   UNL A   1      39.941  30.856  35.209  1.00  0.00    -0.014 A 
ATOM     65  C   UNL A   1      40.594  32.020  35.657  1.00  0.00     0.010 A 
ATOM     66  C   UNL A   1      38.710  30.499  35.788  1.00  0.00     0.010 A 
ATOM     67  C   UNL A   1      40.064  32.767  36.712  1.00  0.00     0.020 A 
ATOM     68  C   UNL A   1      38.157  31.265  36.817  1.00  0.00     0.020 A 
ATOM     69  C   UNL A   1      38.852  32.378  37.292  1.00  0.00     0.054 A 
BRANCH  69  70
ATOM     70  S   UNL A   1      38.197  33.348  38.677  1.00  0.00     0.124 S 
ATOM     71  O   UNL A   1      38.533  34.712  38.275  1.00  0.00    -0.237 OA
ATOM     72  O   UNL A   1      36.773  33.020  38.653  1.00  0.00    -0.237 OA
ATOM     73  O   UNL A   1      38.930  32.842  39.834  1.00  0.00    -0.744 OA
ENDBRANCH  69  70
ENDBRANCH  50  64
BRANCH  51  74
ATOM     74  C   UNL A   1      43.615  25.348  27.743  1.00  0.00    -0.014 A 
ATOM     75  C   UNL A   1      44.459  25.953  26.796  1.00  0.00     0.010 A 
ATOM     76  C   UNL A   1      43.339  23.972  27.630  1.00  0.00     0.010 A 
ATOM     77  C   UNL A   1      45.018  25.197  25.760  1.00  0.00     0.020 A 
ATOM     78  C   UNL A   1      43.919  23.207  26.615  1.00  0.00     0.020 A 
ATOM     79  C   UNL A   1      44.754  23.826  25.683  1.00  0.00     0.054 A 
BRANCH  79  80
ATOM     80  S   UNL A   1      45.566  22.848  24.388  1.00  0.00     0.124 S 
ATOM     81  O   UNL A   1      46.519  23.806  23.834  1.00  0.00    -0.237 OA
ATOM     82  O   UNL A   1      46.147  21.744  25.147  1.00  0.00    -0.237 OA
ATOM     83  O   UNL A   1      44.467  22.474  23.501  1.00  0.00    -0.744 OA
ENDBRANCH  79  80
ENDBRANCH  51  74
BRANCH  63  84
ATOM     84  C   UNL A   1      45.509  26.304  34.410  1.00  0.00    -0.014 A 
ATOM     85  C   UNL A   1      46.530  27.102  34.957  1.00  0.00     0.010 A 
ATOM     86  C   UNL A   1      45.492  24.927  34.701  1.00  0.00     0.010 A 
ATOM     87  C   UNL A   1      47.537  26.526  35.737  1.00  0.00     0.020 A 
ATOM     88  C   UNL A   1      46.479  24.352  35.507  1.00  0.00     0.020 A 
ATOM     89  C   UNL A   1      47.508  25.153  36.004  1.00  0.00     0.054 A 
BRANCH  89  90
ATOM     90  S   UNL A   1      48.818  24.431  37.032  1.00  0.00     0.124 S 
ATOM     91  O   UNL A   1      48.269  23.114  37.341  1.00  0.00    -0.237 OA
ATOM     92  O   UNL A   1      49.969  24.436  36.133  1.00  0.00    -0.237 OA
ATOM     93  O   UNL A   1      48.915  25.348  38.166  1.00  0.00    -0.744 OA
ENDBRANCH  89  90
ENDBRANCH  63  84
ENDBRANCH  37  38
ENDBRANCH  30  32
ENDBRANCH  29  30
ENDBRANCH  28  29
ENDBRANCH  27  28
ENDBRANCH  26  27
ENDBRANCH   1  26
TORSDOF 21
ENDMDL
