MODEL 1
REMARK VINA RESULT:     -10.7      0.000      0.000
REMARK SMILES O=C(OCCOCCOCCOC(=O)c1ccc(-c2c3nc(c(-c4ccc(S(=O)(=O)[O-])cc4)c4ccc([nH]4)c(-c4ccc(S(=O)(=O)[O-])cc4)c4nc(c(-c5ccc(S(=O)(=O)[O-])cc5)c5ccc2[nH]5)C=C4)C=C3)cc1)c1ccc(/C=C/c2ccc3cccc(O)c3n2)cc1
REMARK SMILES IDX 7 1 6 2 5 3 4 4 3 5 2 6 1 7 75 8 76 9 93 10 77 11 92 12
REMARK SMILES IDX 78 13 79 14 80 15 81 16 82 17 91 18 83 19 90 20 84 21 88 22
REMARK SMILES IDX 85 23 87 24 86 25 89 26 8 28 9 29 10 30 11 31 12 32 13 33
REMARK SMILES IDX 14 34 15 35 16 36 74 37 17 38 73 39 18 40 19 41 20 42 67 43
REMARK SMILES IDX 21 44 72 45 66 46 68 47 22 48 71 49 65 50 64 51 23 53 53 54
REMARK SMILES IDX 34 55 52 56 35 57 38 58 51 59 69 60 36 61 37 62 50 64 70 65
REMARK SMILES IDX 39 66 24 67 25 68 33 69 26 70 32 71 27 72 28 73 29 74 30 75
REMARK SMILES IDX 31 76 54 77 55 78 63 79 56 80 62 81 57 82 58 83 59 84 60 85
REMARK SMILES IDX 61 86 40 87 41 88 49 89 42 90 48 91 43 92 44 93 45 94 46 95
REMARK SMILES IDX 47 96
REMARK H PARENT 89 27 68 52 38 63
REMARK Flexibility Score: inf
ROOT
ATOM      1  C   UNL A   1      43.359  19.799  25.876  1.00  0.00     0.188 C 
ENDROOT
BRANCH   1   2
ATOM      2  O   UNL A   1      41.980  19.969  25.533  1.00  0.00    -0.376 OA
BRANCH   2   3
ATOM      3  C   UNL A   1      41.080  19.981  26.640  1.00  0.00     0.202 C 
BRANCH   3   4
ATOM      4  C   UNL A   1      40.382  21.313  26.946  1.00  0.00     0.261 C 
BRANCH   4   5
ATOM      5  O   UNL A   1      39.594  21.824  25.866  1.00  0.00    -0.460 OA
BRANCH   5   6
ATOM      6  C   UNL A   1      38.394  21.384  25.420  1.00  0.00     0.338 C 
ATOM      7  O   UNL A   1      38.267  20.181  25.198  1.00  0.00    -0.246 OA
BRANCH   6   8
ATOM      8  C   UNL A   1      37.216  22.266  25.170  1.00  0.00     0.060 A 
ATOM      9  C   UNL A   1      36.871  23.402  25.909  1.00  0.00     0.016 A 
ATOM     10  C   UNL A   1      36.489  22.005  24.002  1.00  0.00     0.016 A 
ATOM     11  C   UNL A   1      35.816  24.243  25.519  1.00  0.00     0.009 A 
ATOM     12  C   UNL A   1      35.444  22.844  23.608  1.00  0.00     0.009 A 
ATOM     13  C   UNL A   1      35.090  23.970  24.364  1.00  0.00    -0.026 A 
BRANCH  13  14
ATOM     14  C   UNL A   1      33.883  24.698  23.959  1.00  0.00     0.010 C 
ATOM     15  C   UNL A   1      33.719  25.510  22.894  1.00  0.00     0.029 C 
BRANCH  15  16
ATOM     16  C   UNL A   1      32.883  26.692  23.216  1.00  0.00     0.064 A 
ATOM     17  C   UNL A   1      33.500  27.876  22.810  1.00  0.00     0.029 A 
ATOM     18  N   UNL A   1      32.101  26.603  24.316  1.00  0.00    -0.245 NA
ATOM     19  C   UNL A   1      33.608  28.891  23.746  1.00  0.00     0.013 A 
ATOM     20  C   UNL A   1      32.159  27.629  25.196  1.00  0.00     0.113 A 
ATOM     21  C   UNL A   1      33.002  28.740  24.996  1.00  0.00     0.004 A 
ATOM     22  C   UNL A   1      31.452  27.566  26.392  1.00  0.00     0.141 A 
ATOM     23  C   UNL A   1      33.262  29.631  26.049  1.00  0.00     0.010 A 
ATOM     24  C   UNL A   1      31.661  28.474  27.426  1.00  0.00     0.048 A 
ATOM     25  C   UNL A   1      32.614  29.476  27.272  1.00  0.00     0.005 A 
BRANCH  22  26
ATOM     26  O   UNL A   1      30.561  26.543  26.601  1.00  0.00    -0.506 OA
ATOM     27  H   UNL A   1      30.077  26.188  25.881  1.00  0.00     0.293 HD
ENDBRANCH  22  26
ENDBRANCH  15  16
ENDBRANCH  13  14
ENDBRANCH   6   8
ENDBRANCH   5   6
ENDBRANCH   4   5
ENDBRANCH   3   4
ENDBRANCH   2   3
ENDBRANCH   1   2
BRANCH   1  28
ATOM     28  C   UNL A   1      44.279  20.307  24.764  1.00  0.00     0.188 C 
BRANCH  28  29
ATOM     29  O   UNL A   1      44.124  21.682  24.416  1.00  0.00    -0.376 OA
BRANCH  29  30
ATOM     30  C   UNL A   1      44.078  22.612  25.493  1.00  0.00     0.202 C 
BRANCH  30  31
ATOM     31  C   UNL A   1      42.957  23.662  25.474  1.00  0.00     0.261 C 
BRANCH  31  32
ATOM     32  O   UNL A   1      43.367  25.024  25.705  1.00  0.00    -0.460 OA
BRANCH  32  33
ATOM     33  C   UNL A   1      42.357  25.899  25.897  1.00  0.00     0.338 C 
ATOM     34  O   UNL A   1      41.535  26.278  25.052  1.00  0.00    -0.246 OA
BRANCH  33  35
ATOM     35  C   UNL A   1      42.319  26.410  27.273  1.00  0.00     0.060 A 
ATOM     36  C   UNL A   1      41.329  25.959  28.154  1.00  0.00     0.016 A 
ATOM     37  C   UNL A   1      43.122  27.500  27.619  1.00  0.00     0.016 A 
ATOM     38  C   UNL A   1      41.115  26.629  29.365  1.00  0.00     0.010 A 
ATOM     39  C   UNL A   1      42.913  28.158  28.839  1.00  0.00     0.010 A 
ATOM     40  C   UNL A   1      41.882  27.753  29.707  1.00  0.00    -0.014 A 
BRANCH  40  41
ATOM     41  C   UNL A   1      41.566  28.568  30.916  1.00  0.00     0.031 A 
ATOM     42  C   UNL A   1      40.458  29.591  30.868  1.00  0.00     0.074 A 
ATOM     43  C   UNL A   1      42.232  28.382  32.072  1.00  0.00     0.049 A 
ATOM     44  N   UNL A   1      40.082  30.446  31.785  1.00  0.00    -0.248 NA
ATOM     45  C   UNL A   1      39.651  29.638  29.638  1.00  0.00     0.031 C 
ATOM     46  C   UNL A   1      43.217  27.333  32.312  1.00  0.00     0.029 A 
ATOM     47  N   UNL A   1      42.168  29.059  33.268  1.00  0.00    -0.354 N 
ATOM     48  C   UNL A   1      38.993  31.125  31.252  1.00  0.00     0.074 A 
ATOM     49  C   UNL A   1      38.790  30.608  29.914  1.00  0.00     0.031 C 
ATOM     50  C   UNL A   1      43.649  27.421  33.580  1.00  0.00     0.029 A 
ATOM     51  C   UNL A   1      43.039  28.583  34.222  1.00  0.00     0.049 A 
ATOM     52  H   UNL A   1      41.558  29.815  33.427  1.00  0.00     0.167 HD
ATOM     53  C   UNL A   1      38.218  32.077  31.827  1.00  0.00     0.031 A 
ATOM     54  C   UNL A   1      43.335  29.046  35.455  1.00  0.00     0.031 A 
ATOM     55  C   UNL A   1      38.409  32.592  33.159  1.00  0.00     0.049 A 
ATOM     56  C   UNL A   1      42.646  30.299  35.942  1.00  0.00     0.074 A 
ATOM     57  C   UNL A   1      37.652  33.537  33.832  1.00  0.00     0.029 A 
ATOM     58  N   UNL A   1      39.432  32.219  34.015  1.00  0.00    -0.354 N 
ATOM     59  N   UNL A   1      41.609  30.923  35.435  1.00  0.00    -0.248 NA
ATOM     60  C   UNL A   1      43.175  30.920  37.167  1.00  0.00     0.031 C 
ATOM     61  C   UNL A   1      38.253  33.779  35.072  1.00  0.00     0.029 A 
ATOM     62  C   UNL A   1      39.354  32.947  35.191  1.00  0.00     0.049 A 
ATOM     63  H   UNL A   1      40.114  31.537  33.817  1.00  0.00     0.167 HD
ATOM     64  C   UNL A   1      41.307  31.947  36.330  1.00  0.00     0.074 A 
ATOM     65  C   UNL A   1      42.287  31.879  37.393  1.00  0.00     0.031 C 
ATOM     66  C   UNL A   1      40.293  32.846  36.281  1.00  0.00     0.031 A 
BRANCH  53  67
ATOM     67  C   UNL A   1      37.089  32.649  31.013  1.00  0.00    -0.014 A 
ATOM     68  C   UNL A   1      35.753  32.518  31.434  1.00  0.00     0.010 A 
ATOM     69  C   UNL A   1      37.374  33.395  29.856  1.00  0.00     0.010 A 
ATOM     70  C   UNL A   1      34.721  33.106  30.697  1.00  0.00     0.020 A 
ATOM     71  C   UNL A   1      36.346  34.001  29.128  1.00  0.00     0.020 A 
ATOM     72  C   UNL A   1      35.024  33.844  29.549  1.00  0.00     0.054 A 
BRANCH  72  73
ATOM     73  S   UNL A   1      33.669  34.632  28.635  1.00  0.00     0.124 S 
ATOM     74  O   UNL A   1      32.627  34.719  29.656  1.00  0.00    -0.237 OA
ATOM     75  O   UNL A   1      34.255  35.907  28.228  1.00  0.00    -0.237 OA
ATOM     76  O   UNL A   1      33.395  33.699  27.545  1.00  0.00    -0.744 OA
ENDBRANCH  72  73
ENDBRANCH  53  67
BRANCH  54  77
ATOM     77  C   UNL A   1      44.352  28.365  36.317  1.00  0.00    -0.014 A 
ATOM     78  C   UNL A   1      45.722  28.671  36.205  1.00  0.00     0.010 A 
ATOM     79  C   UNL A   1      43.971  27.357  37.220  1.00  0.00     0.010 A 
ATOM     80  C   UNL A   1      46.682  27.949  36.927  1.00  0.00     0.020 A 
ATOM     81  C   UNL A   1      44.918  26.685  37.995  1.00  0.00     0.020 A 
ATOM     82  C   UNL A   1      46.272  26.959  37.821  1.00  0.00     0.054 A 
BRANCH  82  83
ATOM     83  S   UNL A   1      47.518  25.972  38.697  1.00  0.00     0.124 S 
ATOM     84  O   UNL A   1      46.703  24.989  39.406  1.00  0.00    -0.237 OA
ATOM     85  O   UNL A   1      48.325  25.453  37.597  1.00  0.00    -0.237 OA
ATOM     86  O   UNL A   1      48.192  26.945  39.556  1.00  0.00    -0.744 OA
ENDBRANCH  82  83
ENDBRANCH  54  77
BRANCH  66  87
ATOM     87  C   UNL A   1      40.100  33.751  37.469  1.00  0.00    -0.014 A 
ATOM     88  C   UNL A   1      39.432  33.323  38.630  1.00  0.00     0.010 A 
ATOM     89  C   UNL A   1      40.637  35.053  37.433  1.00  0.00     0.010 A 
ATOM     90  C   UNL A   1      39.273  34.192  39.715  1.00  0.00     0.020 A 
ATOM     91  C   UNL A   1      40.505  35.913  38.525  1.00  0.00     0.020 A 
ATOM     92  C   UNL A   1      39.808  35.483  39.655  1.00  0.00     0.054 A 
BRANCH  92  93
ATOM     93  S   UNL A   1      39.620  36.580  41.088  1.00  0.00     0.124 S 
ATOM     94  O   UNL A   1      39.604  37.900  40.462  1.00  0.00    -0.237 OA
ATOM     95  O   UNL A   1      38.351  36.145  41.665  1.00  0.00    -0.237 OA
ATOM     96  O   UNL A   1      40.798  36.292  41.903  1.00  0.00    -0.744 OA
ENDBRANCH  92  93
ENDBRANCH  66  87
ENDBRANCH  40  41
ENDBRANCH  33  35
ENDBRANCH  32  33
ENDBRANCH  31  32
ENDBRANCH  30  31
ENDBRANCH  29  30
ENDBRANCH  28  29
ENDBRANCH   1  28
TORSDOF 23
ENDMDL
MODEL 2
REMARK VINA RESULT:     -10.1      1.257      8.013
REMARK SMILES O=C(OCCOCCOCCOC(=O)c1ccc(-c2c3nc(c(-c4ccc(S(=O)(=O)[O-])cc4)c4ccc([nH]4)c(-c4ccc(S(=O)(=O)[O-])cc4)c4nc(c(-c5ccc(S(=O)(=O)[O-])cc5)c5ccc2[nH]5)C=C4)C=C3)cc1)c1ccc(/C=C/c2ccc3cccc(O)c3n2)cc1
REMARK SMILES IDX 7 1 6 2 5 3 4 4 3 5 2 6 1 7 75 8 76 9 93 10 77 11 92 12
REMARK SMILES IDX 78 13 79 14 80 15 81 16 82 17 91 18 83 19 90 20 84 21 88 22
REMARK SMILES IDX 85 23 87 24 86 25 89 26 8 28 9 29 10 30 11 31 12 32 13 33
REMARK SMILES IDX 14 34 15 35 16 36 74 37 17 38 73 39 18 40 19 41 20 42 67 43
REMARK SMILES IDX 21 44 72 45 66 46 68 47 22 48 71 49 65 50 64 51 23 53 53 54
REMARK SMILES IDX 34 55 52 56 35 57 38 58 51 59 69 60 36 61 37 62 50 64 70 65
REMARK SMILES IDX 39 66 24 67 25 68 33 69 26 70 32 71 27 72 28 73 29 74 30 75
REMARK SMILES IDX 31 76 54 77 55 78 63 79 56 80 62 81 57 82 58 83 59 84 60 85
REMARK SMILES IDX 61 86 40 87 41 88 49 89 42 90 48 91 43 92 44 93 45 94 46 95
REMARK SMILES IDX 47 96
REMARK H PARENT 89 27 68 52 38 63
REMARK Flexibility Score: inf
ROOT
ATOM      1  C   UNL A   1      44.637  20.672  25.282  1.00  0.00     0.188 C 
ENDROOT
BRANCH   1   2
ATOM      2  O   UNL A   1      43.381  20.015  25.080  1.00  0.00    -0.376 OA
BRANCH   2   3
ATOM      3  C   UNL A   1      42.768  19.509  26.266  1.00  0.00     0.202 C 
BRANCH   3   4
ATOM      4  C   UNL A   1      41.820  20.460  27.010  1.00  0.00     0.261 C 
BRANCH   4   5
ATOM      5  O   UNL A   1      40.896  21.149  26.162  1.00  0.00    -0.460 OA
BRANCH   5   6
ATOM      6  C   UNL A   1      39.675  20.739  25.744  1.00  0.00     0.338 C 
ATOM      7  O   UNL A   1      39.563  19.585  25.334  1.00  0.00    -0.246 OA
BRANCH   6   8
ATOM      8  C   UNL A   1      38.456  21.602  25.736  1.00  0.00     0.060 A 
ATOM      9  C   UNL A   1      38.389  22.930  26.168  1.00  0.00     0.016 A 
ATOM     10  C   UNL A   1      37.329  21.067  25.101  1.00  0.00     0.016 A 
ATOM     11  C   UNL A   1      37.228  23.702  26.002  1.00  0.00     0.009 A 
ATOM     12  C   UNL A   1      36.175  21.835  24.927  1.00  0.00     0.009 A 
ATOM     13  C   UNL A   1      36.107  23.160  25.381  1.00  0.00    -0.026 A 
BRANCH  13  14
ATOM     14  C   UNL A   1      34.806  23.832  25.297  1.00  0.00     0.010 C 
ATOM     15  C   UNL A   1      34.414  24.779  24.420  1.00  0.00     0.029 C 
BRANCH  15  16
ATOM     16  C   UNL A   1      33.574  25.820  25.060  1.00  0.00     0.064 A 
ATOM     17  C   UNL A   1      32.455  25.261  25.677  1.00  0.00     0.029 A 
ATOM     18  N   UNL A   1      33.567  27.040  24.476  1.00  0.00    -0.245 NA
ATOM     19  C   UNL A   1      31.218  25.807  25.370  1.00  0.00     0.013 A 
ATOM     20  C   UNL A   1      32.358  27.600  24.239  1.00  0.00     0.113 A 
ATOM     21  C   UNL A   1      31.153  26.948  24.568  1.00  0.00     0.004 A 
ATOM     22  C   UNL A   1      32.269  28.812  23.561  1.00  0.00     0.141 A 
ATOM     23  C   UNL A   1      29.933  27.410  24.049  1.00  0.00     0.010 A 
ATOM     24  C   UNL A   1      31.059  29.309  23.086  1.00  0.00     0.048 A 
ATOM     25  C   UNL A   1      29.894  28.573  23.283  1.00  0.00     0.005 A 
BRANCH  22  26
ATOM     26  O   UNL A   1      33.411  29.522  23.286  1.00  0.00    -0.506 OA
ATOM     27  H   UNL A   1      33.384  30.240  22.683  1.00  0.00     0.293 HD
ENDBRANCH  22  26
ENDBRANCH  15  16
ENDBRANCH  13  14
ENDBRANCH   6   8
ENDBRANCH   5   6
ENDBRANCH   4   5
ENDBRANCH   3   4
ENDBRANCH   2   3
ENDBRANCH   1   2
BRANCH   1  28
ATOM     28  C   UNL A   1      45.206  21.206  23.966  1.00  0.00     0.188 C 
BRANCH  28  29
ATOM     29  O   UNL A   1      45.315  22.626  23.874  1.00  0.00    -0.376 OA
BRANCH  29  30
ATOM     30  C   UNL A   1      44.816  23.378  24.975  1.00  0.00     0.202 C 
BRANCH  30  31
ATOM     31  C   UNL A   1      43.412  23.986  24.838  1.00  0.00     0.261 C 
BRANCH  31  32
ATOM     32  O   UNL A   1      43.281  25.364  25.243  1.00  0.00    -0.460 OA
BRANCH  32  33
ATOM     33  C   UNL A   1      42.045  25.725  25.646  1.00  0.00     0.338 C 
ATOM     34  O   UNL A   1      40.994  25.617  25.001  1.00  0.00    -0.246 OA
BRANCH  33  35
ATOM     35  C   UNL A   1      42.049  26.308  26.993  1.00  0.00     0.060 A 
ATOM     36  C   UNL A   1      41.040  25.966  27.901  1.00  0.00     0.016 A 
ATOM     37  C   UNL A   1      42.921  27.363  27.278  1.00  0.00     0.016 A 
ATOM     38  C   UNL A   1      40.877  26.711  29.077  1.00  0.00     0.010 A 
ATOM     39  C   UNL A   1      42.763  28.096  28.463  1.00  0.00     0.010 A 
ATOM     40  C   UNL A   1      41.716  27.802  29.356  1.00  0.00    -0.014 A 
BRANCH  40  41
ATOM     41  C   UNL A   1      41.460  28.696  30.522  1.00  0.00     0.031 A 
ATOM     42  C   UNL A   1      42.359  28.635  31.732  1.00  0.00     0.074 A 
ATOM     43  C   UNL A   1      40.453  29.591  30.502  1.00  0.00     0.049 A 
ATOM     44  N   UNL A   1      42.257  29.274  32.870  1.00  0.00    -0.248 NA
ATOM     45  C   UNL A   1      43.541  27.764  31.637  1.00  0.00     0.031 C 
ATOM     46  C   UNL A   1      39.601  29.868  29.350  1.00  0.00     0.029 A 
ATOM     47  N   UNL A   1      39.987  30.445  31.474  1.00  0.00    -0.354 N 
ATOM     48  C   UNL A   1      43.362  28.892  33.622  1.00  0.00     0.074 A 
ATOM     49  C   UNL A   1      44.103  27.937  32.826  1.00  0.00     0.031 C 
ATOM     50  C   UNL A   1      38.732  30.840  29.674  1.00  0.00     0.029 A 
ATOM     51  C   UNL A   1      38.904  31.197  31.079  1.00  0.00     0.049 A 
ATOM     52  H   UNL A   1      40.390  30.511  32.370  1.00  0.00     0.167 HD
ATOM     53  C   UNL A   1      43.739  29.312  34.855  1.00  0.00     0.031 A 
ATOM     54  C   UNL A   1      38.123  32.051  31.775  1.00  0.00     0.031 A 
ATOM     55  C   UNL A   1      43.011  30.266  35.652  1.00  0.00     0.049 A 
ATOM     56  C   UNL A   1      38.410  32.263  33.243  1.00  0.00     0.074 A 
ATOM     57  C   UNL A   1      43.336  30.771  36.900  1.00  0.00     0.029 A 
ATOM     58  N   UNL A   1      41.809  30.851  35.289  1.00  0.00    -0.354 N 
ATOM     59  N   UNL A   1      39.465  31.909  33.938  1.00  0.00    -0.248 NA
ATOM     60  C   UNL A   1      37.395  32.985  34.025  1.00  0.00     0.031 C 
ATOM     61  C   UNL A   1      42.301  31.614  37.317  1.00  0.00     0.029 A 
ATOM     62  C   UNL A   1      41.356  31.675  36.306  1.00  0.00     0.049 A 
ATOM     63  H   UNL A   1      41.345  30.703  34.433  1.00  0.00     0.167 HD
ATOM     64  C   UNL A   1      39.280  32.447  35.209  1.00  0.00     0.074 A 
ATOM     65  C   UNL A   1      38.001  33.126  35.196  1.00  0.00     0.031 C 
ATOM     66  C   UNL A   1      40.110  32.400  36.280  1.00  0.00     0.031 A 
BRANCH  53  67
ATOM     67  C   UNL A   1      44.996  28.729  35.441  1.00  0.00    -0.014 A 
ATOM     68  C   UNL A   1      46.190  29.472  35.480  1.00  0.00     0.010 A 
ATOM     69  C   UNL A   1      44.961  27.453  36.033  1.00  0.00     0.010 A 
ATOM     70  C   UNL A   1      47.334  28.937  36.081  1.00  0.00     0.020 A 
ATOM     71  C   UNL A   1      46.097  26.924  36.652  1.00  0.00     0.020 A 
ATOM     72  C   UNL A   1      47.280  27.667  36.663  1.00  0.00     0.054 A 
BRANCH  72  73
ATOM     73  S   UNL A   1      48.766  27.015  37.474  1.00  0.00     0.124 S 
ATOM     74  O   UNL A   1      48.968  25.753  36.766  1.00  0.00    -0.237 OA
ATOM     75  O   UNL A   1      49.760  28.051  37.204  1.00  0.00    -0.237 OA
ATOM     76  O   UNL A   1      48.371  26.887  38.874  1.00  0.00    -0.744 OA
ENDBRANCH  72  73
ENDBRANCH  53  67
BRANCH  54  77
ATOM     77  C   UNL A   1      36.966  32.747  31.128  1.00  0.00    -0.014 A 
ATOM     78  C   UNL A   1      35.671  32.194  31.165  1.00  0.00     0.010 A 
ATOM     79  C   UNL A   1      37.154  33.944  30.414  1.00  0.00     0.010 A 
ATOM     80  C   UNL A   1      34.615  32.787  30.458  1.00  0.00     0.020 A 
ATOM     81  C   UNL A   1      36.090  34.577  29.769  1.00  0.00     0.020 A 
ATOM     82  C   UNL A   1      34.833  33.978  29.765  1.00  0.00     0.054 A 
BRANCH  82  83
ATOM     83  S   UNL A   1      33.486  34.703  28.787  1.00  0.00     0.124 S 
ATOM     84  O   UNL A   1      33.117  33.608  27.895  1.00  0.00    -0.237 OA
ATOM     85  O   UNL A   1      32.509  35.041  29.816  1.00  0.00    -0.237 OA
ATOM     86  O   UNL A   1      34.113  35.848  28.126  1.00  0.00    -0.744 OA
ENDBRANCH  82  83
ENDBRANCH  54  77
BRANCH  66  87
ATOM     87  C   UNL A   1      39.735  33.209  37.495  1.00  0.00    -0.014 A 
ATOM     88  C   UNL A   1      39.097  32.630  38.605  1.00  0.00     0.010 A 
ATOM     89  C   UNL A   1      40.067  34.577  37.535  1.00  0.00     0.010 A 
ATOM     90  C   UNL A   1      38.765  33.413  39.717  1.00  0.00     0.020 A 
ATOM     91  C   UNL A   1      39.762  35.356  38.654  1.00  0.00     0.020 A 
ATOM     92  C   UNL A   1      39.097  34.772  39.734  1.00  0.00     0.054 A 
BRANCH  92  93
ATOM     93  S   UNL A   1      38.688  35.760  41.200  1.00  0.00     0.124 S 
ATOM     94  O   UNL A   1      39.839  35.514  42.064  1.00  0.00    -0.237 OA
ATOM     95  O   UNL A   1      38.586  37.113  40.659  1.00  0.00    -0.237 OA
ATOM     96  O   UNL A   1      37.426  35.185  41.664  1.00  0.00    -0.744 OA
ENDBRANCH  92  93
ENDBRANCH  66  87
ENDBRANCH  40  41
ENDBRANCH  33  35
ENDBRANCH  32  33
ENDBRANCH  31  32
ENDBRANCH  30  31
ENDBRANCH  29  30
ENDBRANCH  28  29
ENDBRANCH   1  28
TORSDOF 23
ENDMDL
MODEL 3
REMARK VINA RESULT:      -9.9      3.407     10.292
REMARK SMILES O=C(OCCOCCOCCOC(=O)c1ccc(-c2c3nc(c(-c4ccc(S(=O)(=O)[O-])cc4)c4ccc([nH]4)c(-c4ccc(S(=O)(=O)[O-])cc4)c4nc(c(-c5ccc(S(=O)(=O)[O-])cc5)c5ccc2[nH]5)C=C4)C=C3)cc1)c1ccc(/C=C/c2ccc3cccc(O)c3n2)cc1
REMARK SMILES IDX 7 1 6 2 5 3 4 4 3 5 2 6 1 7 75 8 76 9 93 10 77 11 92 12
REMARK SMILES IDX 78 13 79 14 80 15 81 16 82 17 91 18 83 19 90 20 84 21 88 22
REMARK SMILES IDX 85 23 87 24 86 25 89 26 8 28 9 29 10 30 11 31 12 32 13 33
REMARK SMILES IDX 14 34 15 35 16 36 74 37 17 38 73 39 18 40 19 41 20 42 67 43
REMARK SMILES IDX 21 44 72 45 66 46 68 47 22 48 71 49 65 50 64 51 23 53 53 54
REMARK SMILES IDX 34 55 52 56 35 57 38 58 51 59 69 60 36 61 37 62 50 64 70 65
REMARK SMILES IDX 39 66 24 67 25 68 33 69 26 70 32 71 27 72 28 73 29 74 30 75
REMARK SMILES IDX 31 76 54 77 55 78 63 79 56 80 62 81 57 82 58 83 59 84 60 85
REMARK SMILES IDX 61 86 40 87 41 88 49 89 42 90 48 91 43 92 44 93 45 94 46 95
REMARK SMILES IDX 47 96
REMARK H PARENT 89 27 68 52 38 63
REMARK Flexibility Score: inf
ROOT
ATOM      1  C   UNL A   1      44.006  18.508  26.299  1.00  0.00     0.188 C 
ENDROOT
BRANCH   1   2
ATOM      2  O   UNL A   1      43.899  18.261  24.894  1.00  0.00    -0.376 OA
BRANCH   2   3
ATOM      3  C   UNL A   1      44.591  19.194  24.063  1.00  0.00     0.202 C 
BRANCH   3   4
ATOM      4  C   UNL A   1      45.382  20.297  24.778  1.00  0.00     0.261 C 
BRANCH   4   5
ATOM      5  O   UNL A   1      45.312  21.577  24.140  1.00  0.00    -0.460 OA
BRANCH   5   6
ATOM      6  C   UNL A   1      44.563  22.649  24.488  1.00  0.00     0.338 C 
ATOM      7  O   UNL A   1      43.595  22.930  23.784  1.00  0.00    -0.246 OA
BRANCH   6   8
ATOM      8  C   UNL A   1      44.841  23.521  25.668  1.00  0.00     0.060 A 
ATOM      9  C   UNL A   1      44.871  24.919  25.665  1.00  0.00     0.016 A 
ATOM     10  C   UNL A   1      44.931  22.872  26.905  1.00  0.00     0.016 A 
ATOM     11  C   UNL A   1      45.015  25.656  26.851  1.00  0.00     0.009 A 
ATOM     12  C   UNL A   1      45.066  23.602  28.088  1.00  0.00     0.009 A 
ATOM     13  C   UNL A   1      45.116  25.004  28.076  1.00  0.00    -0.026 A 
BRANCH  13  14
ATOM     14  C   UNL A   1      45.417  25.676  29.344  1.00  0.00     0.010 C 
ATOM     15  C   UNL A   1      46.327  25.325  30.276  1.00  0.00     0.029 C 
BRANCH  15  16
ATOM     16  C   UNL A   1      45.825  25.536  31.655  1.00  0.00     0.064 A 
ATOM     17  C   UNL A   1      46.787  26.146  32.459  1.00  0.00     0.029 A 
ATOM     18  N   UNL A   1      44.933  24.631  32.122  1.00  0.00    -0.245 NA
ATOM     19  C   UNL A   1      47.073  25.550  33.677  1.00  0.00     0.013 A 
ATOM     20  C   UNL A   1      45.180  24.100  33.342  1.00  0.00     0.113 A 
ATOM     21  C   UNL A   1      46.316  24.453  34.097  1.00  0.00     0.004 A 
ATOM     22  C   UNL A   1      44.358  23.099  33.849  1.00  0.00     0.141 A 
ATOM     23  C   UNL A   1      46.699  23.682  35.206  1.00  0.00     0.010 A 
ATOM     24  C   UNL A   1      44.698  22.360  34.978  1.00  0.00     0.048 A 
ATOM     25  C   UNL A   1      45.904  22.616  35.624  1.00  0.00     0.005 A 
BRANCH  22  26
ATOM     26  O   UNL A   1      43.199  22.772  33.189  1.00  0.00    -0.506 OA
ATOM     27  H   UNL A   1      42.624  23.449  32.889  1.00  0.00     0.293 HD
ENDBRANCH  22  26
ENDBRANCH  15  16
ENDBRANCH  13  14
ENDBRANCH   6   8
ENDBRANCH   5   6
ENDBRANCH   4   5
ENDBRANCH   3   4
ENDBRANCH   2   3
ENDBRANCH   1   2
BRANCH   1  28
ATOM     28  C   UNL A   1      42.632  18.727  26.935  1.00  0.00     0.188 C 
BRANCH  28  29
ATOM     29  O   UNL A   1      41.716  19.509  26.169  1.00  0.00    -0.376 OA
BRANCH  29  30
ATOM     30  C   UNL A   1      41.831  20.924  26.285  1.00  0.00     0.202 C 
BRANCH  30  31
ATOM     31  C   UNL A   1      41.014  21.611  27.389  1.00  0.00     0.261 C 
BRANCH  31  32
ATOM     32  O   UNL A   1      41.367  22.980  27.673  1.00  0.00    -0.460 OA
BRANCH  32  33
ATOM     33  C   UNL A   1      40.548  23.904  27.129  1.00  0.00     0.338 C 
ATOM     34  O   UNL A   1      39.789  23.745  26.164  1.00  0.00    -0.246 OA
BRANCH  33  35
ATOM     35  C   UNL A   1      40.649  25.203  27.807  1.00  0.00     0.060 A 
ATOM     36  C   UNL A   1      41.799  25.515  28.542  1.00  0.00     0.016 A 
ATOM     37  C   UNL A   1      39.515  26.014  27.902  1.00  0.00     0.016 A 
ATOM     38  C   UNL A   1      41.797  26.617  29.406  1.00  0.00     0.010 A 
ATOM     39  C   UNL A   1      39.523  27.124  28.757  1.00  0.00     0.010 A 
ATOM     40  C   UNL A   1      40.651  27.416  29.547  1.00  0.00    -0.014 A 
BRANCH  40  41
ATOM     41  C   UNL A   1      40.581  28.496  30.573  1.00  0.00     0.031 A 
ATOM     42  C   UNL A   1      41.564  28.514  31.717  1.00  0.00     0.074 A 
ATOM     43  C   UNL A   1      39.672  29.485  30.479  1.00  0.00     0.049 A 
ATOM     44  N   UNL A   1      41.620  29.322  32.746  1.00  0.00    -0.248 NA
ATOM     45  C   UNL A   1      42.641  27.511  31.684  1.00  0.00     0.031 C 
ATOM     46  C   UNL A   1      38.763  29.683  29.355  1.00  0.00     0.029 A 
ATOM     47  N   UNL A   1      39.375  30.521  31.334  1.00  0.00    -0.354 N 
ATOM     48  C   UNL A   1      42.737  28.934  33.476  1.00  0.00     0.074 A 
ATOM     49  C   UNL A   1      43.312  27.794  32.793  1.00  0.00     0.031 C 
ATOM     50  C   UNL A   1      38.025  30.782  29.578  1.00  0.00     0.029 A 
ATOM     51  C   UNL A   1      38.345  31.323  30.897  1.00  0.00     0.049 A 
ATOM     52  H   UNL A   1      39.853  30.673  32.181  1.00  0.00     0.167 HD
ATOM     53  C   UNL A   1      43.252  29.487  34.602  1.00  0.00     0.031 A 
ATOM     54  C   UNL A   1      37.712  32.352  31.500  1.00  0.00     0.031 A 
ATOM     55  C   UNL A   1      42.691  30.624  35.285  1.00  0.00     0.049 A 
ATOM     56  C   UNL A   1      38.137  32.746  32.895  1.00  0.00     0.074 A 
ATOM     57  C   UNL A   1      43.166  31.268  36.416  1.00  0.00     0.029 A 
ATOM     58  N   UNL A   1      41.529  31.280  34.913  1.00  0.00    -0.354 N 
ATOM     59  N   UNL A   1      39.204  32.382  33.568  1.00  0.00    -0.248 NA
ATOM     60  C   UNL A   1      37.266  33.685  33.619  1.00  0.00     0.031 C 
ATOM     61  C   UNL A   1      42.258  32.274  36.763  1.00  0.00     0.029 A 
ATOM     62  C   UNL A   1      41.246  32.291  35.817  1.00  0.00     0.049 A 
ATOM     63  H   UNL A   1      40.985  31.060  34.122  1.00  0.00     0.167 HD
ATOM     64  C   UNL A   1      39.177  33.120  34.749  1.00  0.00     0.074 A 
ATOM     65  C   UNL A   1      37.976  33.928  34.712  1.00  0.00     0.031 C 
ATOM     66  C   UNL A   1      40.082  33.139  35.758  1.00  0.00     0.031 A 
BRANCH  53  67
ATOM     67  C   UNL A   1      44.488  28.859  35.190  1.00  0.00    -0.014 A 
ATOM     68  C   UNL A   1      45.769  29.346  34.873  1.00  0.00     0.010 A 
ATOM     69  C   UNL A   1      44.360  27.823  36.132  1.00  0.00     0.010 A 
ATOM     70  C   UNL A   1      46.903  28.790  35.473  1.00  0.00     0.020 A 
ATOM     71  C   UNL A   1      45.490  27.279  36.749  1.00  0.00     0.020 A 
ATOM     72  C   UNL A   1      46.756  27.760  36.407  1.00  0.00     0.054 A 
BRANCH  72  73
ATOM     73  S   UNL A   1      48.241  27.087  37.203  1.00  0.00     0.124 S 
ATOM     74  O   UNL A   1      48.650  28.193  38.066  1.00  0.00    -0.237 OA
ATOM     75  O   UNL A   1      47.728  25.908  37.896  1.00  0.00    -0.237 OA
ATOM     76  O   UNL A   1      49.138  26.807  36.085  1.00  0.00    -0.744 OA
ENDBRANCH  72  73
ENDBRANCH  53  67
BRANCH  54  77
ATOM     77  C   UNL A   1      36.583  33.070  30.828  1.00  0.00    -0.014 A 
ATOM     78  C   UNL A   1      36.775  33.745  29.607  1.00  0.00     0.010 A 
ATOM     79  C   UNL A   1      35.315  33.140  31.430  1.00  0.00     0.010 A 
ATOM     80  C   UNL A   1      35.749  34.515  29.041  1.00  0.00     0.020 A 
ATOM     81  C   UNL A   1      34.268  33.846  30.834  1.00  0.00     0.020 A 
ATOM     82  C   UNL A   1      34.499  34.559  29.661  1.00  0.00     0.054 A 
BRANCH  82  83
ATOM     83  S   UNL A   1      33.196  35.617  28.971  1.00  0.00     0.124 S 
ATOM     84  O   UNL A   1      32.560  36.159  30.169  1.00  0.00    -0.237 OA
ATOM     85  O   UNL A   1      33.964  36.568  28.174  1.00  0.00    -0.237 OA
ATOM     86  O   UNL A   1      32.365  34.690  28.202  1.00  0.00    -0.744 OA
ENDBRANCH  82  83
ENDBRANCH  54  77
BRANCH  66  87
ATOM     87  C   UNL A   1      39.889  34.156  36.854  1.00  0.00    -0.014 A 
ATOM     88  C   UNL A   1      40.335  35.482  36.724  1.00  0.00     0.010 A 
ATOM     89  C   UNL A   1      39.210  33.776  38.028  1.00  0.00     0.010 A 
ATOM     90  C   UNL A   1      40.137  36.400  37.762  1.00  0.00     0.020 A 
ATOM     91  C   UNL A   1      38.985  34.696  39.055  1.00  0.00     0.020 A 
ATOM     92  C   UNL A   1      39.466  36.000  38.923  1.00  0.00     0.054 A 
BRANCH  92  93
ATOM     93  S   UNL A   1      39.190  37.215  40.242  1.00  0.00     0.124 S 
ATOM     94  O   UNL A   1      38.285  36.496  41.135  1.00  0.00    -0.237 OA
ATOM     95  O   UNL A   1      40.537  37.441  40.760  1.00  0.00    -0.237 OA
ATOM     96  O   UNL A   1      38.599  38.356  39.544  1.00  0.00    -0.744 OA
ENDBRANCH  92  93
ENDBRANCH  66  87
ENDBRANCH  40  41
ENDBRANCH  33  35
ENDBRANCH  32  33
ENDBRANCH  31  32
ENDBRANCH  30  31
ENDBRANCH  29  30
ENDBRANCH  28  29
ENDBRANCH   1  28
TORSDOF 23
ENDMDL
