MODEL 1
REMARK VINA RESULT:      -9.0      0.000      0.000
REMARK SMILES CC(C)(C)[NH+]1CCN(C(=O)CCCC(=O)OCCOCCOCCOC(=O)c2ccc(-c3c4nc(c(-c5ccc(S(=O)(=O)[O-])cc5)c5ccc([nH]5)c(-c5ccc(S(=O)(=O)[O-])cc5)c5nc(c(-c6ccc(S(=O)(=O)[O-])cc6)c6ccc3[nH]6)C=C5)C=C4)cc2)CC1
REMARK SMILES IDX 20 1 19 2 18 3 17 4 16 5 14 6 15 7 13 8 12 9 11 10 9 11 5 12
REMARK SMILES IDX 6 13 89 14 7 16 88 17 8 18 10 19 2 20 1 21 3 22 4 23 21 24
REMARK SMILES IDX 22 25 23 26 24 27 25 28 26 29 27 30 28 31 29 32 87 33 30 34
REMARK SMILES IDX 86 35 31 36 32 37 33 38 80 39 34 40 85 41 79 42 81 43 35 44
REMARK SMILES IDX 84 45 78 46 77 47 36 49 66 50 47 51 65 52 48 53 51 54 64 55
REMARK SMILES IDX 82 56 49 57 50 58 63 60 83 61 52 62 37 63 38 64 46 65 39 66
REMARK SMILES IDX 45 67 40 68 41 69 42 70 43 71 44 72 67 73 68 74 76 75 69 76
REMARK SMILES IDX 75 77 70 78 71 79 72 80 73 81 74 82 53 83 54 84 62 85 55 86
REMARK SMILES IDX 61 87 56 88 57 89 58 90 59 91 60 92
REMARK H PARENT 5 15 81 48 51 59
REMARK Flexibility Score: inf
ROOT
ATOM      1  C   UNL A   1      35.088  32.519  28.294  1.00  0.00     0.188 C 
ENDROOT
BRANCH   1   2
ATOM      2  O   UNL A   1      34.350  31.311  28.232  1.00  0.00    -0.376 OA
BRANCH   2   3
ATOM      3  C   UNL A   1      33.240  31.257  27.347  1.00  0.00     0.202 C 
BRANCH   3   4
ATOM      4  C   UNL A   1      32.694  29.874  26.990  1.00  0.00     0.261 C 
BRANCH   4   5
ATOM      5  O   UNL A   1      31.825  29.893  25.828  1.00  0.00    -0.463 OA
BRANCH   5   6
ATOM      6  C   UNL A   1      32.062  28.975  24.855  1.00  0.00     0.305 C 
ATOM      7  O   UNL A   1      33.058  28.986  24.142  1.00  0.00    -0.252 OA
BRANCH   6   8
ATOM      8  C   UNL A   1      30.939  27.960  24.629  1.00  0.00     0.123 C 
BRANCH   8   9
ATOM      9  C   UNL A   1      30.638  26.762  25.541  1.00  0.00     0.022 C 
BRANCH   9  10
ATOM     10  C   UNL A   1      31.730  26.162  26.431  1.00  0.00     0.101 C 
BRANCH  10  11
ATOM     11  C   UNL A   1      31.744  24.634  26.473  1.00  0.00     0.222 C 
ATOM     12  N   UNL A   1      34.502  22.558  23.886  1.00  0.00    -0.328 N 
ATOM     13  C   UNL A   1      33.457  21.802  24.590  1.00  0.00     0.284 C 
ATOM     14  C   UNL A   1      33.906  23.800  23.395  1.00  0.00     0.284 C 
ATOM     15  H   UNL A   1      34.792  21.977  23.099  1.00  0.00     0.348 HD
ATOM     16  C   UNL A   1      32.759  22.538  25.749  1.00  0.00     0.181 C 
ATOM     17  C   UNL A   1      33.270  24.631  24.507  1.00  0.00     0.181 C 
ATOM     18  N   UNL A   1      32.456  23.946  25.494  1.00  0.00    -0.331 N 
ATOM     19  O   UNL A   1      31.160  24.043  27.384  1.00  0.00    -0.275 OA
BRANCH  12  20
ATOM     20  C   UNL A   1      35.887  22.617  24.425  1.00  0.00     0.089 C 
ATOM     21  C   UNL A   1      36.283  23.845  25.282  1.00  0.00     0.078 C 
ATOM     22  C   UNL A   1      36.780  22.662  23.164  1.00  0.00     0.078 C 
ATOM     23  C   UNL A   1      36.297  21.377  25.248  1.00  0.00     0.078 C 
ENDBRANCH  12  20
ENDBRANCH  10  11
ENDBRANCH   9  10
ENDBRANCH   8   9
ENDBRANCH   6   8
ENDBRANCH   5   6
ENDBRANCH   4   5
ENDBRANCH   3   4
ENDBRANCH   2   3
ENDBRANCH   1   2
BRANCH   1  24
ATOM     24  C   UNL A   1      34.800  33.478  29.463  1.00  0.00     0.188 C 
BRANCH  24  25
ATOM     25  O   UNL A   1      34.216  33.002  30.648  1.00  0.00    -0.376 OA
BRANCH  25  26
ATOM     26  C   UNL A   1      34.864  33.191  31.889  1.00  0.00     0.202 C 
BRANCH  26  27
ATOM     27  C   UNL A   1      35.963  32.273  32.467  1.00  0.00     0.261 C 
BRANCH  27  28
ATOM     28  O   UNL A   1      37.002  31.820  31.595  1.00  0.00    -0.460 OA
BRANCH  28  29
ATOM     29  C   UNL A   1      36.949  30.522  31.196  1.00  0.00     0.338 C 
ATOM     30  O   UNL A   1      35.954  29.820  31.118  1.00  0.00    -0.246 OA
BRANCH  29  31
ATOM     31  C   UNL A   1      38.269  30.183  30.604  1.00  0.00     0.060 A 
ATOM     32  C   UNL A   1      39.324  29.809  31.453  1.00  0.00     0.016 A 
ATOM     33  C   UNL A   1      38.436  30.141  29.220  1.00  0.00     0.016 A 
ATOM     34  C   UNL A   1      40.542  29.379  30.919  1.00  0.00     0.010 A 
ATOM     35  C   UNL A   1      39.668  29.748  28.688  1.00  0.00     0.010 A 
ATOM     36  C   UNL A   1      40.730  29.373  29.532  1.00  0.00    -0.014 A 
BRANCH  36  37
ATOM     37  C   UNL A   1      42.071  29.149  28.941  1.00  0.00     0.031 A 
ATOM     38  C   UNL A   1      42.406  27.770  28.445  1.00  0.00     0.074 A 
ATOM     39  C   UNL A   1      42.998  30.123  28.890  1.00  0.00     0.049 A 
ATOM     40  N   UNL A   1      43.556  27.283  28.059  1.00  0.00    -0.248 NA
ATOM     41  C   UNL A   1      41.290  26.810  28.384  1.00  0.00     0.031 C 
ATOM     42  C   UNL A   1      42.789  31.518  29.277  1.00  0.00     0.029 A 
ATOM     43  N   UNL A   1      44.321  30.072  28.516  1.00  0.00    -0.354 N 
ATOM     44  C   UNL A   1      43.308  25.959  27.721  1.00  0.00     0.074 A 
ATOM     45  C   UNL A   1      41.902  25.714  27.961  1.00  0.00     0.031 C 
ATOM     46  C   UNL A   1      43.954  32.182  29.154  1.00  0.00     0.029 A 
ATOM     47  C   UNL A   1      44.997  31.251  28.726  1.00  0.00     0.049 A 
ATOM     48  H   UNL A   1      44.742  29.268  28.135  1.00  0.00     0.167 HD
ATOM     49  C   UNL A   1      44.173  25.027  27.258  1.00  0.00     0.031 A 
ATOM     50  C   UNL A   1      46.314  31.533  28.631  1.00  0.00     0.031 A 
ATOM     51  C   UNL A   1      45.576  25.258  27.050  1.00  0.00     0.049 A 
ATOM     52  C   UNL A   1      47.282  30.447  28.228  1.00  0.00     0.074 A 
ATOM     53  C   UNL A   1      46.532  24.374  26.581  1.00  0.00     0.029 A 
ATOM     54  N   UNL A   1      46.229  26.453  27.311  1.00  0.00    -0.354 N 
ATOM     55  N   UNL A   1      47.035  29.202  27.898  1.00  0.00    -0.248 NA
ATOM     56  C   UNL A   1      48.709  30.804  28.196  1.00  0.00     0.031 C 
ATOM     57  C   UNL A   1      47.775  25.017  26.617  1.00  0.00     0.029 A 
ATOM     58  C   UNL A   1      47.581  26.319  27.051  1.00  0.00     0.049 A 
ATOM     59  H   UNL A   1      45.793  27.275  27.634  1.00  0.00     0.167 HD
ATOM     60  C   UNL A   1      48.272  28.632  27.607  1.00  0.00     0.074 A 
ATOM     61  C   UNL A   1      49.264  29.672  27.779  1.00  0.00     0.031 C 
ATOM     62  C   UNL A   1      48.561  27.361  27.233  1.00  0.00     0.031 A 
BRANCH  49  63
ATOM     63  C   UNL A   1      43.627  23.652  26.988  1.00  0.00    -0.014 A 
ATOM     64  C   UNL A   1      43.554  23.143  25.679  1.00  0.00     0.010 A 
ATOM     65  C   UNL A   1      43.209  22.847  28.062  1.00  0.00     0.010 A 
ATOM     66  C   UNL A   1      43.039  21.866  25.446  1.00  0.00     0.020 A 
ATOM     67  C   UNL A   1      42.717  21.558  27.836  1.00  0.00     0.020 A 
ATOM     68  C   UNL A   1      42.621  21.082  26.527  1.00  0.00     0.054 A 
BRANCH  68  69
ATOM     69  S   UNL A   1      41.976  19.420  26.197  1.00  0.00     0.124 S 
ATOM     70  O   UNL A   1      42.415  18.686  27.381  1.00  0.00    -0.237 OA
ATOM     71  O   UNL A   1      40.538  19.649  26.097  1.00  0.00    -0.237 OA
ATOM     72  O   UNL A   1      42.632  19.036  24.949  1.00  0.00    -0.744 OA
ENDBRANCH  68  69
ENDBRANCH  49  63
BRANCH  50  73
ATOM     73  C   UNL A   1      46.814  32.890  28.990  1.00  0.00    -0.014 A 
ATOM     74  C   UNL A   1      46.797  33.936  28.050  1.00  0.00     0.010 A 
ATOM     75  C   UNL A   1      47.332  33.138  30.275  1.00  0.00     0.010 A 
ATOM     76  C   UNL A   1      47.297  35.199  28.385  1.00  0.00     0.020 A 
ATOM     77  C   UNL A   1      47.808  34.406  30.623  1.00  0.00     0.020 A 
ATOM     78  C   UNL A   1      47.797  35.426  29.671  1.00  0.00     0.054 A 
BRANCH  78  79
ATOM     79  S   UNL A   1      48.392  37.087  30.100  1.00  0.00     0.124 S 
ATOM     80  O   UNL A   1      49.639  37.168  29.345  1.00  0.00    -0.237 OA
ATOM     81  O   UNL A   1      47.308  37.944  29.626  1.00  0.00    -0.237 OA
ATOM     82  O   UNL A   1      48.542  37.031  31.553  1.00  0.00    -0.744 OA
ENDBRANCH  78  79
ENDBRANCH  50  73
BRANCH  62  83
ATOM     83  C   UNL A   1      50.004  27.012  26.973  1.00  0.00    -0.014 A 
ATOM     84  C   UNL A   1      50.633  27.379  25.770  1.00  0.00     0.010 A 
ATOM     85  C   UNL A   1      50.764  26.387  27.980  1.00  0.00     0.010 A 
ATOM     86  C   UNL A   1      51.991  27.115  25.572  1.00  0.00     0.020 A 
ATOM     87  C   UNL A   1      52.128  26.144  27.796  1.00  0.00     0.020 A 
ATOM     88  C   UNL A   1      52.732  26.503  26.588  1.00  0.00     0.054 A 
BRANCH  88  89
ATOM     89  S   UNL A   1      54.509  26.234  26.332  1.00  0.00     0.124 S 
ATOM     90  O   UNL A   1      54.603  26.192  24.876  1.00  0.00    -0.237 OA
ATOM     91  O   UNL A   1      55.105  27.406  26.968  1.00  0.00    -0.237 OA
ATOM     92  O   UNL A   1      54.768  24.965  27.009  1.00  0.00    -0.744 OA
ENDBRANCH  88  89
ENDBRANCH  62  83
ENDBRANCH  36  37
ENDBRANCH  29  31
ENDBRANCH  28  29
ENDBRANCH  27  28
ENDBRANCH  26  27
ENDBRANCH  25  26
ENDBRANCH  24  25
ENDBRANCH   1  24
TORSDOF 24
ENDMDL
MODEL 2
REMARK VINA RESULT:      -8.0      4.004     10.564
REMARK SMILES CC(C)(C)[NH+]1CCN(C(=O)CCCC(=O)OCCOCCOCCOC(=O)c2ccc(-c3c4nc(c(-c5ccc(S(=O)(=O)[O-])cc5)c5ccc([nH]5)c(-c5ccc(S(=O)(=O)[O-])cc5)c5nc(c(-c6ccc(S(=O)(=O)[O-])cc6)c6ccc3[nH]6)C=C5)C=C4)cc2)CC1
REMARK SMILES IDX 20 1 19 2 18 3 17 4 16 5 14 6 15 7 13 8 12 9 11 10 9 11 5 12
REMARK SMILES IDX 6 13 89 14 7 16 88 17 8 18 10 19 2 20 1 21 3 22 4 23 21 24
REMARK SMILES IDX 22 25 23 26 24 27 25 28 26 29 27 30 28 31 29 32 87 33 30 34
REMARK SMILES IDX 86 35 31 36 32 37 33 38 80 39 34 40 85 41 79 42 81 43 35 44
REMARK SMILES IDX 84 45 78 46 77 47 36 49 66 50 47 51 65 52 48 53 51 54 64 55
REMARK SMILES IDX 82 56 49 57 50 58 63 60 83 61 52 62 37 63 38 64 46 65 39 66
REMARK SMILES IDX 45 67 40 68 41 69 42 70 43 71 44 72 67 73 68 74 76 75 69 76
REMARK SMILES IDX 75 77 70 78 71 79 72 80 73 81 74 82 53 83 54 84 62 85 55 86
REMARK SMILES IDX 61 87 56 88 57 89 58 90 59 91 60 92
REMARK H PARENT 5 15 81 48 51 59
REMARK Flexibility Score: inf
ROOT
ATOM      1  C   UNL A   1      33.674  35.516  31.612  1.00  0.00     0.188 C 
ENDROOT
BRANCH   1   2
ATOM      2  O   UNL A   1      34.715  34.556  31.570  1.00  0.00    -0.376 OA
BRANCH   2   3
ATOM      3  C   UNL A   1      34.477  33.292  32.172  1.00  0.00     0.202 C 
BRANCH   3   4
ATOM      4  C   UNL A   1      35.611  32.266  32.123  1.00  0.00     0.261 C 
BRANCH   4   5
ATOM      5  O   UNL A   1      36.925  32.878  32.097  1.00  0.00    -0.463 OA
BRANCH   5   6
ATOM      6  C   UNL A   1      37.604  32.952  33.273  1.00  0.00     0.305 C 
ATOM      7  O   UNL A   1      38.232  33.940  33.630  1.00  0.00    -0.252 OA
BRANCH   6   8
ATOM      8  C   UNL A   1      37.621  31.663  34.097  1.00  0.00     0.123 C 
BRANCH   8   9
ATOM      9  C   UNL A   1      38.886  30.980  34.637  1.00  0.00     0.022 C 
BRANCH   9  10
ATOM     10  C   UNL A   1      40.121  30.807  33.749  1.00  0.00     0.101 C 
BRANCH  10  11
ATOM     11  C   UNL A   1      40.521  29.354  33.495  1.00  0.00     0.222 C 
ATOM     12  N   UNL A   1      44.584  28.188  34.352  1.00  0.00    -0.328 N 
ATOM     13  C   UNL A   1      43.706  27.270  33.615  1.00  0.00     0.284 C 
ATOM     14  C   UNL A   1      44.353  29.539  33.842  1.00  0.00     0.284 C 
ATOM     15  H   UNL A   1      45.540  27.897  34.143  1.00  0.00     0.348 HD
ATOM     16  C   UNL A   1      42.201  27.594  33.665  1.00  0.00     0.181 C 
ATOM     17  C   UNL A   1      42.891  29.967  33.943  1.00  0.00     0.181 C 
ATOM     18  N   UNL A   1      41.870  29.014  33.548  1.00  0.00    -0.331 N 
ATOM     19  O   UNL A   1      39.648  28.508  33.285  1.00  0.00    -0.275 OA
BRANCH  12  20
ATOM     20  C   UNL A   1      44.796  28.024  35.815  1.00  0.00     0.089 C 
ATOM     21  C   UNL A   1      43.546  27.954  36.727  1.00  0.00     0.078 C 
ATOM     22  C   UNL A   1      45.566  29.298  36.231  1.00  0.00     0.078 C 
ATOM     23  C   UNL A   1      45.664  26.804  36.194  1.00  0.00     0.078 C 
ENDBRANCH  12  20
ENDBRANCH  10  11
ENDBRANCH   9  10
ENDBRANCH   8   9
ENDBRANCH   6   8
ENDBRANCH   5   6
ENDBRANCH   4   5
ENDBRANCH   3   4
ENDBRANCH   2   3
ENDBRANCH   1   2
BRANCH   1  24
ATOM     24  C   UNL A   1      32.931  35.830  30.302  1.00  0.00     0.188 C 
BRANCH  24  25
ATOM     25  O   UNL A   1      33.644  36.206  29.151  1.00  0.00    -0.376 OA
BRANCH  25  26
ATOM     26  C   UNL A   1      34.167  35.222  28.282  1.00  0.00     0.202 C 
BRANCH  26  27
ATOM     27  C   UNL A   1      33.565  33.816  28.068  1.00  0.00     0.261 C 
BRANCH  27  28
ATOM     28  O   UNL A   1      34.036  32.741  28.886  1.00  0.00    -0.460 OA
BRANCH  28  29
ATOM     29  C   UNL A   1      34.336  31.574  28.256  1.00  0.00     0.338 C 
ATOM     30  O   UNL A   1      33.692  31.034  27.371  1.00  0.00    -0.246 OA
BRANCH  29  31
ATOM     31  C   UNL A   1      35.725  31.207  28.632  1.00  0.00     0.060 A 
ATOM     32  C   UNL A   1      36.750  32.154  28.471  1.00  0.00     0.016 A 
ATOM     33  C   UNL A   1      35.998  29.975  29.227  1.00  0.00     0.016 A 
ATOM     34  C   UNL A   1      38.045  31.877  28.919  1.00  0.00     0.010 A 
ATOM     35  C   UNL A   1      37.301  29.685  29.639  1.00  0.00     0.010 A 
ATOM     36  C   UNL A   1      38.334  30.628  29.481  1.00  0.00    -0.014 A 
BRANCH  36  37
ATOM     37  C   UNL A   1      39.732  30.213  29.750  1.00  0.00     0.031 A 
ATOM     38  C   UNL A   1      40.689  31.246  30.277  1.00  0.00     0.074 A 
ATOM     39  C   UNL A   1      40.168  28.968  29.486  1.00  0.00     0.049 A 
ATOM     40  N   UNL A   1      41.986  31.180  30.419  1.00  0.00    -0.248 NA
ATOM     41  C   UNL A   1      40.098  32.530  30.693  1.00  0.00     0.031 C 
ATOM     42  C   UNL A   1      39.338  27.853  29.033  1.00  0.00     0.029 A 
ATOM     43  N   UNL A   1      41.439  28.443  29.534  1.00  0.00    -0.354 N 
ATOM     44  C   UNL A   1      42.371  32.414  30.928  1.00  0.00     0.074 A 
ATOM     45  C   UNL A   1      41.172  33.214  31.056  1.00  0.00     0.031 C 
ATOM     46  C   UNL A   1      40.127  26.786  28.811  1.00  0.00     0.029 A 
ATOM     47  C   UNL A   1      41.520  27.155  29.060  1.00  0.00     0.049 A 
ATOM     48  H   UNL A   1      42.216  28.943  29.876  1.00  0.00     0.167 HD
ATOM     49  C   UNL A   1      43.612  32.846  31.253  1.00  0.00     0.031 A 
ATOM     50  C   UNL A   1      42.597  26.382  28.809  1.00  0.00     0.031 A 
ATOM     51  C   UNL A   1      44.807  32.064  31.096  1.00  0.00     0.049 A 
ATOM     52  C   UNL A   1      43.982  26.925  29.067  1.00  0.00     0.074 A 
ATOM     53  C   UNL A   1      46.110  32.417  31.402  1.00  0.00     0.029 A 
ATOM     54  N   UNL A   1      44.851  30.780  30.577  1.00  0.00    -0.354 N 
ATOM     55  N   UNL A   1      44.334  28.088  29.561  1.00  0.00    -0.248 NA
ATOM     56  C   UNL A   1      45.116  26.052  28.721  1.00  0.00     0.031 C 
ATOM     57  C   UNL A   1      46.949  31.368  31.009  1.00  0.00     0.029 A 
ATOM     58  C   UNL A   1      46.161  30.340  30.515  1.00  0.00     0.049 A 
ATOM     59  H   UNL A   1      44.065  30.259  30.292  1.00  0.00     0.167 HD
ATOM     60  C   UNL A   1      45.726  28.081  29.597  1.00  0.00     0.074 A 
ATOM     61  C   UNL A   1      46.152  26.792  29.096  1.00  0.00     0.031 C 
ATOM     62  C   UNL A   1      46.575  29.056  30.007  1.00  0.00     0.031 A 
BRANCH  49  63
ATOM     63  C   UNL A   1      43.738  34.252  31.773  1.00  0.00    -0.014 A 
ATOM     64  C   UNL A   1      43.737  35.353  30.898  1.00  0.00     0.010 A 
ATOM     65  C   UNL A   1      43.829  34.475  33.158  1.00  0.00     0.010 A 
ATOM     66  C   UNL A   1      43.860  36.651  31.399  1.00  0.00     0.020 A 
ATOM     67  C   UNL A   1      43.926  35.774  33.665  1.00  0.00     0.020 A 
ATOM     68  C   UNL A   1      43.956  36.852  32.780  1.00  0.00     0.054 A 
BRANCH  68  69
ATOM     69  S   UNL A   1      44.094  38.550  33.402  1.00  0.00     0.124 S 
ATOM     70  O   UNL A   1      45.022  38.387  34.518  1.00  0.00    -0.237 OA
ATOM     71  O   UNL A   1      44.623  39.272  32.247  1.00  0.00    -0.237 OA
ATOM     72  O   UNL A   1      42.725  38.895  33.775  1.00  0.00    -0.744 OA
ENDBRANCH  68  69
ENDBRANCH  49  63
BRANCH  50  73
ATOM     73  C   UNL A   1      42.420  25.026  28.217  1.00  0.00    -0.014 A 
ATOM     74  C   UNL A   1      42.510  23.872  29.016  1.00  0.00     0.010 A 
ATOM     75  C   UNL A   1      42.179  24.880  26.837  1.00  0.00     0.010 A 
ATOM     76  C   UNL A   1      42.374  22.601  28.446  1.00  0.00     0.020 A 
ATOM     77  C   UNL A   1      42.015  23.614  26.268  1.00  0.00     0.020 A 
ATOM     78  C   UNL A   1      42.124  22.481  27.076  1.00  0.00     0.054 A 
BRANCH  78  79
ATOM     79  S   UNL A   1      41.898  20.825  26.367  1.00  0.00     0.124 S 
ATOM     80  O   UNL A   1      41.709  20.007  27.561  1.00  0.00    -0.237 OA
ATOM     81  O   UNL A   1      40.717  20.999  25.525  1.00  0.00    -0.237 OA
ATOM     82  O   UNL A   1      43.144  20.593  25.639  1.00  0.00    -0.744 OA
ENDBRANCH  78  79
ENDBRANCH  50  73
BRANCH  62  83
ATOM     83  C   UNL A   1      48.054  28.775  29.944  1.00  0.00    -0.014 A 
ATOM     84  C   UNL A   1      48.779  28.441  31.102  1.00  0.00     0.010 A 
ATOM     85  C   UNL A   1      48.710  28.761  28.698  1.00  0.00     0.010 A 
ATOM     86  C   UNL A   1      50.134  28.112  31.018  1.00  0.00     0.020 A 
ATOM     87  C   UNL A   1      50.059  28.407  28.607  1.00  0.00     0.020 A 
ATOM     88  C   UNL A   1      50.766  28.092  29.770  1.00  0.00     0.054 A 
BRANCH  88  89
ATOM     89  S   UNL A   1      52.509  27.594  29.681  1.00  0.00     0.124 S 
ATOM     90  O   UNL A   1      52.890  27.568  31.090  1.00  0.00    -0.237 OA
ATOM     91  O   UNL A   1      52.436  26.291  29.025  1.00  0.00    -0.237 OA
ATOM     92  O   UNL A   1      53.132  28.652  28.887  1.00  0.00    -0.744 OA
ENDBRANCH  88  89
ENDBRANCH  62  83
ENDBRANCH  36  37
ENDBRANCH  29  31
ENDBRANCH  28  29
ENDBRANCH  27  28
ENDBRANCH  26  27
ENDBRANCH  25  26
ENDBRANCH  24  25
ENDBRANCH   1  24
TORSDOF 24
ENDMDL
MODEL 3
REMARK VINA RESULT:      -7.5      4.609      7.307
REMARK SMILES CC(C)(C)[NH+]1CCN(C(=O)CCCC(=O)OCCOCCOCCOC(=O)c2ccc(-c3c4nc(c(-c5ccc(S(=O)(=O)[O-])cc5)c5ccc([nH]5)c(-c5ccc(S(=O)(=O)[O-])cc5)c5nc(c(-c6ccc(S(=O)(=O)[O-])cc6)c6ccc3[nH]6)C=C5)C=C4)cc2)CC1
REMARK SMILES IDX 20 1 19 2 18 3 17 4 16 5 14 6 15 7 13 8 12 9 11 10 9 11 5 12
REMARK SMILES IDX 6 13 89 14 7 16 88 17 8 18 10 19 2 20 1 21 3 22 4 23 21 24
REMARK SMILES IDX 22 25 23 26 24 27 25 28 26 29 27 30 28 31 29 32 87 33 30 34
REMARK SMILES IDX 86 35 31 36 32 37 33 38 80 39 34 40 85 41 79 42 81 43 35 44
REMARK SMILES IDX 84 45 78 46 77 47 36 49 66 50 47 51 65 52 48 53 51 54 64 55
REMARK SMILES IDX 82 56 49 57 50 58 63 60 83 61 52 62 37 63 38 64 46 65 39 66
REMARK SMILES IDX 45 67 40 68 41 69 42 70 43 71 44 72 67 73 68 74 76 75 69 76
REMARK SMILES IDX 75 77 70 78 71 79 72 80 73 81 74 82 53 83 54 84 62 85 55 86
REMARK SMILES IDX 61 87 56 88 57 89 58 90 59 91 60 92
REMARK H PARENT 5 15 81 48 51 59
REMARK Flexibility Score: inf
ROOT
ATOM      1  C   UNL A   1      34.028  35.389  31.256  1.00  0.00     0.188 C 
ENDROOT
BRANCH   1   2
ATOM      2  O   UNL A   1      35.077  34.440  31.329  1.00  0.00    -0.376 OA
BRANCH   2   3
ATOM      3  C   UNL A   1      35.159  33.631  32.493  1.00  0.00     0.202 C 
BRANCH   3   4
ATOM      4  C   UNL A   1      35.310  32.122  32.290  1.00  0.00     0.261 C 
BRANCH   4   5
ATOM      5  O   UNL A   1      36.673  31.726  31.992  1.00  0.00    -0.463 OA
BRANCH   5   6
ATOM      6  C   UNL A   1      37.260  30.829  32.827  1.00  0.00     0.305 C 
ATOM      7  O   UNL A   1      37.525  31.068  33.998  1.00  0.00    -0.252 OA
BRANCH   6   8
ATOM      8  C   UNL A   1      37.674  29.507  32.177  1.00  0.00     0.123 C 
BRANCH   8   9
ATOM      9  C   UNL A   1      38.975  28.747  32.477  1.00  0.00     0.022 C 
BRANCH   9  10
ATOM     10  C   UNL A   1      40.156  29.453  33.150  1.00  0.00     0.101 C 
BRANCH  10  11
ATOM     11  C   UNL A   1      41.503  28.757  32.958  1.00  0.00     0.222 C 
ATOM     12  N   UNL A   1      43.410  27.039  36.424  1.00  0.00    -0.328 N 
ATOM     13  C   UNL A   1      44.159  27.154  35.165  1.00  0.00     0.284 C 
ATOM     14  C   UNL A   1      42.641  28.269  36.606  1.00  0.00     0.284 C 
ATOM     15  H   UNL A   1      44.107  26.952  37.164  1.00  0.00     0.348 HD
ATOM     16  C   UNL A   1      43.319  27.433  33.906  1.00  0.00     0.181 C 
ATOM     17  C   UNL A   1      41.713  28.566  35.430  1.00  0.00     0.181 C 
ATOM     18  N   UNL A   1      42.236  28.399  34.086  1.00  0.00    -0.331 N 
ATOM     19  O   UNL A   1      41.898  28.495  31.820  1.00  0.00    -0.275 OA
BRANCH  12  20
ATOM     20  C   UNL A   1      42.766  25.754  36.806  1.00  0.00     0.089 C 
ATOM     21  C   UNL A   1      41.402  25.813  37.539  1.00  0.00     0.078 C 
ATOM     22  C   UNL A   1      43.762  25.112  37.799  1.00  0.00     0.078 C 
ATOM     23  C   UNL A   1      42.572  24.770  35.632  1.00  0.00     0.078 C 
ENDBRANCH  12  20
ENDBRANCH  10  11
ENDBRANCH   9  10
ENDBRANCH   8   9
ENDBRANCH   6   8
ENDBRANCH   5   6
ENDBRANCH   4   5
ENDBRANCH   3   4
ENDBRANCH   2   3
ENDBRANCH   1   2
BRANCH   1  24
ATOM     24  C   UNL A   1      33.099  35.341  30.029  1.00  0.00     0.188 C 
BRANCH  24  25
ATOM     25  O   UNL A   1      33.612  35.552  28.739  1.00  0.00    -0.376 OA
BRANCH  25  26
ATOM     26  C   UNL A   1      34.090  34.463  27.975  1.00  0.00     0.202 C 
BRANCH  26  27
ATOM     27  C   UNL A   1      33.477  33.046  27.967  1.00  0.00     0.261 C 
BRANCH  27  28
ATOM     28  O   UNL A   1      34.088  32.035  28.774  1.00  0.00    -0.460 OA
BRANCH  28  29
ATOM     29  C   UNL A   1      34.453  30.885  28.148  1.00  0.00     0.338 C 
ATOM     30  O   UNL A   1      33.795  30.253  27.336  1.00  0.00    -0.246 OA
BRANCH  29  31
ATOM     31  C   UNL A   1      35.900  30.674  28.409  1.00  0.00     0.060 A 
ATOM     32  C   UNL A   1      36.418  29.369  28.379  1.00  0.00     0.016 A 
ATOM     33  C   UNL A   1      36.754  31.763  28.586  1.00  0.00     0.016 A 
ATOM     34  C   UNL A   1      37.792  29.151  28.510  1.00  0.00     0.010 A 
ATOM     35  C   UNL A   1      38.124  31.540  28.756  1.00  0.00     0.010 A 
ATOM     36  C   UNL A   1      38.650  30.235  28.728  1.00  0.00    -0.014 A 
BRANCH  36  37
ATOM     37  C   UNL A   1      40.070  30.026  29.103  1.00  0.00     0.031 A 
ATOM     38  C   UNL A   1      40.686  28.683  28.826  1.00  0.00     0.074 A 
ATOM     39  C   UNL A   1      40.789  30.979  29.724  1.00  0.00     0.049 A 
ATOM     40  N   UNL A   1      41.835  28.201  29.219  1.00  0.00    -0.248 NA
ATOM     41  C   UNL A   1      39.890  27.758  28.002  1.00  0.00     0.031 C 
ATOM     42  C   UNL A   1      40.340  32.343  29.996  1.00  0.00     0.029 A 
ATOM     43  N   UNL A   1      42.052  30.926  30.267  1.00  0.00    -0.354 N 
ATOM     44  C   UNL A   1      41.898  26.914  28.700  1.00  0.00     0.074 A 
ATOM     45  C   UNL A   1      40.665  26.684  27.978  1.00  0.00     0.031 C 
ATOM     46  C   UNL A   1      41.299  32.987  30.687  1.00  0.00     0.029 A 
ATOM     47  C   UNL A   1      42.407  32.068  30.945  1.00  0.00     0.049 A 
ATOM     48  H   UNL A   1      42.644  30.144  30.178  1.00  0.00     0.167 HD
ATOM     49  C   UNL A   1      42.890  26.000  28.819  1.00  0.00     0.031 A 
ATOM     50  C   UNL A   1      43.478  32.325  31.726  1.00  0.00     0.031 A 
ATOM     51  C   UNL A   1      44.101  26.214  29.563  1.00  0.00     0.049 A 
ATOM     52  C   UNL A   1      44.516  31.251  31.944  1.00  0.00     0.074 A 
ATOM     53  C   UNL A   1      45.166  25.347  29.738  1.00  0.00     0.029 A 
ATOM     54  N   UNL A   1      44.404  27.368  30.267  1.00  0.00    -0.354 N 
ATOM     55  N   UNL A   1      44.573  30.042  31.439  1.00  0.00    -0.248 NA
ATOM     56  C   UNL A   1      45.631  31.575  32.849  1.00  0.00     0.031 C 
ATOM     57  C   UNL A   1      46.085  25.955  30.599  1.00  0.00     0.029 A 
ATOM     58  C   UNL A   1      45.620  27.223  30.910  1.00  0.00     0.049 A 
ATOM     59  H   UNL A   1      43.837  28.172  30.304  1.00  0.00     0.167 HD
ATOM     60  C   UNL A   1      45.732  29.467  31.952  1.00  0.00     0.074 A 
ATOM     61  C   UNL A   1      46.359  30.466  32.791  1.00  0.00     0.031 C 
ATOM     62  C   UNL A   1      46.232  28.223  31.750  1.00  0.00     0.031 A 
BRANCH  49  63
ATOM     63  C   UNL A   1      42.680  24.664  28.161  1.00  0.00    -0.014 A 
ATOM     64  C   UNL A   1      42.877  24.497  26.778  1.00  0.00     0.010 A 
ATOM     65  C   UNL A   1      42.310  23.555  28.941  1.00  0.00     0.010 A 
ATOM     66  C   UNL A   1      42.672  23.250  26.183  1.00  0.00     0.020 A 
ATOM     67  C   UNL A   1      42.130  22.300  28.354  1.00  0.00     0.020 A 
ATOM     68  C   UNL A   1      42.298  22.159  26.975  1.00  0.00     0.054 A 
BRANCH  68  69
ATOM     69  S   UNL A   1      42.060  20.548  26.178  1.00  0.00     0.124 S 
ATOM     70  O   UNL A   1      43.196  20.496  25.261  1.00  0.00    -0.237 OA
ATOM     71  O   UNL A   1      42.120  19.621  27.305  1.00  0.00    -0.237 OA
ATOM     72  O   UNL A   1      40.751  20.666  25.541  1.00  0.00    -0.744 OA
ENDBRANCH  68  69
ENDBRANCH  49  63
BRANCH  50  73
ATOM     73  C   UNL A   1      43.596  33.637  32.422  1.00  0.00    -0.014 A 
ATOM     74  C   UNL A   1      44.315  34.698  31.842  1.00  0.00     0.010 A 
ATOM     75  C   UNL A   1      43.004  33.826  33.685  1.00  0.00     0.010 A 
ATOM     76  C   UNL A   1      44.448  35.917  32.517  1.00  0.00     0.020 A 
ATOM     77  C   UNL A   1      43.111  35.051  34.349  1.00  0.00     0.020 A 
ATOM     78  C   UNL A   1      43.842  36.086  33.765  1.00  0.00     0.054 A 
BRANCH  78  79
ATOM     79  S   UNL A   1      43.983  37.693  34.598  1.00  0.00     0.124 S 
ATOM     80  O   UNL A   1      44.012  37.305  36.005  1.00  0.00    -0.237 OA
ATOM     81  O   UNL A   1      45.237  38.219  34.061  1.00  0.00    -0.237 OA
ATOM     82  O   UNL A   1      42.783  38.407  34.168  1.00  0.00    -0.744 OA
ENDBRANCH  78  79
ENDBRANCH  50  73
BRANCH  62  83
ATOM     83  C   UNL A   1      47.525  27.862  32.434  1.00  0.00    -0.014 A 
ATOM     84  C   UNL A   1      47.528  27.216  33.683  1.00  0.00     0.010 A 
ATOM     85  C   UNL A   1      48.750  28.093  31.780  1.00  0.00     0.010 A 
ATOM     86  C   UNL A   1      48.733  26.821  34.273  1.00  0.00     0.020 A 
ATOM     87  C   UNL A   1      49.955  27.676  32.354  1.00  0.00     0.020 A 
ATOM     88  C   UNL A   1      49.939  27.049  33.602  1.00  0.00     0.054 A 
BRANCH  88  89
ATOM     89  S   UNL A   1      51.481  26.464  34.358  1.00  0.00     0.124 S 
ATOM     90  O   UNL A   1      52.443  27.464  33.901  1.00  0.00    -0.237 OA
ATOM     91  O   UNL A   1      51.171  26.496  35.785  1.00  0.00    -0.237 OA
ATOM     92  O   UNL A   1      51.659  25.127  33.793  1.00  0.00    -0.744 OA
ENDBRANCH  88  89
ENDBRANCH  62  83
ENDBRANCH  36  37
ENDBRANCH  29  31
ENDBRANCH  28  29
ENDBRANCH  27  28
ENDBRANCH  26  27
ENDBRANCH  25  26
ENDBRANCH  24  25
ENDBRANCH   1  24
TORSDOF 24
ENDMDL
