MODEL 1
REMARK VINA RESULT:      -8.7      0.000      0.000
REMARK SMILES CC(C)(C)N(CC(=O)OCCOCCOCCOC(=O)c1ccc(-c2c3nc(c(-c4ccc(S(=O)(=O)[O-])cc4)c4ccc([nH]4)c(-c4ccc(S(=O)(=O)[O-])cc4)c4nc(c(-c5ccc(S(=O)(=O)[O-])cc5)c5ccc2[nH]5)C=C4)C=C3)cc1)C(=O)N1CC[C@H](O)C1
REMARK SMILES IDX 13 1 12 2 11 3 10 4 9 5 7 6 8 7 6 8 5 9 2 10 1 11 3 12 4 13
REMARK SMILES IDX 81 14 82 15 83 16 84 17 88 18 85 19 86 20 87 21 14 23 15 24
REMARK SMILES IDX 16 25 17 26 18 27 19 28 20 29 21 30 22 31 80 32 23 33 79 34
REMARK SMILES IDX 24 35 25 36 26 37 73 38 27 39 78 40 72 41 74 42 28 43 77 44
REMARK SMILES IDX 71 45 70 46 29 48 59 49 40 50 58 51 41 52 44 53 57 54 75 55
REMARK SMILES IDX 42 56 43 57 56 59 76 60 45 61 30 62 31 63 39 64 32 65 38 66
REMARK SMILES IDX 33 67 34 68 35 69 36 70 37 71 60 72 61 73 69 74 62 75 68 76
REMARK SMILES IDX 63 77 64 78 65 79 66 80 67 81 46 82 47 83 55 84 48 85 54 86
REMARK SMILES IDX 49 87 50 88 51 89 52 90 53 91
REMARK H PARENT 87 22 74 47 44 58
REMARK Flexibility Score: inf
ROOT
ATOM      1  C   UNL A   1      40.257  21.920  27.192  1.00  0.00     0.188 C 
ENDROOT
BRANCH   1   2
ATOM      2  O   UNL A   1      39.131  21.909  26.314  1.00  0.00    -0.376 OA
BRANCH   2   3
ATOM      3  C   UNL A   1      38.272  23.046  26.363  1.00  0.00     0.202 C 
BRANCH   3   4
ATOM      4  C   UNL A   1      37.529  23.338  25.057  1.00  0.00     0.261 C 
BRANCH   4   5
ATOM      5  O   UNL A   1      36.328  24.102  25.298  1.00  0.00    -0.462 OA
BRANCH   5   6
ATOM      6  C   UNL A   1      35.266  23.347  25.682  1.00  0.00     0.325 C 
ATOM      7  O   UNL A   1      34.778  23.386  26.809  1.00  0.00    -0.250 OA
BRANCH   6   8
ATOM      8  C   UNL A   1      34.679  22.454  24.582  1.00  0.00     0.244 C 
BRANCH   8   9
ATOM      9  N   UNL A   1      33.546  22.912  23.757  1.00  0.00    -0.309 N 
BRANCH   9  10
ATOM     10  C   UNL A   1      32.183  22.263  23.964  1.00  0.00     0.037 C 
ATOM     11  C   UNL A   1      31.029  23.278  24.171  1.00  0.00     0.034 C 
ATOM     12  C   UNL A   1      32.196  21.358  25.216  1.00  0.00     0.034 C 
ATOM     13  C   UNL A   1      31.758  21.428  22.722  1.00  0.00     0.034 C 
ENDBRANCH   9  10
BRANCH   9  14
ATOM     14  C   UNL A   1      33.630  23.912  22.798  1.00  0.00     0.321 C 
ATOM     15  O   UNL A   1      33.934  23.626  21.634  1.00  0.00    -0.248 OA
BRANCH  14  16
ATOM     16  N   UNL A   1      33.394  25.233  23.076  1.00  0.00    -0.322 N 
ATOM     17  C   UNL A   1      32.820  26.034  22.010  1.00  0.00     0.124 C 
ATOM     18  C   UNL A   1      33.544  26.081  24.258  1.00  0.00     0.153 C 
ATOM     19  C   UNL A   1      33.298  27.434  22.298  1.00  0.00     0.055 C 
ATOM     20  C   UNL A   1      33.275  27.520  23.805  1.00  0.00     0.135 C 
BRANCH  20  21
ATOM     21  O   UNL A   1      34.292  28.411  24.241  1.00  0.00    -0.391 OA
ATOM     22  H   UNL A   1      33.934  29.003  24.921  1.00  0.00     0.211 HD
ENDBRANCH  20  21
ENDBRANCH  14  16
ENDBRANCH   9  14
ENDBRANCH   8   9
ENDBRANCH   6   8
ENDBRANCH   5   6
ENDBRANCH   4   5
ENDBRANCH   3   4
ENDBRANCH   2   3
ENDBRANCH   1   2
BRANCH   1  23
ATOM     23  C   UNL A   1      41.179  20.689  27.135  1.00  0.00     0.188 C 
BRANCH  23  24
ATOM     24  O   UNL A   1      42.537  20.923  26.773  1.00  0.00    -0.376 OA
BRANCH  24  25
ATOM     25  C   UNL A   1      42.763  21.904  25.774  1.00  0.00     0.202 C 
BRANCH  25  26
ATOM     26  C   UNL A   1      43.360  23.226  26.264  1.00  0.00     0.261 C 
BRANCH  26  27
ATOM     27  O   UNL A   1      42.434  24.327  26.272  1.00  0.00    -0.460 OA
BRANCH  27  28
ATOM     28  C   UNL A   1      43.018  25.560  26.219  1.00  0.00     0.338 C 
ATOM     29  O   UNL A   1      43.682  26.012  25.311  1.00  0.00    -0.246 OA
BRANCH  28  30
ATOM     30  C   UNL A   1      42.717  26.334  27.450  1.00  0.00     0.060 A 
ATOM     31  C   UNL A   1      41.614  25.944  28.220  1.00  0.00     0.016 A 
ATOM     32  C   UNL A   1      43.472  27.450  27.833  1.00  0.00     0.016 A 
ATOM     33  C   UNL A   1      41.299  26.632  29.396  1.00  0.00     0.010 A 
ATOM     34  C   UNL A   1      43.132  28.167  28.992  1.00  0.00     0.010 A 
ATOM     35  C   UNL A   1      42.047  27.758  29.785  1.00  0.00    -0.014 A 
BRANCH  35  36
ATOM     36  C   UNL A   1      41.518  28.617  30.877  1.00  0.00     0.031 A 
ATOM     37  C   UNL A   1      42.286  28.596  32.168  1.00  0.00     0.074 A 
ATOM     38  C   UNL A   1      40.459  29.439  30.737  1.00  0.00     0.049 A 
ATOM     39  N   UNL A   1      42.214  29.407  33.189  1.00  0.00    -0.248 NA
ATOM     40  C   UNL A   1      43.300  27.536  32.297  1.00  0.00     0.031 C 
ATOM     41  C   UNL A   1      39.637  29.585  29.538  1.00  0.00     0.029 A 
ATOM     42  N   UNL A   1      39.906  30.337  31.620  1.00  0.00    -0.354 N 
ATOM     43  C   UNL A   1      43.236  29.007  34.041  1.00  0.00     0.074 A 
ATOM     44  C   UNL A   1      43.873  27.855  33.444  1.00  0.00     0.031 C 
ATOM     45  C   UNL A   1      38.706  30.534  29.746  1.00  0.00     0.029 A 
ATOM     46  C   UNL A   1      38.849  31.054  31.103  1.00  0.00     0.049 A 
ATOM     47  H   UNL A   1      40.236  30.457  32.539  1.00  0.00     0.167 HD
ATOM     48  C   UNL A   1      43.616  29.548  35.221  1.00  0.00     0.031 A 
ATOM     49  C   UNL A   1      38.092  32.023  31.661  1.00  0.00     0.031 A 
ATOM     50  C   UNL A   1      42.873  30.563  35.905  1.00  0.00     0.049 A 
ATOM     51  C   UNL A   1      38.406  32.467  33.072  1.00  0.00     0.074 A 
ATOM     52  C   UNL A   1      43.073  31.076  37.172  1.00  0.00     0.029 A 
ATOM     53  N   UNL A   1      41.742  31.181  35.390  1.00  0.00    -0.354 N 
ATOM     54  N   UNL A   1      39.403  32.111  33.847  1.00  0.00    -0.248 NA
ATOM     55  C   UNL A   1      37.493  33.447  33.677  1.00  0.00     0.031 C 
ATOM     56  C   UNL A   1      42.023  31.960  37.447  1.00  0.00     0.029 A 
ATOM     57  C   UNL A   1      41.212  32.048  36.326  1.00  0.00     0.049 A 
ATOM     58  H   UNL A   1      41.372  31.023  34.491  1.00  0.00     0.167 HD
ATOM     59  C   UNL A   1      39.262  32.855  35.014  1.00  0.00     0.074 A 
ATOM     60  C   UNL A   1      38.083  33.681  34.843  1.00  0.00     0.031 C 
ATOM     61  C   UNL A   1      40.041  32.865  36.124  1.00  0.00     0.031 A 
BRANCH  48  62
ATOM     62  C   UNL A   1      44.842  28.947  35.842  1.00  0.00    -0.014 A 
ATOM     63  C   UNL A   1      46.110  29.506  35.593  1.00  0.00     0.010 A 
ATOM     64  C   UNL A   1      44.746  27.745  36.562  1.00  0.00     0.010 A 
ATOM     65  C   UNL A   1      47.267  28.830  35.986  1.00  0.00     0.020 A 
ATOM     66  C   UNL A   1      45.901  27.076  36.973  1.00  0.00     0.020 A 
ATOM     67  C   UNL A   1      47.154  27.608  36.653  1.00  0.00     0.054 A 
BRANCH  67  68
ATOM     68  S   UNL A   1      48.667  26.699  37.069  1.00  0.00     0.124 S 
ATOM     69  O   UNL A   1      49.693  27.520  36.432  1.00  0.00    -0.237 OA
ATOM     70  O   UNL A   1      48.664  26.718  38.529  1.00  0.00    -0.237 OA
ATOM     71  O   UNL A   1      48.457  25.385  36.465  1.00  0.00    -0.744 OA
ENDBRANCH  67  68
ENDBRANCH  48  62
BRANCH  49  72
ATOM     72  C   UNL A   1      36.969  32.658  30.909  1.00  0.00    -0.014 A 
ATOM     73  C   UNL A   1      37.215  33.718  30.016  1.00  0.00     0.010 A 
ATOM     74  C   UNL A   1      35.639  32.249  31.122  1.00  0.00     0.010 A 
ATOM     75  C   UNL A   1      36.155  34.373  29.373  1.00  0.00     0.020 A 
ATOM     76  C   UNL A   1      34.580  32.884  30.463  1.00  0.00     0.020 A 
ATOM     77  C   UNL A   1      34.843  33.952  29.603  1.00  0.00     0.054 A 
BRANCH  77  78
ATOM     78  S   UNL A   1      33.487  34.802  28.745  1.00  0.00     0.124 S 
ATOM     79  O   UNL A   1      34.138  36.021  28.277  1.00  0.00    -0.237 OA
ATOM     80  O   UNL A   1      33.119  33.841  27.709  1.00  0.00    -0.237 OA
ATOM     81  O   UNL A   1      32.485  34.990  29.794  1.00  0.00    -0.744 OA
ENDBRANCH  77  78
ENDBRANCH  49  72
BRANCH  61  82
ATOM     82  C   UNL A   1      39.685  33.830  37.224  1.00  0.00    -0.014 A 
ATOM     83  C   UNL A   1      38.954  33.423  38.352  1.00  0.00     0.010 A 
ATOM     84  C   UNL A   1      40.174  35.148  37.159  1.00  0.00     0.010 A 
ATOM     85  C   UNL A   1      38.704  34.325  39.391  1.00  0.00     0.020 A 
ATOM     86  C   UNL A   1      39.950  36.043  38.207  1.00  0.00     0.020 A 
ATOM     87  C   UNL A   1      39.206  35.628  39.312  1.00  0.00     0.054 A 
BRANCH  87  88
ATOM     88  S   UNL A   1      38.933  36.759  40.703  1.00  0.00     0.124 S 
ATOM     89  O   UNL A   1      38.274  37.887  40.052  1.00  0.00    -0.237 OA
ATOM     90  O   UNL A   1      38.091  35.969  41.600  1.00  0.00    -0.237 OA
ATOM     91  O   UNL A   1      40.281  37.026  41.202  1.00  0.00    -0.744 OA
ENDBRANCH  87  88
ENDBRANCH  61  82
ENDBRANCH  35  36
ENDBRANCH  28  30
ENDBRANCH  27  28
ENDBRANCH  26  27
ENDBRANCH  25  26
ENDBRANCH  24  25
ENDBRANCH  23  24
ENDBRANCH   1  23
TORSDOF 25
ENDMDL
MODEL 2
REMARK VINA RESULT:      -8.2      5.604     11.521
REMARK SMILES CC(C)(C)N(CC(=O)OCCOCCOCCOC(=O)c1ccc(-c2c3nc(c(-c4ccc(S(=O)(=O)[O-])cc4)c4ccc([nH]4)c(-c4ccc(S(=O)(=O)[O-])cc4)c4nc(c(-c5ccc(S(=O)(=O)[O-])cc5)c5ccc2[nH]5)C=C4)C=C3)cc1)C(=O)N1CC[C@H](O)C1
REMARK SMILES IDX 13 1 12 2 11 3 10 4 9 5 7 6 8 7 6 8 5 9 2 10 1 11 3 12 4 13
REMARK SMILES IDX 81 14 82 15 83 16 84 17 88 18 85 19 86 20 87 21 14 23 15 24
REMARK SMILES IDX 16 25 17 26 18 27 19 28 20 29 21 30 22 31 80 32 23 33 79 34
REMARK SMILES IDX 24 35 25 36 26 37 73 38 27 39 78 40 72 41 74 42 28 43 77 44
REMARK SMILES IDX 71 45 70 46 29 48 59 49 40 50 58 51 41 52 44 53 57 54 75 55
REMARK SMILES IDX 42 56 43 57 56 59 76 60 45 61 30 62 31 63 39 64 32 65 38 66
REMARK SMILES IDX 33 67 34 68 35 69 36 70 37 71 60 72 61 73 69 74 62 75 68 76
REMARK SMILES IDX 63 77 64 78 65 79 66 80 67 81 46 82 47 83 55 84 48 85 54 86
REMARK SMILES IDX 49 87 50 88 51 89 52 90 53 91
REMARK H PARENT 87 22 74 47 44 58
REMARK Flexibility Score: inf
ROOT
ATOM      1  C   UNL A   1      35.617  30.248  27.513  1.00  0.00     0.188 C 
ENDROOT
BRANCH   1   2
ATOM      2  O   UNL A   1      34.652  29.365  26.938  1.00  0.00    -0.376 OA
BRANCH   2   3
ATOM      3  C   UNL A   1      33.281  29.719  27.111  1.00  0.00     0.202 C 
BRANCH   3   4
ATOM      4  C   UNL A   1      32.289  28.613  26.745  1.00  0.00     0.261 C 
BRANCH   4   5
ATOM      5  O   UNL A   1      32.887  27.307  26.880  1.00  0.00    -0.462 OA
BRANCH   5   6
ATOM      6  C   UNL A   1      32.174  26.314  26.287  1.00  0.00     0.325 C 
ATOM      7  O   UNL A   1      32.344  25.120  26.527  1.00  0.00    -0.250 OA
BRANCH   6   8
ATOM      8  C   UNL A   1      31.095  26.792  25.307  1.00  0.00     0.244 C 
BRANCH   8   9
ATOM      9  N   UNL A   1      31.405  27.006  23.882  1.00  0.00    -0.309 N 
BRANCH   9  10
ATOM     10  C   UNL A   1      31.863  25.816  23.048  1.00  0.00     0.037 C 
ATOM     11  C   UNL A   1      31.734  26.035  21.518  1.00  0.00     0.034 C 
ATOM     12  C   UNL A   1      31.023  24.563  23.380  1.00  0.00     0.034 C 
ATOM     13  C   UNL A   1      33.371  25.509  23.278  1.00  0.00     0.034 C 
ENDBRANCH   9  10
BRANCH   9  14
ATOM     14  C   UNL A   1      31.299  28.229  23.234  1.00  0.00     0.321 C 
ATOM     15  O   UNL A   1      32.317  28.891  22.998  1.00  0.00    -0.248 OA
BRANCH  14  16
ATOM     16  N   UNL A   1      30.101  28.759  22.835  1.00  0.00    -0.322 N 
ATOM     17  C   UNL A   1      30.118  30.131  22.360  1.00  0.00     0.124 C 
ATOM     18  C   UNL A   1      28.734  28.251  22.721  1.00  0.00     0.153 C 
ATOM     19  C   UNL A   1      28.732  30.644  22.654  1.00  0.00     0.055 C 
ATOM     20  C   UNL A   1      27.842  29.453  22.391  1.00  0.00     0.135 C 
BRANCH  20  21
ATOM     21  O   UNL A   1      26.706  29.518  23.241  1.00  0.00    -0.391 OA
ATOM     22  H   UNL A   1      26.972  29.855  24.111  1.00  0.00     0.211 HD
ENDBRANCH  20  21
ENDBRANCH  14  16
ENDBRANCH   9  14
ENDBRANCH   8   9
ENDBRANCH   6   8
ENDBRANCH   5   6
ENDBRANCH   4   5
ENDBRANCH   3   4
ENDBRANCH   2   3
ENDBRANCH   1   2
BRANCH   1  23
ATOM     23  C   UNL A   1      35.064  31.391  28.381  1.00  0.00     0.188 C 
BRANCH  23  24
ATOM     24  O   UNL A   1      35.422  31.378  29.761  1.00  0.00    -0.376 OA
BRANCH  24  25
ATOM     25  C   UNL A   1      34.812  32.363  30.579  1.00  0.00     0.202 C 
BRANCH  25  26
ATOM     26  C   UNL A   1      35.562  32.715  31.866  1.00  0.00     0.261 C 
BRANCH  26  27
ATOM     27  O   UNL A   1      36.994  32.608  31.765  1.00  0.00    -0.460 OA
BRANCH  27  28
ATOM     28  C   UNL A   1      37.534  31.563  32.457  1.00  0.00     0.338 C 
ATOM     29  O   UNL A   1      37.041  30.982  33.400  1.00  0.00    -0.246 OA
BRANCH  28  30
ATOM     30  C   UNL A   1      38.851  31.181  31.885  1.00  0.00     0.060 A 
ATOM     31  C   UNL A   1      39.081  31.449  30.530  1.00  0.00     0.016 A 
ATOM     32  C   UNL A   1      39.835  30.535  32.643  1.00  0.00     0.016 A 
ATOM     33  C   UNL A   1      40.311  31.123  29.949  1.00  0.00     0.010 A 
ATOM     34  C   UNL A   1      41.054  30.169  32.050  1.00  0.00     0.010 A 
ATOM     35  C   UNL A   1      41.303  30.467  30.700  1.00  0.00    -0.014 A 
BRANCH  35  36
ATOM     36  C   UNL A   1      42.473  29.896  29.983  1.00  0.00     0.031 A 
ATOM     37  C   UNL A   1      43.707  30.750  29.941  1.00  0.00     0.074 A 
ATOM     38  C   UNL A   1      42.493  28.657  29.452  1.00  0.00     0.049 A 
ATOM     39  N   UNL A   1      44.929  30.428  29.614  1.00  0.00    -0.248 NA
ATOM     40  C   UNL A   1      43.537  32.149  30.369  1.00  0.00     0.031 C 
ATOM     41  C   UNL A   1      41.384  27.707  29.442  1.00  0.00     0.029 A 
ATOM     42  N   UNL A   1      43.512  27.970  28.833  1.00  0.00    -0.354 N 
ATOM     43  C   UNL A   1      45.688  31.560  29.883  1.00  0.00     0.074 A 
ATOM     44  C   UNL A   1      44.783  32.588  30.347  1.00  0.00     0.031 C 
ATOM     45  C   UNL A   1      41.786  26.554  28.877  1.00  0.00     0.029 A 
ATOM     46  C   UNL A   1      43.180  26.686  28.463  1.00  0.00     0.049 A 
ATOM     47  H   UNL A   1      44.400  28.362  28.670  1.00  0.00     0.167 HD
ATOM     48  C   UNL A   1      47.023  31.736  29.756  1.00  0.00     0.031 A 
ATOM     49  C   UNL A   1      43.920  25.727  27.866  1.00  0.00     0.031 A 
ATOM     50  C   UNL A   1      47.892  30.791  29.121  1.00  0.00     0.049 A 
ATOM     51  C   UNL A   1      45.366  26.025  27.541  1.00  0.00     0.074 A 
ATOM     52  C   UNL A   1      49.227  30.927  28.798  1.00  0.00     0.029 A 
ATOM     53  N   UNL A   1      47.485  29.547  28.660  1.00  0.00    -0.354 N 
ATOM     54  N   UNL A   1      46.079  27.083  27.842  1.00  0.00    -0.248 NA
ATOM     55  C   UNL A   1      46.104  24.993  26.798  1.00  0.00     0.031 C 
ATOM     56  C   UNL A   1      49.613  29.787  28.082  1.00  0.00     0.029 A 
ATOM     57  C   UNL A   1      48.535  28.915  28.024  1.00  0.00     0.049 A 
ATOM     58  H   UNL A   1      46.581  29.172  28.769  1.00  0.00     0.167 HD
ATOM     59  C   UNL A   1      47.361  26.827  27.364  1.00  0.00     0.074 A 
ATOM     60  C   UNL A   1      47.324  25.513  26.754  1.00  0.00     0.031 C 
ATOM     61  C   UNL A   1      48.472  27.602  27.432  1.00  0.00     0.031 A 
BRANCH  48  62
ATOM     62  C   UNL A   1      47.550  33.053  30.246  1.00  0.00    -0.014 A 
ATOM     63  C   UNL A   1      47.916  33.212  31.597  1.00  0.00     0.010 A 
ATOM     64  C   UNL A   1      47.552  34.168  29.393  1.00  0.00     0.010 A 
ATOM     65  C   UNL A   1      48.198  34.482  32.104  1.00  0.00     0.020 A 
ATOM     66  C   UNL A   1      47.853  35.437  29.894  1.00  0.00     0.020 A 
ATOM     67  C   UNL A   1      48.141  35.589  31.253  1.00  0.00     0.054 A 
BRANCH  67  68
ATOM     68  S   UNL A   1      48.417  37.239  31.951  1.00  0.00     0.124 S 
ATOM     69  O   UNL A   1      49.650  37.042  32.708  1.00  0.00    -0.237 OA
ATOM     70  O   UNL A   1      48.537  38.077  30.761  1.00  0.00    -0.237 OA
ATOM     71  O   UNL A   1      47.222  37.475  32.759  1.00  0.00    -0.744 OA
ENDBRANCH  67  68
ENDBRANCH  48  62
BRANCH  49  72
ATOM     72  C   UNL A   1      43.338  24.392  27.537  1.00  0.00    -0.014 A 
ATOM     73  C   UNL A   1      43.200  23.405  28.532  1.00  0.00     0.010 A 
ATOM     74  C   UNL A   1      42.970  24.074  26.216  1.00  0.00     0.010 A 
ATOM     75  C   UNL A   1      42.734  22.124  28.209  1.00  0.00     0.020 A 
ATOM     76  C   UNL A   1      42.481  22.803  25.894  1.00  0.00     0.020 A 
ATOM     77  C   UNL A   1      42.379  21.830  26.891  1.00  0.00     0.054 A 
BRANCH  77  78
ATOM     78  S   UNL A   1      41.760  20.168  26.499  1.00  0.00     0.124 S 
ATOM     79  O   UNL A   1      42.483  19.854  25.271  1.00  0.00    -0.237 OA
ATOM     80  O   UNL A   1      42.150  19.401  27.679  1.00  0.00    -0.237 OA
ATOM     81  O   UNL A   1      40.320  20.369  26.344  1.00  0.00    -0.744 OA
ENDBRANCH  77  78
ENDBRANCH  49  72
BRANCH  61  82
ATOM     82  C   UNL A   1      49.756  27.038  26.883  1.00  0.00    -0.014 A 
ATOM     83  C   UNL A   1      50.642  26.304  27.690  1.00  0.00     0.010 A 
ATOM     84  C   UNL A   1      50.028  27.173  25.509  1.00  0.00     0.010 A 
ATOM     85  C   UNL A   1      51.788  25.729  27.133  1.00  0.00     0.020 A 
ATOM     86  C   UNL A   1      51.157  26.578  24.944  1.00  0.00     0.020 A 
ATOM     87  C   UNL A   1      52.036  25.868  25.763  1.00  0.00     0.054 A 
BRANCH  87  88
ATOM     88  S   UNL A   1      53.490  25.054  25.048  1.00  0.00     0.124 S 
ATOM     89  O   UNL A   1      53.172  23.641  25.240  1.00  0.00    -0.237 OA
ATOM     90  O   UNL A   1      53.472  25.520  23.663  1.00  0.00    -0.237 OA
ATOM     91  O   UNL A   1      54.600  25.559  25.853  1.00  0.00    -0.744 OA
ENDBRANCH  87  88
ENDBRANCH  61  82
ENDBRANCH  35  36
ENDBRANCH  28  30
ENDBRANCH  27  28
ENDBRANCH  26  27
ENDBRANCH  25  26
ENDBRANCH  24  25
ENDBRANCH  23  24
ENDBRANCH   1  23
TORSDOF 25
ENDMDL
MODEL 3
REMARK VINA RESULT:      -7.5      5.798     11.733
REMARK SMILES CC(C)(C)N(CC(=O)OCCOCCOCCOC(=O)c1ccc(-c2c3nc(c(-c4ccc(S(=O)(=O)[O-])cc4)c4ccc([nH]4)c(-c4ccc(S(=O)(=O)[O-])cc4)c4nc(c(-c5ccc(S(=O)(=O)[O-])cc5)c5ccc2[nH]5)C=C4)C=C3)cc1)C(=O)N1CC[C@H](O)C1
REMARK SMILES IDX 13 1 12 2 11 3 10 4 9 5 7 6 8 7 6 8 5 9 2 10 1 11 3 12 4 13
REMARK SMILES IDX 81 14 82 15 83 16 84 17 88 18 85 19 86 20 87 21 14 23 15 24
REMARK SMILES IDX 16 25 17 26 18 27 19 28 20 29 21 30 22 31 80 32 23 33 79 34
REMARK SMILES IDX 24 35 25 36 26 37 73 38 27 39 78 40 72 41 74 42 28 43 77 44
REMARK SMILES IDX 71 45 70 46 29 48 59 49 40 50 58 51 41 52 44 53 57 54 75 55
REMARK SMILES IDX 42 56 43 57 56 59 76 60 45 61 30 62 31 63 39 64 32 65 38 66
REMARK SMILES IDX 33 67 34 68 35 69 36 70 37 71 60 72 61 73 69 74 62 75 68 76
REMARK SMILES IDX 63 77 64 78 65 79 66 80 67 81 46 82 47 83 55 84 48 85 54 86
REMARK SMILES IDX 49 87 50 88 51 89 52 90 53 91
REMARK H PARENT 87 22 74 47 44 58
REMARK Flexibility Score: inf
ROOT
ATOM      1  C   UNL A   1      35.865  29.994  27.609  1.00  0.00     0.188 C 
ENDROOT
BRANCH   1   2
ATOM      2  O   UNL A   1      34.755  29.251  27.103  1.00  0.00    -0.376 OA
BRANCH   2   3
ATOM      3  C   UNL A   1      33.573  29.992  26.806  1.00  0.00     0.202 C 
BRANCH   3   4
ATOM      4  C   UNL A   1      32.930  29.651  25.460  1.00  0.00     0.261 C 
BRANCH   4   5
ATOM      5  O   UNL A   1      31.848  28.710  25.620  1.00  0.00    -0.462 OA
BRANCH   5   6
ATOM      6  C   UNL A   1      31.658  27.905  24.543  1.00  0.00     0.325 C 
ATOM      7  O   UNL A   1      30.847  28.143  23.651  1.00  0.00    -0.250 OA
BRANCH   6   8
ATOM      8  C   UNL A   1      32.570  26.673  24.491  1.00  0.00     0.244 C 
BRANCH   8   9
ATOM      9  N   UNL A   1      32.071  25.342  24.884  1.00  0.00    -0.309 N 
BRANCH   9  10
ATOM     10  C   UNL A   1      31.580  24.396  23.795  1.00  0.00     0.037 C 
ATOM     11  C   UNL A   1      31.399  22.931  24.270  1.00  0.00     0.034 C 
ATOM     12  C   UNL A   1      32.584  24.350  22.621  1.00  0.00     0.034 C 
ATOM     13  C   UNL A   1      30.179  24.817  23.266  1.00  0.00     0.034 C 
ENDBRANCH   9  10
BRANCH   9  14
ATOM     14  C   UNL A   1      32.022  24.879  26.191  1.00  0.00     0.321 C 
ATOM     15  O   UNL A   1      31.259  25.411  27.006  1.00  0.00    -0.248 OA
BRANCH  14  16
ATOM     16  N   UNL A   1      32.796  23.842  26.643  1.00  0.00    -0.322 N 
ATOM     17  C   UNL A   1      34.192  23.845  26.243  1.00  0.00     0.124 C 
ATOM     18  C   UNL A   1      32.570  22.687  27.511  1.00  0.00     0.153 C 
ATOM     19  C   UNL A   1      34.585  22.391  26.252  1.00  0.00     0.055 C 
ATOM     20  C   UNL A   1      33.831  21.820  27.430  1.00  0.00     0.135 C 
BRANCH  20  21
ATOM     21  O   UNL A   1      33.522  20.457  27.175  1.00  0.00    -0.391 OA
ATOM     22  H   UNL A   1      33.819  20.220  26.283  1.00  0.00     0.211 HD
ENDBRANCH  20  21
ENDBRANCH  14  16
ENDBRANCH   9  14
ENDBRANCH   8   9
ENDBRANCH   6   8
ENDBRANCH   5   6
ENDBRANCH   4   5
ENDBRANCH   3   4
ENDBRANCH   2   3
ENDBRANCH   1   2
BRANCH   1  23
ATOM     23  C   UNL A   1      35.555  31.012  28.721  1.00  0.00     0.188 C 
BRANCH  23  24
ATOM     24  O   UNL A   1      35.915  30.639  30.049  1.00  0.00    -0.376 OA
BRANCH  24  25
ATOM     25  C   UNL A   1      35.777  31.641  31.044  1.00  0.00     0.202 C 
BRANCH  25  26
ATOM     26  C   UNL A   1      36.043  31.190  32.481  1.00  0.00     0.261 C 
BRANCH  26  27
ATOM     27  O   UNL A   1      37.418  30.868  32.756  1.00  0.00    -0.460 OA
BRANCH  27  28
ATOM     28  C   UNL A   1      38.275  31.928  32.685  1.00  0.00     0.338 C 
ATOM     29  O   UNL A   1      38.118  33.025  33.178  1.00  0.00    -0.246 OA
BRANCH  28  30
ATOM     30  C   UNL A   1      39.493  31.566  31.917  1.00  0.00     0.060 A 
ATOM     31  C   UNL A   1      39.332  31.112  30.602  1.00  0.00     0.016 A 
ATOM     32  C   UNL A   1      40.775  31.628  32.478  1.00  0.00     0.016 A 
ATOM     33  C   UNL A   1      40.450  30.774  29.833  1.00  0.00     0.010 A 
ATOM     34  C   UNL A   1      41.895  31.249  31.721  1.00  0.00     0.010 A 
ATOM     35  C   UNL A   1      41.740  30.826  30.391  1.00  0.00    -0.014 A 
BRANCH  35  36
ATOM     36  C   UNL A   1      42.862  30.202  29.640  1.00  0.00     0.031 A 
ATOM     37  C   UNL A   1      44.081  31.056  29.438  1.00  0.00     0.074 A 
ATOM     38  C   UNL A   1      42.857  28.923  29.214  1.00  0.00     0.049 A 
ATOM     39  N   UNL A   1      45.279  30.713  29.051  1.00  0.00    -0.248 NA
ATOM     40  C   UNL A   1      43.927  32.485  29.759  1.00  0.00     0.031 C 
ATOM     41  C   UNL A   1      41.760  27.971  29.364  1.00  0.00     0.029 A 
ATOM     42  N   UNL A   1      43.836  28.192  28.582  1.00  0.00    -0.354 N 
ATOM     43  C   UNL A   1      46.043  31.867  29.169  1.00  0.00     0.074 A 
ATOM     44  C   UNL A   1      45.163  32.926  29.610  1.00  0.00     0.031 C 
ATOM     45  C   UNL A   1      42.132  26.777  28.868  1.00  0.00     0.029 A 
ATOM     46  C   UNL A   1      43.491  26.879  28.345  1.00  0.00     0.049 A 
ATOM     47  H   UNL A   1      44.706  28.573  28.322  1.00  0.00     0.167 HD
ATOM     48  C   UNL A   1      47.364  32.038  28.931  1.00  0.00     0.031 A 
ATOM     49  C   UNL A   1      44.197  25.878  27.777  1.00  0.00     0.031 A 
ATOM     50  C   UNL A   1      48.195  31.047  28.316  1.00  0.00     0.049 A 
ATOM     51  C   UNL A   1      45.612  26.154  27.324  1.00  0.00     0.074 A 
ATOM     52  C   UNL A   1      49.502  31.161  27.885  1.00  0.00     0.029 A 
ATOM     53  N   UNL A   1      47.769  29.767  27.990  1.00  0.00    -0.354 N 
ATOM     54  N   UNL A   1      46.334  27.237  27.484  1.00  0.00    -0.248 NA
ATOM     55  C   UNL A   1      46.306  25.066  26.617  1.00  0.00     0.031 C 
ATOM     56  C   UNL A   1      49.847  29.967  27.241  1.00  0.00     0.029 A 
ATOM     57  C   UNL A   1      48.777  29.089  27.334  1.00  0.00     0.049 A 
ATOM     58  H   UNL A   1      46.879  29.398  28.196  1.00  0.00     0.167 HD
ATOM     59  C   UNL A   1      47.581  26.948  26.937  1.00  0.00     0.074 A 
ATOM     60  C   UNL A   1      47.513  25.587  26.442  1.00  0.00     0.031 C 
ATOM     61  C   UNL A   1      48.686  27.730  26.859  1.00  0.00     0.031 A 
BRANCH  48  62
ATOM     62  C   UNL A   1      47.911  33.393  29.270  1.00  0.00    -0.014 A 
ATOM     63  C   UNL A   1      47.937  34.411  28.298  1.00  0.00     0.010 A 
ATOM     64  C   UNL A   1      48.525  33.610  30.515  1.00  0.00     0.010 A 
ATOM     65  C   UNL A   1      48.637  35.596  28.538  1.00  0.00     0.020 A 
ATOM     66  C   UNL A   1      49.209  34.801  30.764  1.00  0.00     0.020 A 
ATOM     67  C   UNL A   1      49.288  35.772  29.762  1.00  0.00     0.054 A 
BRANCH  67  68
ATOM     68  S   UNL A   1      50.271  37.273  30.017  1.00  0.00     0.124 S 
ATOM     69  O   UNL A   1      49.501  38.265  29.271  1.00  0.00    -0.237 OA
ATOM     70  O   UNL A   1      50.256  37.427  31.469  1.00  0.00    -0.237 OA
ATOM     71  O   UNL A   1      51.572  36.936  29.442  1.00  0.00    -0.744 OA
ENDBRANCH  67  68
ENDBRANCH  48  62
BRANCH  49  72
ATOM     72  C   UNL A   1      43.607  24.517  27.603  1.00  0.00    -0.014 A 
ATOM     73  C   UNL A   1      43.001  24.148  26.387  1.00  0.00     0.010 A 
ATOM     74  C   UNL A   1      43.592  23.598  28.670  1.00  0.00     0.010 A 
ATOM     75  C   UNL A   1      42.373  22.904  26.249  1.00  0.00     0.020 A 
ATOM     76  C   UNL A   1      42.986  22.344  28.528  1.00  0.00     0.020 A 
ATOM     77  C   UNL A   1      42.367  22.010  27.322  1.00  0.00     0.054 A 
BRANCH  77  78
ATOM     78  S   UNL A   1      41.562  20.395  27.115  1.00  0.00     0.124 S 
ATOM     79  O   UNL A   1      42.570  19.482  27.643  1.00  0.00    -0.237 OA
ATOM     80  O   UNL A   1      40.353  20.541  27.921  1.00  0.00    -0.237 OA
ATOM     81  O   UNL A   1      41.335  20.310  25.674  1.00  0.00    -0.744 OA
ENDBRANCH  77  78
ENDBRANCH  49  72
BRANCH  61  82
ATOM     82  C   UNL A   1      49.932  27.128  26.267  1.00  0.00    -0.014 A 
ATOM     83  C   UNL A   1      50.226  27.242  24.898  1.00  0.00     0.010 A 
ATOM     84  C   UNL A   1      50.867  26.516  27.123  1.00  0.00     0.010 A 
ATOM     85  C   UNL A   1      51.428  26.739  24.392  1.00  0.00     0.020 A 
ATOM     86  C   UNL A   1      52.080  26.036  26.626  1.00  0.00     0.020 A 
ATOM     87  C   UNL A   1      52.348  26.141  25.260  1.00  0.00     0.054 A 
BRANCH  87  88
ATOM     88  S   UNL A   1      53.932  25.560  24.595  1.00  0.00     0.124 S 
ATOM     89  O   UNL A   1      53.934  26.149  23.259  1.00  0.00    -0.237 OA
ATOM     90  O   UNL A   1      54.901  26.123  25.533  1.00  0.00    -0.237 OA
ATOM     91  O   UNL A   1      53.810  24.104  24.636  1.00  0.00    -0.744 OA
ENDBRANCH  87  88
ENDBRANCH  61  82
ENDBRANCH  35  36
ENDBRANCH  28  30
ENDBRANCH  27  28
ENDBRANCH  26  27
ENDBRANCH  25  26
ENDBRANCH  24  25
ENDBRANCH  23  24
ENDBRANCH   1  23
TORSDOF 25
ENDMDL
