MODEL 1
REMARK VINA RESULT:      -7.9      0.000      0.000
REMARK SMILES Cc1cc(C)cc(C(=O)N2CC[C@H](C(=O)OCCOCCOCCOC(=O)c3ccc(-c4c5nc(c(-c6ccc(S(=O)(=O)[O-])cc6)c6ccc([nH]6)c(-c6ccc(S(=O)(=O)[O-])cc6)c6nc(c(-c7ccc(S(=O)(=O)[O-])cc7)c7ccc4[nH]7)C=C6)C=C5)cc3)[C@@H]2C)c1
REMARK SMILES IDX 21 1 20 2 19 3 18 4 17 5 16 6 14 7 15 8 13 9 10 10 11 11
REMARK SMILES IDX 88 12 12 13 89 14 8 15 9 16 7 17 1 18 2 19 3 20 90 21 4 22
REMARK SMILES IDX 5 23 6 24 22 25 23 26 24 27 25 28 26 29 27 30 28 31 29 32
REMARK SMILES IDX 87 33 30 34 86 35 31 36 32 37 33 38 80 39 34 40 85 41 79 42
REMARK SMILES IDX 81 43 35 44 84 45 78 46 77 47 36 49 66 50 47 51 65 52 48 53
REMARK SMILES IDX 51 54 64 55 82 56 49 57 50 58 63 60 83 61 52 62 37 63 38 64
REMARK SMILES IDX 46 65 39 66 45 67 40 68 41 69 42 70 43 71 44 72 67 73 68 74
REMARK SMILES IDX 76 75 69 76 75 77 70 78 71 79 72 80 73 81 74 82 53 83 54 84
REMARK SMILES IDX 62 85 55 86 61 87 56 88 57 89 58 90 59 91 60 92
REMARK H PARENT 81 48 51 59
REMARK Flexibility Score: inf
ROOT
ATOM      1  C   UNL A   1      41.936  20.916  26.654  1.00  0.00     0.188 C 
ENDROOT
BRANCH   1   2
ATOM      2  C   UNL A   1      42.399  19.509  26.238  1.00  0.00     0.188 C 
BRANCH   2   3
ATOM      3  O   UNL A   1      43.029  19.345  24.971  1.00  0.00    -0.376 OA
BRANCH   3   4
ATOM      4  C   UNL A   1      44.416  19.610  24.863  1.00  0.00     0.202 C 
BRANCH   4   5
ATOM      5  C   UNL A   1      44.830  21.051  24.555  1.00  0.00     0.261 C 
BRANCH   5   6
ATOM      6  O   UNL A   1      45.383  21.808  25.651  1.00  0.00    -0.463 OA
BRANCH   6   7
ATOM      7  C   UNL A   1      46.020  22.953  25.271  1.00  0.00     0.311 C 
ATOM      8  O   UNL A   1      46.516  23.120  24.165  1.00  0.00    -0.252 OA
BRANCH   7   9
ATOM      9  C   UNL A   1      46.195  23.910  26.444  1.00  0.00     0.123 C 
ATOM     10  N   UNL A   1      45.573  26.183  26.011  1.00  0.00    -0.335 N 
ATOM     11  C   UNL A   1      46.837  25.920  25.342  1.00  0.00     0.121 C 
ATOM     12  C   UNL A   1      45.114  24.980  26.724  1.00  0.00     0.096 C 
ATOM     13  C   UNL A   1      47.427  24.783  26.162  1.00  0.00     0.039 C 
ATOM     14  C   UNL A   1      43.689  24.589  26.394  1.00  0.00     0.032 C 
BRANCH  10  15
ATOM     15  C   UNL A   1      45.061  27.472  25.915  1.00  0.00     0.254 C 
ATOM     16  O   UNL A   1      44.347  27.790  24.963  1.00  0.00    -0.269 OA
BRANCH  15  17
ATOM     17  C   UNL A   1      45.383  28.541  26.902  1.00  0.00     0.040 A 
ATOM     18  C   UNL A   1      48.361  30.423  28.349  1.00  0.00     0.044 C 
ATOM     19  C   UNL A   1      46.950  30.015  28.049  1.00  0.00    -0.050 A 
ATOM     20  C   UNL A   1      45.877  30.752  28.563  1.00  0.00     0.006 A 
ATOM     21  C   UNL A   1      46.691  28.948  27.179  1.00  0.00     0.017 A 
ATOM     22  C   UNL A   1      44.558  30.410  28.243  1.00  0.00    -0.050 A 
ATOM     23  C   UNL A   1      43.426  31.293  28.687  1.00  0.00     0.044 C 
ATOM     24  C   UNL A   1      44.320  29.295  27.428  1.00  0.00     0.017 A 
ENDBRANCH  15  17
ENDBRANCH  10  15
ENDBRANCH   7   9
ENDBRANCH   6   7
ENDBRANCH   5   6
ENDBRANCH   4   5
ENDBRANCH   3   4
ENDBRANCH   2   3
ENDBRANCH   1   2
BRANCH   1  25
ATOM     25  O   UNL A   1      40.568  21.076  27.014  1.00  0.00    -0.376 OA
BRANCH  25  26
ATOM     26  C   UNL A   1      39.604  20.387  26.224  1.00  0.00     0.202 C 
BRANCH  26  27
ATOM     27  C   UNL A   1      38.475  21.252  25.651  1.00  0.00     0.261 C 
BRANCH  27  28
ATOM     28  O   UNL A   1      38.940  22.565  25.269  1.00  0.00    -0.460 OA
BRANCH  28  29
ATOM     29  C   UNL A   1      38.209  23.607  25.735  1.00  0.00     0.338 C 
ATOM     30  O   UNL A   1      37.010  23.774  25.586  1.00  0.00    -0.246 OA
BRANCH  29  31
ATOM     31  C   UNL A   1      39.024  24.493  26.593  1.00  0.00     0.060 A 
ATOM     32  C   UNL A   1      38.769  24.474  27.969  1.00  0.00     0.016 A 
ATOM     33  C   UNL A   1      39.917  25.425  26.058  1.00  0.00     0.016 A 
ATOM     34  C   UNL A   1      39.352  25.425  28.805  1.00  0.00     0.010 A 
ATOM     35  C   UNL A   1      40.494  26.388  26.899  1.00  0.00     0.010 A 
ATOM     36  C   UNL A   1      40.179  26.422  28.271  1.00  0.00    -0.014 A 
BRANCH  36  37
ATOM     37  C   UNL A   1      40.560  27.581  29.123  1.00  0.00     0.031 A 
ATOM     38  C   UNL A   1      41.930  27.611  29.752  1.00  0.00     0.074 A 
ATOM     39  C   UNL A   1      39.744  28.641  29.263  1.00  0.00     0.049 A 
ATOM     40  N   UNL A   1      42.469  28.515  30.531  1.00  0.00    -0.248 NA
ATOM     41  C   UNL A   1      42.813  26.472  29.456  1.00  0.00     0.031 C 
ATOM     42  C   UNL A   1      38.438  28.791  28.624  1.00  0.00     0.029 A 
ATOM     43  N   UNL A   1      39.911  29.809  29.969  1.00  0.00    -0.354 N 
ATOM     44  C   UNL A   1      43.744  28.049  30.831  1.00  0.00     0.074 A 
ATOM     45  C   UNL A   1      43.890  26.770  30.167  1.00  0.00     0.031 C 
ATOM     46  C   UNL A   1      37.934  29.996  28.944  1.00  0.00     0.029 A 
ATOM     47  C   UNL A   1      38.858  30.683  29.844  1.00  0.00     0.049 A 
ATOM     48  H   UNL A   1      40.709  30.000  30.513  1.00  0.00     0.167 HD
ATOM     49  C   UNL A   1      44.709  28.627  31.587  1.00  0.00     0.031 A 
ATOM     50  C   UNL A   1      38.655  31.895  30.398  1.00  0.00     0.031 A 
ATOM     51  C   UNL A   1      44.567  29.895  32.253  1.00  0.00     0.049 A 
ATOM     52  C   UNL A   1      39.699  32.478  31.313  1.00  0.00     0.074 A 
ATOM     53  C   UNL A   1      45.476  30.546  33.069  1.00  0.00     0.029 A 
ATOM     54  N   UNL A   1      43.443  30.705  32.180  1.00  0.00    -0.354 N 
ATOM     55  N   UNL A   1      40.879  31.999  31.630  1.00  0.00    -0.248 NA
ATOM     56  C   UNL A   1      39.379  33.761  31.954  1.00  0.00     0.031 C 
ATOM     57  C   UNL A   1      44.882  31.730  33.527  1.00  0.00     0.029 A 
ATOM     58  C   UNL A   1      43.626  31.839  32.953  1.00  0.00     0.049 A 
ATOM     59  H   UNL A   1      42.635  30.502  31.655  1.00  0.00     0.167 HD
ATOM     60  C   UNL A   1      41.450  32.933  32.490  1.00  0.00     0.074 A 
ATOM     61  C   UNL A   1      40.490  34.008  32.636  1.00  0.00     0.031 C 
ATOM     62  C   UNL A   1      42.661  32.900  33.100  1.00  0.00     0.031 A 
BRANCH  49  63
ATOM     63  C   UNL A   1      45.983  27.847  31.778  1.00  0.00    -0.014 A 
ATOM     64  C   UNL A   1      46.129  26.928  32.833  1.00  0.00     0.010 A 
ATOM     65  C   UNL A   1      47.060  28.060  30.900  1.00  0.00     0.010 A 
ATOM     66  C   UNL A   1      47.353  26.285  33.044  1.00  0.00     0.020 A 
ATOM     67  C   UNL A   1      48.278  27.399  31.092  1.00  0.00     0.020 A 
ATOM     68  C   UNL A   1      48.424  26.537  32.181  1.00  0.00     0.054 A 
BRANCH  68  69
ATOM     69  S   UNL A   1      50.016  25.725  32.497  1.00  0.00     0.124 S 
ATOM     70  O   UNL A   1      49.597  24.506  33.187  1.00  0.00    -0.237 OA
ATOM     71  O   UNL A   1      50.553  25.530  31.153  1.00  0.00    -0.237 OA
ATOM     72  O   UNL A   1      50.739  26.690  33.321  1.00  0.00    -0.744 OA
ENDBRANCH  68  69
ENDBRANCH  49  63
BRANCH  50  73
ATOM     73  C   UNL A   1      37.395  32.636  30.110  1.00  0.00    -0.014 A 
ATOM     74  C   UNL A   1      37.321  33.535  29.033  1.00  0.00     0.010 A 
ATOM     75  C   UNL A   1      36.253  32.428  30.906  1.00  0.00     0.010 A 
ATOM     76  C   UNL A   1      36.129  34.211  28.755  1.00  0.00     0.020 A 
ATOM     77  C   UNL A   1      35.053  33.084  30.617  1.00  0.00     0.020 A 
ATOM     78  C   UNL A   1      35.000  33.977  29.545  1.00  0.00     0.054 A 
BRANCH  78  79
ATOM     79  S   UNL A   1      33.443  34.808  29.123  1.00  0.00     0.124 S 
ATOM     80  O   UNL A   1      32.796  34.923  30.426  1.00  0.00    -0.237 OA
ATOM     81  O   UNL A   1      33.901  36.064  28.533  1.00  0.00    -0.237 OA
ATOM     82  O   UNL A   1      32.805  33.887  28.187  1.00  0.00    -0.744 OA
ENDBRANCH  78  79
ENDBRANCH  50  73
BRANCH  62  83
ATOM     83  C   UNL A   1      43.032  34.071  33.972  1.00  0.00    -0.014 A 
ATOM     84  C   UNL A   1      42.792  34.054  35.356  1.00  0.00     0.010 A 
ATOM     85  C   UNL A   1      43.686  35.181  33.403  1.00  0.00     0.010 A 
ATOM     86  C   UNL A   1      43.177  35.136  36.155  1.00  0.00     0.020 A 
ATOM     87  C   UNL A   1      44.092  36.255  34.201  1.00  0.00     0.020 A 
ATOM     88  C   UNL A   1      43.824  36.230  35.571  1.00  0.00     0.054 A 
BRANCH  88  89
ATOM     89  S   UNL A   1      44.359  37.600  36.634  1.00  0.00     0.124 S 
ATOM     90  O   UNL A   1      45.676  37.150  37.074  1.00  0.00    -0.237 OA
ATOM     91  O   UNL A   1      44.358  38.739  35.718  1.00  0.00    -0.237 OA
ATOM     92  O   UNL A   1      43.337  37.649  37.677  1.00  0.00    -0.744 OA
ENDBRANCH  88  89
ENDBRANCH  62  83
ENDBRANCH  36  37
ENDBRANCH  29  31
ENDBRANCH  28  29
ENDBRANCH  27  28
ENDBRANCH  26  27
ENDBRANCH  25  26
ENDBRANCH   1  25
TORSDOF 22
ENDMDL
MODEL 2
REMARK VINA RESULT:      -7.8      4.918     11.567
REMARK SMILES Cc1cc(C)cc(C(=O)N2CC[C@H](C(=O)OCCOCCOCCOC(=O)c3ccc(-c4c5nc(c(-c6ccc(S(=O)(=O)[O-])cc6)c6ccc([nH]6)c(-c6ccc(S(=O)(=O)[O-])cc6)c6nc(c(-c7ccc(S(=O)(=O)[O-])cc7)c7ccc4[nH]7)C=C6)C=C5)cc3)[C@@H]2C)c1
REMARK SMILES IDX 21 1 20 2 19 3 18 4 17 5 16 6 14 7 15 8 13 9 10 10 11 11
REMARK SMILES IDX 88 12 12 13 89 14 8 15 9 16 7 17 1 18 2 19 3 20 90 21 4 22
REMARK SMILES IDX 5 23 6 24 22 25 23 26 24 27 25 28 26 29 27 30 28 31 29 32
REMARK SMILES IDX 87 33 30 34 86 35 31 36 32 37 33 38 80 39 34 40 85 41 79 42
REMARK SMILES IDX 81 43 35 44 84 45 78 46 77 47 36 49 66 50 47 51 65 52 48 53
REMARK SMILES IDX 51 54 64 55 82 56 49 57 50 58 63 60 83 61 52 62 37 63 38 64
REMARK SMILES IDX 46 65 39 66 45 67 40 68 41 69 42 70 43 71 44 72 67 73 68 74
REMARK SMILES IDX 76 75 69 76 75 77 70 78 71 79 72 80 73 81 74 82 53 83 54 84
REMARK SMILES IDX 62 85 55 86 61 87 56 88 57 89 58 90 59 91 60 92
REMARK H PARENT 81 48 51 59
REMARK Flexibility Score: inf
ROOT
ATOM      1  C   UNL A   1      37.429  22.501  25.365  1.00  0.00     0.188 C 
ENDROOT
BRANCH   1   2
ATOM      2  C   UNL A   1      36.256  22.234  24.405  1.00  0.00     0.188 C 
BRANCH   2   3
ATOM      3  O   UNL A   1      35.152  21.466  24.874  1.00  0.00    -0.376 OA
BRANCH   3   4
ATOM      4  C   UNL A   1      34.841  21.496  26.255  1.00  0.00     0.202 C 
BRANCH   4   5
ATOM      5  C   UNL A   1      33.374  21.716  26.636  1.00  0.00     0.261 C 
BRANCH   5   6
ATOM      6  O   UNL A   1      33.053  22.982  27.247  1.00  0.00    -0.463 OA
BRANCH   6   7
ATOM      7  C   UNL A   1      32.208  23.758  26.509  1.00  0.00     0.311 C 
ATOM      8  O   UNL A   1      31.351  24.481  26.995  1.00  0.00    -0.252 OA
BRANCH   7   9
ATOM      9  C   UNL A   1      32.344  23.469  25.019  1.00  0.00     0.123 C 
ATOM     10  N   UNL A   1      31.924  25.333  23.573  1.00  0.00    -0.335 N 
ATOM     11  C   UNL A   1      30.651  24.865  24.095  1.00  0.00     0.121 C 
ATOM     12  C   UNL A   1      33.025  24.508  24.098  1.00  0.00     0.096 C 
ATOM     13  C   UNL A   1      30.931  23.405  24.419  1.00  0.00     0.039 C 
ATOM     14  C   UNL A   1      34.143  25.318  24.721  1.00  0.00     0.032 C 
BRANCH  10  15
ATOM     15  C   UNL A   1      31.890  26.391  22.673  1.00  0.00     0.254 C 
ATOM     16  O   UNL A   1      32.450  26.298  21.579  1.00  0.00    -0.269 OA
BRANCH  15  17
ATOM     17  C   UNL A   1      31.241  27.695  22.988  1.00  0.00     0.040 A 
ATOM     18  C   UNL A   1      28.161  29.751  22.099  1.00  0.00     0.044 C 
ATOM     19  C   UNL A   1      29.427  29.309  22.771  1.00  0.00    -0.050 A 
ATOM     20  C   UNL A   1      29.947  30.035  23.847  1.00  0.00     0.006 A 
ATOM     21  C   UNL A   1      30.052  28.115  22.387  1.00  0.00     0.017 A 
ATOM     22  C   UNL A   1      31.097  29.598  24.515  1.00  0.00    -0.050 A 
ATOM     23  C   UNL A   1      31.560  30.310  25.754  1.00  0.00     0.044 C 
ATOM     24  C   UNL A   1      31.746  28.439  24.068  1.00  0.00     0.017 A 
ENDBRANCH  15  17
ENDBRANCH  10  15
ENDBRANCH   7   9
ENDBRANCH   6   7
ENDBRANCH   5   6
ENDBRANCH   4   5
ENDBRANCH   3   4
ENDBRANCH   2   3
ENDBRANCH   1   2
BRANCH   1  25
ATOM     25  O   UNL A   1      38.530  21.601  25.321  1.00  0.00    -0.376 OA
BRANCH  25  26
ATOM     26  C   UNL A   1      38.232  20.218  25.152  1.00  0.00     0.202 C 
BRANCH  26  27
ATOM     27  C   UNL A   1      39.301  19.243  25.659  1.00  0.00     0.261 C 
BRANCH  27  28
ATOM     28  O   UNL A   1      40.607  19.855  25.721  1.00  0.00    -0.460 OA
BRANCH  28  29
ATOM     29  C   UNL A   1      41.050  20.171  26.963  1.00  0.00     0.338 C 
ATOM     30  O   UNL A   1      40.802  19.571  27.995  1.00  0.00    -0.246 OA
BRANCH  29  31
ATOM     31  C   UNL A   1      42.015  21.290  26.919  1.00  0.00     0.060 A 
ATOM     32  C   UNL A   1      42.635  21.656  28.119  1.00  0.00     0.016 A 
ATOM     33  C   UNL A   1      42.206  22.059  25.768  1.00  0.00     0.016 A 
ATOM     34  C   UNL A   1      43.393  22.824  28.191  1.00  0.00     0.010 A 
ATOM     35  C   UNL A   1      42.960  23.239  25.846  1.00  0.00     0.010 A 
ATOM     36  C   UNL A   1      43.520  23.652  27.069  1.00  0.00    -0.014 A 
BRANCH  36  37
ATOM     37  C   UNL A   1      44.088  25.017  27.237  1.00  0.00     0.031 A 
ATOM     38  C   UNL A   1      43.221  26.109  27.813  1.00  0.00     0.074 A 
ATOM     39  C   UNL A   1      45.383  25.271  26.974  1.00  0.00     0.049 A 
ATOM     40  N   UNL A   1      43.506  27.366  28.042  1.00  0.00    -0.248 NA
ATOM     41  C   UNL A   1      41.850  25.726  28.189  1.00  0.00     0.031 C 
ATOM     42  C   UNL A   1      46.360  24.286  26.516  1.00  0.00     0.029 A 
ATOM     43  N   UNL A   1      46.105  26.436  27.087  1.00  0.00    -0.354 N 
ATOM     44  C   UNL A   1      42.350  27.929  28.571  1.00  0.00     0.074 A 
ATOM     45  C   UNL A   1      41.352  26.880  28.609  1.00  0.00     0.031 C 
ATOM     46  C   UNL A   1      47.562  24.880  26.413  1.00  0.00     0.029 A 
ATOM     47  C   UNL A   1      47.431  26.295  26.754  1.00  0.00     0.049 A 
ATOM     48  H   UNL A   1      45.709  27.289  27.377  1.00  0.00     0.167 HD
ATOM     49  C   UNL A   1      42.134  29.199  28.989  1.00  0.00     0.031 A 
ATOM     50  C   UNL A   1      48.427  27.204  26.719  1.00  0.00     0.031 A 
ATOM     51  C   UNL A   1      43.119  30.247  28.948  1.00  0.00     0.049 A 
ATOM     52  C   UNL A   1      48.141  28.633  27.096  1.00  0.00     0.074 A 
ATOM     53  C   UNL A   1      42.983  31.574  29.317  1.00  0.00     0.029 A 
ATOM     54  N   UNL A   1      44.426  30.085  28.511  1.00  0.00    -0.354 N 
ATOM     55  N   UNL A   1      47.027  29.162  27.545  1.00  0.00    -0.248 NA
ATOM     56  C   UNL A   1      49.247  29.591  26.953  1.00  0.00     0.031 C 
ATOM     57  C   UNL A   1      44.196  32.226  29.060  1.00  0.00     0.029 A 
ATOM     58  C   UNL A   1      45.101  31.293  28.580  1.00  0.00     0.049 A 
ATOM     59  H   UNL A   1      44.815  29.237  28.198  1.00  0.00     0.167 HD
ATOM     60  C   UNL A   1      47.304  30.510  27.756  1.00  0.00     0.074 A 
ATOM     61  C   UNL A   1      48.693  30.713  27.395  1.00  0.00     0.031 C 
ATOM     62  C   UNL A   1      46.481  31.488  28.210  1.00  0.00     0.031 A 
BRANCH  49  63
ATOM     63  C   UNL A   1      40.745  29.531  29.470  1.00  0.00    -0.014 A 
ATOM     64  C   UNL A   1      39.705  29.817  28.566  1.00  0.00     0.010 A 
ATOM     65  C   UNL A   1      40.486  29.581  30.851  1.00  0.00     0.010 A 
ATOM     66  C   UNL A   1      38.449  30.212  29.038  1.00  0.00     0.020 A 
ATOM     67  C   UNL A   1      39.224  29.950  31.327  1.00  0.00     0.020 A 
ATOM     68  C   UNL A   1      38.222  30.290  30.416  1.00  0.00     0.054 A 
BRANCH  68  69
ATOM     69  S   UNL A   1      36.598  30.845  31.007  1.00  0.00     0.124 S 
ATOM     70  O   UNL A   1      35.986  29.585  31.423  1.00  0.00    -0.237 OA
ATOM     71  O   UNL A   1      36.944  31.761  32.090  1.00  0.00    -0.237 OA
ATOM     72  O   UNL A   1      35.998  31.471  29.832  1.00  0.00    -0.744 OA
ENDBRANCH  68  69
ENDBRANCH  49  63
BRANCH  50  73
ATOM     73  C   UNL A   1      49.792  26.786  26.294  1.00  0.00    -0.014 A 
ATOM     74  C   UNL A   1      50.714  26.287  27.230  1.00  0.00     0.010 A 
ATOM     75  C   UNL A   1      50.169  26.867  24.941  1.00  0.00     0.010 A 
ATOM     76  C   UNL A   1      51.986  25.876  26.821  1.00  0.00     0.020 A 
ATOM     77  C   UNL A   1      51.431  26.435  24.524  1.00  0.00     0.020 A 
ATOM     78  C   UNL A   1      52.335  25.948  25.469  1.00  0.00     0.054 A 
BRANCH  78  79
ATOM     79  S   UNL A   1      53.965  25.341  24.948  1.00  0.00     0.124 S 
ATOM     80  O   UNL A   1      53.715  23.915  24.765  1.00  0.00    -0.237 OA
ATOM     81  O   UNL A   1      54.212  26.101  23.725  1.00  0.00    -0.237 OA
ATOM     82  O   UNL A   1      54.835  25.685  26.070  1.00  0.00    -0.744 OA
ENDBRANCH  78  79
ENDBRANCH  50  73
BRANCH  62  83
ATOM     83  C   UNL A   1      47.061  32.869  28.363  1.00  0.00    -0.014 A 
ATOM     84  C   UNL A   1      47.502  33.339  29.612  1.00  0.00     0.010 A 
ATOM     85  C   UNL A   1      47.220  33.686  27.228  1.00  0.00     0.010 A 
ATOM     86  C   UNL A   1      48.071  34.611  29.729  1.00  0.00     0.020 A 
ATOM     87  C   UNL A   1      47.808  34.950  27.337  1.00  0.00     0.020 A 
ATOM     88  C   UNL A   1      48.220  35.409  28.589  1.00  0.00     0.054 A 
BRANCH  88  89
ATOM     89  S   UNL A   1      49.006  37.036  28.756  1.00  0.00     0.124 S 
ATOM     90  O   UNL A   1      50.084  36.759  29.701  1.00  0.00    -0.237 OA
ATOM     91  O   UNL A   1      49.430  37.332  27.389  1.00  0.00    -0.237 OA
ATOM     92  O   UNL A   1      47.934  37.888  29.266  1.00  0.00    -0.744 OA
ENDBRANCH  88  89
ENDBRANCH  62  83
ENDBRANCH  36  37
ENDBRANCH  29  31
ENDBRANCH  28  29
ENDBRANCH  27  28
ENDBRANCH  26  27
ENDBRANCH  25  26
ENDBRANCH   1  25
TORSDOF 22
ENDMDL
MODEL 3
REMARK VINA RESULT:      -7.8      4.342     10.717
REMARK SMILES Cc1cc(C)cc(C(=O)N2CC[C@H](C(=O)OCCOCCOCCOC(=O)c3ccc(-c4c5nc(c(-c6ccc(S(=O)(=O)[O-])cc6)c6ccc([nH]6)c(-c6ccc(S(=O)(=O)[O-])cc6)c6nc(c(-c7ccc(S(=O)(=O)[O-])cc7)c7ccc4[nH]7)C=C6)C=C5)cc3)[C@@H]2C)c1
REMARK SMILES IDX 21 1 20 2 19 3 18 4 17 5 16 6 14 7 15 8 13 9 10 10 11 11
REMARK SMILES IDX 88 12 12 13 89 14 8 15 9 16 7 17 1 18 2 19 3 20 90 21 4 22
REMARK SMILES IDX 5 23 6 24 22 25 23 26 24 27 25 28 26 29 27 30 28 31 29 32
REMARK SMILES IDX 87 33 30 34 86 35 31 36 32 37 33 38 80 39 34 40 85 41 79 42
REMARK SMILES IDX 81 43 35 44 84 45 78 46 77 47 36 49 66 50 47 51 65 52 48 53
REMARK SMILES IDX 51 54 64 55 82 56 49 57 50 58 63 60 83 61 52 62 37 63 38 64
REMARK SMILES IDX 46 65 39 66 45 67 40 68 41 69 42 70 43 71 44 72 67 73 68 74
REMARK SMILES IDX 76 75 69 76 75 77 70 78 71 79 72 80 73 81 74 82 53 83 54 84
REMARK SMILES IDX 62 85 55 86 61 87 56 88 57 89 58 90 59 91 60 92
REMARK H PARENT 81 48 51 59
REMARK Flexibility Score: inf
ROOT
ATOM      1  C   UNL A   1      40.447  20.248  26.035  1.00  0.00     0.188 C 
ENDROOT
BRANCH   1   2
ATOM      2  C   UNL A   1      39.182  21.122  26.059  1.00  0.00     0.188 C 
BRANCH   2   3
ATOM      3  O   UNL A   1      38.267  21.029  24.972  1.00  0.00    -0.376 OA
BRANCH   3   4
ATOM      4  C   UNL A   1      37.074  21.791  25.021  1.00  0.00     0.202 C 
BRANCH   4   5
ATOM      5  C   UNL A   1      35.807  21.075  25.497  1.00  0.00     0.261 C 
BRANCH   5   6
ATOM      6  O   UNL A   1      35.075  21.709  26.565  1.00  0.00    -0.463 OA
BRANCH   6   7
ATOM      7  C   UNL A   1      33.758  21.926  26.285  1.00  0.00     0.311 C 
ATOM      8  O   UNL A   1      33.075  21.173  25.606  1.00  0.00    -0.252 OA
BRANCH   7   9
ATOM      9  C   UNL A   1      33.306  23.301  26.762  1.00  0.00     0.123 C 
ATOM     10  N   UNL A   1      32.045  24.572  25.169  1.00  0.00    -0.335 N 
ATOM     11  C   UNL A   1      33.440  24.580  24.758  1.00  0.00     0.121 C 
ATOM     12  C   UNL A   1      31.884  23.801  26.413  1.00  0.00     0.096 C 
ATOM     13  C   UNL A   1      34.182  24.354  26.067  1.00  0.00     0.039 C 
ATOM     14  C   UNL A   1      30.807  22.740  26.331  1.00  0.00     0.032 C 
BRANCH  10  15
ATOM     15  C   UNL A   1      31.151  25.297  24.391  1.00  0.00     0.254 C 
ATOM     16  O   UNL A   1      30.475  24.734  23.528  1.00  0.00    -0.269 OA
BRANCH  15  17
ATOM     17  C   UNL A   1      30.999  26.775  24.506  1.00  0.00     0.040 A 
ATOM     18  C   UNL A   1      32.044  29.687  26.727  1.00  0.00     0.044 C 
ATOM     19  C   UNL A   1      31.461  28.913  25.583  1.00  0.00    -0.050 A 
ATOM     20  C   UNL A   1      30.901  29.583  24.490  1.00  0.00     0.006 A 
ATOM     21  C   UNL A   1      31.552  27.515  25.554  1.00  0.00     0.017 A 
ATOM     22  C   UNL A   1      30.405  28.869  23.392  1.00  0.00    -0.050 A 
ATOM     23  C   UNL A   1      29.937  29.605  22.169  1.00  0.00     0.044 C 
ATOM     24  C   UNL A   1      30.442  27.468  23.417  1.00  0.00     0.017 A 
ENDBRANCH  15  17
ENDBRANCH  10  15
ENDBRANCH   7   9
ENDBRANCH   6   7
ENDBRANCH   5   6
ENDBRANCH   4   5
ENDBRANCH   3   4
ENDBRANCH   2   3
ENDBRANCH   1   2
BRANCH   1  25
ATOM     25  O   UNL A   1      41.682  20.872  26.367  1.00  0.00    -0.376 OA
BRANCH  25  26
ATOM     26  C   UNL A   1      41.883  22.203  25.899  1.00  0.00     0.202 C 
BRANCH  26  27
ATOM     27  C   UNL A   1      41.597  23.314  26.917  1.00  0.00     0.261 C 
BRANCH  27  28
ATOM     28  O   UNL A   1      40.744  24.342  26.369  1.00  0.00    -0.460 OA
BRANCH  28  29
ATOM     29  C   UNL A   1      41.302  25.573  26.261  1.00  0.00     0.338 C 
ATOM     30  O   UNL A   1      41.548  26.168  25.225  1.00  0.00    -0.246 OA
BRANCH  29  31
ATOM     31  C   UNL A   1      41.470  26.204  27.587  1.00  0.00     0.060 A 
ATOM     32  C   UNL A   1      40.439  26.037  28.518  1.00  0.00     0.016 A 
ATOM     33  C   UNL A   1      42.539  27.057  27.870  1.00  0.00     0.016 A 
ATOM     34  C   UNL A   1      40.437  26.770  29.704  1.00  0.00     0.010 A 
ATOM     35  C   UNL A   1      42.530  27.802  29.060  1.00  0.00     0.010 A 
ATOM     36  C   UNL A   1      41.455  27.696  29.962  1.00  0.00    -0.014 A 
BRANCH  36  37
ATOM     37  C   UNL A   1      41.290  28.660  31.084  1.00  0.00     0.031 A 
ATOM     38  C   UNL A   1      40.170  29.668  31.028  1.00  0.00     0.074 A 
ATOM     39  C   UNL A   1      42.059  28.586  32.185  1.00  0.00     0.049 A 
ATOM     40  N   UNL A   1      39.845  30.601  31.888  1.00  0.00    -0.248 NA
ATOM     41  C   UNL A   1      39.294  29.610  29.846  1.00  0.00     0.031 C 
ATOM     42  C   UNL A   1      43.106  27.594  32.418  1.00  0.00     0.029 A 
ATOM     43  N   UNL A   1      42.055  29.347  33.330  1.00  0.00    -0.354 N 
ATOM     44  C   UNL A   1      38.741  31.250  31.346  1.00  0.00     0.074 A 
ATOM     45  C   UNL A   1      38.466  30.619  30.073  1.00  0.00     0.031 C 
ATOM     46  C   UNL A   1      43.624  27.788  33.644  1.00  0.00     0.029 A 
ATOM     47  C   UNL A   1      42.980  28.945  34.263  1.00  0.00     0.049 A 
ATOM     48  H   UNL A   1      41.446  30.110  33.467  1.00  0.00     0.167 HD
ATOM     49  C   UNL A   1      38.019  32.277  31.858  1.00  0.00     0.031 A 
ATOM     50  C   UNL A   1      43.280  29.452  35.475  1.00  0.00     0.031 A 
ATOM     51  C   UNL A   1      38.293  32.913  33.119  1.00  0.00     0.049 A 
ATOM     52  C   UNL A   1      42.529  30.655  35.983  1.00  0.00     0.074 A 
ATOM     53  C   UNL A   1      37.639  33.982  33.706  1.00  0.00     0.029 A 
ATOM     54  N   UNL A   1      39.304  32.535  33.991  1.00  0.00    -0.354 N 
ATOM     55  N   UNL A   1      41.522  31.292  35.435  1.00  0.00    -0.248 NA
ATOM     56  C   UNL A   1      42.964  31.213  37.272  1.00  0.00     0.031 C 
ATOM     57  C   UNL A   1      38.284  34.281  34.912  1.00  0.00     0.029 A 
ATOM     58  C   UNL A   1      39.305  33.365  35.100  1.00  0.00     0.049 A 
ATOM     59  H   UNL A   1      39.927  31.788  33.843  1.00  0.00     0.167 HD
ATOM     60  C   UNL A   1      41.190  32.313  36.321  1.00  0.00     0.074 A 
ATOM     61  C   UNL A   1      42.097  32.202  37.445  1.00  0.00     0.031 C 
ATOM     62  C   UNL A   1      40.219  33.253  36.211  1.00  0.00     0.031 A 
BRANCH  49  63
ATOM     63  C   UNL A   1      36.899  32.812  31.005  1.00  0.00    -0.014 A 
ATOM     64  C   UNL A   1      35.575  32.364  31.167  1.00  0.00     0.010 A 
ATOM     65  C   UNL A   1      37.184  33.761  30.007  1.00  0.00     0.010 A 
ATOM     66  C   UNL A   1      34.569  32.808  30.302  1.00  0.00     0.020 A 
ATOM     67  C   UNL A   1      36.176  34.227  29.158  1.00  0.00     0.020 A 
ATOM     68  C   UNL A   1      34.880  33.725  29.294  1.00  0.00     0.054 A 
BRANCH  68  69
ATOM     69  S   UNL A   1      33.569  34.255  28.156  1.00  0.00     0.124 S 
ATOM     70  O   UNL A   1      33.011  32.974  27.727  1.00  0.00    -0.237 OA
ATOM     71  O   UNL A   1      32.704  35.060  29.012  1.00  0.00    -0.237 OA
ATOM     72  O   UNL A   1      34.287  34.998  27.124  1.00  0.00    -0.744 OA
ENDBRANCH  68  69
ENDBRANCH  49  63
BRANCH  50  73
ATOM     73  C   UNL A   1      44.360  28.828  36.289  1.00  0.00    -0.014 A 
ATOM     74  C   UNL A   1      44.070  27.790  37.192  1.00  0.00     0.010 A 
ATOM     75  C   UNL A   1      45.693  29.258  36.149  1.00  0.00     0.010 A 
ATOM     76  C   UNL A   1      45.092  27.194  37.937  1.00  0.00     0.020 A 
ATOM     77  C   UNL A   1      46.720  28.648  36.874  1.00  0.00     0.020 A 
ATOM     78  C   UNL A   1      46.411  27.623  37.770  1.00  0.00     0.054 A 
BRANCH  78  79
ATOM     79  S   UNL A   1      47.732  26.786  38.692  1.00  0.00     0.124 S 
ATOM     80  O   UNL A   1      48.435  27.908  39.305  1.00  0.00    -0.237 OA
ATOM     81  O   UNL A   1      46.986  25.930  39.612  1.00  0.00    -0.237 OA
ATOM     82  O   UNL A   1      48.475  26.072  37.656  1.00  0.00    -0.744 OA
ENDBRANCH  78  79
ENDBRANCH  50  73
BRANCH  62  83
ATOM     83  C   UNL A   1      40.069  34.233  37.345  1.00  0.00    -0.014 A 
ATOM     84  C   UNL A   1      40.835  35.410  37.396  1.00  0.00     0.010 A 
ATOM     85  C   UNL A   1      39.103  34.000  38.342  1.00  0.00     0.010 A 
ATOM     86  C   UNL A   1      40.656  36.326  38.438  1.00  0.00     0.020 A 
ATOM     87  C   UNL A   1      38.905  34.923  39.373  1.00  0.00     0.020 A 
ATOM     88  C   UNL A   1      39.692  36.076  39.420  1.00  0.00     0.054 A 
BRANCH  88  89
ATOM     89  S   UNL A   1      39.442  37.302  40.735  1.00  0.00     0.124 S 
ATOM     90  O   UNL A   1      40.738  37.973  40.777  1.00  0.00    -0.237 OA
ATOM     91  O   UNL A   1      38.335  38.106  40.221  1.00  0.00    -0.237 OA
ATOM     92  O   UNL A   1      39.122  36.492  41.908  1.00  0.00    -0.744 OA
ENDBRANCH  88  89
ENDBRANCH  62  83
ENDBRANCH  36  37
ENDBRANCH  29  31
ENDBRANCH  28  29
ENDBRANCH  27  28
ENDBRANCH  26  27
ENDBRANCH  25  26
ENDBRANCH   1  25
TORSDOF 22
ENDMDL
