MODEL 1
REMARK VINA RESULT:     -10.0      0.000      0.000
REMARK SMILES Cc1c(Cl)ccc2c1C=C(C(=O)OCCOCCOCCOC(=O)c1ccc(-c3c4nc(c(-c5ccc(S(=O)(=O)[O-])cc5)c5ccc([nH]5)c(-c5ccc(S(=O)(=O)[O-])cc5)c5nc(c(-c6ccc(S(=O)(=O)[O-])cc6)c6ccc3[nH]6)C=C5)C=C4)cc1)[C@@H](C(F)(F)F)O2
REMARK SMILES IDX 18 1 17 2 16 3 15 4 14 5 13 6 11 7 12 8 10 9 1 10 2 11 3 12
REMARK SMILES IDX 8 13 4 14 5 15 7 16 9 17 6 18 90 19 85 20 86 21 87 22 88 23
REMARK SMILES IDX 89 24 19 25 20 26 21 27 22 28 23 29 24 30 25 31 26 32 84 33
REMARK SMILES IDX 27 34 83 35 28 36 29 37 30 38 77 39 31 40 82 41 76 42 78 43
REMARK SMILES IDX 32 44 81 45 75 46 74 47 33 49 63 50 44 51 62 52 45 53 48 54
REMARK SMILES IDX 61 55 79 56 46 57 47 58 60 60 80 61 49 62 34 63 35 64 43 65
REMARK SMILES IDX 36 66 42 67 37 68 38 69 39 70 40 71 41 72 64 73 65 74 73 75
REMARK SMILES IDX 66 76 72 77 67 78 68 79 69 80 70 81 71 82 50 83 51 84 59 85
REMARK SMILES IDX 52 86 58 87 53 88 54 89 55 90 56 91 57 92
REMARK H PARENT 78 48 48 59
REMARK Flexibility Score: inf
ROOT
ATOM      1  C   UNL A   1      35.876  23.296  25.126  1.00  0.00     0.188 C 
ENDROOT
BRANCH   1   2
ATOM      2  C   UNL A   1      34.874  22.212  24.670  1.00  0.00     0.188 C 
BRANCH   2   3
ATOM      3  O   UNL A   1      34.105  21.669  25.715  1.00  0.00    -0.376 OA
BRANCH   3   4
ATOM      4  C   UNL A   1      32.864  22.231  26.088  1.00  0.00     0.202 C 
BRANCH   4   5
ATOM      5  C   UNL A   1      32.194  23.435  25.402  1.00  0.00     0.261 C 
BRANCH   5   6
ATOM      6  O   UNL A   1      32.756  24.726  25.636  1.00  0.00    -0.460 OA
BRANCH   6   7
ATOM      7  C   UNL A   1      32.976  25.495  24.544  1.00  0.00     0.338 C 
ATOM      8  O   UNL A   1      33.317  25.116  23.438  1.00  0.00    -0.246 OA
BRANCH   7   9
ATOM      9  C   UNL A   1      32.631  26.893  24.878  1.00  0.00     0.087 C 
ATOM     10  C   UNL A   1      35.253  29.165  27.521  1.00  0.00     0.047 C 
ATOM     11  C   UNL A   1      33.931  29.670  26.994  1.00  0.00    -0.021 A 
ATOM     12  C   UNL A   1      33.453  30.929  27.418  1.00  0.00     0.044 A 
ATOM     13  C   UNL A   1      33.126  28.909  26.109  1.00  0.00     0.022 A 
ATOM     14  Cl  UNL A   1      34.289  31.878  28.600  1.00  0.00    -0.084 Cl
ATOM     15  C   UNL A   1      32.262  31.457  26.916  1.00  0.00     0.024 A 
ATOM     16  C   UNL A   1      31.955  29.477  25.579  1.00  0.00     0.128 A 
ATOM     17  C   UNL A   1      33.427  27.523  25.753  1.00  0.00     0.027 C 
ATOM     18  C   UNL A   1      31.530  30.743  25.977  1.00  0.00     0.048 A 
ATOM     19  O   UNL A   1      31.141  28.869  24.666  1.00  0.00    -0.475 OA
ATOM     20  C   UNL A   1      31.449  27.530  24.207  1.00  0.00     0.316 C 
BRANCH  20  21
ATOM     21  C   UNL A   1      30.170  26.689  24.335  1.00  0.00     0.430 C 
ATOM     22  F   UNL A   1      29.074  27.406  23.979  1.00  0.00    -0.167 F 
ATOM     23  F   UNL A   1      30.192  25.602  23.529  1.00  0.00    -0.167 F 
ATOM     24  F   UNL A   1      29.971  26.252  25.599  1.00  0.00    -0.167 F 
ENDBRANCH  20  21
ENDBRANCH   7   9
ENDBRANCH   6   7
ENDBRANCH   5   6
ENDBRANCH   4   5
ENDBRANCH   3   4
ENDBRANCH   2   3
ENDBRANCH   1   2
BRANCH   1  25
ATOM     25  O   UNL A   1      36.758  23.023  26.208  1.00  0.00    -0.376 OA
BRANCH  25  26
ATOM     26  C   UNL A   1      38.081  22.581  25.914  1.00  0.00     0.202 C 
BRANCH  26  27
ATOM     27  C   UNL A   1      39.272  23.361  26.485  1.00  0.00     0.261 C 
BRANCH  27  28
ATOM     28  O   UNL A   1      39.091  24.787  26.494  1.00  0.00    -0.460 OA
BRANCH  28  29
ATOM     29  C   UNL A   1      40.216  25.514  26.714  1.00  0.00     0.338 C 
ATOM     30  O   UNL A   1      41.244  25.502  26.060  1.00  0.00    -0.246 OA
BRANCH  29  31
ATOM     31  C   UNL A   1      39.966  26.491  27.789  1.00  0.00     0.060 A 
ATOM     32  C   UNL A   1      40.568  27.753  27.696  1.00  0.00     0.016 A 
ATOM     33  C   UNL A   1      39.214  26.141  28.910  1.00  0.00     0.016 A 
ATOM     34  C   UNL A   1      40.428  28.671  28.734  1.00  0.00     0.010 A 
ATOM     35  C   UNL A   1      39.109  27.048  29.969  1.00  0.00     0.010 A 
ATOM     36  C   UNL A   1      39.738  28.303  29.895  1.00  0.00    -0.014 A 
BRANCH  36  37
ATOM     37  C   UNL A   1      39.853  29.148  31.105  1.00  0.00     0.031 A 
ATOM     38  C   UNL A   1      40.998  28.889  32.048  1.00  0.00     0.074 A 
ATOM     39  C   UNL A   1      38.975  30.134  31.357  1.00  0.00     0.049 A 
ATOM     40  N   UNL A   1      41.279  29.472  33.183  1.00  0.00    -0.248 NA
ATOM     41  C   UNL A   1      41.955  27.840  31.653  1.00  0.00     0.031 C 
ATOM     42  C   UNL A   1      37.864  30.522  30.491  1.00  0.00     0.029 A 
ATOM     43  N   UNL A   1      38.885  30.990  32.426  1.00  0.00    -0.354 N 
ATOM     44  C   UNL A   1      42.444  28.867  33.636  1.00  0.00     0.074 A 
ATOM     45  C   UNL A   1      42.814  27.864  32.662  1.00  0.00     0.031 C 
ATOM     46  C   UNL A   1      37.192  31.532  31.072  1.00  0.00     0.029 A 
ATOM     47  C   UNL A   1      37.809  31.841  32.361  1.00  0.00     0.049 A 
ATOM     48  H   UNL A   1      39.531  30.993  33.169  1.00  0.00     0.167 HD
ATOM     49  C   UNL A   1      43.143  29.121  34.764  1.00  0.00     0.031 A 
ATOM     50  C   UNL A   1      37.361  32.750  33.251  1.00  0.00     0.031 A 
ATOM     51  C   UNL A   1      42.762  30.095  35.748  1.00  0.00     0.049 A 
ATOM     52  C   UNL A   1      38.100  32.948  34.549  1.00  0.00     0.074 A 
ATOM     53  C   UNL A   1      43.404  30.416  36.930  1.00  0.00     0.029 A 
ATOM     54  N   UNL A   1      41.633  30.895  35.671  1.00  0.00    -0.354 N 
ATOM     55  N   UNL A   1      39.199  32.364  34.965  1.00  0.00    -0.248 NA
ATOM     56  C   UNL A   1      37.540  33.922  35.497  1.00  0.00     0.031 C 
ATOM     57  C   UNL A   1      42.638  31.379  37.592  1.00  0.00     0.029 A 
ATOM     58  C   UNL A   1      41.548  31.693  36.797  1.00  0.00     0.049 A 
ATOM     59  H   UNL A   1      40.989  30.895  34.926  1.00  0.00     0.167 HD
ATOM     60  C   UNL A   1      39.471  32.915  36.213  1.00  0.00     0.074 A 
ATOM     61  C   UNL A   1      38.426  33.879  36.485  1.00  0.00     0.031 C 
ATOM     62  C   UNL A   1      40.499  32.647  37.055  1.00  0.00     0.031 A 
BRANCH  49  63
ATOM     63  C   UNL A   1      44.383  28.312  35.014  1.00  0.00    -0.014 A 
ATOM     64  C   UNL A   1      45.652  28.911  34.970  1.00  0.00     0.010 A 
ATOM     65  C   UNL A   1      44.269  26.956  35.367  1.00  0.00     0.010 A 
ATOM     66  C   UNL A   1      46.793  28.163  35.271  1.00  0.00     0.020 A 
ATOM     67  C   UNL A   1      45.405  26.209  35.685  1.00  0.00     0.020 A 
ATOM     68  C   UNL A   1      46.660  26.819  35.634  1.00  0.00     0.054 A 
BRANCH  68  69
ATOM     69  S   UNL A   1      48.157  25.888  36.059  1.00  0.00     0.124 S 
ATOM     70  O   UNL A   1      49.101  26.956  36.380  1.00  0.00    -0.237 OA
ATOM     71  O   UNL A   1      47.713  25.080  37.192  1.00  0.00    -0.237 OA
ATOM     72  O   UNL A   1      48.462  25.140  34.841  1.00  0.00    -0.744 OA
ENDBRANCH  68  69
ENDBRANCH  49  63
BRANCH  50  73
ATOM     73  C   UNL A   1      36.130  33.528  32.951  1.00  0.00    -0.014 A 
ATOM     74  C   UNL A   1      34.864  32.928  33.049  1.00  0.00     0.010 A 
ATOM     75  C   UNL A   1      36.221  34.886  32.591  1.00  0.00     0.010 A 
ATOM     76  C   UNL A   1      33.709  33.674  32.798  1.00  0.00     0.020 A 
ATOM     77  C   UNL A   1      35.067  35.639  32.358  1.00  0.00     0.020 A 
ATOM     78  C   UNL A   1      33.817  35.028  32.466  1.00  0.00     0.054 A 
BRANCH  78  79
ATOM     79  S   UNL A   1      32.297  35.984  32.206  1.00  0.00     0.124 S 
ATOM     80  O   UNL A   1      32.565  37.203  32.962  1.00  0.00    -0.237 OA
ATOM     81  O   UNL A   1      32.275  36.134  30.753  1.00  0.00    -0.237 OA
ATOM     82  O   UNL A   1      31.251  35.126  32.755  1.00  0.00    -0.744 OA
ENDBRANCH  78  79
ENDBRANCH  50  73
BRANCH  62  83
ATOM     83  C   UNL A   1      40.576  33.411  38.347  1.00  0.00    -0.014 A 
ATOM     84  C   UNL A   1      41.526  34.431  38.526  1.00  0.00     0.010 A 
ATOM     85  C   UNL A   1      39.602  33.192  39.339  1.00  0.00     0.010 A 
ATOM     86  C   UNL A   1      41.499  35.221  39.679  1.00  0.00     0.020 A 
ATOM     87  C   UNL A   1      39.561  33.993  40.483  1.00  0.00     0.020 A 
ATOM     88  C   UNL A   1      40.510  35.005  40.644  1.00  0.00     0.054 A 
BRANCH  88  89
ATOM     89  S   UNL A   1      40.460  36.094  42.094  1.00  0.00     0.124 S 
ATOM     90  O   UNL A   1      39.121  36.669  42.001  1.00  0.00    -0.237 OA
ATOM     91  O   UNL A   1      40.666  35.158  43.196  1.00  0.00    -0.237 OA
ATOM     92  O   UNL A   1      41.555  37.033  41.865  1.00  0.00    -0.744 OA
ENDBRANCH  88  89
ENDBRANCH  62  83
ENDBRANCH  36  37
ENDBRANCH  29  31
ENDBRANCH  28  29
ENDBRANCH  27  28
ENDBRANCH  26  27
ENDBRANCH  25  26
ENDBRANCH   1  25
TORSDOF 21
ENDMDL
MODEL 2
REMARK VINA RESULT:      -9.6      6.914      9.266
REMARK SMILES Cc1c(Cl)ccc2c1C=C(C(=O)OCCOCCOCCOC(=O)c1ccc(-c3c4nc(c(-c5ccc(S(=O)(=O)[O-])cc5)c5ccc([nH]5)c(-c5ccc(S(=O)(=O)[O-])cc5)c5nc(c(-c6ccc(S(=O)(=O)[O-])cc6)c6ccc3[nH]6)C=C5)C=C4)cc1)[C@@H](C(F)(F)F)O2
REMARK SMILES IDX 18 1 17 2 16 3 15 4 14 5 13 6 11 7 12 8 10 9 1 10 2 11 3 12
REMARK SMILES IDX 8 13 4 14 5 15 7 16 9 17 6 18 90 19 85 20 86 21 87 22 88 23
REMARK SMILES IDX 89 24 19 25 20 26 21 27 22 28 23 29 24 30 25 31 26 32 84 33
REMARK SMILES IDX 27 34 83 35 28 36 29 37 30 38 77 39 31 40 82 41 76 42 78 43
REMARK SMILES IDX 32 44 81 45 75 46 74 47 33 49 63 50 44 51 62 52 45 53 48 54
REMARK SMILES IDX 61 55 79 56 46 57 47 58 60 60 80 61 49 62 34 63 35 64 43 65
REMARK SMILES IDX 36 66 42 67 37 68 38 69 39 70 40 71 41 72 64 73 65 74 73 75
REMARK SMILES IDX 66 76 72 77 67 78 68 79 69 80 70 81 71 82 50 83 51 84 59 85
REMARK SMILES IDX 52 86 58 87 53 88 54 89 55 90 56 91 57 92
REMARK H PARENT 78 48 48 59
REMARK Flexibility Score: inf
ROOT
ATOM      1  C   UNL A   1      41.674  20.641  26.615  1.00  0.00     0.188 C 
ENDROOT
BRANCH   1   2
ATOM      2  C   UNL A   1      41.108  22.044  26.306  1.00  0.00     0.188 C 
BRANCH   2   3
ATOM      3  O   UNL A   1      39.723  22.059  26.060  1.00  0.00    -0.376 OA
BRANCH   3   4
ATOM      4  C   UNL A   1      38.922  23.168  26.412  1.00  0.00     0.202 C 
BRANCH   4   5
ATOM      5  C   UNL A   1      37.542  23.492  25.810  1.00  0.00     0.261 C 
BRANCH   5   6
ATOM      6  O   UNL A   1      36.547  22.468  25.849  1.00  0.00    -0.460 OA
BRANCH   6   7
ATOM      7  C   UNL A   1      35.301  22.852  26.211  1.00  0.00     0.338 C 
ATOM      8  O   UNL A   1      34.819  22.812  27.329  1.00  0.00    -0.246 OA
BRANCH   7   9
ATOM      9  C   UNL A   1      34.629  23.438  25.032  1.00  0.00     0.087 C 
ATOM     10  C   UNL A   1      33.857  27.728  24.927  1.00  0.00     0.047 C 
ATOM     11  C   UNL A   1      33.383  26.752  23.876  1.00  0.00    -0.021 A 
ATOM     12  C   UNL A   1      32.579  27.218  22.813  1.00  0.00     0.044 A 
ATOM     13  C   UNL A   1      33.686  25.368  23.934  1.00  0.00     0.022 A 
ATOM     14  Cl  UNL A   1      32.037  28.858  22.721  1.00  0.00    -0.084 Cl
ATOM     15  C   UNL A   1      32.163  26.360  21.793  1.00  0.00     0.024 A 
ATOM     16  C   UNL A   1      33.298  24.531  22.875  1.00  0.00     0.128 A 
ATOM     17  C   UNL A   1      34.347  24.746  25.081  1.00  0.00     0.027 C 
ATOM     18  C   UNL A   1      32.546  25.025  21.811  1.00  0.00     0.048 A 
ATOM     19  O   UNL A   1      33.596  23.201  22.786  1.00  0.00    -0.475 OA
ATOM     20  C   UNL A   1      34.334  22.557  23.853  1.00  0.00     0.316 C 
BRANCH  20  21
ATOM     21  C   UNL A   1      33.571  21.281  24.241  1.00  0.00     0.430 C 
ATOM     22  F   UNL A   1      34.418  20.321  24.692  1.00  0.00    -0.167 F 
ATOM     23  F   UNL A   1      32.682  21.502  25.238  1.00  0.00    -0.167 F 
ATOM     24  F   UNL A   1      32.888  20.757  23.198  1.00  0.00    -0.167 F 
ENDBRANCH  20  21
ENDBRANCH   7   9
ENDBRANCH   6   7
ENDBRANCH   5   6
ENDBRANCH   4   5
ENDBRANCH   3   4
ENDBRANCH   2   3
ENDBRANCH   1   2
BRANCH   1  25
ATOM     25  O   UNL A   1      41.211  19.520  25.871  1.00  0.00    -0.376 OA
BRANCH  25  26
ATOM     26  C   UNL A   1      42.045  18.367  25.786  1.00  0.00     0.202 C 
BRANCH  26  27
ATOM     27  C   UNL A   1      43.559  18.551  25.618  1.00  0.00     0.261 C 
BRANCH  27  28
ATOM     28  O   UNL A   1      43.955  18.998  24.310  1.00  0.00    -0.460 OA
BRANCH  28  29
ATOM     29  C   UNL A   1      45.133  19.671  24.260  1.00  0.00     0.338 C 
ATOM     30  O   UNL A   1      46.174  19.303  23.744  1.00  0.00    -0.246 OA
BRANCH  29  31
ATOM     31  C   UNL A   1      44.939  21.038  24.777  1.00  0.00     0.060 A 
ATOM     32  C   UNL A   1      44.597  22.051  23.871  1.00  0.00     0.016 A 
ATOM     33  C   UNL A   1      45.166  21.331  26.121  1.00  0.00     0.016 A 
ATOM     34  C   UNL A   1      44.492  23.370  24.306  1.00  0.00     0.010 A 
ATOM     35  C   UNL A   1      45.101  22.660  26.548  1.00  0.00     0.010 A 
ATOM     36  C   UNL A   1      44.791  23.686  25.637  1.00  0.00    -0.014 A 
BRANCH  36  37
ATOM     37  C   UNL A   1      44.982  25.102  26.020  1.00  0.00     0.031 A 
ATOM     38  C   UNL A   1      46.370  25.680  25.940  1.00  0.00     0.074 A 
ATOM     39  C   UNL A   1      43.949  25.866  26.414  1.00  0.00     0.049 A 
ATOM     40  N   UNL A   1      46.784  26.877  26.259  1.00  0.00    -0.248 NA
ATOM     41  C   UNL A   1      47.427  24.793  25.423  1.00  0.00     0.031 C 
ATOM     42  C   UNL A   1      42.553  25.440  26.474  1.00  0.00     0.029 A 
ATOM     43  N   UNL A   1      43.923  27.170  26.844  1.00  0.00    -0.354 N 
ATOM     44  C   UNL A   1      48.144  26.891  25.979  1.00  0.00     0.074 A 
ATOM     45  C   UNL A   1      48.491  25.580  25.476  1.00  0.00     0.031 C 
ATOM     46  C   UNL A   1      41.806  26.462  26.930  1.00  0.00     0.029 A 
ATOM     47  C   UNL A   1      42.675  27.602  27.220  1.00  0.00     0.049 A 
ATOM     48  H   UNL A   1      44.724  27.741  26.878  1.00  0.00     0.167 HD
ATOM     49  C   UNL A   1      49.026  27.902  26.132  1.00  0.00     0.031 A 
ATOM     50  C   UNL A   1      42.283  28.774  27.758  1.00  0.00     0.031 A 
ATOM     51  C   UNL A   1      48.691  29.194  26.660  1.00  0.00     0.049 A 
ATOM     52  C   UNL A   1      43.302  29.854  28.011  1.00  0.00     0.074 A 
ATOM     53  C   UNL A   1      49.523  30.281  26.861  1.00  0.00     0.029 A 
ATOM     54  N   UNL A   1      47.427  29.570  27.083  1.00  0.00    -0.354 N 
ATOM     55  N   UNL A   1      44.586  29.850  27.745  1.00  0.00    -0.248 NA
ATOM     56  C   UNL A   1      42.822  31.094  28.639  1.00  0.00     0.031 C 
ATOM     57  C   UNL A   1      48.771  31.300  27.448  1.00  0.00     0.029 A 
ATOM     58  C   UNL A   1      47.460  30.866  27.566  1.00  0.00     0.049 A 
ATOM     59  H   UNL A   1      46.624  29.000  27.045  1.00  0.00     0.167 HD
ATOM     60  C   UNL A   1      45.063  31.091  28.155  1.00  0.00     0.074 A 
ATOM     61  C   UNL A   1      43.931  31.823  28.683  1.00  0.00     0.031 C 
ATOM     62  C   UNL A   1      46.326  31.580  28.092  1.00  0.00     0.031 A 
BRANCH  49  63
ATOM     63  C   UNL A   1      50.455  27.646  25.747  1.00  0.00    -0.014 A 
ATOM     64  C   UNL A   1      50.910  27.924  24.447  1.00  0.00     0.010 A 
ATOM     65  C   UNL A   1      51.365  27.190  26.717  1.00  0.00     0.010 A 
ATOM     66  C   UNL A   1      52.257  27.745  24.121  1.00  0.00     0.020 A 
ATOM     67  C   UNL A   1      52.715  27.025  26.399  1.00  0.00     0.020 A 
ATOM     68  C   UNL A   1      53.151  27.303  25.102  1.00  0.00     0.054 A 
BRANCH  68  69
ATOM     69  S   UNL A   1      54.900  27.122  24.656  1.00  0.00     0.124 S 
ATOM     70  O   UNL A   1      55.028  25.674  24.504  1.00  0.00    -0.237 OA
ATOM     71  O   UNL A   1      54.991  27.895  23.421  1.00  0.00    -0.237 OA
ATOM     72  O   UNL A   1      55.612  27.688  25.800  1.00  0.00    -0.744 OA
ENDBRANCH  68  69
ENDBRANCH  49  63
BRANCH  50  73
ATOM     73  C   UNL A   1      40.854  28.977  28.116  1.00  0.00    -0.014 A 
ATOM     74  C   UNL A   1      40.427  28.856  29.449  1.00  0.00     0.010 A 
ATOM     75  C   UNL A   1      39.918  29.321  27.123  1.00  0.00     0.010 A 
ATOM     76  C   UNL A   1      39.089  29.082  29.784  1.00  0.00     0.020 A 
ATOM     77  C   UNL A   1      38.583  29.565  27.458  1.00  0.00     0.020 A 
ATOM     78  C   UNL A   1      38.177  29.447  28.788  1.00  0.00     0.054 A 
BRANCH  78  79
ATOM     79  S   UNL A   1      36.461  29.792  29.264  1.00  0.00     0.124 S 
ATOM     80  O   UNL A   1      35.706  29.028  28.275  1.00  0.00    -0.237 OA
ATOM     81  O   UNL A   1      36.414  29.279  30.631  1.00  0.00    -0.237 OA
ATOM     82  O   UNL A   1      36.355  31.244  29.145  1.00  0.00    -0.744 OA
ENDBRANCH  78  79
ENDBRANCH  50  73
BRANCH  62  83
ATOM     83  C   UNL A   1      46.570  32.980  28.583  1.00  0.00    -0.014 A 
ATOM     84  C   UNL A   1      47.005  33.216  29.899  1.00  0.00     0.010 A 
ATOM     85  C   UNL A   1      46.489  34.054  27.679  1.00  0.00     0.010 A 
ATOM     86  C   UNL A   1      47.356  34.507  30.301  1.00  0.00     0.020 A 
ATOM     87  C   UNL A   1      46.858  35.343  28.072  1.00  0.00     0.020 A 
ATOM     88  C   UNL A   1      47.291  35.561  29.382  1.00  0.00     0.054 A 
BRANCH  88  89
ATOM     89  S   UNL A   1      47.821  37.211  29.916  1.00  0.00     0.124 S 
ATOM     90  O   UNL A   1      49.225  36.990  30.253  1.00  0.00    -0.237 OA
ATOM     91  O   UNL A   1      47.581  38.019  28.723  1.00  0.00    -0.237 OA
ATOM     92  O   UNL A   1      46.951  37.509  31.051  1.00  0.00    -0.744 OA
ENDBRANCH  88  89
ENDBRANCH  62  83
ENDBRANCH  36  37
ENDBRANCH  29  31
ENDBRANCH  28  29
ENDBRANCH  27  28
ENDBRANCH  26  27
ENDBRANCH  25  26
ENDBRANCH   1  25
TORSDOF 21
ENDMDL
MODEL 3
REMARK VINA RESULT:      -9.5      2.181      8.365
REMARK SMILES Cc1c(Cl)ccc2c1C=C(C(=O)OCCOCCOCCOC(=O)c1ccc(-c3c4nc(c(-c5ccc(S(=O)(=O)[O-])cc5)c5ccc([nH]5)c(-c5ccc(S(=O)(=O)[O-])cc5)c5nc(c(-c6ccc(S(=O)(=O)[O-])cc6)c6ccc3[nH]6)C=C5)C=C4)cc1)[C@@H](C(F)(F)F)O2
REMARK SMILES IDX 18 1 17 2 16 3 15 4 14 5 13 6 11 7 12 8 10 9 1 10 2 11 3 12
REMARK SMILES IDX 8 13 4 14 5 15 7 16 9 17 6 18 90 19 85 20 86 21 87 22 88 23
REMARK SMILES IDX 89 24 19 25 20 26 21 27 22 28 23 29 24 30 25 31 26 32 84 33
REMARK SMILES IDX 27 34 83 35 28 36 29 37 30 38 77 39 31 40 82 41 76 42 78 43
REMARK SMILES IDX 32 44 81 45 75 46 74 47 33 49 63 50 44 51 62 52 45 53 48 54
REMARK SMILES IDX 61 55 79 56 46 57 47 58 60 60 80 61 49 62 34 63 35 64 43 65
REMARK SMILES IDX 36 66 42 67 37 68 38 69 39 70 40 71 41 72 64 73 65 74 73 75
REMARK SMILES IDX 66 76 72 77 67 78 68 79 69 80 70 81 71 82 50 83 51 84 59 85
REMARK SMILES IDX 52 86 58 87 53 88 54 89 55 90 56 91 57 92
REMARK H PARENT 78 48 48 59
REMARK Flexibility Score: inf
ROOT
ATOM      1  C   UNL A   1      40.296  22.217  27.305  1.00  0.00     0.188 C 
ENDROOT
BRANCH   1   2
ATOM      2  C   UNL A   1      39.759  21.246  26.231  1.00  0.00     0.188 C 
BRANCH   2   3
ATOM      3  O   UNL A   1      38.767  21.802  25.403  1.00  0.00    -0.376 OA
BRANCH   3   4
ATOM      4  C   UNL A   1      37.508  22.187  25.915  1.00  0.00     0.202 C 
BRANCH   4   5
ATOM      5  C   UNL A   1      36.748  23.469  25.528  1.00  0.00     0.261 C 
BRANCH   5   6
ATOM      6  O   UNL A   1      35.416  23.325  25.036  1.00  0.00    -0.460 OA
BRANCH   6   7
ATOM      7  C   UNL A   1      35.230  23.569  23.718  1.00  0.00     0.338 C 
ATOM      8  O   UNL A   1      35.896  23.139  22.793  1.00  0.00    -0.246 OA
BRANCH   7   9
ATOM      9  C   UNL A   1      34.001  24.375  23.559  1.00  0.00     0.087 C 
ATOM     10  C   UNL A   1      33.922  28.467  25.062  1.00  0.00     0.047 C 
ATOM     11  C   UNL A   1      32.728  27.753  24.474  1.00  0.00    -0.021 A 
ATOM     12  C   UNL A   1      31.474  28.402  24.457  1.00  0.00     0.044 A 
ATOM     13  C   UNL A   1      32.808  26.432  23.967  1.00  0.00     0.022 A 
ATOM     14  Cl  UNL A   1      31.235  29.959  25.174  1.00  0.00    -0.084 Cl
ATOM     15  C   UNL A   1      30.356  27.800  23.877  1.00  0.00     0.024 A 
ATOM     16  C   UNL A   1      31.685  25.861  23.345  1.00  0.00     0.128 A 
ATOM     17  C   UNL A   1      34.002  25.598  24.104  1.00  0.00     0.027 C 
ATOM     18  C   UNL A   1      30.470  26.543  23.298  1.00  0.00     0.048 A 
ATOM     19  O   UNL A   1      31.663  24.628  22.757  1.00  0.00    -0.475 OA
ATOM     20  C   UNL A   1      32.852  23.801  22.781  1.00  0.00     0.316 C 
BRANCH  20  21
ATOM     21  C   UNL A   1      32.437  22.407  23.278  1.00  0.00     0.430 C 
ATOM     22  F   UNL A   1      33.507  21.574  23.350  1.00  0.00    -0.167 F 
ATOM     23  F   UNL A   1      31.902  22.447  24.520  1.00  0.00    -0.167 F 
ATOM     24  F   UNL A   1      31.529  21.825  22.463  1.00  0.00    -0.167 F 
ENDBRANCH  20  21
ENDBRANCH   7   9
ENDBRANCH   6   7
ENDBRANCH   5   6
ENDBRANCH   4   5
ENDBRANCH   3   4
ENDBRANCH   2   3
ENDBRANCH   1   2
BRANCH   1  25
ATOM     25  O   UNL A   1      41.692  22.258  27.577  1.00  0.00    -0.376 OA
BRANCH  25  26
ATOM     26  C   UNL A   1      42.601  21.940  26.527  1.00  0.00     0.202 C 
BRANCH  26  27
ATOM     27  C   UNL A   1      43.108  23.063  25.613  1.00  0.00     0.261 C 
BRANCH  27  28
ATOM     28  O   UNL A   1      42.468  24.332  25.831  1.00  0.00    -0.460 OA
BRANCH  28  29
ATOM     29  C   UNL A   1      43.307  25.373  26.062  1.00  0.00     0.338 C 
ATOM     30  O   UNL A   1      44.310  25.668  25.436  1.00  0.00    -0.246 OA
BRANCH  29  31
ATOM     31  C   UNL A   1      42.733  26.244  27.104  1.00  0.00     0.060 A 
ATOM     32  C   UNL A   1      43.280  27.522  27.280  1.00  0.00     0.016 A 
ATOM     33  C   UNL A   1      41.723  25.779  27.945  1.00  0.00     0.016 A 
ATOM     34  C   UNL A   1      42.825  28.340  28.311  1.00  0.00     0.010 A 
ATOM     35  C   UNL A   1      41.296  26.584  29.005  1.00  0.00     0.010 A 
ATOM     36  C   UNL A   1      41.864  27.854  29.207  1.00  0.00    -0.014 A 
BRANCH  36  37
ATOM     37  C   UNL A   1      41.611  28.589  30.467  1.00  0.00     0.031 A 
ATOM     38  C   UNL A   1      40.463  29.562  30.505  1.00  0.00     0.074 A 
ATOM     39  C   UNL A   1      42.368  28.387  31.559  1.00  0.00     0.049 A 
ATOM     40  N   UNL A   1      40.077  30.343  31.478  1.00  0.00    -0.248 NA
ATOM     41  C   UNL A   1      39.640  29.662  29.286  1.00  0.00     0.031 C 
ATOM     42  C   UNL A   1      43.465  27.429  31.665  1.00  0.00     0.029 A 
ATOM     43  N   UNL A   1      42.323  28.989  32.793  1.00  0.00    -0.354 N 
ATOM     44  C   UNL A   1      38.966  31.021  30.995  1.00  0.00     0.074 A 
ATOM     45  C   UNL A   1      38.744  30.572  29.639  1.00  0.00     0.031 C 
ATOM     46  C   UNL A   1      44.002  27.517  32.896  1.00  0.00     0.029 A 
ATOM     47  C   UNL A   1      43.304  28.557  33.651  1.00  0.00     0.049 A 
ATOM     48  H   UNL A   1      41.652  29.665  33.037  1.00  0.00     0.167 HD
ATOM     49  C   UNL A   1      38.199  31.940  31.624  1.00  0.00     0.031 A 
ATOM     50  C   UNL A   1      43.616  28.969  34.897  1.00  0.00     0.031 A 
ATOM     51  C   UNL A   1      38.434  32.411  32.960  1.00  0.00     0.049 A 
ATOM     52  C   UNL A   1      42.809  30.065  35.542  1.00  0.00     0.074 A 
ATOM     53  C   UNL A   1      37.715  33.349  33.677  1.00  0.00     0.029 A 
ATOM     54  N   UNL A   1      39.473  31.989  33.773  1.00  0.00    -0.354 N 
ATOM     55  N   UNL A   1      41.763  30.701  35.069  1.00  0.00    -0.248 NA
ATOM     56  C   UNL A   1      43.224  30.502  36.883  1.00  0.00     0.031 C 
ATOM     57  C   UNL A   1      38.346  33.529  34.910  1.00  0.00     0.029 A 
ATOM     58  C   UNL A   1      39.428  32.666  34.979  1.00  0.00     0.049 A 
ATOM     59  H   UNL A   1      40.143  31.309  33.530  1.00  0.00     0.167 HD
ATOM     60  C   UNL A   1      41.384  31.598  36.063  1.00  0.00     0.074 A 
ATOM     61  C   UNL A   1      42.309  31.422  37.164  1.00  0.00     0.031 C 
ATOM     62  C   UNL A   1      40.357  32.483  36.063  1.00  0.00     0.031 A 
BRANCH  49  63
ATOM     63  C   UNL A   1      37.044  32.523  30.863  1.00  0.00    -0.014 A 
ATOM     64  C   UNL A   1      37.215  33.658  30.054  1.00  0.00     0.010 A 
ATOM     65  C   UNL A   1      35.792  31.883  30.902  1.00  0.00     0.010 A 
ATOM     66  C   UNL A   1      36.148  34.151  29.299  1.00  0.00     0.020 A 
ATOM     67  C   UNL A   1      34.727  32.362  30.135  1.00  0.00     0.020 A 
ATOM     68  C   UNL A   1      34.914  33.495  29.339  1.00  0.00     0.054 A 
BRANCH  68  69
ATOM     69  S   UNL A   1      33.562  34.135  28.313  1.00  0.00     0.124 S 
ATOM     70  O   UNL A   1      32.692  34.758  29.308  1.00  0.00    -0.237 OA
ATOM     71  O   UNL A   1      34.256  35.057  27.419  1.00  0.00    -0.237 OA
ATOM     72  O   UNL A   1      33.013  32.941  27.674  1.00  0.00    -0.744 OA
ENDBRANCH  68  69
ENDBRANCH  49  63
BRANCH  50  73
ATOM     73  C   UNL A   1      44.769  28.354  35.607  1.00  0.00    -0.014 A 
ATOM     74  C   UNL A   1      46.061  28.885  35.466  1.00  0.00     0.010 A 
ATOM     75  C   UNL A   1      44.569  27.248  36.454  1.00  0.00     0.010 A 
ATOM     76  C   UNL A   1      47.135  28.323  36.163  1.00  0.00     0.020 A 
ATOM     77  C   UNL A   1      45.636  26.695  37.167  1.00  0.00     0.020 A 
ATOM     78  C   UNL A   1      46.914  27.239  37.019  1.00  0.00     0.054 A 
BRANCH  78  79
ATOM     79  S   UNL A   1      48.315  26.571  37.956  1.00  0.00     0.124 S 
ATOM     80  O   UNL A   1      47.684  26.162  39.207  1.00  0.00    -0.237 OA
ATOM     81  O   UNL A   1      48.770  25.483  37.093  1.00  0.00    -0.237 OA
ATOM     82  O   UNL A   1      49.233  27.702  38.060  1.00  0.00    -0.744 OA
ENDBRANCH  78  79
ENDBRANCH  50  73
BRANCH  62  83
ATOM     83  C   UNL A   1      40.148  33.326  37.290  1.00  0.00    -0.014 A 
ATOM     84  C   UNL A   1      40.705  34.613  37.384  1.00  0.00     0.010 A 
ATOM     85  C   UNL A   1      39.275  32.876  38.298  1.00  0.00     0.010 A 
ATOM     86  C   UNL A   1      40.393  35.436  38.469  1.00  0.00     0.020 A 
ATOM     87  C   UNL A   1      38.946  33.704  39.374  1.00  0.00     0.020 A 
ATOM     88  C   UNL A   1      39.506  34.982  39.451  1.00  0.00     0.054 A 
BRANCH  88  89
ATOM     89  S   UNL A   1      39.066  36.101  40.808  1.00  0.00     0.124 S 
ATOM     90  O   UNL A   1      38.700  37.321  40.095  1.00  0.00    -0.237 OA
ATOM     91  O   UNL A   1      37.962  35.395  41.453  1.00  0.00    -0.237 OA
ATOM     92  O   UNL A   1      40.291  36.190  41.600  1.00  0.00    -0.744 OA
ENDBRANCH  88  89
ENDBRANCH  62  83
ENDBRANCH  36  37
ENDBRANCH  29  31
ENDBRANCH  28  29
ENDBRANCH  27  28
ENDBRANCH  26  27
ENDBRANCH  25  26
ENDBRANCH   1  25
TORSDOF 21
ENDMDL
