MODEL 1
REMARK VINA RESULT:     -10.6      0.000      0.000
REMARK SMILES C[C@@H](Oc1ccc(-c2ccccc2)cc1)C(=O)N1CCC[C@H](C(=O)OCCOCCOCCOC(=O)c2ccc(-c3c4nc(c(-c5ccc(S(=O)(=O)[O-])cc5)c5ccc([nH]5)c(-c5ccc(S(=O)(=O)[O-])cc5)c5nc(c(-c6ccc(S(=O)(=O)[O-])cc6)c6ccc3[nH]6)C=C5)C=C4)cc2)C1
REMARK SMILES IDX 29 1 28 2 27 3 26 4 25 5 23 6 24 7 22 8 18 9 19 10 97 11
REMARK SMILES IDX 20 12 21 13 16 14 17 15 2 16 1 17 3 18 4 19 5 20 15 21 6 22
REMARK SMILES IDX 14 23 7 24 8 25 9 26 13 27 10 28 12 29 11 30 30 31 31 32
REMARK SMILES IDX 32 33 33 34 34 35 35 36 36 37 37 38 38 39 96 40 39 41 95 42
REMARK SMILES IDX 40 43 41 44 42 45 89 46 43 47 94 48 88 49 90 50 44 51 93 52
REMARK SMILES IDX 87 53 86 54 45 56 75 57 56 58 74 59 57 60 60 61 73 62 91 63
REMARK SMILES IDX 58 64 59 65 72 67 92 68 61 69 46 70 47 71 55 72 48 73 54 74
REMARK SMILES IDX 49 75 50 76 51 77 52 78 53 79 76 80 77 81 85 82 78 83 84 84
REMARK SMILES IDX 79 85 80 86 81 87 82 88 83 89 62 90 63 91 71 92 64 93 70 94
REMARK SMILES IDX 65 95 66 96 67 97 68 98 69 99
REMARK H PARENT 90 55 60 66
REMARK Flexibility Score: inf
ROOT
ATOM      1  C   UNL A   1      33.953  31.177  27.604  1.00  0.00     0.188 C 
ENDROOT
BRANCH   1   2
ATOM      2  O   UNL A   1      34.565  29.989  27.119  1.00  0.00    -0.376 OA
BRANCH   2   3
ATOM      3  C   UNL A   1      33.847  28.759  27.184  1.00  0.00     0.202 C 
BRANCH   3   4
ATOM      4  C   UNL A   1      33.588  27.995  25.878  1.00  0.00     0.261 C 
BRANCH   4   5
ATOM      5  O   UNL A   1      32.211  27.974  25.430  1.00  0.00    -0.463 OA
BRANCH   5   6
ATOM      6  C   UNL A   1      31.511  26.828  25.632  1.00  0.00     0.310 C 
ATOM      7  O   UNL A   1      31.799  25.993  26.484  1.00  0.00    -0.252 OA
BRANCH   6   8
ATOM      8  C   UNL A   1      30.365  26.583  24.647  1.00  0.00     0.119 C 
ATOM      9  N   UNL A   1      31.765  25.832  22.795  1.00  0.00    -0.339 N 
ATOM     10  C   UNL A   1      31.313  26.870  21.877  1.00  0.00     0.119 C 
ATOM     11  C   UNL A   1      30.766  25.397  23.775  1.00  0.00     0.134 C 
ATOM     12  C   UNL A   1      30.808  28.097  22.624  1.00  0.00     0.022 C 
ATOM     13  C   UNL A   1      29.841  27.709  23.743  1.00  0.00     0.019 C 
BRANCH   9  14
ATOM     14  C   UNL A   1      33.096  25.424  22.771  1.00  0.00     0.263 C 
ATOM     15  O   UNL A   1      33.927  25.979  22.046  1.00  0.00    -0.271 OA
BRANCH  14  16
ATOM     16  C   UNL A   1      33.519  24.218  23.628  1.00  0.00     0.259 C 
ATOM     17  C   UNL A   1      34.462  24.595  24.766  1.00  0.00     0.064 C 
BRANCH  16  18
ATOM     18  O   UNL A   1      32.296  23.624  24.079  1.00  0.00    -0.481 OA
BRANCH  18  19
ATOM     19  C   UNL A   1      32.384  22.292  24.320  1.00  0.00     0.120 A 
ATOM     20  C   UNL A   1      32.741  21.855  25.591  1.00  0.00     0.047 A 
ATOM     21  C   UNL A   1      32.298  21.408  23.254  1.00  0.00     0.047 A 
ATOM     22  C   UNL A   1      33.007  20.501  25.798  1.00  0.00     0.012 A 
ATOM     23  C   UNL A   1      32.552  20.059  23.466  1.00  0.00     0.012 A 
ATOM     24  C   UNL A   1      32.931  19.583  24.735  1.00  0.00    -0.018 A 
BRANCH  24  25
ATOM     25  C   UNL A   1      33.283  18.169  24.912  1.00  0.00    -0.018 A 
ATOM     26  C   UNL A   1      32.410  17.270  25.542  1.00  0.00     0.009 A 
ATOM     27  C   UNL A   1      34.507  17.678  24.426  1.00  0.00     0.009 A 
ATOM     28  C   UNL A   1      32.745  15.919  25.663  1.00  0.00     0.001 A 
ATOM     29  C   UNL A   1      34.842  16.329  24.546  1.00  0.00     0.001 A 
ATOM     30  C   UNL A   1      33.958  15.449  25.162  1.00  0.00     0.000 A 
ENDBRANCH  24  25
ENDBRANCH  18  19
ENDBRANCH  16  18
ENDBRANCH  14  16
ENDBRANCH   9  14
ENDBRANCH   6   8
ENDBRANCH   5   6
ENDBRANCH   4   5
ENDBRANCH   3   4
ENDBRANCH   2   3
ENDBRANCH   1   2
BRANCH   1  31
ATOM     31  C   UNL A   1      34.837  32.192  28.331  1.00  0.00     0.188 C 
BRANCH  31  32
ATOM     32  O   UNL A   1      35.603  31.646  29.380  1.00  0.00    -0.376 OA
BRANCH  32  33
ATOM     33  C   UNL A   1      35.405  32.138  30.691  1.00  0.00     0.202 C 
BRANCH  33  34
ATOM     34  C   UNL A   1      35.917  31.270  31.849  1.00  0.00     0.261 C 
BRANCH  34  35
ATOM     35  O   UNL A   1      36.298  29.927  31.510  1.00  0.00    -0.460 OA
BRANCH  35  36
ATOM     36  C   UNL A   1      37.212  29.307  32.296  1.00  0.00     0.338 C 
ATOM     37  O   UNL A   1      37.008  28.759  33.364  1.00  0.00    -0.246 OA
BRANCH  36  38
ATOM     38  C   UNL A   1      38.444  29.173  31.478  1.00  0.00     0.060 A 
ATOM     39  C   UNL A   1      38.372  29.382  30.092  1.00  0.00     0.016 A 
ATOM     40  C   UNL A   1      39.678  28.952  32.093  1.00  0.00     0.016 A 
ATOM     41  C   UNL A   1      39.540  29.393  29.324  1.00  0.00     0.010 A 
ATOM     42  C   UNL A   1      40.840  28.934  31.319  1.00  0.00     0.010 A 
ATOM     43  C   UNL A   1      40.779  29.149  29.930  1.00  0.00    -0.014 A 
BRANCH  43  44
ATOM     44  C   UNL A   1      42.010  28.974  29.123  1.00  0.00     0.031 A 
ATOM     45  C   UNL A   1      42.301  27.613  28.554  1.00  0.00     0.074 A 
ATOM     46  C   UNL A   1      42.883  29.982  28.941  1.00  0.00     0.049 A 
ATOM     47  N   UNL A   1      43.378  27.179  27.955  1.00  0.00    -0.248 NA
ATOM     48  C   UNL A   1      41.233  26.609  28.684  1.00  0.00     0.031 C 
ATOM     49  C   UNL A   1      42.695  31.360  29.391  1.00  0.00     0.029 A 
ATOM     50  N   UNL A   1      44.122  29.987  28.347  1.00  0.00    -0.354 N 
ATOM     51  C   UNL A   1      43.126  25.849  27.649  1.00  0.00     0.074 A 
ATOM     52  C   UNL A   1      41.800  25.543  28.141  1.00  0.00     0.031 C 
ATOM     53  C   UNL A   1      43.793  32.073  29.077  1.00  0.00     0.029 A 
ATOM     54  C   UNL A   1      44.777  31.192  28.450  1.00  0.00     0.049 A 
ATOM     55  H   UNL A   1      44.505  29.204  27.889  1.00  0.00     0.167 HD
ATOM     56  C   UNL A   1      43.929  24.959  27.021  1.00  0.00     0.031 A 
ATOM     57  C   UNL A   1      46.040  31.533  28.119  1.00  0.00     0.031 A 
ATOM     58  C   UNL A   1      45.258  25.255  26.559  1.00  0.00     0.049 A 
ATOM     59  C   UNL A   1      46.959  30.493  27.527  1.00  0.00     0.074 A 
ATOM     60  C   UNL A   1      46.143  24.422  25.897  1.00  0.00     0.029 A 
ATOM     61  N   UNL A   1      45.901  26.472  26.726  1.00  0.00    -0.354 N 
ATOM     62  N   UNL A   1      46.701  29.243  27.217  1.00  0.00    -0.248 NA
ATOM     63  C   UNL A   1      48.343  30.904  27.251  1.00  0.00     0.031 C 
ATOM     64  C   UNL A   1      47.346  25.114  25.723  1.00  0.00     0.029 A 
ATOM     65  C   UNL A   1      47.188  26.398  26.219  1.00  0.00     0.049 A 
ATOM     66  H   UNL A   1      45.503  27.269  27.143  1.00  0.00     0.167 HD
ATOM     67  C   UNL A   1      47.885  28.727  26.698  1.00  0.00     0.074 A 
ATOM     68  C   UNL A   1      48.854  29.803  26.716  1.00  0.00     0.031 C 
ATOM     69  C   UNL A   1      48.147  27.474  26.250  1.00  0.00     0.031 A 
BRANCH  56  70
ATOM     70  C   UNL A   1      43.405  23.560  26.842  1.00  0.00    -0.014 A 
ATOM     71  C   UNL A   1      42.851  23.141  25.620  1.00  0.00     0.010 A 
ATOM     72  C   UNL A   1      43.500  22.643  27.903  1.00  0.00     0.010 A 
ATOM     73  C   UNL A   1      42.369  21.838  25.474  1.00  0.00     0.020 A 
ATOM     74  C   UNL A   1      43.044  21.331  27.753  1.00  0.00     0.020 A 
ATOM     75  C   UNL A   1      42.467  20.941  26.543  1.00  0.00     0.054 A 
BRANCH  75  76
ATOM     76  S   UNL A   1      41.852  19.250  26.318  1.00  0.00     0.124 S 
ATOM     77  O   UNL A   1      42.930  18.638  25.544  1.00  0.00    -0.237 OA
ATOM     78  O   UNL A   1      41.719  18.774  27.693  1.00  0.00    -0.237 OA
ATOM     79  O   UNL A   1      40.594  19.430  25.599  1.00  0.00    -0.744 OA
ENDBRANCH  75  76
ENDBRANCH  56  70
BRANCH  57  80
ATOM     80  C   UNL A   1      46.538  32.912  28.387  1.00  0.00    -0.014 A 
ATOM     81  C   UNL A   1      47.019  33.265  29.660  1.00  0.00     0.010 A 
ATOM     82  C   UNL A   1      46.518  33.886  27.371  1.00  0.00     0.010 A 
ATOM     83  C   UNL A   1      47.460  34.567  29.915  1.00  0.00     0.020 A 
ATOM     84  C   UNL A   1      46.986  35.181  27.614  1.00  0.00     0.020 A 
ATOM     85  C   UNL A   1      47.445  35.516  28.888  1.00  0.00     0.054 A 
BRANCH  85  86
ATOM     86  S   UNL A   1      48.076  37.184  29.228  1.00  0.00     0.124 S 
ATOM     87  O   UNL A   1      47.564  37.434  30.572  1.00  0.00    -0.237 OA
ATOM     88  O   UNL A   1      49.521  37.001  29.126  1.00  0.00    -0.237 OA
ATOM     89  O   UNL A   1      47.482  37.997  28.170  1.00  0.00    -0.744 OA
ENDBRANCH  85  86
ENDBRANCH  57  80
BRANCH  69  90
ATOM     90  C   UNL A   1      49.532  27.188  25.731  1.00  0.00    -0.014 A 
ATOM     91  C   UNL A   1      50.522  26.645  26.569  1.00  0.00     0.010 A 
ATOM     92  C   UNL A   1      49.822  27.384  24.368  1.00  0.00     0.010 A 
ATOM     93  C   UNL A   1      51.781  26.318  26.057  1.00  0.00     0.020 A 
ATOM     94  C   UNL A   1      51.070  27.033  23.846  1.00  0.00     0.020 A 
ATOM     95  C   UNL A   1      52.045  26.509  24.697  1.00  0.00     0.054 A 
BRANCH  95  96
ATOM     96  S   UNL A   1      53.664  26.011  24.046  1.00  0.00     0.124 S 
ATOM     97  O   UNL A   1      53.813  24.666  24.595  1.00  0.00    -0.237 OA
ATOM     98  O   UNL A   1      53.462  26.081  22.600  1.00  0.00    -0.237 OA
ATOM     99  O   UNL A   1      54.580  27.011  24.589  1.00  0.00    -0.744 OA
ENDBRANCH  95  96
ENDBRANCH  69  90
ENDBRANCH  43  44
ENDBRANCH  36  38
ENDBRANCH  35  36
ENDBRANCH  34  35
ENDBRANCH  33  34
ENDBRANCH  32  33
ENDBRANCH  31  32
ENDBRANCH   1  31
TORSDOF 25
ENDMDL
MODEL 2
REMARK VINA RESULT:      -9.9      2.549      9.929
REMARK SMILES C[C@@H](Oc1ccc(-c2ccccc2)cc1)C(=O)N1CCC[C@H](C(=O)OCCOCCOCCOC(=O)c2ccc(-c3c4nc(c(-c5ccc(S(=O)(=O)[O-])cc5)c5ccc([nH]5)c(-c5ccc(S(=O)(=O)[O-])cc5)c5nc(c(-c6ccc(S(=O)(=O)[O-])cc6)c6ccc3[nH]6)C=C5)C=C4)cc2)C1
REMARK SMILES IDX 29 1 28 2 27 3 26 4 25 5 23 6 24 7 22 8 18 9 19 10 97 11
REMARK SMILES IDX 20 12 21 13 16 14 17 15 2 16 1 17 3 18 4 19 5 20 15 21 6 22
REMARK SMILES IDX 14 23 7 24 8 25 9 26 13 27 10 28 12 29 11 30 30 31 31 32
REMARK SMILES IDX 32 33 33 34 34 35 35 36 36 37 37 38 38 39 96 40 39 41 95 42
REMARK SMILES IDX 40 43 41 44 42 45 89 46 43 47 94 48 88 49 90 50 44 51 93 52
REMARK SMILES IDX 87 53 86 54 45 56 75 57 56 58 74 59 57 60 60 61 73 62 91 63
REMARK SMILES IDX 58 64 59 65 72 67 92 68 61 69 46 70 47 71 55 72 48 73 54 74
REMARK SMILES IDX 49 75 50 76 51 77 52 78 53 79 76 80 77 81 85 82 78 83 84 84
REMARK SMILES IDX 79 85 80 86 81 87 82 88 83 89 62 90 63 91 71 92 64 93 70 94
REMARK SMILES IDX 65 95 66 96 67 97 68 98 69 99
REMARK H PARENT 90 55 60 66
REMARK Flexibility Score: inf
ROOT
ATOM      1  C   UNL A   1      35.571  22.246  25.200  1.00  0.00     0.188 C 
ENDROOT
BRANCH   1   2
ATOM      2  O   UNL A   1      34.540  22.619  24.294  1.00  0.00    -0.376 OA
BRANCH   2   3
ATOM      3  C   UNL A   1      33.777  23.795  24.552  1.00  0.00     0.202 C 
BRANCH   3   4
ATOM      4  C   UNL A   1      32.669  24.178  23.561  1.00  0.00     0.261 C 
BRANCH   4   5
ATOM      5  O   UNL A   1      32.307  25.581  23.541  1.00  0.00    -0.463 OA
BRANCH   5   6
ATOM      6  C   UNL A   1      32.813  26.336  22.532  1.00  0.00     0.310 C 
ATOM      7  O   UNL A   1      33.903  26.132  22.006  1.00  0.00    -0.252 OA
BRANCH   6   8
ATOM      8  C   UNL A   1      31.964  27.548  22.138  1.00  0.00     0.119 C 
ATOM      9  N   UNL A   1      32.388  28.837  24.166  1.00  0.00    -0.339 N 
ATOM     10  C   UNL A   1      30.982  28.937  24.538  1.00  0.00     0.119 C 
ATOM     11  C   UNL A   1      32.643  28.784  22.724  1.00  0.00     0.134 C 
ATOM     12  C   UNL A   1      30.165  27.795  23.950  1.00  0.00     0.022 C 
ATOM     13  C   UNL A   1      30.464  27.605  22.463  1.00  0.00     0.019 C 
BRANCH   9  14
ATOM     14  C   UNL A   1      33.353  28.678  25.157  1.00  0.00     0.263 C 
ATOM     15  O   UNL A   1      34.406  28.069  24.938  1.00  0.00    -0.271 OA
BRANCH  14  16
ATOM     16  C   UNL A   1      33.070  29.225  26.567  1.00  0.00     0.259 C 
ATOM     17  C   UNL A   1      32.400  28.203  27.480  1.00  0.00     0.064 C 
BRANCH  16  18
ATOM     18  O   UNL A   1      34.336  29.680  27.059  1.00  0.00    -0.481 OA
BRANCH  18  19
ATOM     19  C   UNL A   1      34.306  30.930  27.587  1.00  0.00     0.120 A 
ATOM     20  C   UNL A   1      35.225  31.271  28.574  1.00  0.00     0.047 A 
ATOM     21  C   UNL A   1      33.251  31.772  27.266  1.00  0.00     0.047 A 
ATOM     22  C   UNL A   1      35.087  32.487  29.244  1.00  0.00     0.012 A 
ATOM     23  C   UNL A   1      33.123  32.986  27.928  1.00  0.00     0.012 A 
ATOM     24  C   UNL A   1      34.024  33.357  28.942  1.00  0.00    -0.018 A 
BRANCH  24  25
ATOM     25  C   UNL A   1      33.814  34.604  29.689  1.00  0.00    -0.018 A 
ATOM     26  C   UNL A   1      33.380  35.775  29.051  1.00  0.00     0.009 A 
ATOM     27  C   UNL A   1      34.023  34.641  31.078  1.00  0.00     0.009 A 
ATOM     28  C   UNL A   1      33.145  36.941  29.785  1.00  0.00     0.001 A 
ATOM     29  C   UNL A   1      33.787  35.803  31.812  1.00  0.00     0.001 A 
ATOM     30  C   UNL A   1      33.344  36.952  31.164  1.00  0.00     0.000 A 
ENDBRANCH  24  25
ENDBRANCH  18  19
ENDBRANCH  16  18
ENDBRANCH  14  16
ENDBRANCH   9  14
ENDBRANCH   6   8
ENDBRANCH   5   6
ENDBRANCH   4   5
ENDBRANCH   3   4
ENDBRANCH   2   3
ENDBRANCH   1   2
BRANCH   1  31
ATOM     31  C   UNL A   1      36.883  21.721  24.614  1.00  0.00     0.188 C 
BRANCH  31  32
ATOM     32  O   UNL A   1      37.163  20.377  24.931  1.00  0.00    -0.376 OA
BRANCH  32  33
ATOM     33  C   UNL A   1      38.513  19.988  25.100  1.00  0.00     0.202 C 
BRANCH  33  34
ATOM     34  C   UNL A   1      39.365  20.820  26.067  1.00  0.00     0.261 C 
BRANCH  34  35
ATOM     35  O   UNL A   1      40.459  20.132  26.696  1.00  0.00    -0.460 OA
BRANCH  35  36
ATOM     36  C   UNL A   1      41.680  20.210  26.113  1.00  0.00     0.338 C 
ATOM     37  O   UNL A   1      42.149  19.444  25.291  1.00  0.00    -0.246 OA
BRANCH  36  38
ATOM     38  C   UNL A   1      42.219  21.552  26.448  1.00  0.00     0.060 A 
ATOM     39  C   UNL A   1      42.530  21.850  27.784  1.00  0.00     0.016 A 
ATOM     40  C   UNL A   1      42.516  22.466  25.437  1.00  0.00     0.016 A 
ATOM     41  C   UNL A   1      43.161  23.056  28.104  1.00  0.00     0.010 A 
ATOM     42  C   UNL A   1      43.119  23.683  25.762  1.00  0.00     0.010 A 
ATOM     43  C   UNL A   1      43.441  23.988  27.097  1.00  0.00    -0.014 A 
BRANCH  43  44
ATOM     44  C   UNL A   1      43.942  25.346  27.421  1.00  0.00     0.031 A 
ATOM     45  C   UNL A   1      45.383  25.660  27.136  1.00  0.00     0.074 A 
ATOM     46  C   UNL A   1      43.153  26.265  28.008  1.00  0.00     0.049 A 
ATOM     47  N   UNL A   1      46.084  26.711  27.471  1.00  0.00    -0.248 NA
ATOM     48  C   UNL A   1      46.133  24.650  26.373  1.00  0.00     0.031 C 
ATOM     49  C   UNL A   1      41.727  26.108  28.288  1.00  0.00     0.029 A 
ATOM     50  N   UNL A   1      43.458  27.512  28.498  1.00  0.00    -0.354 N 
ATOM     51  C   UNL A   1      47.360  26.484  26.975  1.00  0.00     0.074 A 
ATOM     52  C   UNL A   1      47.342  25.190  26.328  1.00  0.00     0.031 C 
ATOM     53  C   UNL A   1      41.285  27.209  28.922  1.00  0.00     0.029 A 
ATOM     54  C   UNL A   1      42.405  28.125  29.137  1.00  0.00     0.049 A 
ATOM     55  H   UNL A   1      44.345  27.929  28.400  1.00  0.00     0.167 HD
ATOM     56  C   UNL A   1      48.453  27.279  27.057  1.00  0.00     0.031 A 
ATOM     57  C   UNL A   1      42.361  29.269  29.851  1.00  0.00     0.031 A 
ATOM     58  C   UNL A   1      48.479  28.551  27.725  1.00  0.00     0.049 A 
ATOM     59  C   UNL A   1      43.619  30.082  30.029  1.00  0.00     0.074 A 
ATOM     60  C   UNL A   1      49.535  29.437  27.847  1.00  0.00     0.029 A 
ATOM     61  N   UNL A   1      47.405  29.112  28.401  1.00  0.00    -0.354 N 
ATOM     62  N   UNL A   1      44.816  29.871  29.533  1.00  0.00    -0.248 NA
ATOM     63  C   UNL A   1      43.525  31.282  30.875  1.00  0.00     0.031 C 
ATOM     64  C   UNL A   1      49.121  30.501  28.653  1.00  0.00     0.029 A 
ATOM     65  C   UNL A   1      47.787  30.311  28.979  1.00  0.00     0.049 A 
ATOM     66  H   UNL A   1      46.506  28.717  28.460  1.00  0.00     0.167 HD
ATOM     67  C   UNL A   1      45.610  30.918  29.994  1.00  0.00     0.074 A 
ATOM     68  C   UNL A   1      44.755  31.771  30.792  1.00  0.00     0.031 C 
ATOM     69  C   UNL A   1      46.928  31.149  29.779  1.00  0.00     0.031 A 
BRANCH  56  70
ATOM     70  C   UNL A   1      49.728  26.767  26.445  1.00  0.00    -0.014 A 
ATOM     71  C   UNL A   1      50.086  27.093  25.125  1.00  0.00     0.010 A 
ATOM     72  C   UNL A   1      50.597  25.974  27.215  1.00  0.00     0.010 A 
ATOM     73  C   UNL A   1      51.274  26.607  24.575  1.00  0.00     0.020 A 
ATOM     74  C   UNL A   1      51.799  25.508  26.678  1.00  0.00     0.020 A 
ATOM     75  C   UNL A   1      52.123  25.815  25.355  1.00  0.00     0.054 A 
BRANCH  75  76
ATOM     76  S   UNL A   1      53.669  25.215  24.622  1.00  0.00     0.124 S 
ATOM     77  O   UNL A   1      54.673  25.928  25.411  1.00  0.00    -0.237 OA
ATOM     78  O   UNL A   1      53.595  23.775  24.856  1.00  0.00    -0.237 OA
ATOM     79  O   UNL A   1      53.572  25.623  23.223  1.00  0.00    -0.744 OA
ENDBRANCH  75  76
ENDBRANCH  56  70
BRANCH  57  80
ATOM     80  C   UNL A   1      41.090  29.695  30.503  1.00  0.00    -0.014 A 
ATOM     81  C   UNL A   1      40.681  29.122  31.720  1.00  0.00     0.010 A 
ATOM     82  C   UNL A   1      40.272  30.669  29.899  1.00  0.00     0.010 A 
ATOM     83  C   UNL A   1      39.476  29.505  32.315  1.00  0.00     0.020 A 
ATOM     84  C   UNL A   1      39.080  31.077  30.506  1.00  0.00     0.020 A 
ATOM     85  C   UNL A   1      38.685  30.484  31.706  1.00  0.00     0.054 A 
BRANCH  85  86
ATOM     86  S   UNL A   1      37.152  31.006  32.526  1.00  0.00     0.124 S 
ATOM     87  O   UNL A   1      36.203  29.996  32.068  1.00  0.00    -0.237 OA
ATOM     88  O   UNL A   1      37.513  30.939  33.940  1.00  0.00    -0.237 OA
ATOM     89  O   UNL A   1      36.929  32.354  32.012  1.00  0.00    -0.744 OA
ENDBRANCH  85  86
ENDBRANCH  57  80
BRANCH  69  90
ATOM     90  C   UNL A   1      47.539  32.377  30.404  1.00  0.00    -0.014 A 
ATOM     91  C   UNL A   1      47.504  33.618  29.743  1.00  0.00     0.010 A 
ATOM     92  C   UNL A   1      48.077  32.307  31.702  1.00  0.00     0.010 A 
ATOM     93  C   UNL A   1      48.011  34.763  30.364  1.00  0.00     0.020 A 
ATOM     94  C   UNL A   1      48.560  33.455  32.337  1.00  0.00     0.020 A 
ATOM     95  C   UNL A   1      48.531  34.675  31.660  1.00  0.00     0.054 A 
BRANCH  95  96
ATOM     96  S   UNL A   1      49.118  36.190  32.468  1.00  0.00     0.124 S 
ATOM     97  O   UNL A   1      48.597  36.034  33.823  1.00  0.00    -0.237 OA
ATOM     98  O   UNL A   1      50.569  36.082  32.336  1.00  0.00    -0.237 OA
ATOM     99  O   UNL A   1      48.507  37.261  31.685  1.00  0.00    -0.744 OA
ENDBRANCH  95  96
ENDBRANCH  69  90
ENDBRANCH  43  44
ENDBRANCH  36  38
ENDBRANCH  35  36
ENDBRANCH  34  35
ENDBRANCH  33  34
ENDBRANCH  32  33
ENDBRANCH  31  32
ENDBRANCH   1  31
TORSDOF 25
ENDMDL
MODEL 3
REMARK VINA RESULT:      -9.7      2.003      8.121
REMARK SMILES C[C@@H](Oc1ccc(-c2ccccc2)cc1)C(=O)N1CCC[C@H](C(=O)OCCOCCOCCOC(=O)c2ccc(-c3c4nc(c(-c5ccc(S(=O)(=O)[O-])cc5)c5ccc([nH]5)c(-c5ccc(S(=O)(=O)[O-])cc5)c5nc(c(-c6ccc(S(=O)(=O)[O-])cc6)c6ccc3[nH]6)C=C5)C=C4)cc2)C1
REMARK SMILES IDX 29 1 28 2 27 3 26 4 25 5 23 6 24 7 22 8 18 9 19 10 97 11
REMARK SMILES IDX 20 12 21 13 16 14 17 15 2 16 1 17 3 18 4 19 5 20 15 21 6 22
REMARK SMILES IDX 14 23 7 24 8 25 9 26 13 27 10 28 12 29 11 30 30 31 31 32
REMARK SMILES IDX 32 33 33 34 34 35 35 36 36 37 37 38 38 39 96 40 39 41 95 42
REMARK SMILES IDX 40 43 41 44 42 45 89 46 43 47 94 48 88 49 90 50 44 51 93 52
REMARK SMILES IDX 87 53 86 54 45 56 75 57 56 58 74 59 57 60 60 61 73 62 91 63
REMARK SMILES IDX 58 64 59 65 72 67 92 68 61 69 46 70 47 71 55 72 48 73 54 74
REMARK SMILES IDX 49 75 50 76 51 77 52 78 53 79 76 80 77 81 85 82 78 83 84 84
REMARK SMILES IDX 79 85 80 86 81 87 82 88 83 89 62 90 63 91 71 92 64 93 70 94
REMARK SMILES IDX 65 95 66 96 67 97 68 98 69 99
REMARK H PARENT 90 55 60 66
REMARK Flexibility Score: inf
ROOT
ATOM      1  C   UNL A   1      35.717  23.094  24.173  1.00  0.00     0.188 C 
ENDROOT
BRANCH   1   2
ATOM      2  O   UNL A   1      35.169  23.874  23.119  1.00  0.00    -0.376 OA
BRANCH   2   3
ATOM      3  C   UNL A   1      34.412  25.041  23.436  1.00  0.00     0.202 C 
BRANCH   3   4
ATOM      4  C   UNL A   1      33.432  25.583  22.386  1.00  0.00     0.261 C 
BRANCH   4   5
ATOM      5  O   UNL A   1      33.592  26.983  22.048  1.00  0.00    -0.463 OA
BRANCH   5   6
ATOM      6  C   UNL A   1      33.590  27.872  23.075  1.00  0.00     0.310 C 
ATOM      7  O   UNL A   1      34.295  27.764  24.073  1.00  0.00    -0.252 OA
BRANCH   6   8
ATOM      8  C   UNL A   1      32.559  28.998  22.958  1.00  0.00     0.119 C 
ATOM      9  N   UNL A   1      31.127  28.237  24.781  1.00  0.00    -0.339 N 
ATOM     10  C   UNL A   1      29.938  28.100  23.948  1.00  0.00     0.119 C 
ATOM     11  C   UNL A   1      32.052  29.295  24.366  1.00  0.00     0.134 C 
ATOM     12  C   UNL A   1      30.302  27.873  22.487  1.00  0.00     0.022 C 
ATOM     13  C   UNL A   1      31.354  28.875  22.013  1.00  0.00     0.019 C 
BRANCH   9  14
ATOM     14  C   UNL A   1      31.365  27.316  25.798  1.00  0.00     0.263 C 
ATOM     15  O   UNL A   1      32.234  27.513  26.654  1.00  0.00    -0.271 OA
BRANCH  14  16
ATOM     16  C   UNL A   1      30.565  26.002  25.815  1.00  0.00     0.259 C 
ATOM     17  C   UNL A   1      30.605  25.261  24.483  1.00  0.00     0.064 C 
BRANCH  16  18
ATOM     18  O   UNL A   1      31.106  25.243  26.903  1.00  0.00    -0.481 OA
BRANCH  18  19
ATOM     19  C   UNL A   1      31.420  23.963  26.580  1.00  0.00     0.120 A 
ATOM     20  C   UNL A   1      32.757  23.611  26.425  1.00  0.00     0.047 A 
ATOM     21  C   UNL A   1      30.402  23.086  26.234  1.00  0.00     0.047 A 
ATOM     22  C   UNL A   1      33.077  22.350  25.921  1.00  0.00     0.012 A 
ATOM     23  C   UNL A   1      30.724  21.827  25.743  1.00  0.00     0.012 A 
ATOM     24  C   UNL A   1      32.065  21.443  25.558  1.00  0.00    -0.018 A 
BRANCH  24  25
ATOM     25  C   UNL A   1      32.377  20.142  24.952  1.00  0.00    -0.018 A 
ATOM     26  C   UNL A   1      32.176  19.904  23.585  1.00  0.00     0.009 A 
ATOM     27  C   UNL A   1      32.911  19.106  25.737  1.00  0.00     0.009 A 
ATOM     28  C   UNL A   1      32.518  18.673  23.019  1.00  0.00     0.001 A 
ATOM     29  C   UNL A   1      33.254  17.878  25.172  1.00  0.00     0.001 A 
ATOM     30  C   UNL A   1      33.061  17.664  23.811  1.00  0.00     0.000 A 
ENDBRANCH  24  25
ENDBRANCH  18  19
ENDBRANCH  16  18
ENDBRANCH  14  16
ENDBRANCH   9  14
ENDBRANCH   6   8
ENDBRANCH   5   6
ENDBRANCH   4   5
ENDBRANCH   3   4
ENDBRANCH   2   3
ENDBRANCH   1   2
BRANCH   1  31
ATOM     31  C   UNL A   1      37.011  22.326  23.895  1.00  0.00     0.188 C 
BRANCH  31  32
ATOM     32  O   UNL A   1      37.918  22.309  24.973  1.00  0.00    -0.376 OA
BRANCH  32  33
ATOM     33  C   UNL A   1      38.054  21.120  25.727  1.00  0.00     0.202 C 
BRANCH  33  34
ATOM     34  C   UNL A   1      39.235  20.204  25.381  1.00  0.00     0.261 C 
BRANCH  34  35
ATOM     35  O   UNL A   1      40.077  19.818  26.480  1.00  0.00    -0.460 OA
BRANCH  35  36
ATOM     36  C   UNL A   1      41.403  19.667  26.244  1.00  0.00     0.338 C 
ATOM     37  O   UNL A   1      41.945  18.735  25.679  1.00  0.00    -0.246 OA
BRANCH  36  38
ATOM     38  C   UNL A   1      42.033  20.976  26.549  1.00  0.00     0.060 A 
ATOM     39  C   UNL A   1      42.373  21.834  25.491  1.00  0.00     0.016 A 
ATOM     40  C   UNL A   1      42.184  21.396  27.871  1.00  0.00     0.016 A 
ATOM     41  C   UNL A   1      42.844  23.124  25.759  1.00  0.00     0.010 A 
ATOM     42  C   UNL A   1      42.682  22.674  28.136  1.00  0.00     0.010 A 
ATOM     43  C   UNL A   1      43.020  23.543  27.083  1.00  0.00    -0.014 A 
BRANCH  43  44
ATOM     44  C   UNL A   1      43.684  24.830  27.401  1.00  0.00     0.031 A 
ATOM     45  C   UNL A   1      42.824  25.996  27.800  1.00  0.00     0.074 A 
ATOM     46  C   UNL A   1      45.017  24.982  27.287  1.00  0.00     0.049 A 
ATOM     47  N   UNL A   1      43.155  27.249  27.971  1.00  0.00    -0.248 NA
ATOM     48  C   UNL A   1      41.399  25.708  28.031  1.00  0.00     0.031 C 
ATOM     49  C   UNL A   1      45.969  23.921  26.964  1.00  0.00     0.029 A 
ATOM     50  N   UNL A   1      45.795  26.108  27.407  1.00  0.00    -0.354 N 
ATOM     51  C   UNL A   1      41.979  27.902  28.315  1.00  0.00     0.074 A 
ATOM     52  C   UNL A   1      40.925  26.911  28.315  1.00  0.00     0.031 C 
ATOM     53  C   UNL A   1      47.203  24.453  26.888  1.00  0.00     0.029 A 
ATOM     54  C   UNL A   1      47.120  25.896  27.108  1.00  0.00     0.049 A 
ATOM     55  H   UNL A   1      45.439  26.984  27.683  1.00  0.00     0.167 HD
ATOM     56  C   UNL A   1      41.792  29.213  28.599  1.00  0.00     0.031 A 
ATOM     57  C   UNL A   1      48.140  26.771  26.981  1.00  0.00     0.031 A 
ATOM     58  C   UNL A   1      42.834  30.202  28.571  1.00  0.00     0.049 A 
ATOM     59  C   UNL A   1      47.885  28.243  27.187  1.00  0.00     0.074 A 
ATOM     60  C   UNL A   1      42.745  31.553  28.859  1.00  0.00     0.029 A 
ATOM     61  N   UNL A   1      44.151  29.955  28.216  1.00  0.00    -0.354 N 
ATOM     62  N   UNL A   1      46.774  28.848  27.539  1.00  0.00    -0.248 NA
ATOM     63  C   UNL A   1      49.018  29.155  26.968  1.00  0.00     0.031 C 
ATOM     64  C   UNL A   1      43.992  32.135  28.615  1.00  0.00     0.029 A 
ATOM     65  C   UNL A   1      44.874  31.135  28.235  1.00  0.00     0.049 A 
ATOM     66  H   UNL A   1      44.518  29.071  27.985  1.00  0.00     0.167 HD
ATOM     67  C   UNL A   1      47.080  30.205  27.596  1.00  0.00     0.074 A 
ATOM     68  C   UNL A   1      48.483  30.332  27.262  1.00  0.00     0.031 C 
ATOM     69  C   UNL A   1      46.271  31.251  27.894  1.00  0.00     0.031 A 
BRANCH  56  70
ATOM     70  C   UNL A   1      40.391  29.658  28.919  1.00  0.00    -0.014 A 
ATOM     71  C   UNL A   1      40.025  30.031  30.225  1.00  0.00     0.010 A 
ATOM     72  C   UNL A   1      39.436  29.736  27.890  1.00  0.00     0.010 A 
ATOM     73  C   UNL A   1      38.719  30.441  30.501  1.00  0.00     0.020 A 
ATOM     74  C   UNL A   1      38.136  30.171  28.157  1.00  0.00     0.020 A 
ATOM     75  C   UNL A   1      37.782  30.507  29.465  1.00  0.00     0.054 A 
BRANCH  75  76
ATOM     76  S   UNL A   1      36.099  31.062  29.849  1.00  0.00     0.124 S 
ATOM     77  O   UNL A   1      35.309  30.342  28.853  1.00  0.00    -0.237 OA
ATOM     78  O   UNL A   1      35.924  30.618  31.230  1.00  0.00    -0.237 OA
ATOM     79  O   UNL A   1      36.160  32.510  29.667  1.00  0.00    -0.744 OA
ENDBRANCH  75  76
ENDBRANCH  56  70
BRANCH  57  80
ATOM     80  C   UNL A   1      49.494  26.289  26.586  1.00  0.00    -0.014 A 
ATOM     81  C   UNL A   1      50.370  25.748  27.543  1.00  0.00     0.010 A 
ATOM     82  C   UNL A   1      49.921  26.385  25.248  1.00  0.00     0.010 A 
ATOM     83  C   UNL A   1      51.649  25.321  27.173  1.00  0.00     0.020 A 
ATOM     84  C   UNL A   1      51.189  25.933  24.869  1.00  0.00     0.020 A 
ATOM     85  C   UNL A   1      52.049  25.413  25.837  1.00  0.00     0.054 A 
BRANCH  85  86
ATOM     86  S   UNL A   1      53.693  24.801  25.371  1.00  0.00     0.124 S 
ATOM     87  O   UNL A   1      54.051  25.694  24.274  1.00  0.00    -0.237 OA
ATOM     88  O   UNL A   1      54.456  24.977  26.605  1.00  0.00    -0.237 OA
ATOM     89  O   UNL A   1      53.448  23.411  24.993  1.00  0.00    -0.744 OA
ENDBRANCH  85  86
ENDBRANCH  57  80
BRANCH  69  90
ATOM     90  C   UNL A   1      46.873  32.632  27.885  1.00  0.00    -0.014 A 
ATOM     91  C   UNL A   1      46.837  33.431  26.729  1.00  0.00     0.010 A 
ATOM     92  C   UNL A   1      47.406  33.169  29.072  1.00  0.00     0.010 A 
ATOM     93  C   UNL A   1      47.337  34.736  26.755  1.00  0.00     0.020 A 
ATOM     94  C   UNL A   1      47.882  34.483  29.110  1.00  0.00     0.020 A 
ATOM     95  C   UNL A   1      47.851  35.256  27.947  1.00  0.00     0.054 A 
BRANCH  95  96
ATOM     96  S   UNL A   1      48.428  36.976  27.971  1.00  0.00     0.124 S 
ATOM     97  O   UNL A   1      47.193  37.709  28.235  1.00  0.00    -0.237 OA
ATOM     98  O   UNL A   1      49.402  36.972  29.061  1.00  0.00    -0.237 OA
ATOM     99  O   UNL A   1      48.996  37.170  26.639  1.00  0.00    -0.744 OA
ENDBRANCH  95  96
ENDBRANCH  69  90
ENDBRANCH  43  44
ENDBRANCH  36  38
ENDBRANCH  35  36
ENDBRANCH  34  35
ENDBRANCH  33  34
ENDBRANCH  32  33
ENDBRANCH  31  32
ENDBRANCH   1  31
TORSDOF 25
ENDMDL
