MODEL 1
REMARK VINA RESULT:      -8.9      0.000      0.000
REMARK SMILES C[C@H]([NH2+][C@@H]1CC[N@@H+](C)C1)[C@@H](C)C(=O)OCCOCCOCCOC(=O)c1ccc(-c2c3nc(c(-c4ccc(S(=O)(=O)[O-])cc4)c4ccc([nH]4)c(-c4ccc(S(=O)(=O)[O-])cc4)c4nc(c(-c5ccc(S(=O)(=O)[O-])cc5)c5ccc2[nH]5)C=C4)C=C3)cc1
REMARK SMILES IDX 18 1 17 2 16 3 15 4 14 5 12 6 13 7 10 8 11 9 2 10 1 11 3 12
REMARK SMILES IDX 4 15 5 16 9 17 6 18 7 19 8 20 19 22 20 23 21 24 22 25 23 26
REMARK SMILES IDX 24 27 25 28 26 29 27 30 85 31 28 32 84 33 29 34 30 35 31 36
REMARK SMILES IDX 78 37 32 38 83 39 77 40 79 41 33 42 82 43 76 44 75 45 34 47
REMARK SMILES IDX 64 48 45 49 63 50 46 51 49 52 62 53 80 54 47 55 48 56 61 58
REMARK SMILES IDX 81 59 50 60 35 61 36 62 44 63 37 64 43 65 38 66 39 67 40 68
REMARK SMILES IDX 41 69 42 70 65 71 66 72 74 73 67 74 73 75 68 76 69 77 70 78
REMARK SMILES IDX 71 79 72 80 51 81 52 82 60 83 53 84 59 85 54 86 55 87 56 88
REMARK SMILES IDX 57 89 58 90
REMARK H PARENT 3 13 3 14 7 21 79 46 49 57
REMARK Flexibility Score: inf
ROOT
ATOM      1  C   UNL A   1      41.323  21.208  26.371  1.00  0.00     0.188 C 
ENDROOT
BRANCH   1   2
ATOM      2  O   UNL A   1      40.965  22.578  26.533  1.00  0.00    -0.376 OA
BRANCH   2   3
ATOM      3  C   UNL A   1      39.696  22.909  27.070  1.00  0.00     0.202 C 
BRANCH   3   4
ATOM      4  C   UNL A   1      38.684  23.564  26.120  1.00  0.00     0.261 C 
BRANCH   4   5
ATOM      5  O   UNL A   1      37.299  23.159  26.241  1.00  0.00    -0.463 OA
BRANCH   5   6
ATOM      6  C   UNL A   1      36.860  22.267  25.311  1.00  0.00     0.314 C 
ATOM      7  O   UNL A   1      37.580  21.420  24.791  1.00  0.00    -0.252 OA
BRANCH   6   8
ATOM      8  C   UNL A   1      35.419  22.483  24.837  1.00  0.00     0.154 C 
ATOM      9  C   UNL A   1      35.126  23.969  25.072  1.00  0.00     0.026 C 
BRANCH   8  10
ATOM     10  C   UNL A   1      34.311  21.549  25.410  1.00  0.00     0.193 C 
ATOM     11  C   UNL A   1      34.095  21.777  26.914  1.00  0.00     0.076 C 
BRANCH  10  12
ATOM     12  N   UNL A   1      34.703  20.140  25.221  1.00  0.00    -0.336 N 
ATOM     13  H   UNL A   1      34.776  19.716  26.146  1.00  0.00     0.346 HD
ATOM     14  H   UNL A   1      35.572  20.182  24.689  1.00  0.00     0.346 HD
BRANCH  12  15
ATOM     15  C   UNL A   1      33.811  19.288  24.416  1.00  0.00     0.244 C 
ATOM     16  C   UNL A   1      32.526  19.036  25.232  1.00  0.00     0.132 C 
ATOM     17  C   UNL A   1      34.315  17.856  24.165  1.00  0.00     0.327 C 
ATOM     18  C   UNL A   1      32.609  17.583  25.708  1.00  0.00     0.268 C 
ATOM     19  N   UNL A   1      33.985  17.185  25.423  1.00  0.00    -0.332 N 
ATOM     20  C   UNL A   1      34.195  15.753  25.390  1.00  0.00     0.332 C 
ATOM     21  H   UNL A   1      34.611  17.467  26.177  1.00  0.00     0.348 HD
ENDBRANCH  12  15
ENDBRANCH  10  12
ENDBRANCH   8  10
ENDBRANCH   6   8
ENDBRANCH   5   6
ENDBRANCH   4   5
ENDBRANCH   3   4
ENDBRANCH   2   3
ENDBRANCH   1   2
BRANCH   1  22
ATOM     22  C   UNL A   1      42.709  20.856  25.823  1.00  0.00     0.188 C 
BRANCH  22  23
ATOM     23  O   UNL A   1      43.346  21.976  25.231  1.00  0.00    -0.376 OA
BRANCH  23  24
ATOM     24  C   UNL A   1      44.519  22.415  25.889  1.00  0.00     0.202 C 
BRANCH  24  25
ATOM     25  C   UNL A   1      44.182  23.386  27.024  1.00  0.00     0.261 C 
BRANCH  25  26
ATOM     26  O   UNL A   1      44.279  24.785  26.686  1.00  0.00    -0.460 OA
BRANCH  26  27
ATOM     27  C   UNL A   1      43.143  25.399  26.292  1.00  0.00     0.338 C 
ATOM     28  O   UNL A   1      42.513  25.172  25.263  1.00  0.00    -0.246 OA
BRANCH  27  29
ATOM     29  C   UNL A   1      42.653  26.253  27.396  1.00  0.00     0.060 A 
ATOM     30  C   UNL A   1      43.301  27.468  27.649  1.00  0.00     0.016 A 
ATOM     31  C   UNL A   1      41.579  25.856  28.193  1.00  0.00     0.016 A 
ATOM     32  C   UNL A   1      42.886  28.287  28.703  1.00  0.00     0.010 A 
ATOM     33  C   UNL A   1      41.179  26.666  29.265  1.00  0.00     0.010 A 
ATOM     34  C   UNL A   1      41.842  27.877  29.540  1.00  0.00    -0.014 A 
BRANCH  34  35
ATOM     35  C   UNL A   1      41.537  28.629  30.787  1.00  0.00     0.031 A 
ATOM     36  C   UNL A   1      40.379  29.592  30.789  1.00  0.00     0.074 A 
ATOM     37  C   UNL A   1      42.262  28.456  31.909  1.00  0.00     0.049 A 
ATOM     38  N   UNL A   1      39.996  30.432  31.717  1.00  0.00    -0.248 NA
ATOM     39  C   UNL A   1      39.540  29.608  29.580  1.00  0.00     0.031 C 
ATOM     40  C   UNL A   1      43.361  27.505  32.070  1.00  0.00     0.029 A 
ATOM     41  N   UNL A   1      42.184  29.088  33.127  1.00  0.00    -0.354 N 
ATOM     42  C   UNL A   1      38.891  31.095  31.195  1.00  0.00     0.074 A 
ATOM     43  C   UNL A   1      38.673  30.569  29.865  1.00  0.00     0.031 C 
ATOM     44  C   UNL A   1      43.861  27.624  33.313  1.00  0.00     0.029 A 
ATOM     45  C   UNL A   1      43.157  28.693  34.017  1.00  0.00     0.049 A 
ATOM     46  H   UNL A   1      41.497  29.759  33.342  1.00  0.00     0.167 HD
ATOM     47  C   UNL A   1      38.127  32.055  31.770  1.00  0.00     0.031 A 
ATOM     48  C   UNL A   1      43.468  29.165  35.242  1.00  0.00     0.031 A 
ATOM     49  C   UNL A   1      38.350  32.581  33.091  1.00  0.00     0.049 A 
ATOM     50  C   UNL A   1      42.664  30.300  35.825  1.00  0.00     0.074 A 
ATOM     51  C   UNL A   1      37.628  33.553  33.762  1.00  0.00     0.029 A 
ATOM     52  N   UNL A   1      39.374  32.187  33.940  1.00  0.00    -0.354 N 
ATOM     53  N   UNL A   1      41.624  30.921  35.319  1.00  0.00    -0.248 NA
ATOM     54  C   UNL A   1      43.076  30.797  37.146  1.00  0.00     0.031 C 
ATOM     55  C   UNL A   1      38.254  33.792  34.991  1.00  0.00     0.029 A 
ATOM     56  C   UNL A   1      39.322  32.919  35.116  1.00  0.00     0.049 A 
ATOM     57  H   UNL A   1      40.040  31.491  33.737  1.00  0.00     0.167 HD
ATOM     58  C   UNL A   1      41.245  31.864  36.270  1.00  0.00     0.074 A 
ATOM     59  C   UNL A   1      42.154  31.720  37.388  1.00  0.00     0.031 C 
ATOM     60  C   UNL A   1      40.233  32.768  36.222  1.00  0.00     0.031 A 
BRANCH  47  61
ATOM     61  C   UNL A   1      37.007  32.640  30.948  1.00  0.00    -0.014 A 
ATOM     62  C   UNL A   1      37.258  33.535  29.893  1.00  0.00     0.010 A 
ATOM     63  C   UNL A   1      35.680  32.258  31.219  1.00  0.00     0.010 A 
ATOM     64  C   UNL A   1      36.200  34.068  29.151  1.00  0.00     0.020 A 
ATOM     65  C   UNL A   1      34.622  32.766  30.460  1.00  0.00     0.020 A 
ATOM     66  C   UNL A   1      34.889  33.683  29.441  1.00  0.00     0.054 A 
BRANCH  66  67
ATOM     67  S   UNL A   1      33.537  34.377  28.451  1.00  0.00     0.124 S 
ATOM     68  O   UNL A   1      32.593  34.798  29.485  1.00  0.00    -0.237 OA
ATOM     69  O   UNL A   1      34.196  35.460  27.726  1.00  0.00    -0.237 OA
ATOM     70  O   UNL A   1      33.095  33.255  27.626  1.00  0.00    -0.744 OA
ENDBRANCH  66  67
ENDBRANCH  47  61
BRANCH  48  71
ATOM     71  C   UNL A   1      44.628  28.596  35.989  1.00  0.00    -0.014 A 
ATOM     72  C   UNL A   1      44.458  27.514  36.869  1.00  0.00     0.010 A 
ATOM     73  C   UNL A   1      45.913  29.146  35.826  1.00  0.00     0.010 A 
ATOM     74  C   UNL A   1      45.548  27.001  37.582  1.00  0.00     0.020 A 
ATOM     75  C   UNL A   1      47.010  28.616  36.512  1.00  0.00     0.020 A 
ATOM     76  C   UNL A   1      46.818  27.553  37.396  1.00  0.00     0.054 A 
BRANCH  76  77
ATOM     77  S   UNL A   1      48.224  26.838  38.292  1.00  0.00     0.124 S 
ATOM     78  O   UNL A   1      49.057  28.011  38.537  1.00  0.00    -0.237 OA
ATOM     79  O   UNL A   1      47.583  26.260  39.472  1.00  0.00    -0.237 OA
ATOM     80  O   UNL A   1      48.773  25.866  37.351  1.00  0.00    -0.744 OA
ENDBRANCH  76  77
ENDBRANCH  48  71
BRANCH  60  81
ATOM     81  C   UNL A   1      40.027  33.652  37.427  1.00  0.00    -0.014 A 
ATOM     82  C   UNL A   1      40.670  34.896  37.543  1.00  0.00     0.010 A 
ATOM     83  C   UNL A   1      39.125  33.253  38.432  1.00  0.00     0.010 A 
ATOM     84  C   UNL A   1      40.442  35.710  38.658  1.00  0.00     0.020 A 
ATOM     85  C   UNL A   1      38.870  34.076  39.531  1.00  0.00     0.020 A 
ATOM     86  C   UNL A   1      39.542  35.295  39.644  1.00  0.00     0.054 A 
BRANCH  86  87
ATOM     87  S   UNL A   1      39.230  36.389  41.058  1.00  0.00     0.124 S 
ATOM     88  O   UNL A   1      38.622  37.550  40.415  1.00  0.00    -0.237 OA
ATOM     89  O   UNL A   1      38.334  35.589  41.890  1.00  0.00    -0.237 OA
ATOM     90  O   UNL A   1      40.559  36.615  41.623  1.00  0.00    -0.744 OA
ENDBRANCH  86  87
ENDBRANCH  60  81
ENDBRANCH  34  35
ENDBRANCH  27  29
ENDBRANCH  26  27
ENDBRANCH  25  26
ENDBRANCH  24  25
ENDBRANCH  23  24
ENDBRANCH  22  23
ENDBRANCH   1  22
TORSDOF 23
ENDMDL
MODEL 2
REMARK VINA RESULT:      -8.6      4.651     10.119
REMARK SMILES C[C@H]([NH2+][C@@H]1CC[N@@H+](C)C1)[C@@H](C)C(=O)OCCOCCOCCOC(=O)c1ccc(-c2c3nc(c(-c4ccc(S(=O)(=O)[O-])cc4)c4ccc([nH]4)c(-c4ccc(S(=O)(=O)[O-])cc4)c4nc(c(-c5ccc(S(=O)(=O)[O-])cc5)c5ccc2[nH]5)C=C4)C=C3)cc1
REMARK SMILES IDX 18 1 17 2 16 3 15 4 14 5 12 6 13 7 10 8 11 9 2 10 1 11 3 12
REMARK SMILES IDX 4 15 5 16 9 17 6 18 7 19 8 20 19 22 20 23 21 24 22 25 23 26
REMARK SMILES IDX 24 27 25 28 26 29 27 30 85 31 28 32 84 33 29 34 30 35 31 36
REMARK SMILES IDX 78 37 32 38 83 39 77 40 79 41 33 42 82 43 76 44 75 45 34 47
REMARK SMILES IDX 64 48 45 49 63 50 46 51 49 52 62 53 80 54 47 55 48 56 61 58
REMARK SMILES IDX 81 59 50 60 35 61 36 62 44 63 37 64 43 65 38 66 39 67 40 68
REMARK SMILES IDX 41 69 42 70 65 71 66 72 74 73 67 74 73 75 68 76 69 77 70 78
REMARK SMILES IDX 71 79 72 80 51 81 52 82 60 83 53 84 59 85 54 86 55 87 56 88
REMARK SMILES IDX 57 89 58 90
REMARK H PARENT 3 13 3 14 7 21 79 46 49 57
REMARK Flexibility Score: inf
ROOT
ATOM      1  C   UNL A   1      30.597  28.881  23.380  1.00  0.00     0.188 C 
ENDROOT
BRANCH   1   2
ATOM      2  O   UNL A   1      29.798  27.729  23.639  1.00  0.00    -0.376 OA
BRANCH   2   3
ATOM      3  C   UNL A   1      30.398  26.446  23.628  1.00  0.00     0.202 C 
BRANCH   3   4
ATOM      4  C   UNL A   1      29.895  25.429  24.660  1.00  0.00     0.261 C 
BRANCH   4   5
ATOM      5  O   UNL A   1      30.644  24.198  24.804  1.00  0.00    -0.463 OA
BRANCH   5   6
ATOM      6  C   UNL A   1      31.021  23.879  26.073  1.00  0.00     0.314 C 
ATOM      7  O   UNL A   1      30.302  24.040  27.054  1.00  0.00    -0.252 OA
BRANCH   6   8
ATOM      8  C   UNL A   1      32.479  23.432  26.221  1.00  0.00     0.154 C 
ATOM      9  C   UNL A   1      33.309  24.720  26.202  1.00  0.00     0.026 C 
BRANCH   8  10
ATOM     10  C   UNL A   1      33.017  22.349  25.238  1.00  0.00     0.193 C 
ATOM     11  C   UNL A   1      32.117  21.104  25.215  1.00  0.00     0.076 C 
BRANCH  10  12
ATOM     12  N   UNL A   1      34.364  21.922  25.658  1.00  0.00    -0.336 N 
ATOM     13  H   UNL A   1      34.305  20.937  25.919  1.00  0.00     0.346 HD
ATOM     14  H   UNL A   1      34.614  22.560  26.413  1.00  0.00     0.346 HD
BRANCH  12  15
ATOM     15  C   UNL A   1      35.456  22.054  24.678  1.00  0.00     0.244 C 
ATOM     16  C   UNL A   1      36.424  20.869  24.879  1.00  0.00     0.132 C 
ATOM     17  C   UNL A   1      36.385  23.262  24.884  1.00  0.00     0.327 C 
ATOM     18  C   UNL A   1      37.670  21.454  25.550  1.00  0.00     0.268 C 
ATOM     19  N   UNL A   1      37.268  22.798  25.955  1.00  0.00    -0.332 N 
ATOM     20  C   UNL A   1      38.373  23.693  26.225  1.00  0.00     0.332 C 
ATOM     21  H   UNL A   1      36.791  22.782  26.856  1.00  0.00     0.348 HD
ENDBRANCH  12  15
ENDBRANCH  10  12
ENDBRANCH   8  10
ENDBRANCH   6   8
ENDBRANCH   5   6
ENDBRANCH   4   5
ENDBRANCH   3   4
ENDBRANCH   2   3
ENDBRANCH   1   2
BRANCH   1  22
ATOM     22  C   UNL A   1      31.313  29.572  24.544  1.00  0.00     0.188 C 
BRANCH  22  23
ATOM     23  O   UNL A   1      32.715  29.360  24.506  1.00  0.00    -0.376 OA
BRANCH  23  24
ATOM     24  C   UNL A   1      33.145  28.113  25.016  1.00  0.00     0.202 C 
BRANCH  24  25
ATOM     25  C   UNL A   1      34.230  28.298  26.081  1.00  0.00     0.261 C 
BRANCH  25  26
ATOM     26  O   UNL A   1      33.776  28.855  27.331  1.00  0.00    -0.460 OA
BRANCH  26  27
ATOM     27  C   UNL A   1      34.250  30.073  27.669  1.00  0.00     0.338 C 
ATOM     28  O   UNL A   1      33.598  31.110  27.745  1.00  0.00    -0.246 OA
BRANCH  27  29
ATOM     29  C   UNL A   1      35.645  29.930  28.138  1.00  0.00     0.060 A 
ATOM     30  C   UNL A   1      36.689  30.148  27.230  1.00  0.00     0.016 A 
ATOM     31  C   UNL A   1      35.931  29.564  29.453  1.00  0.00     0.016 A 
ATOM     32  C   UNL A   1      38.019  29.993  27.627  1.00  0.00     0.010 A 
ATOM     33  C   UNL A   1      37.265  29.385  29.845  1.00  0.00     0.010 A 
ATOM     34  C   UNL A   1      38.318  29.578  28.930  1.00  0.00    -0.014 A 
BRANCH  34  35
ATOM     35  C   UNL A   1      39.708  29.201  29.301  1.00  0.00     0.031 A 
ATOM     36  C   UNL A   1      40.570  30.211  30.011  1.00  0.00     0.074 A 
ATOM     37  C   UNL A   1      40.202  27.978  29.029  1.00  0.00     0.049 A 
ATOM     38  N   UNL A   1      41.838  30.146  30.331  1.00  0.00    -0.248 NA
ATOM     39  C   UNL A   1      39.911  31.464  30.414  1.00  0.00     0.031 C 
ATOM     40  C   UNL A   1      39.457  26.880  28.413  1.00  0.00     0.029 A 
ATOM     41  N   UNL A   1      41.459  27.459  29.228  1.00  0.00    -0.354 N 
ATOM     42  C   UNL A   1      42.135  31.356  30.947  1.00  0.00     0.074 A 
ATOM     43  C   UNL A   1      40.919  32.141  30.944  1.00  0.00     0.031 C 
ATOM     44  C   UNL A   1      40.275  25.821  28.277  1.00  0.00     0.029 A 
ATOM     45  C   UNL A   1      41.612  26.180  28.744  1.00  0.00     0.049 A 
ATOM     46  H   UNL A   1      42.182  27.955  29.676  1.00  0.00     0.167 HD
ATOM     47  C   UNL A   1      43.313  31.777  31.467  1.00  0.00     0.031 A 
ATOM     48  C   UNL A   1      42.712  25.403  28.651  1.00  0.00     0.031 A 
ATOM     49  C   UNL A   1      44.523  30.997  31.463  1.00  0.00     0.049 A 
ATOM     50  C   UNL A   1      44.034  25.928  29.151  1.00  0.00     0.074 A 
ATOM     51  C   UNL A   1      45.766  31.336  31.969  1.00  0.00     0.029 A 
ATOM     52  N   UNL A   1      44.646  29.727  30.920  1.00  0.00    -0.354 N 
ATOM     53  N   UNL A   1      44.303  27.076  29.727  1.00  0.00    -0.248 NA
ATOM     54  C   UNL A   1      45.203  25.051  28.986  1.00  0.00     0.031 C 
ATOM     55  C   UNL A   1      46.656  30.297  31.675  1.00  0.00     0.029 A 
ATOM     56  C   UNL A   1      45.951  29.281  31.051  1.00  0.00     0.049 A 
ATOM     57  H   UNL A   1      43.914  29.217  30.504  1.00  0.00     0.167 HD
ATOM     58  C   UNL A   1      45.665  27.048  30.015  1.00  0.00     0.074 A 
ATOM     59  C   UNL A   1      46.160  25.763  29.566  1.00  0.00     0.031 C 
ATOM     60  C   UNL A   1      46.435  28.000  30.599  1.00  0.00     0.031 A 
BRANCH  47  61
ATOM     61  C   UNL A   1      43.365  33.172  32.038  1.00  0.00    -0.014 A 
ATOM     62  C   UNL A   1      43.095  33.423  33.395  1.00  0.00     0.010 A 
ATOM     63  C   UNL A   1      43.723  34.247  31.202  1.00  0.00     0.010 A 
ATOM     64  C   UNL A   1      43.144  34.727  33.896  1.00  0.00     0.020 A 
ATOM     65  C   UNL A   1      43.801  35.548  31.707  1.00  0.00     0.020 A 
ATOM     66  C   UNL A   1      43.493  35.781  33.048  1.00  0.00     0.054 A 
BRANCH  66  67
ATOM     67  S   UNL A   1      43.563  37.461  33.730  1.00  0.00     0.124 S 
ATOM     68  O   UNL A   1      43.667  38.272  32.519  1.00  0.00    -0.237 OA
ATOM     69  O   UNL A   1      42.296  37.567  34.448  1.00  0.00    -0.237 OA
ATOM     70  O   UNL A   1      44.756  37.446  34.572  1.00  0.00    -0.744 OA
ENDBRANCH  66  67
ENDBRANCH  47  61
BRANCH  48  71
ATOM     71  C   UNL A   1      42.622  24.055  28.018  1.00  0.00    -0.014 A 
ATOM     72  C   UNL A   1      42.253  22.927  28.771  1.00  0.00     0.010 A 
ATOM     73  C   UNL A   1      42.915  23.894  26.651  1.00  0.00     0.010 A 
ATOM     74  C   UNL A   1      42.193  21.663  28.173  1.00  0.00     0.020 A 
ATOM     75  C   UNL A   1      42.826  22.638  26.043  1.00  0.00     0.020 A 
ATOM     76  C   UNL A   1      42.476  21.527  26.812  1.00  0.00     0.054 A 
BRANCH  76  77
ATOM     77  S   UNL A   1      42.341  19.887  26.048  1.00  0.00     0.124 S 
ATOM     78  O   UNL A   1      42.618  19.002  27.176  1.00  0.00    -0.237 OA
ATOM     79  O   UNL A   1      40.964  19.879  25.561  1.00  0.00    -0.237 OA
ATOM     80  O   UNL A   1      43.364  19.908  25.005  1.00  0.00    -0.744 OA
ENDBRANCH  76  77
ENDBRANCH  48  71
BRANCH  60  81
ATOM     81  C   UNL A   1      47.891  27.680  30.825  1.00  0.00    -0.014 A 
ATOM     82  C   UNL A   1      48.869  27.993  29.864  1.00  0.00     0.010 A 
ATOM     83  C   UNL A   1      48.294  27.110  32.048  1.00  0.00     0.010 A 
ATOM     84  C   UNL A   1      50.217  27.711  30.107  1.00  0.00     0.020 A 
ATOM     85  C   UNL A   1      49.643  26.856  32.308  1.00  0.00     0.020 A 
ATOM     86  C   UNL A   1      50.596  27.145  31.328  1.00  0.00     0.054 A 
BRANCH  86  87
ATOM     87  S   UNL A   1      52.355  26.830  31.637  1.00  0.00     0.124 S 
ATOM     88  O   UNL A   1      52.496  25.442  31.204  1.00  0.00    -0.237 OA
ATOM     89  O   UNL A   1      53.012  27.823  30.790  1.00  0.00    -0.237 OA
ATOM     90  O   UNL A   1      52.501  27.051  33.074  1.00  0.00    -0.744 OA
ENDBRANCH  86  87
ENDBRANCH  60  81
ENDBRANCH  34  35
ENDBRANCH  27  29
ENDBRANCH  26  27
ENDBRANCH  25  26
ENDBRANCH  24  25
ENDBRANCH  23  24
ENDBRANCH  22  23
ENDBRANCH   1  22
TORSDOF 23
ENDMDL
MODEL 3
REMARK VINA RESULT:      -8.5      2.275      8.649
REMARK SMILES C[C@H]([NH2+][C@@H]1CC[N@@H+](C)C1)[C@@H](C)C(=O)OCCOCCOCCOC(=O)c1ccc(-c2c3nc(c(-c4ccc(S(=O)(=O)[O-])cc4)c4ccc([nH]4)c(-c4ccc(S(=O)(=O)[O-])cc4)c4nc(c(-c5ccc(S(=O)(=O)[O-])cc5)c5ccc2[nH]5)C=C4)C=C3)cc1
REMARK SMILES IDX 18 1 17 2 16 3 15 4 14 5 12 6 13 7 10 8 11 9 2 10 1 11 3 12
REMARK SMILES IDX 4 15 5 16 9 17 6 18 7 19 8 20 19 22 20 23 21 24 22 25 23 26
REMARK SMILES IDX 24 27 25 28 26 29 27 30 85 31 28 32 84 33 29 34 30 35 31 36
REMARK SMILES IDX 78 37 32 38 83 39 77 40 79 41 33 42 82 43 76 44 75 45 34 47
REMARK SMILES IDX 64 48 45 49 63 50 46 51 49 52 62 53 80 54 47 55 48 56 61 58
REMARK SMILES IDX 81 59 50 60 35 61 36 62 44 63 37 64 43 65 38 66 39 67 40 68
REMARK SMILES IDX 41 69 42 70 65 71 66 72 74 73 67 74 73 75 68 76 69 77 70 78
REMARK SMILES IDX 71 79 72 80 51 81 52 82 60 83 53 84 59 85 54 86 55 87 56 88
REMARK SMILES IDX 57 89 58 90
REMARK H PARENT 3 13 3 14 7 21 79 46 49 57
REMARK Flexibility Score: inf
ROOT
ATOM      1  C   UNL A   1      37.118  21.937  24.364  1.00  0.00     0.188 C 
ENDROOT
BRANCH   1   2
ATOM      2  O   UNL A   1      35.785  22.164  23.915  1.00  0.00    -0.376 OA
BRANCH   2   3
ATOM      3  C   UNL A   1      35.450  23.403  23.316  1.00  0.00     0.202 C 
BRANCH   3   4
ATOM      4  C   UNL A   1      34.130  24.056  23.747  1.00  0.00     0.261 C 
BRANCH   4   5
ATOM      5  O   UNL A   1      34.010  25.489  23.581  1.00  0.00    -0.463 OA
BRANCH   5   6
ATOM      6  C   UNL A   1      32.771  25.944  23.245  1.00  0.00     0.314 C 
ATOM      7  O   UNL A   1      32.415  26.148  22.089  1.00  0.00    -0.252 OA
BRANCH   6   8
ATOM      8  C   UNL A   1      31.882  26.333  24.431  1.00  0.00     0.154 C 
ATOM      9  C   UNL A   1      32.758  27.208  25.334  1.00  0.00     0.026 C 
BRANCH   8  10
ATOM     10  C   UNL A   1      31.158  25.193  25.208  1.00  0.00     0.193 C 
ATOM     11  C   UNL A   1      29.882  25.697  25.900  1.00  0.00     0.076 C 
BRANCH  10  12
ATOM     12  N   UNL A   1      32.052  24.657  26.251  1.00  0.00    -0.336 N 
ATOM     13  H   UNL A   1      32.104  25.352  26.996  1.00  0.00     0.346 HD
ATOM     14  H   UNL A   1      32.931  24.469  25.768  1.00  0.00     0.346 HD
BRANCH  12  15
ATOM     15  C   UNL A   1      31.683  23.373  26.871  1.00  0.00     0.244 C 
ATOM     16  C   UNL A   1      32.964  22.732  27.443  1.00  0.00     0.132 C 
ATOM     17  C   UNL A   1      31.191  22.288  25.898  1.00  0.00     0.327 C 
ATOM     18  C   UNL A   1      33.309  21.572  26.504  1.00  0.00     0.268 C 
ATOM     19  N   UNL A   1      32.445  21.773  25.345  1.00  0.00    -0.332 N 
ATOM     20  C   UNL A   1      32.276  20.598  24.518  1.00  0.00     0.332 C 
ATOM     21  H   UNL A   1      32.863  22.430  24.686  1.00  0.00     0.348 HD
ENDBRANCH  12  15
ENDBRANCH  10  12
ENDBRANCH   8  10
ENDBRANCH   6   8
ENDBRANCH   5   6
ENDBRANCH   4   5
ENDBRANCH   3   4
ENDBRANCH   2   3
ENDBRANCH   1   2
BRANCH   1  22
ATOM     22  C   UNL A   1      37.392  21.810  25.865  1.00  0.00     0.188 C 
BRANCH  22  23
ATOM     23  O   UNL A   1      38.234  22.847  26.341  1.00  0.00    -0.376 OA
BRANCH  23  24
ATOM     24  C   UNL A   1      39.584  22.476  26.545  1.00  0.00     0.202 C 
BRANCH  24  25
ATOM     25  C   UNL A   1      40.482  23.711  26.662  1.00  0.00     0.261 C 
BRANCH  25  26
ATOM     26  O   UNL A   1      39.786  24.972  26.735  1.00  0.00    -0.460 OA
BRANCH  26  27
ATOM     27  C   UNL A   1      40.519  26.088  26.538  1.00  0.00     0.338 C 
ATOM     28  O   UNL A   1      41.100  26.403  25.503  1.00  0.00    -0.246 OA
BRANCH  27  29
ATOM     29  C   UNL A   1      40.347  26.986  27.701  1.00  0.00     0.060 A 
ATOM     30  C   UNL A   1      40.867  28.284  27.635  1.00  0.00     0.016 A 
ATOM     31  C   UNL A   1      39.699  26.553  28.858  1.00  0.00     0.016 A 
ATOM     32  C   UNL A   1      40.751  29.151  28.725  1.00  0.00     0.010 A 
ATOM     33  C   UNL A   1      39.604  27.414  29.960  1.00  0.00     0.010 A 
ATOM     34  C   UNL A   1      40.148  28.712  29.909  1.00  0.00    -0.014 A 
BRANCH  34  35
ATOM     35  C   UNL A   1      40.212  29.544  31.140  1.00  0.00     0.031 A 
ATOM     36  C   UNL A   1      41.351  29.333  32.102  1.00  0.00     0.074 A 
ATOM     37  C   UNL A   1      39.286  30.487  31.402  1.00  0.00     0.049 A 
ATOM     38  N   UNL A   1      41.552  29.858  33.283  1.00  0.00    -0.248 NA
ATOM     39  C   UNL A   1      42.406  28.400  31.671  1.00  0.00     0.031 C 
ATOM     40  C   UNL A   1      38.173  30.849  30.525  1.00  0.00     0.029 A 
ATOM     41  N   UNL A   1      39.132  31.306  32.495  1.00  0.00    -0.354 N 
ATOM     42  C   UNL A   1      42.739  29.303  33.748  1.00  0.00     0.074 A 
ATOM     43  C   UNL A   1      43.205  28.389  32.727  1.00  0.00     0.031 C 
ATOM     44  C   UNL A   1      37.445  31.811  31.119  1.00  0.00     0.029 A 
ATOM     45  C   UNL A   1      38.005  32.096  32.438  1.00  0.00     0.049 A 
ATOM     46  H   UNL A   1      39.766  31.327  33.246  1.00  0.00     0.167 HD
ATOM     47  C   UNL A   1      43.382  29.530  34.919  1.00  0.00     0.031 A 
ATOM     48  C   UNL A   1      37.467  32.923  33.358  1.00  0.00     0.031 A 
ATOM     49  C   UNL A   1      42.912  30.434  35.936  1.00  0.00     0.049 A 
ATOM     50  C   UNL A   1      38.149  33.089  34.693  1.00  0.00     0.074 A 
ATOM     51  C   UNL A   1      43.496  30.735  37.154  1.00  0.00     0.029 A 
ATOM     52  N   UNL A   1      41.744  31.178  35.858  1.00  0.00    -0.354 N 
ATOM     53  N   UNL A   1      39.268  32.554  35.122  1.00  0.00    -0.248 NA
ATOM     54  C   UNL A   1      37.493  33.973  35.669  1.00  0.00     0.031 C 
ATOM     55  C   UNL A   1      42.648  31.611  37.841  1.00  0.00     0.029 A 
ATOM     56  C   UNL A   1      41.573  31.912  37.021  1.00  0.00     0.049 A 
ATOM     57  H   UNL A   1      41.127  31.183  35.091  1.00  0.00     0.167 HD
ATOM     58  C   UNL A   1      39.462  33.055  36.406  1.00  0.00     0.074 A 
ATOM     59  C   UNL A   1      38.355  33.949  36.678  1.00  0.00     0.031 C 
ATOM     60  C   UNL A   1      40.466  32.799  37.281  1.00  0.00     0.031 A 
BRANCH  47  61
ATOM     61  C   UNL A   1      44.640  28.744  35.188  1.00  0.00    -0.014 A 
ATOM     62  C   UNL A   1      45.908  29.242  34.840  1.00  0.00     0.010 A 
ATOM     63  C   UNL A   1      44.549  27.495  35.831  1.00  0.00     0.010 A 
ATOM     64  C   UNL A   1      47.058  28.489  35.095  1.00  0.00     0.020 A 
ATOM     65  C   UNL A   1      45.699  26.753  36.114  1.00  0.00     0.020 A 
ATOM     66  C   UNL A   1      46.946  27.248  35.727  1.00  0.00     0.054 A 
BRANCH  66  67
ATOM     67  S   UNL A   1      48.456  26.300  36.060  1.00  0.00     0.124 S 
ATOM     68  O   UNL A   1      49.487  27.171  35.501  1.00  0.00    -0.237 OA
ATOM     69  O   UNL A   1      48.450  26.190  37.516  1.00  0.00    -0.237 OA
ATOM     70  O   UNL A   1      48.246  25.046  35.341  1.00  0.00    -0.744 OA
ENDBRANCH  66  67
ENDBRANCH  47  61
BRANCH  48  71
ATOM     71  C   UNL A   1      36.185  33.628  33.069  1.00  0.00    -0.014 A 
ATOM     72  C   UNL A   1      36.180  34.922  32.519  1.00  0.00     0.010 A 
ATOM     73  C   UNL A   1      34.955  33.005  33.353  1.00  0.00     0.010 A 
ATOM     74  C   UNL A   1      34.972  35.584  32.272  1.00  0.00     0.020 A 
ATOM     75  C   UNL A   1      33.746  33.651  33.078  1.00  0.00     0.020 A 
ATOM     76  C   UNL A   1      33.763  34.942  32.549  1.00  0.00     0.054 A 
BRANCH  76  77
ATOM     77  S   UNL A   1      32.209  35.801  32.172  1.00  0.00     0.124 S 
ATOM     78  O   UNL A   1      32.436  37.115  32.766  1.00  0.00    -0.237 OA
ATOM     79  O   UNL A   1      32.176  35.764  30.712  1.00  0.00    -0.237 OA
ATOM     80  O   UNL A   1      31.195  34.983  32.833  1.00  0.00    -0.744 OA
ENDBRANCH  76  77
ENDBRANCH  48  71
BRANCH  60  81
ATOM     81  C   UNL A   1      40.442  33.520  38.606  1.00  0.00    -0.014 A 
ATOM     82  C   UNL A   1      41.042  34.781  38.766  1.00  0.00     0.010 A 
ATOM     83  C   UNL A   1      39.753  32.949  39.693  1.00  0.00     0.010 A 
ATOM     84  C   UNL A   1      40.983  35.442  39.997  1.00  0.00     0.020 A 
ATOM     85  C   UNL A   1      39.665  33.619  40.915  1.00  0.00     0.020 A 
ATOM     86  C   UNL A   1      40.294  34.857  41.064  1.00  0.00     0.054 A 
BRANCH  86  87
ATOM     87  S   UNL A   1      40.194  35.755  42.637  1.00  0.00     0.124 S 
ATOM     88  O   UNL A   1      39.617  34.750  43.525  1.00  0.00    -0.237 OA
ATOM     89  O   UNL A   1      41.589  36.099  42.899  1.00  0.00    -0.237 OA
ATOM     90  O   UNL A   1      39.325  36.890  42.335  1.00  0.00    -0.744 OA
ENDBRANCH  86  87
ENDBRANCH  60  81
ENDBRANCH  34  35
ENDBRANCH  27  29
ENDBRANCH  26  27
ENDBRANCH  25  26
ENDBRANCH  24  25
ENDBRANCH  23  24
ENDBRANCH  22  23
ENDBRANCH   1  22
TORSDOF 23
ENDMDL
