MODEL 1
REMARK VINA RESULT:      -8.8      0.000      0.000
REMARK SMILES CCOc1cc(/C=C2/SC(=S)N([C@H](CC)C(=O)OCCOCCOCCOC(=O)c3ccc(-c4c5nc(c(-c6ccc(S(=O)(=O)[O-])cc6)c6ccc([nH]6)c(-c6ccc(S(=O)(=O)[O-])cc6)c6nc(c(-c7ccc(S(=O)(=O)[O-])cc7)c7ccc4[nH]7)C=C6)C=C5)cc3)C2=O)ccc1O
REMARK SMILES IDX 22 1 21 2 20 3 19 4 18 5 16 6 17 7 13 8 12 9 7 10 8 11 9 12
REMARK SMILES IDX 90 13 10 14 91 15 11 16 6 17 4 18 5 19 94 20 93 21 92 22
REMARK SMILES IDX 3 23 2 24 1 25 95 26 14 28 15 29 23 30 24 31 25 32 26 33
REMARK SMILES IDX 27 34 28 35 29 36 30 37 31 38 89 39 32 40 88 41 33 42 34 43
REMARK SMILES IDX 35 44 82 45 36 46 87 47 81 48 83 49 37 50 86 51 80 52 79 53
REMARK SMILES IDX 38 55 68 56 49 57 67 58 50 59 53 60 66 61 84 62 51 63 52 64
REMARK SMILES IDX 65 66 85 67 54 68 39 69 40 70 48 71 41 72 47 73 42 74 43 75
REMARK SMILES IDX 44 76 45 77 46 78 69 79 70 80 78 81 71 82 77 83 72 84 73 85
REMARK SMILES IDX 74 86 75 87 76 88 55 89 56 90 64 91 57 92 63 93 58 94 59 95
REMARK SMILES IDX 60 96 61 97 62 98
REMARK H PARENT 95 27 83 54 53 65
REMARK Flexibility Score: inf
ROOT
ATOM      1  C   UNL A   1      35.285  30.822  27.917  1.00  0.00     0.188 C 
ENDROOT
BRANCH   1   2
ATOM      2  O   UNL A   1      34.179  30.240  27.248  1.00  0.00    -0.376 OA
BRANCH   2   3
ATOM      3  C   UNL A   1      34.277  28.883  26.823  1.00  0.00     0.202 C 
BRANCH   3   4
ATOM      4  C   UNL A   1      34.018  28.566  25.343  1.00  0.00     0.261 C 
BRANCH   4   5
ATOM      5  O   UNL A   1      33.425  27.268  25.054  1.00  0.00    -0.462 OA
BRANCH   5   6
ATOM      6  C   UNL A   1      32.554  27.236  23.999  1.00  0.00     0.329 C 
ATOM      7  O   UNL A   1      31.895  28.199  23.616  1.00  0.00    -0.250 OA
BRANCH   6   8
ATOM      8  C   UNL A   1      32.314  25.821  23.418  1.00  0.00     0.201 C 
BRANCH   8   9
ATOM      9  N   UNL A   1      32.179  24.811  24.523  1.00  0.00    -0.278 N 
ATOM     10  C   UNL A   1      33.939  22.423  26.579  1.00  0.00     0.029 C 
ATOM     11  C   UNL A   1      32.966  23.087  25.936  1.00  0.00     0.081 C 
ATOM     12  S   UNL A   1      31.414  23.415  26.577  1.00  0.00    -0.054 SA
ATOM     13  C   UNL A   1      33.088  23.766  24.623  1.00  0.00     0.266 C 
ATOM     14  C   UNL A   1      31.185  24.792  25.485  1.00  0.00     0.149 C 
ATOM     15  O   UNL A   1      33.851  23.365  23.759  1.00  0.00    -0.268 OA
ATOM     16  S   UNL A   1      29.907  25.839  25.717  1.00  0.00    -0.052 S 
BRANCH  10  17
ATOM     17  C   UNL A   1      35.333  22.401  26.117  1.00  0.00    -0.020 A 
ATOM     18  C   UNL A   1      37.546  23.401  26.014  1.00  0.00     0.161 A 
ATOM     19  C   UNL A   1      36.182  23.498  26.317  1.00  0.00     0.058 A 
ATOM     20  C   UNL A   1      38.053  22.194  25.530  1.00  0.00     0.157 A 
ATOM     21  C   UNL A   1      37.209  21.122  25.262  1.00  0.00     0.051 A 
ATOM     22  C   UNL A   1      35.851  21.221  25.564  1.00  0.00     0.012 A 
BRANCH  18  23
ATOM     23  O   UNL A   1      38.316  24.467  26.393  1.00  0.00    -0.490 OA
BRANCH  23  24
ATOM     24  C   UNL A   1      39.197  24.259  27.501  1.00  0.00     0.226 C 
ATOM     25  C   UNL A   1      39.302  25.596  28.215  1.00  0.00     0.049 C 
ENDBRANCH  23  24
ENDBRANCH  18  23
BRANCH  20  26
ATOM     26  O   UNL A   1      39.393  21.958  25.401  1.00  0.00    -0.504 OA
ATOM     27  H   UNL A   1      39.708  21.079  25.318  1.00  0.00     0.293 HD
ENDBRANCH  20  26
ENDBRANCH  10  17
ENDBRANCH   8   9
BRANCH   8  28
ATOM     28  C   UNL A   1      33.175  25.358  22.221  1.00  0.00     0.034 C 
ATOM     29  C   UNL A   1      32.609  25.641  20.833  1.00  0.00     0.007 C 
ENDBRANCH   8  28
ENDBRANCH   6   8
ENDBRANCH   5   6
ENDBRANCH   4   5
ENDBRANCH   3   4
ENDBRANCH   2   3
ENDBRANCH   1   2
BRANCH   1  30
ATOM     30  C   UNL A   1      35.126  32.254  28.415  1.00  0.00     0.188 C 
BRANCH  30  31
ATOM     31  O   UNL A   1      33.893  32.845  28.060  1.00  0.00    -0.376 OA
BRANCH  31  32
ATOM     32  C   UNL A   1      33.776  34.256  28.147  1.00  0.00     0.202 C 
BRANCH  32  33
ATOM     33  C   UNL A   1      32.805  34.743  29.231  1.00  0.00     0.261 C 
BRANCH  33  34
ATOM     34  O   UNL A   1      33.381  35.577  30.257  1.00  0.00    -0.460 OA
BRANCH  34  35
ATOM     35  C   UNL A   1      33.331  35.131  31.543  1.00  0.00     0.338 C 
ATOM     36  O   UNL A   1      32.357  35.072  32.255  1.00  0.00    -0.246 OA
BRANCH  35  37
ATOM     37  C   UNL A   1      34.624  34.441  31.816  1.00  0.00     0.060 A 
ATOM     38  C   UNL A   1      34.607  33.066  32.109  1.00  0.00     0.016 A 
ATOM     39  C   UNL A   1      35.840  35.113  31.694  1.00  0.00     0.016 A 
ATOM     40  C   UNL A   1      35.805  32.372  32.310  1.00  0.00     0.010 A 
ATOM     41  C   UNL A   1      37.035  34.423  31.917  1.00  0.00     0.010 A 
ATOM     42  C   UNL A   1      37.027  33.056  32.255  1.00  0.00    -0.014 A 
BRANCH  42  43
ATOM     43  C   UNL A   1      38.277  32.415  32.738  1.00  0.00     0.031 A 
ATOM     44  C   UNL A   1      38.689  32.657  34.167  1.00  0.00     0.074 A 
ATOM     45  C   UNL A   1      39.045  31.646  31.943  1.00  0.00     0.049 A 
ATOM     46  N   UNL A   1      39.783  32.301  34.790  1.00  0.00    -0.248 NA
ATOM     47  C   UNL A   1      37.737  33.409  35.003  1.00  0.00     0.031 C 
ATOM     48  C   UNL A   1      38.742  31.283  30.559  1.00  0.00     0.029 A 
ATOM     49  N   UNL A   1      40.256  31.043  32.190  1.00  0.00    -0.354 N 
ATOM     50  C   UNL A   1      39.662  32.805  36.079  1.00  0.00     0.074 A 
ATOM     51  C   UNL A   1      38.400  33.508  36.146  1.00  0.00     0.031 C 
ATOM     52  C   UNL A   1      39.749  30.532  30.075  1.00  0.00     0.029 A 
ATOM     53  C   UNL A   1      40.788  30.399  31.097  1.00  0.00     0.049 A 
ATOM     54  H   UNL A   1      40.700  31.068  33.068  1.00  0.00     0.167 HD
ATOM     55  C   UNL A   1      40.524  32.695  37.118  1.00  0.00     0.031 A 
ATOM     56  C   UNL A   1      41.987  29.802  30.927  1.00  0.00     0.031 A 
ATOM     57  C   UNL A   1      41.783  32.003  37.053  1.00  0.00     0.049 A 
ATOM     58  C   UNL A   1      42.968  29.762  32.075  1.00  0.00     0.074 A 
ATOM     59  C   UNL A   1      42.713  31.818  38.062  1.00  0.00     0.029 A 
ATOM     60  N   UNL A   1      42.297  31.392  35.919  1.00  0.00    -0.354 N 
ATOM     61  N   UNL A   1      42.829  30.220  33.297  1.00  0.00    -0.248 NA
ATOM     62  C   UNL A   1      44.268  29.122  31.820  1.00  0.00     0.031 C 
ATOM     63  C   UNL A   1      43.820  31.158  37.520  1.00  0.00     0.029 A 
ATOM     64  C   UNL A   1      43.547  30.864  36.193  1.00  0.00     0.049 A 
ATOM     65  H   UNL A   1      41.840  31.343  35.049  1.00  0.00     0.167 HD
ATOM     66  C   UNL A   1      44.011  29.897  33.961  1.00  0.00     0.074 A 
ATOM     67  C   UNL A   1      44.845  29.192  33.012  1.00  0.00     0.031 C 
ATOM     68  C   UNL A   1      44.371  30.160  35.242  1.00  0.00     0.031 A 
BRANCH  55  69
ATOM     69  C   UNL A   1      40.156  33.383  38.406  1.00  0.00    -0.014 A 
ATOM     70  C   UNL A   1      40.662  34.654  38.732  1.00  0.00     0.010 A 
ATOM     71  C   UNL A   1      39.250  32.761  39.285  1.00  0.00     0.010 A 
ATOM     72  C   UNL A   1      40.295  35.274  39.929  1.00  0.00     0.020 A 
ATOM     73  C   UNL A   1      38.857  33.391  40.468  1.00  0.00     0.020 A 
ATOM     74  C   UNL A   1      39.394  34.639  40.790  1.00  0.00     0.054 A 
BRANCH  74  75
ATOM     75  S   UNL A   1      38.912  35.482  42.321  1.00  0.00     0.124 S 
ATOM     76  O   UNL A   1      39.766  34.825  43.308  1.00  0.00    -0.237 OA
ATOM     77  O   UNL A   1      39.240  36.876  42.035  1.00  0.00    -0.237 OA
ATOM     78  O   UNL A   1      37.485  35.193  42.443  1.00  0.00    -0.744 OA
ENDBRANCH  74  75
ENDBRANCH  55  69
BRANCH  56  79
ATOM     79  C   UNL A   1      42.355  29.222  29.603  1.00  0.00    -0.014 A 
ATOM     80  C   UNL A   1      42.160  27.855  29.332  1.00  0.00     0.010 A 
ATOM     81  C   UNL A   1      42.926  30.037  28.607  1.00  0.00     0.010 A 
ATOM     82  C   UNL A   1      42.545  27.313  28.102  1.00  0.00     0.020 A 
ATOM     83  C   UNL A   1      43.280  29.505  27.364  1.00  0.00     0.020 A 
ATOM     84  C   UNL A   1      43.099  28.143  27.123  1.00  0.00     0.054 A 
BRANCH  84  85
ATOM     85  S   UNL A   1      43.544  27.425  25.516  1.00  0.00     0.124 S 
ATOM     86  O   UNL A   1      42.473  27.917  24.656  1.00  0.00    -0.237 OA
ATOM     87  O   UNL A   1      44.866  27.998  25.273  1.00  0.00    -0.237 OA
ATOM     88  O   UNL A   1      43.533  25.987  25.770  1.00  0.00    -0.744 OA
ENDBRANCH  84  85
ENDBRANCH  56  79
BRANCH  68  89
ATOM     89  C   UNL A   1      45.710  29.653  35.719  1.00  0.00    -0.014 A 
ATOM     90  C   UNL A   1      45.879  28.330  36.162  1.00  0.00     0.010 A 
ATOM     91  C   UNL A   1      46.833  30.500  35.656  1.00  0.00     0.010 A 
ATOM     92  C   UNL A   1      47.140  27.871  36.557  1.00  0.00     0.020 A 
ATOM     93  C   UNL A   1      48.100  30.037  36.019  1.00  0.00     0.020 A 
ATOM     94  C   UNL A   1      48.244  28.727  36.481  1.00  0.00     0.054 A 
BRANCH  94  95
ATOM     95  S   UNL A   1      49.876  28.092  36.952  1.00  0.00     0.124 S 
ATOM     96  O   UNL A   1      49.815  26.712  36.480  1.00  0.00    -0.237 OA
ATOM     97  O   UNL A   1      50.785  28.969  36.217  1.00  0.00    -0.237 OA
ATOM     98  O   UNL A   1      49.905  28.251  38.405  1.00  0.00    -0.744 OA
ENDBRANCH  94  95
ENDBRANCH  68  89
ENDBRANCH  42  43
ENDBRANCH  35  37
ENDBRANCH  34  35
ENDBRANCH  33  34
ENDBRANCH  32  33
ENDBRANCH  31  32
ENDBRANCH  30  31
ENDBRANCH   1  30
TORSDOF 26
ENDMDL
MODEL 2
REMARK VINA RESULT:      -8.2      5.683     10.528
REMARK SMILES CCOc1cc(/C=C2/SC(=S)N([C@H](CC)C(=O)OCCOCCOCCOC(=O)c3ccc(-c4c5nc(c(-c6ccc(S(=O)(=O)[O-])cc6)c6ccc([nH]6)c(-c6ccc(S(=O)(=O)[O-])cc6)c6nc(c(-c7ccc(S(=O)(=O)[O-])cc7)c7ccc4[nH]7)C=C6)C=C5)cc3)C2=O)ccc1O
REMARK SMILES IDX 22 1 21 2 20 3 19 4 18 5 16 6 17 7 13 8 12 9 7 10 8 11 9 12
REMARK SMILES IDX 90 13 10 14 91 15 11 16 6 17 4 18 5 19 94 20 93 21 92 22
REMARK SMILES IDX 3 23 2 24 1 25 95 26 14 28 15 29 23 30 24 31 25 32 26 33
REMARK SMILES IDX 27 34 28 35 29 36 30 37 31 38 89 39 32 40 88 41 33 42 34 43
REMARK SMILES IDX 35 44 82 45 36 46 87 47 81 48 83 49 37 50 86 51 80 52 79 53
REMARK SMILES IDX 38 55 68 56 49 57 67 58 50 59 53 60 66 61 84 62 51 63 52 64
REMARK SMILES IDX 65 66 85 67 54 68 39 69 40 70 48 71 41 72 47 73 42 74 43 75
REMARK SMILES IDX 44 76 45 77 46 78 69 79 70 80 78 81 71 82 77 83 72 84 73 85
REMARK SMILES IDX 74 86 75 87 76 88 55 89 56 90 64 91 57 92 63 93 58 94 59 95
REMARK SMILES IDX 60 96 61 97 62 98
REMARK H PARENT 95 27 83 54 53 65
REMARK Flexibility Score: inf
ROOT
ATOM      1  C   UNL A   1      34.716  31.807  27.686  1.00  0.00     0.188 C 
ENDROOT
BRANCH   1   2
ATOM      2  O   UNL A   1      34.944  30.653  26.893  1.00  0.00    -0.376 OA
BRANCH   2   3
ATOM      3  C   UNL A   1      34.869  29.373  27.516  1.00  0.00     0.202 C 
BRANCH   3   4
ATOM      4  C   UNL A   1      34.303  28.202  26.700  1.00  0.00     0.261 C 
BRANCH   4   5
ATOM      5  O   UNL A   1      32.923  28.331  26.256  1.00  0.00    -0.462 OA
BRANCH   5   6
ATOM      6  C   UNL A   1      32.059  27.374  26.715  1.00  0.00     0.329 C 
ATOM      7  O   UNL A   1      31.268  27.543  27.639  1.00  0.00    -0.250 OA
BRANCH   6   8
ATOM      8  C   UNL A   1      32.277  25.972  26.093  1.00  0.00     0.201 C 
BRANCH   8   9
ATOM      9  N   UNL A   1      32.060  26.014  24.607  1.00  0.00    -0.278 N 
ATOM     10  C   UNL A   1      30.372  27.717  21.909  1.00  0.00     0.029 C 
ATOM     11  C   UNL A   1      31.024  26.792  22.629  1.00  0.00     0.081 C 
ATOM     12  S   UNL A   1      32.258  25.771  22.027  1.00  0.00    -0.054 SA
ATOM     13  C   UNL A   1      30.896  26.566  24.090  1.00  0.00     0.266 C 
ATOM     14  C   UNL A   1      32.926  25.516  23.649  1.00  0.00     0.149 C 
ATOM     15  O   UNL A   1      29.854  26.786  24.686  1.00  0.00    -0.268 OA
ATOM     16  S   UNL A   1      34.407  24.771  23.834  1.00  0.00    -0.052 S 
BRANCH  10  17
ATOM     17  C   UNL A   1      29.525  28.753  22.516  1.00  0.00    -0.020 A 
ATOM     18  C   UNL A   1      29.025  31.091  22.954  1.00  0.00     0.161 A 
ATOM     19  C   UNL A   1      29.911  30.100  22.515  1.00  0.00     0.058 A 
ATOM     20  C   UNL A   1      27.745  30.723  23.376  1.00  0.00     0.157 A 
ATOM     21  C   UNL A   1      27.375  29.384  23.448  1.00  0.00     0.051 A 
ATOM     22  C   UNL A   1      28.261  28.400  23.010  1.00  0.00     0.012 A 
BRANCH  18  23
ATOM     23  O   UNL A   1      29.434  32.383  22.764  1.00  0.00    -0.490 OA
BRANCH  23  24
ATOM     24  C   UNL A   1      29.832  33.106  23.933  1.00  0.00     0.226 C 
ATOM     25  C   UNL A   1      30.212  32.061  24.969  1.00  0.00     0.049 C 
ENDBRANCH  23  24
ENDBRANCH  18  23
BRANCH  20  26
ATOM     26  O   UNL A   1      26.762  31.637  23.627  1.00  0.00    -0.504 OA
ATOM     27  H   UNL A   1      26.686  32.022  24.478  1.00  0.00     0.293 HD
ENDBRANCH  20  26
ENDBRANCH  10  17
ENDBRANCH   8   9
BRANCH   8  28
ATOM     28  C   UNL A   1      31.659  24.746  26.802  1.00  0.00     0.034 C 
ATOM     29  C   UNL A   1      31.494  23.488  25.954  1.00  0.00     0.007 C 
ENDBRANCH   8  28
ENDBRANCH   6   8
ENDBRANCH   5   6
ENDBRANCH   4   5
ENDBRANCH   3   4
ENDBRANCH   2   3
ENDBRANCH   1   2
BRANCH   1  30
ATOM     30  C   UNL A   1      35.651  32.038  28.867  1.00  0.00     0.188 C 
BRANCH  30  31
ATOM     31  O   UNL A   1      35.326  33.180  29.635  1.00  0.00    -0.376 OA
BRANCH  31  32
ATOM     32  C   UNL A   1      35.603  33.153  31.025  1.00  0.00     0.202 C 
BRANCH  32  33
ATOM     33  C   UNL A   1      37.022  32.686  31.377  1.00  0.00     0.261 C 
BRANCH  33  34
ATOM     34  O   UNL A   1      37.105  31.584  32.305  1.00  0.00    -0.460 OA
BRANCH  34  35
ATOM     35  C   UNL A   1      37.176  30.324  31.792  1.00  0.00     0.338 C 
ATOM     36  O   UNL A   1      36.263  29.546  31.646  1.00  0.00    -0.246 OA
BRANCH  35  37
ATOM     37  C   UNL A   1      38.519  30.186  31.159  1.00  0.00     0.060 A 
ATOM     38  C   UNL A   1      38.624  30.315  29.764  1.00  0.00     0.016 A 
ATOM     39  C   UNL A   1      39.668  30.026  31.933  1.00  0.00     0.016 A 
ATOM     40  C   UNL A   1      39.875  30.252  29.141  1.00  0.00     0.010 A 
ATOM     41  C   UNL A   1      40.915  29.942  31.307  1.00  0.00     0.010 A 
ATOM     42  C   UNL A   1      41.026  30.025  29.907  1.00  0.00    -0.014 A 
BRANCH  42  43
ATOM     43  C   UNL A   1      42.314  29.674  29.253  1.00  0.00     0.031 A 
ATOM     44  C   UNL A   1      42.476  28.276  28.715  1.00  0.00     0.074 A 
ATOM     45  C   UNL A   1      43.327  30.554  29.142  1.00  0.00     0.049 A 
ATOM     46  N   UNL A   1      43.532  27.698  28.203  1.00  0.00    -0.248 NA
ATOM     47  C   UNL A   1      41.283  27.413  28.768  1.00  0.00     0.031 C 
ATOM     48  C   UNL A   1      43.291  31.952  29.568  1.00  0.00     0.029 A 
ATOM     49  N   UNL A   1      44.598  30.387  28.645  1.00  0.00    -0.354 N 
ATOM     50  C   UNL A   1      43.139  26.401  27.897  1.00  0.00     0.074 A 
ATOM     51  C   UNL A   1      41.756  26.269  28.298  1.00  0.00     0.031 C 
ATOM     52  C   UNL A   1      44.491  32.512  29.328  1.00  0.00     0.029 A 
ATOM     53  C   UNL A   1      45.394  31.502  28.775  1.00  0.00     0.049 A 
ATOM     54  H   UNL A   1      44.910  29.549  28.235  1.00  0.00     0.167 HD
ATOM     55  C   UNL A   1      43.864  25.405  27.334  1.00  0.00     0.031 A 
ATOM     56  C   UNL A   1      46.707  31.680  28.511  1.00  0.00     0.031 A 
ATOM     57  C   UNL A   1      45.242  25.532  26.941  1.00  0.00     0.049 A 
ATOM     58  C   UNL A   1      47.517  30.531  27.960  1.00  0.00     0.074 A 
ATOM     59  C   UNL A   1      46.052  24.584  26.339  1.00  0.00     0.029 A 
ATOM     60  N   UNL A   1      46.018  26.667  27.118  1.00  0.00    -0.354 N 
ATOM     61  N   UNL A   1      47.126  29.316  27.650  1.00  0.00    -0.248 NA
ATOM     62  C   UNL A   1      48.948  30.777  27.719  1.00  0.00     0.031 C 
ATOM     63  C   UNL A   1      47.337  25.122  26.219  1.00  0.00     0.029 A 
ATOM     64  C   UNL A   1      47.307  26.430  26.673  1.00  0.00     0.049 A 
ATOM     65  H   UNL A   1      45.698  27.514  27.504  1.00  0.00     0.167 HD
ATOM     66  C   UNL A   1      48.254  28.667  27.153  1.00  0.00     0.074 A 
ATOM     67  C   UNL A   1      49.337  29.626  27.187  1.00  0.00     0.031 C 
ATOM     68  C   UNL A   1      48.381  27.392  26.708  1.00  0.00     0.031 A 
BRANCH  55  69
ATOM     69  C   UNL A   1      43.192  24.070  27.152  1.00  0.00    -0.014 A 
ATOM     70  C   UNL A   1      43.179  23.108  28.178  1.00  0.00     0.010 A 
ATOM     71  C   UNL A   1      42.523  23.793  25.946  1.00  0.00     0.010 A 
ATOM     72  C   UNL A   1      42.538  21.880  27.987  1.00  0.00     0.020 A 
ATOM     73  C   UNL A   1      41.855  22.580  25.762  1.00  0.00     0.020 A 
ATOM     74  C   UNL A   1      41.879  21.624  26.779  1.00  0.00     0.054 A 
BRANCH  74  75
ATOM     75  S   UNL A   1      41.030  20.036  26.572  1.00  0.00     0.124 S 
ATOM     76  O   UNL A   1      39.783  20.445  25.929  1.00  0.00    -0.237 OA
ATOM     77  O   UNL A   1      41.956  19.287  25.727  1.00  0.00    -0.237 OA
ATOM     78  O   UNL A   1      40.891  19.535  27.936  1.00  0.00    -0.744 OA
ENDBRANCH  74  75
ENDBRANCH  55  69
BRANCH  56  79
ATOM     79  C   UNL A   1      47.360  32.989  28.802  1.00  0.00    -0.014 A 
ATOM     80  C   UNL A   1      47.443  33.990  27.817  1.00  0.00     0.010 A 
ATOM     81  C   UNL A   1      47.924  33.233  30.068  1.00  0.00     0.010 A 
ATOM     82  C   UNL A   1      48.092  35.200  28.087  1.00  0.00     0.020 A 
ATOM     83  C   UNL A   1      48.544  34.454  30.352  1.00  0.00     0.020 A 
ATOM     84  C   UNL A   1      48.635  35.425  29.355  1.00  0.00     0.054 A 
BRANCH  84  85
ATOM     85  S   UNL A   1      49.428  37.022  29.696  1.00  0.00     0.124 S 
ATOM     86  O   UNL A   1      50.464  36.650  30.652  1.00  0.00    -0.237 OA
ATOM     87  O   UNL A   1      49.901  37.425  28.373  1.00  0.00    -0.237 OA
ATOM     88  O   UNL A   1      48.341  37.836  30.234  1.00  0.00    -0.744 OA
ENDBRANCH  84  85
ENDBRANCH  56  79
BRANCH  68  89
ATOM     89  C   UNL A   1      49.725  26.958  26.180  1.00  0.00    -0.014 A 
ATOM     90  C   UNL A   1      50.654  26.289  26.996  1.00  0.00     0.010 A 
ATOM     91  C   UNL A   1      50.034  27.162  24.821  1.00  0.00     0.010 A 
ATOM     92  C   UNL A   1      51.876  25.856  26.470  1.00  0.00     0.020 A 
ATOM     93  C   UNL A   1      51.240  26.704  24.284  1.00  0.00     0.020 A 
ATOM     94  C   UNL A   1      52.161  26.065  25.116  1.00  0.00     0.054 A 
BRANCH  94  95
ATOM     95  S   UNL A   1      53.732  25.450  24.449  1.00  0.00     0.124 S 
ATOM     96  O   UNL A   1      54.710  26.196  25.235  1.00  0.00    -0.237 OA
ATOM     97  O   UNL A   1      53.660  24.017  24.730  1.00  0.00    -0.237 OA
ATOM     98  O   UNL A   1      53.671  25.805  23.033  1.00  0.00    -0.744 OA
ENDBRANCH  94  95
ENDBRANCH  68  89
ENDBRANCH  42  43
ENDBRANCH  35  37
ENDBRANCH  34  35
ENDBRANCH  33  34
ENDBRANCH  32  33
ENDBRANCH  31  32
ENDBRANCH  30  31
ENDBRANCH   1  30
TORSDOF 26
ENDMDL
MODEL 3
REMARK VINA RESULT:      -7.8      4.512     12.305
REMARK SMILES CCOc1cc(/C=C2/SC(=S)N([C@H](CC)C(=O)OCCOCCOCCOC(=O)c3ccc(-c4c5nc(c(-c6ccc(S(=O)(=O)[O-])cc6)c6ccc([nH]6)c(-c6ccc(S(=O)(=O)[O-])cc6)c6nc(c(-c7ccc(S(=O)(=O)[O-])cc7)c7ccc4[nH]7)C=C6)C=C5)cc3)C2=O)ccc1O
REMARK SMILES IDX 22 1 21 2 20 3 19 4 18 5 16 6 17 7 13 8 12 9 7 10 8 11 9 12
REMARK SMILES IDX 90 13 10 14 91 15 11 16 6 17 4 18 5 19 94 20 93 21 92 22
REMARK SMILES IDX 3 23 2 24 1 25 95 26 14 28 15 29 23 30 24 31 25 32 26 33
REMARK SMILES IDX 27 34 28 35 29 36 30 37 31 38 89 39 32 40 88 41 33 42 34 43
REMARK SMILES IDX 35 44 82 45 36 46 87 47 81 48 83 49 37 50 86 51 80 52 79 53
REMARK SMILES IDX 38 55 68 56 49 57 67 58 50 59 53 60 66 61 84 62 51 63 52 64
REMARK SMILES IDX 65 66 85 67 54 68 39 69 40 70 48 71 41 72 47 73 42 74 43 75
REMARK SMILES IDX 44 76 45 77 46 78 69 79 70 80 78 81 71 82 77 83 72 84 73 85
REMARK SMILES IDX 74 86 75 87 76 88 55 89 56 90 64 91 57 92 63 93 58 94 59 95
REMARK SMILES IDX 60 96 61 97 62 98
REMARK H PARENT 95 27 83 54 53 65
REMARK Flexibility Score: inf
ROOT
ATOM      1  C   UNL A   1      46.672  25.883  25.024  1.00  0.00     0.188 C 
ENDROOT
BRANCH   1   2
ATOM      2  O   UNL A   1      47.434  26.290  23.899  1.00  0.00    -0.376 OA
BRANCH   2   3
ATOM      3  C   UNL A   1      48.436  27.287  24.079  1.00  0.00     0.202 C 
BRANCH   3   4
ATOM      4  C   UNL A   1      48.922  27.578  25.506  1.00  0.00     0.261 C 
BRANCH   4   5
ATOM      5  O   UNL A   1      49.304  28.953  25.792  1.00  0.00    -0.462 OA
BRANCH   5   6
ATOM      6  C   UNL A   1      50.623  29.152  26.097  1.00  0.00     0.329 C 
ATOM      7  O   UNL A   1      51.551  28.527  25.591  1.00  0.00    -0.250 OA
BRANCH   6   8
ATOM      8  C   UNL A   1      50.861  30.118  27.283  1.00  0.00     0.201 C 
BRANCH   8   9
ATOM      9  N   UNL A   1      50.293  29.547  28.552  1.00  0.00    -0.278 N 
ATOM     10  C   UNL A   1      47.271  28.547  30.253  1.00  0.00     0.029 C 
ATOM     11  C   UNL A   1      48.533  28.926  30.004  1.00  0.00     0.081 C 
ATOM     12  S   UNL A   1      49.916  28.325  30.814  1.00  0.00    -0.054 SA
ATOM     13  C   UNL A   1      48.981  29.823  28.911  1.00  0.00     0.266 C 
ATOM     14  C   UNL A   1      50.975  28.758  29.461  1.00  0.00     0.149 C 
ATOM     15  O   UNL A   1      48.268  30.716  28.479  1.00  0.00    -0.268 OA
ATOM     16  S   UNL A   1      52.549  28.207  29.424  1.00  0.00    -0.052 S 
BRANCH  10  17
ATOM     17  C   UNL A   1      46.148  28.870  29.362  1.00  0.00    -0.020 A 
ATOM     18  C   UNL A   1      44.250  30.267  28.767  1.00  0.00     0.161 A 
ATOM     19  C   UNL A   1      45.218  29.863  29.695  1.00  0.00     0.058 A 
ATOM     20  C   UNL A   1      44.234  29.680  27.499  1.00  0.00     0.157 A 
ATOM     21  C   UNL A   1      45.106  28.645  27.182  1.00  0.00     0.051 A 
ATOM     22  C   UNL A   1      46.069  28.245  28.109  1.00  0.00     0.012 A 
BRANCH  18  23
ATOM     23  O   UNL A   1      43.495  31.350  29.127  1.00  0.00    -0.490 OA
BRANCH  23  24
ATOM     24  C   UNL A   1      44.209  32.523  29.528  1.00  0.00     0.226 C 
ATOM     25  C   UNL A   1      44.316  33.398  28.290  1.00  0.00     0.049 C 
ENDBRANCH  23  24
ENDBRANCH  18  23
BRANCH  20  26
ATOM     26  O   UNL A   1      43.459  30.154  26.480  1.00  0.00    -0.504 OA
ATOM     27  H   UNL A   1      42.799  30.796  26.652  1.00  0.00     0.293 HD
ENDBRANCH  20  26
ENDBRANCH  10  17
ENDBRANCH   8   9
BRANCH   8  28
ATOM     28  C   UNL A   1      50.591  31.625  27.074  1.00  0.00     0.034 C 
ATOM     29  C   UNL A   1      51.068  32.219  25.753  1.00  0.00     0.007 C 
ENDBRANCH   8  28
ENDBRANCH   6   8
ENDBRANCH   5   6
ENDBRANCH   4   5
ENDBRANCH   3   4
ENDBRANCH   2   3
ENDBRANCH   1   2
BRANCH   1  30
ATOM     30  C   UNL A   1      46.437  24.388  25.205  1.00  0.00     0.188 C 
BRANCH  30  31
ATOM     31  O   UNL A   1      46.366  23.673  23.988  1.00  0.00    -0.376 OA
BRANCH  31  32
ATOM     32  C   UNL A   1      45.773  22.385  24.002  1.00  0.00     0.202 C 
BRANCH  32  33
ATOM     33  C   UNL A   1      44.668  22.210  25.054  1.00  0.00     0.261 C 
BRANCH  33  34
ATOM     34  O   UNL A   1      43.344  22.602  24.638  1.00  0.00    -0.460 OA
BRANCH  34  35
ATOM     35  C   UNL A   1      42.324  22.438  25.527  1.00  0.00     0.338 C 
ATOM     36  O   UNL A   1      41.591  21.482  25.624  1.00  0.00    -0.246 OA
BRANCH  35  37
ATOM     37  C   UNL A   1      42.466  23.507  26.557  1.00  0.00     0.060 A 
ATOM     38  C   UNL A   1      42.211  23.187  27.901  1.00  0.00     0.016 A 
ATOM     39  C   UNL A   1      42.932  24.776  26.217  1.00  0.00     0.016 A 
ATOM     40  C   UNL A   1      42.393  24.147  28.902  1.00  0.00     0.010 A 
ATOM     41  C   UNL A   1      43.092  25.742  27.217  1.00  0.00     0.010 A 
ATOM     42  C   UNL A   1      42.797  25.445  28.560  1.00  0.00    -0.014 A 
BRANCH  42  43
ATOM     43  C   UNL A   1      42.724  26.548  29.554  1.00  0.00     0.031 A 
ATOM     44  C   UNL A   1      43.748  26.573  30.658  1.00  0.00     0.074 A 
ATOM     45  C   UNL A   1      41.774  27.501  29.501  1.00  0.00     0.049 A 
ATOM     46  N   UNL A   1      43.831  27.361  31.699  1.00  0.00    -0.248 NA
ATOM     47  C   UNL A   1      44.821  25.567  30.578  1.00  0.00     0.031 C 
ATOM     48  C   UNL A   1      40.756  27.631  28.461  1.00  0.00     0.029 A 
ATOM     49  N   UNL A   1      41.508  28.539  30.363  1.00  0.00    -0.354 N 
ATOM     50  C   UNL A   1      44.946  26.932  32.408  1.00  0.00     0.074 A 
ATOM     51  C   UNL A   1      45.497  25.802  31.692  1.00  0.00     0.031 C 
ATOM     52  C   UNL A   1      39.964  28.680  28.755  1.00  0.00     0.029 A 
ATOM     53  C   UNL A   1      40.391  29.267  30.025  1.00  0.00     0.049 A 
ATOM     54  H   UNL A   1      42.065  28.741  31.149  1.00  0.00     0.167 HD
ATOM     55  C   UNL A   1      45.467  27.430  33.554  1.00  0.00     0.031 A 
ATOM     56  C   UNL A   1      39.765  30.269  30.679  1.00  0.00     0.031 A 
ATOM     57  C   UNL A   1      44.917  28.549  34.272  1.00  0.00     0.049 A 
ATOM     58  C   UNL A   1      40.316  30.755  31.999  1.00  0.00     0.074 A 
ATOM     59  C   UNL A   1      45.391  29.141  35.430  1.00  0.00     0.029 A 
ATOM     60  N   UNL A   1      43.769  29.238  33.912  1.00  0.00    -0.354 N 
ATOM     61  N   UNL A   1      41.387  30.357  32.644  1.00  0.00    -0.248 NA
ATOM     62  C   UNL A   1      39.574  31.830  32.677  1.00  0.00     0.031 C 
ATOM     63  C   UNL A   1      44.490  30.140  35.809  1.00  0.00     0.029 A 
ATOM     64  C   UNL A   1      43.497  30.223  34.846  1.00  0.00     0.049 A 
ATOM     65  H   UNL A   1      43.228  29.052  33.111  1.00  0.00     0.167 HD
ATOM     66  C   UNL A   1      41.461  31.151  33.787  1.00  0.00     0.074 A 
ATOM     67  C   UNL A   1      40.337  32.062  33.736  1.00  0.00     0.031 C 
ATOM     68  C   UNL A   1      42.377  31.129  34.787  1.00  0.00     0.031 A 
BRANCH  55  69
ATOM     69  C   UNL A   1      46.672  26.737  34.133  1.00  0.00    -0.014 A 
ATOM     70  C   UNL A   1      46.556  25.522  34.832  1.00  0.00     0.010 A 
ATOM     71  C   UNL A   1      47.949  27.291  33.933  1.00  0.00     0.010 A 
ATOM     72  C   UNL A   1      47.692  24.893  35.349  1.00  0.00     0.020 A 
ATOM     73  C   UNL A   1      49.090  26.651  34.421  1.00  0.00     0.020 A 
ATOM     74  C   UNL A   1      48.953  25.462  35.140  1.00  0.00     0.054 A 
BRANCH  74  75
ATOM     75  S   UNL A   1      50.411  24.608  35.795  1.00  0.00     0.124 S 
ATOM     76  O   UNL A   1      50.301  23.296  35.161  1.00  0.00    -0.237 OA
ATOM     77  O   UNL A   1      51.511  25.445  35.322  1.00  0.00    -0.237 OA
ATOM     78  O   UNL A   1      50.202  24.620  37.241  1.00  0.00    -0.744 OA
ENDBRANCH  74  75
ENDBRANCH  55  69
BRANCH  56  79
ATOM     79  C   UNL A   1      38.514  30.861  30.122  1.00  0.00    -0.014 A 
ATOM     80  C   UNL A   1      38.541  32.080  29.421  1.00  0.00     0.010 A 
ATOM     81  C   UNL A   1      37.278  30.214  30.312  1.00  0.00     0.010 A 
ATOM     82  C   UNL A   1      37.357  32.647  28.937  1.00  0.00     0.020 A 
ATOM     83  C   UNL A   1      36.098  30.761  29.801  1.00  0.00     0.020 A 
ATOM     84  C   UNL A   1      36.143  31.981  29.127  1.00  0.00     0.054 A 
BRANCH  84  85
ATOM     85  S   UNL A   1      34.628  32.713  28.446  1.00  0.00     0.124 S 
ATOM     86  O   UNL A   1      33.974  31.556  27.845  1.00  0.00    -0.237 OA
ATOM     87  O   UNL A   1      33.981  33.258  29.637  1.00  0.00    -0.237 OA
ATOM     88  O   UNL A   1      35.125  33.712  27.503  1.00  0.00    -0.744 OA
ENDBRANCH  84  85
ENDBRANCH  56  79
BRANCH  68  89
ATOM     89  C   UNL A   1      42.239  32.141  35.897  1.00  0.00    -0.014 A 
ATOM     90  C   UNL A   1      42.934  33.363  35.868  1.00  0.00     0.010 A 
ATOM     91  C   UNL A   1      41.341  31.892  36.953  1.00  0.00     0.010 A 
ATOM     92  C   UNL A   1      42.754  34.303  36.887  1.00  0.00     0.020 A 
ATOM     93  C   UNL A   1      41.134  32.842  37.956  1.00  0.00     0.020 A 
ATOM     94  C   UNL A   1      41.853  34.038  37.924  1.00  0.00     0.054 A 
BRANCH  94  95
ATOM     95  S   UNL A   1      41.602  35.297  39.207  1.00  0.00     0.124 S 
ATOM     96  O   UNL A   1      40.163  35.213  39.439  1.00  0.00    -0.237 OA
ATOM     97  O   UNL A   1      42.444  34.813  40.298  1.00  0.00    -0.237 OA
ATOM     98  O   UNL A   1      42.059  36.532  38.574  1.00  0.00    -0.744 OA
ENDBRANCH  94  95
ENDBRANCH  68  89
ENDBRANCH  42  43
ENDBRANCH  35  37
ENDBRANCH  34  35
ENDBRANCH  33  34
ENDBRANCH  32  33
ENDBRANCH  31  32
ENDBRANCH  30  31
ENDBRANCH   1  30
TORSDOF 26
ENDMDL
