MODEL 1
REMARK VINA RESULT:      -9.3      0.000      0.000
REMARK SMILES O=C(CCn1cc(/C=C\C(=O)c2ccc(F)cc2)c(-c2cccc(Cl)c2)n1)OCCOCCOCCOC(=O)c1ccc(-c2c3nc(c(-c4ccc(S(=O)(=O)[O-])cc4)c4ccc([nH]4)c(-c4ccc(S(=O)(=O)[O-])cc4)c4nc(c(-c5ccc(S(=O)(=O)[O-])cc5)c5ccc2[nH]5)C=C4)C=C3)cc1
REMARK SMILES IDX 32 1 31 2 30 3 29 4 28 5 2 6 1 7 3 8 4 9 5 10 6 11 27 12
REMARK SMILES IDX 7 13 19 14 8 15 9 16 10 17 11 18 12 19 13 20 18 21 14 22
REMARK SMILES IDX 17 23 15 24 16 25 20 26 21 27 26 28 22 29 24 30 23 31 25 32
REMARK SMILES IDX 33 33 34 34 35 35 36 36 37 37 38 38 39 39 40 40 41 41 99 42
REMARK SMILES IDX 42 43 98 44 43 45 44 46 45 47 92 48 46 49 97 50 91 51 93 52
REMARK SMILES IDX 47 53 96 54 90 55 89 56 48 58 78 59 59 60 77 61 60 62 63 63
REMARK SMILES IDX 76 64 94 65 61 66 62 67 75 69 95 70 64 71 49 72 50 73 58 74
REMARK SMILES IDX 51 75 57 76 52 77 53 78 54 79 55 80 56 81 79 82 80 83 88 84
REMARK SMILES IDX 81 85 87 86 82 87 83 88 84 89 85 90 86 91 65 92 66 93 74 94
REMARK SMILES IDX 67 95 73 96 68 97 69 98 70 99 71 100 72 101
REMARK H PARENT 93 57 63 68
REMARK Flexibility Score: inf
ROOT
ATOM      1  C   UNL A   1      42.397  39.773  27.936  1.00  0.00     0.188 C 
ENDROOT
BRANCH   1   2
ATOM      2  O   UNL A   1      42.686  40.130  29.261  1.00  0.00    -0.376 OA
BRANCH   2   3
ATOM      3  C   UNL A   1      43.294  41.380  29.517  1.00  0.00     0.202 C 
BRANCH   3   4
ATOM      4  C   UNL A   1      44.823  41.540  29.678  1.00  0.00     0.261 C 
BRANCH   4   5
ATOM      5  O   UNL A   1      45.495  42.545  28.915  1.00  0.00    -0.463 OA
BRANCH   5   6
ATOM      6  C   UNL A   1      46.350  42.321  27.905  1.00  0.00     0.307 C 
ATOM      7  O   UNL A   1      46.330  41.231  27.334  1.00  0.00    -0.252 OA
BRANCH   6   8
ATOM      8  C   UNL A   1      47.379  43.353  27.537  1.00  0.00     0.146 C 
BRANCH   8   9
ATOM      9  C   UNL A   1      46.882  44.628  26.861  1.00  0.00     0.156 C 
BRANCH   9  10
ATOM     10  N   UNL A   1      46.124  44.545  25.621  1.00  0.00    -0.271 N 
ATOM     11  C   UNL A   1      44.810  44.190  25.488  1.00  0.00     0.117 A 
ATOM     12  N   UNL A   1      46.715  44.720  24.428  1.00  0.00    -0.172 NA
ATOM     13  C   UNL A   1      44.503  44.306  24.143  1.00  0.00     0.021 A 
ATOM     14  C   UNL A   1      45.718  44.780  23.530  1.00  0.00     0.100 A 
BRANCH  13  15
ATOM     15  C   UNL A   1      43.202  44.005  23.610  1.00  0.00     0.016 C 
ATOM     16  C   UNL A   1      42.774  43.417  22.472  1.00  0.00     0.053 C 
BRANCH  16  17
ATOM     17  C   UNL A   1      43.398  42.833  21.216  1.00  0.00     0.185 C 
ATOM     18  O   UNL A   1      44.355  42.075  21.327  1.00  0.00    -0.289 OA
BRANCH  17  19
ATOM     19  C   UNL A   1      42.855  43.279  19.856  1.00  0.00     0.022 A 
ATOM     20  C   UNL A   1      44.267  44.199  19.154  1.00  0.00     0.015 A 
ATOM     21  C   UNL A   1      41.060  43.569  18.948  1.00  0.00     0.015 A 
ATOM     22  C   UNL A   1      43.964  45.333  17.819  1.00  0.00     0.040 A 
ATOM     23  C   UNL A   1      40.941  44.724  17.607  1.00  0.00     0.040 A 
ATOM     24  C   UNL A   1      42.364  45.571  17.112  1.00  0.00     0.123 A 
ATOM     25  F   UNL A   1      42.247  46.405  16.068  1.00  0.00    -0.207 F 
ENDBRANCH  17  19
ENDBRANCH  16  17
ENDBRANCH  13  15
BRANCH  14  26
ATOM     26  C   UNL A   1      45.827  45.355  22.061  1.00  0.00     0.004 A 
ATOM     27  C   UNL A   1      45.569  47.171  21.170  1.00  0.00     0.010 A 
ATOM     28  C   UNL A   1      47.193  44.336  21.400  1.00  0.00     0.031 A 
ATOM     29  C   UNL A   1      46.712  47.693  19.891  1.00  0.00     0.002 A 
ATOM     30  C   UNL A   1      48.233  45.008  20.144  1.00  0.00     0.041 A 
ATOM     31  C   UNL A   1      48.000  46.611  19.437  1.00  0.00     0.020 A 
ATOM     32  Cl  UNL A   1      49.457  44.002  19.459  1.00  0.00    -0.084 Cl
ENDBRANCH  14  26
ENDBRANCH   9  10
ENDBRANCH   8   9
ENDBRANCH   6   8
ENDBRANCH   5   6
ENDBRANCH   4   5
ENDBRANCH   3   4
ENDBRANCH   2   3
ENDBRANCH   1   2
BRANCH   1  33
ATOM     33  C   UNL A   1      43.360  38.822  27.225  1.00  0.00     0.188 C 
BRANCH  33  34
ATOM     34  O   UNL A   1      44.566  38.494  27.887  1.00  0.00    -0.376 OA
BRANCH  34  35
ATOM     35  C   UNL A   1      45.431  37.449  27.445  1.00  0.00     0.202 C 
BRANCH  35  36
ATOM     36  C   UNL A   1      46.391  36.652  28.334  1.00  0.00     0.261 C 
BRANCH  36  37
ATOM     37  O   UNL A   1      46.375  36.975  29.716  1.00  0.00    -0.460 OA
BRANCH  37  38
ATOM     38  C   UNL A   1      45.879  35.951  30.441  1.00  0.00     0.338 C 
ATOM     39  O   UNL A   1      46.380  34.838  30.546  1.00  0.00    -0.246 OA
BRANCH  38  40
ATOM     40  C   UNL A   1      44.574  36.247  31.036  1.00  0.00     0.060 A 
ATOM     41  C   UNL A   1      44.620  36.218  32.426  1.00  0.00     0.016 A 
ATOM     42  C   UNL A   1      43.457  35.787  30.340  1.00  0.00     0.016 A 
ATOM     43  C   UNL A   1      43.823  35.282  33.056  1.00  0.00     0.010 A 
ATOM     44  C   UNL A   1      42.563  34.979  31.017  1.00  0.00     0.010 A 
ATOM     45  C   UNL A   1      42.865  34.559  32.314  1.00  0.00    -0.014 A 
BRANCH  45  46
ATOM     46  C   UNL A   1      41.898  33.701  33.018  1.00  0.00     0.031 A 
ATOM     47  C   UNL A   1      42.381  32.306  32.775  1.00  0.00     0.074 A 
ATOM     48  C   UNL A   1      40.814  34.069  33.766  1.00  0.00     0.049 A 
ATOM     49  N   UNL A   1      42.015  31.587  31.762  1.00  0.00    -0.248 NA
ATOM     50  C   UNL A   1      43.647  31.826  33.376  1.00  0.00     0.031 C 
ATOM     51  C   UNL A   1      40.305  35.399  34.134  1.00  0.00     0.029 A 
ATOM     52  N   UNL A   1      39.882  33.259  34.397  1.00  0.00    -0.354 N 
ATOM     53  C   UNL A   1      42.728  30.405  31.878  1.00  0.00     0.074 A 
ATOM     54  C   UNL A   1      43.888  30.725  32.656  1.00  0.00     0.031 C 
ATOM     55  C   UNL A   1      39.357  35.301  35.113  1.00  0.00     0.029 A 
ATOM     56  C   UNL A   1      39.054  33.901  35.360  1.00  0.00     0.049 A 
ATOM     57  H   UNL A   1      39.799  32.300  34.191  1.00  0.00     0.167 HD
ATOM     58  C   UNL A   1      42.060  29.231  31.711  1.00  0.00     0.031 A 
ATOM     59  C   UNL A   1      38.118  33.326  36.201  1.00  0.00     0.031 A 
ATOM     60  C   UNL A   1      40.797  29.479  31.054  1.00  0.00     0.049 A 
ATOM     61  C   UNL A   1      37.749  32.026  35.582  1.00  0.00     0.074 A 
ATOM     62  C   UNL A   1      40.406  30.018  29.845  1.00  0.00     0.029 A 
ATOM     63  N   UNL A   1      39.739  29.622  31.916  1.00  0.00    -0.354 N 
ATOM     64  N   UNL A   1      37.100  31.965  34.452  1.00  0.00    -0.248 NA
ATOM     65  C   UNL A   1      38.622  30.907  35.892  1.00  0.00     0.031 C 
ATOM     66  C   UNL A   1      39.265  30.818  30.147  1.00  0.00     0.029 A 
ATOM     67  C   UNL A   1      38.904  30.608  31.477  1.00  0.00     0.049 A 
ATOM     68  H   UNL A   1      39.602  29.091  32.733  1.00  0.00     0.167 HD
ATOM     69  C   UNL A   1      37.859  31.096  33.688  1.00  0.00     0.074 A 
ATOM     70  C   UNL A   1      38.786  30.465  34.640  1.00  0.00     0.031 C 
ATOM     71  C   UNL A   1      37.911  31.224  32.328  1.00  0.00     0.031 A 
BRANCH  58  72
ATOM     72  C   UNL A   1      42.240  28.047  32.639  1.00  0.00    -0.014 A 
ATOM     73  C   UNL A   1      41.417  27.989  33.783  1.00  0.00     0.010 A 
ATOM     74  C   UNL A   1      43.340  27.162  32.604  1.00  0.00     0.010 A 
ATOM     75  C   UNL A   1      41.695  27.120  34.843  1.00  0.00     0.020 A 
ATOM     76  C   UNL A   1      43.608  26.267  33.644  1.00  0.00     0.020 A 
ATOM     77  C   UNL A   1      42.784  26.256  34.761  1.00  0.00     0.054 A 
BRANCH  77  78
ATOM     78  S   UNL A   1      43.090  25.108  36.125  1.00  0.00     0.124 S 
ATOM     79  O   UNL A   1      42.011  25.435  37.051  1.00  0.00    -0.237 OA
ATOM     80  O   UNL A   1      42.982  23.814  35.457  1.00  0.00    -0.237 OA
ATOM     81  O   UNL A   1      44.435  25.460  36.574  1.00  0.00    -0.744 OA
ENDBRANCH  77  78
ENDBRANCH  58  72
BRANCH  59  82
ATOM     82  C   UNL A   1      37.822  33.547  37.670  1.00  0.00    -0.014 A 
ATOM     83  C   UNL A   1      36.969  32.704  38.445  1.00  0.00     0.010 A 
ATOM     84  C   UNL A   1      38.662  34.402  38.398  1.00  0.00     0.010 A 
ATOM     85  C   UNL A   1      37.014  32.685  39.869  1.00  0.00     0.020 A 
ATOM     86  C   UNL A   1      38.719  34.381  39.805  1.00  0.00     0.020 A 
ATOM     87  C   UNL A   1      37.917  33.510  40.540  1.00  0.00     0.054 A 
BRANCH  87  88
ATOM     88  S   UNL A   1      38.158  33.375  42.351  1.00  0.00     0.124 S 
ATOM     89  O   UNL A   1      37.045  32.524  42.762  1.00  0.00    -0.237 OA
ATOM     90  O   UNL A   1      39.484  32.775  42.462  1.00  0.00    -0.237 OA
ATOM     91  O   UNL A   1      38.072  34.761  42.811  1.00  0.00    -0.744 OA
ENDBRANCH  87  88
ENDBRANCH  59  82
BRANCH  71  92
ATOM     92  C   UNL A   1      36.898  32.100  31.632  1.00  0.00    -0.014 A 
ATOM     93  C   UNL A   1      36.837  33.510  31.673  1.00  0.00     0.010 A 
ATOM     94  C   UNL A   1      36.039  31.419  30.756  1.00  0.00     0.010 A 
ATOM     95  C   UNL A   1      35.898  34.202  30.881  1.00  0.00     0.020 A 
ATOM     96  C   UNL A   1      35.128  32.097  29.954  1.00  0.00     0.020 A 
ATOM     97  C   UNL A   1      35.042  33.483  30.036  1.00  0.00     0.054 A 
BRANCH  97  98
ATOM     98  S   UNL A   1      33.794  34.347  29.041  1.00  0.00     0.124 S 
ATOM     99  O   UNL A   1      33.333  33.300  28.134  1.00  0.00    -0.237 OA
ATOM    100  O   UNL A   1      32.826  34.787  30.042  1.00  0.00    -0.237 OA
ATOM    101  O   UNL A   1      34.545  35.428  28.402  1.00  0.00    -0.744 OA
ENDBRANCH  97  98
ENDBRANCH  71  92
ENDBRANCH  45  46
ENDBRANCH  38  40
ENDBRANCH  37  38
ENDBRANCH  36  37
ENDBRANCH  35  36
ENDBRANCH  34  35
ENDBRANCH  33  34
ENDBRANCH   1  33
TORSDOF 26
ENDMDL
MODEL 2
REMARK VINA RESULT:      -9.1      2.358      3.812
REMARK SMILES O=C(CCn1cc(/C=C\C(=O)c2ccc(F)cc2)c(-c2cccc(Cl)c2)n1)OCCOCCOCCOC(=O)c1ccc(-c2c3nc(c(-c4ccc(S(=O)(=O)[O-])cc4)c4ccc([nH]4)c(-c4ccc(S(=O)(=O)[O-])cc4)c4nc(c(-c5ccc(S(=O)(=O)[O-])cc5)c5ccc2[nH]5)C=C4)C=C3)cc1
REMARK SMILES IDX 32 1 31 2 30 3 29 4 28 5 2 6 1 7 3 8 4 9 5 10 6 11 27 12
REMARK SMILES IDX 7 13 19 14 8 15 9 16 10 17 11 18 12 19 13 20 18 21 14 22
REMARK SMILES IDX 17 23 15 24 16 25 20 26 21 27 26 28 22 29 24 30 23 31 25 32
REMARK SMILES IDX 33 33 34 34 35 35 36 36 37 37 38 38 39 39 40 40 41 41 99 42
REMARK SMILES IDX 42 43 98 44 43 45 44 46 45 47 92 48 46 49 97 50 91 51 93 52
REMARK SMILES IDX 47 53 96 54 90 55 89 56 48 58 78 59 59 60 77 61 60 62 63 63
REMARK SMILES IDX 76 64 94 65 61 66 62 67 75 69 95 70 64 71 49 72 50 73 58 74
REMARK SMILES IDX 51 75 57 76 52 77 53 78 54 79 55 80 56 81 79 82 80 83 88 84
REMARK SMILES IDX 81 85 87 86 82 87 83 88 84 89 85 90 86 91 65 92 66 93 74 94
REMARK SMILES IDX 67 95 73 96 68 97 69 98 70 99 71 100 72 101
REMARK H PARENT 93 57 63 68
REMARK Flexibility Score: inf
ROOT
ATOM      1  C   UNL A   1      41.970  40.917  29.882  1.00  0.00     0.188 C 
ENDROOT
BRANCH   1   2
ATOM      2  O   UNL A   1      41.309  40.909  28.644  1.00  0.00    -0.376 OA
BRANCH   2   3
ATOM      3  C   UNL A   1      41.902  40.229  27.556  1.00  0.00     0.202 C 
BRANCH   3   4
ATOM      4  C   UNL A   1      41.413  40.408  26.101  1.00  0.00     0.261 C 
BRANCH   4   5
ATOM      5  O   UNL A   1      42.227  41.146  25.186  1.00  0.00    -0.463 OA
BRANCH   5   6
ATOM      6  C   UNL A   1      43.498  41.521  25.395  1.00  0.00     0.307 C 
ATOM      7  O   UNL A   1      44.390  40.674  25.339  1.00  0.00    -0.252 OA
BRANCH   6   8
ATOM      8  C   UNL A   1      43.819  42.938  25.781  1.00  0.00     0.146 C 
BRANCH   8   9
ATOM      9  C   UNL A   1      44.979  43.616  25.058  1.00  0.00     0.156 C 
BRANCH   9  10
ATOM     10  N   UNL A   1      45.110  43.487  23.614  1.00  0.00    -0.271 N 
ATOM     11  C   UNL A   1      46.131  42.880  22.936  1.00  0.00     0.117 A 
ATOM     12  N   UNL A   1      44.241  44.079  22.778  1.00  0.00    -0.172 NA
ATOM     13  C   UNL A   1      45.808  42.946  21.591  1.00  0.00     0.021 A 
ATOM     14  C   UNL A   1      44.525  43.600  21.555  1.00  0.00     0.100 A 
BRANCH  13  15
ATOM     15  C   UNL A   1      46.655  42.416  20.558  1.00  0.00     0.016 C 
ATOM     16  C   UNL A   1      47.567  42.964  19.726  1.00  0.00     0.053 C 
BRANCH  16  17
ATOM     17  C   UNL A   1      48.118  44.350  19.435  1.00  0.00     0.185 C 
ATOM     18  O   UNL A   1      48.011  44.804  18.301  1.00  0.00    -0.289 OA
BRANCH  17  19
ATOM     19  C   UNL A   1      48.858  45.090  20.552  1.00  0.00     0.022 A 
ATOM     20  C   UNL A   1      50.368  44.083  20.755  1.00  0.00     0.015 A 
ATOM     21  C   UNL A   1      48.444  46.393  22.056  1.00  0.00     0.015 A 
ATOM     22  C   UNL A   1      51.296  44.239  22.262  1.00  0.00     0.040 A 
ATOM     23  C   UNL A   1      49.496  46.435  23.483  1.00  0.00     0.040 A 
ATOM     24  C   UNL A   1      50.847  45.359  23.550  1.00  0.00     0.123 A 
ATOM     25  F   UNL A   1      51.646  45.446  24.625  1.00  0.00    -0.207 F 
ENDBRANCH  17  19
ENDBRANCH  16  17
ENDBRANCH  13  15
BRANCH  14  26
ATOM     26  C   UNL A   1      43.575  43.663  20.292  1.00  0.00     0.004 A 
ATOM     27  C   UNL A   1      41.581  43.429  19.939  1.00  0.00     0.010 A 
ATOM     28  C   UNL A   1      44.405  44.963  19.310  1.00  0.00     0.031 A 
ATOM     29  C   UNL A   1      40.755  44.530  18.790  1.00  0.00     0.002 A 
ATOM     30  C   UNL A   1      43.439  45.969  18.229  1.00  0.00     0.041 A 
ATOM     31  C   UNL A   1      41.699  45.759  17.995  1.00  0.00     0.020 A 
ATOM     32  Cl  UNL A   1      44.247  47.126  17.236  1.00  0.00    -0.084 Cl
ENDBRANCH  14  26
ENDBRANCH   9  10
ENDBRANCH   8   9
ENDBRANCH   6   8
ENDBRANCH   5   6
ENDBRANCH   4   5
ENDBRANCH   3   4
ENDBRANCH   2   3
ENDBRANCH   1   2
BRANCH   1  33
ATOM     33  C   UNL A   1      43.377  40.320  29.946  1.00  0.00     0.188 C 
BRANCH  33  34
ATOM     34  O   UNL A   1      44.206  40.711  31.022  1.00  0.00    -0.376 OA
BRANCH  34  35
ATOM     35  C   UNL A   1      45.630  40.652  30.961  1.00  0.00     0.202 C 
BRANCH  35  36
ATOM     36  C   UNL A   1      46.493  39.461  31.391  1.00  0.00     0.261 C 
BRANCH  36  37
ATOM     37  O   UNL A   1      45.950  38.175  31.137  1.00  0.00    -0.460 OA
BRANCH  37  38
ATOM     38  C   UNL A   1      45.455  37.633  32.269  1.00  0.00     0.338 C 
ATOM     39  O   UNL A   1      46.115  37.241  33.225  1.00  0.00    -0.246 OA
BRANCH  38  40
ATOM     40  C   UNL A   1      44.004  37.437  32.226  1.00  0.00     0.060 A 
ATOM     41  C   UNL A   1      43.409  37.697  33.456  1.00  0.00     0.016 A 
ATOM     42  C   UNL A   1      43.542  36.412  31.402  1.00  0.00     0.016 A 
ATOM     43  C   UNL A   1      42.749  36.647  34.063  1.00  0.00     0.010 A 
ATOM     44  C   UNL A   1      42.739  35.441  31.970  1.00  0.00     0.010 A 
ATOM     45  C   UNL A   1      42.523  35.451  33.349  1.00  0.00    -0.014 A 
BRANCH  45  46
ATOM     46  C   UNL A   1      41.662  34.409  33.934  1.00  0.00     0.031 A 
ATOM     47  C   UNL A   1      42.150  33.130  33.329  1.00  0.00     0.074 A 
ATOM     48  C   UNL A   1      40.659  34.544  34.853  1.00  0.00     0.049 A 
ATOM     49  N   UNL A   1      41.692  32.641  32.221  1.00  0.00    -0.248 NA
ATOM     50  C   UNL A   1      43.487  32.592  33.670  1.00  0.00     0.031 C 
ATOM     51  C   UNL A   1      40.160  35.730  35.567  1.00  0.00     0.029 A 
ATOM     52  N   UNL A   1      39.824  33.567  35.373  1.00  0.00    -0.354 N 
ATOM     53  C   UNL A   1      42.443  31.500  31.989  1.00  0.00     0.074 A 
ATOM     54  C   UNL A   1      43.675  31.694  32.696  1.00  0.00     0.031 C 
ATOM     55  C   UNL A   1      39.330  35.366  36.588  1.00  0.00     0.029 A 
ATOM     56  C   UNL A   1      39.092  33.933  36.538  1.00  0.00     0.049 A 
ATOM     57  H   UNL A   1      39.742  32.676  34.963  1.00  0.00     0.167 HD
ATOM     58  C   UNL A   1      41.791  30.362  31.626  1.00  0.00     0.031 A 
ATOM     59  C   UNL A   1      38.271  33.137  37.315  1.00  0.00     0.031 A 
ATOM     60  C   UNL A   1      40.457  30.689  31.176  1.00  0.00     0.049 A 
ATOM     61  C   UNL A   1      37.867  31.994  36.457  1.00  0.00     0.074 A 
ATOM     62  C   UNL A   1      39.920  31.465  30.170  1.00  0.00     0.029 A 
ATOM     63  N   UNL A   1      39.498  30.581  32.152  1.00  0.00    -0.354 N 
ATOM     64  N   UNL A   1      37.099  32.156  35.415  1.00  0.00    -0.248 NA
ATOM     65  C   UNL A   1      38.798  30.879  36.410  1.00  0.00     0.031 C 
ATOM     66  C   UNL A   1      38.800  32.119  30.762  1.00  0.00     0.029 A 
ATOM     67  C   UNL A   1      38.595  31.597  32.040  1.00  0.00     0.049 A 
ATOM     68  H   UNL A   1      39.466  29.873  32.835  1.00  0.00     0.167 HD
ATOM     69  C   UNL A   1      37.790  31.521  34.398  1.00  0.00     0.074 A 
ATOM     70  C   UNL A   1      38.833  30.739  35.080  1.00  0.00     0.031 C 
ATOM     71  C   UNL A   1      37.687  31.954  33.106  1.00  0.00     0.031 A 
BRANCH  58  72
ATOM     72  C   UNL A   1      42.103  29.010  32.235  1.00  0.00    -0.014 A 
ATOM     73  C   UNL A   1      41.572  28.736  33.511  1.00  0.00     0.010 A 
ATOM     74  C   UNL A   1      43.099  28.130  31.759  1.00  0.00     0.010 A 
ATOM     75  C   UNL A   1      42.032  27.663  34.282  1.00  0.00     0.020 A 
ATOM     76  C   UNL A   1      43.543  27.035  32.508  1.00  0.00     0.020 A 
ATOM     77  C   UNL A   1      43.008  26.812  33.769  1.00  0.00     0.054 A 
BRANCH  77  78
ATOM     78  S   UNL A   1      43.548  25.404  34.768  1.00  0.00     0.124 S 
ATOM     79  O   UNL A   1      44.209  24.560  33.778  1.00  0.00    -0.237 OA
ATOM     80  O   UNL A   1      44.428  26.048  35.740  1.00  0.00    -0.237 OA
ATOM     81  O   UNL A   1      42.302  24.876  35.318  1.00  0.00    -0.744 OA
ENDBRANCH  77  78
ENDBRANCH  58  72
BRANCH  59  82
ATOM     82  C   UNL A   1      38.134  33.006  38.819  1.00  0.00    -0.014 A 
ATOM     83  C   UNL A   1      39.090  33.509  39.751  1.00  0.00     0.010 A 
ATOM     84  C   UNL A   1      36.874  32.684  39.347  1.00  0.00     0.010 A 
ATOM     85  C   UNL A   1      38.768  33.731  41.121  1.00  0.00     0.020 A 
ATOM     86  C   UNL A   1      36.546  32.910  40.698  1.00  0.00     0.020 A 
ATOM     87  C   UNL A   1      37.479  33.454  41.579  1.00  0.00     0.054 A 
BRANCH  87  88
ATOM     88  S   UNL A   1      36.957  33.913  43.273  1.00  0.00     0.124 S 
ATOM     89  O   UNL A   1      37.758  33.024  44.110  1.00  0.00    -0.237 OA
ATOM     90  O   UNL A   1      37.300  35.330  43.351  1.00  0.00    -0.237 OA
ATOM     91  O   UNL A   1      35.521  33.629  43.276  1.00  0.00    -0.744 OA
ENDBRANCH  87  88
ENDBRANCH  59  82
BRANCH  71  92
ATOM     92  C   UNL A   1      36.581  32.914  32.737  1.00  0.00    -0.014 A 
ATOM     93  C   UNL A   1      35.348  32.583  32.134  1.00  0.00     0.010 A 
ATOM     94  C   UNL A   1      36.776  34.231  33.182  1.00  0.00     0.010 A 
ATOM     95  C   UNL A   1      34.363  33.573  31.948  1.00  0.00     0.020 A 
ATOM     96  C   UNL A   1      35.799  35.205  33.023  1.00  0.00     0.020 A 
ATOM     97  C   UNL A   1      34.605  34.882  32.385  1.00  0.00     0.054 A 
BRANCH  97  98
ATOM     98  S   UNL A   1      33.371  36.186  32.115  1.00  0.00     0.124 S 
ATOM     99  O   UNL A   1      33.621  36.575  30.730  1.00  0.00    -0.237 OA
ATOM    100  O   UNL A   1      32.108  35.494  32.358  1.00  0.00    -0.237 OA
ATOM    101  O   UNL A   1      33.713  37.200  33.112  1.00  0.00    -0.744 OA
ENDBRANCH  97  98
ENDBRANCH  71  92
ENDBRANCH  45  46
ENDBRANCH  38  40
ENDBRANCH  37  38
ENDBRANCH  36  37
ENDBRANCH  35  36
ENDBRANCH  34  35
ENDBRANCH  33  34
ENDBRANCH   1  33
TORSDOF 26
ENDMDL
MODEL 3
REMARK VINA RESULT:      -8.7      2.550      4.183
REMARK SMILES O=C(CCn1cc(/C=C\C(=O)c2ccc(F)cc2)c(-c2cccc(Cl)c2)n1)OCCOCCOCCOC(=O)c1ccc(-c2c3nc(c(-c4ccc(S(=O)(=O)[O-])cc4)c4ccc([nH]4)c(-c4ccc(S(=O)(=O)[O-])cc4)c4nc(c(-c5ccc(S(=O)(=O)[O-])cc5)c5ccc2[nH]5)C=C4)C=C3)cc1
REMARK SMILES IDX 32 1 31 2 30 3 29 4 28 5 2 6 1 7 3 8 4 9 5 10 6 11 27 12
REMARK SMILES IDX 7 13 19 14 8 15 9 16 10 17 11 18 12 19 13 20 18 21 14 22
REMARK SMILES IDX 17 23 15 24 16 25 20 26 21 27 26 28 22 29 24 30 23 31 25 32
REMARK SMILES IDX 33 33 34 34 35 35 36 36 37 37 38 38 39 39 40 40 41 41 99 42
REMARK SMILES IDX 42 43 98 44 43 45 44 46 45 47 92 48 46 49 97 50 91 51 93 52
REMARK SMILES IDX 47 53 96 54 90 55 89 56 48 58 78 59 59 60 77 61 60 62 63 63
REMARK SMILES IDX 76 64 94 65 61 66 62 67 75 69 95 70 64 71 49 72 50 73 58 74
REMARK SMILES IDX 51 75 57 76 52 77 53 78 54 79 55 80 56 81 79 82 80 83 88 84
REMARK SMILES IDX 81 85 87 86 82 87 83 88 84 89 85 90 86 91 65 92 66 93 74 94
REMARK SMILES IDX 67 95 73 96 68 97 69 98 70 99 71 100 72 101
REMARK H PARENT 93 57 63 68
REMARK Flexibility Score: inf
ROOT
ATOM      1  C   UNL A   1      44.664  39.332  36.999  1.00  0.00     0.188 C 
ENDROOT
BRANCH   1   2
ATOM      2  O   UNL A   1      45.664  40.262  36.679  1.00  0.00    -0.376 OA
BRANCH   2   3
ATOM      3  C   UNL A   1      45.316  41.627  36.559  1.00  0.00     0.202 C 
BRANCH   3   4
ATOM      4  C   UNL A   1      44.749  42.225  35.252  1.00  0.00     0.261 C 
BRANCH   4   5
ATOM      5  O   UNL A   1      43.492  42.907  35.295  1.00  0.00    -0.463 OA
BRANCH   5   6
ATOM      6  C   UNL A   1      42.846  43.423  34.238  1.00  0.00     0.307 C 
ATOM      7  O   UNL A   1      41.981  44.280  34.425  1.00  0.00    -0.252 OA
BRANCH   6   8
ATOM      8  C   UNL A   1      43.110  42.899  32.855  1.00  0.00     0.146 C 
BRANCH   8   9
ATOM      9  C   UNL A   1      43.453  43.918  31.772  1.00  0.00     0.156 C 
BRANCH   9  10
ATOM     10  N   UNL A   1      43.995  43.471  30.498  1.00  0.00    -0.271 N 
ATOM     11  C   UNL A   1      44.462  44.261  29.484  1.00  0.00     0.117 A 
ATOM     12  N   UNL A   1      43.986  42.173  30.152  1.00  0.00    -0.172 NA
ATOM     13  C   UNL A   1      44.931  43.408  28.500  1.00  0.00     0.021 A 
ATOM     14  C   UNL A   1      44.728  42.086  29.036  1.00  0.00     0.100 A 
BRANCH  13  15
ATOM     15  C   UNL A   1      45.493  43.876  27.263  1.00  0.00     0.016 C 
ATOM     16  C   UNL A   1      45.112  43.784  25.970  1.00  0.00     0.053 C 
BRANCH  16  17
ATOM     17  C   UNL A   1      43.978  43.144  25.186  1.00  0.00     0.185 C 
ATOM     18  O   UNL A   1      43.344  42.230  25.700  1.00  0.00    -0.289 OA
BRANCH  17  19
ATOM     19  C   UNL A   1      43.728  43.615  23.751  1.00  0.00     0.022 A 
ATOM     20  C   UNL A   1      42.400  42.490  23.197  1.00  0.00     0.015 A 
ATOM     21  C   UNL A   1      44.695  44.643  22.290  1.00  0.00     0.015 A 
ATOM     22  C   UNL A   1      42.119  42.303  21.452  1.00  0.00     0.040 A 
ATOM     23  C   UNL A   1      44.268  44.351  20.593  1.00  0.00     0.040 A 
ATOM     24  C   UNL A   1      43.035  43.194  20.235  1.00  0.00     0.123 A 
ATOM     25  F   UNL A   1      42.708  43.029  18.944  1.00  0.00    -0.207 F 
ENDBRANCH  17  19
ENDBRANCH  16  17
ENDBRANCH  13  15
BRANCH  14  26
ATOM     26  C   UNL A   1      45.356  40.761  28.441  1.00  0.00     0.004 A 
ATOM     27  C   UNL A   1      45.030  39.583  26.809  1.00  0.00     0.010 A 
ATOM     28  C   UNL A   1      47.106  40.967  28.932  1.00  0.00     0.031 A 
ATOM     29  C   UNL A   1      46.432  38.908  25.918  1.00  0.00     0.002 A 
ATOM     30  C   UNL A   1      48.366  40.241  27.934  1.00  0.00     0.041 A 
ATOM     31  C   UNL A   1      48.035  39.269  26.496  1.00  0.00     0.020 A 
ATOM     32  Cl  UNL A   1      50.006  40.359  28.461  1.00  0.00    -0.084 Cl
ENDBRANCH  14  26
ENDBRANCH   9  10
ENDBRANCH   8   9
ENDBRANCH   6   8
ENDBRANCH   5   6
ENDBRANCH   4   5
ENDBRANCH   3   4
ENDBRANCH   2   3
ENDBRANCH   1   2
BRANCH   1  33
ATOM     33  C   UNL A   1      44.226  38.351  35.911  1.00  0.00     0.188 C 
BRANCH  33  34
ATOM     34  O   UNL A   1      44.483  38.706  34.567  1.00  0.00    -0.376 OA
BRANCH  34  35
ATOM     35  C   UNL A   1      43.449  38.842  33.592  1.00  0.00     0.202 C 
BRANCH  35  36
ATOM     36  C   UNL A   1      43.653  39.247  32.129  1.00  0.00     0.261 C 
BRANCH  36  37
ATOM     37  O   UNL A   1      43.660  38.188  31.184  1.00  0.00    -0.460 OA
BRANCH  37  38
ATOM     38  C   UNL A   1      44.874  37.601  31.134  1.00  0.00     0.338 C 
ATOM     39  O   UNL A   1      45.935  38.167  30.894  1.00  0.00    -0.246 OA
BRANCH  38  40
ATOM     40  C   UNL A   1      44.816  36.146  31.287  1.00  0.00     0.060 A 
ATOM     41  C   UNL A   1      43.815  35.582  30.503  1.00  0.00     0.016 A 
ATOM     42  C   UNL A   1      45.111  35.644  32.554  1.00  0.00     0.016 A 
ATOM     43  C   UNL A   1      42.808  34.910  31.168  1.00  0.00     0.010 A 
ATOM     44  C   UNL A   1      44.172  34.832  33.160  1.00  0.00     0.010 A 
ATOM     45  C   UNL A   1      42.931  34.643  32.548  1.00  0.00    -0.014 A 
BRANCH  45  46
ATOM     46  C   UNL A   1      41.947  33.771  33.209  1.00  0.00     0.031 A 
ATOM     47  C   UNL A   1      42.417  32.380  32.919  1.00  0.00     0.074 A 
ATOM     48  C   UNL A   1      40.858  34.122  33.958  1.00  0.00     0.049 A 
ATOM     49  N   UNL A   1      42.055  31.704  31.876  1.00  0.00    -0.248 NA
ATOM     50  C   UNL A   1      43.671  31.864  33.515  1.00  0.00     0.031 C 
ATOM     51  C   UNL A   1      40.359  35.444  34.370  1.00  0.00     0.029 A 
ATOM     52  N   UNL A   1      39.910  33.300  34.547  1.00  0.00    -0.354 N 
ATOM     53  C   UNL A   1      42.753  30.510  31.955  1.00  0.00     0.074 A 
ATOM     54  C   UNL A   1      43.908  30.787  32.757  1.00  0.00     0.031 C 
ATOM     55  C   UNL A   1      39.399  35.319  35.333  1.00  0.00     0.029 A 
ATOM     56  C   UNL A   1      39.077  33.915  35.525  1.00  0.00     0.049 A 
ATOM     57  H   UNL A   1      39.818  32.351  34.305  1.00  0.00     0.167 HD
ATOM     58  C   UNL A   1      42.075  29.351  31.737  1.00  0.00     0.031 A 
ATOM     59  C   UNL A   1      38.126  33.319  36.332  1.00  0.00     0.031 A 
ATOM     60  C   UNL A   1      40.822  29.639  31.074  1.00  0.00     0.049 A 
ATOM     61  C   UNL A   1      37.749  32.049  35.661  1.00  0.00     0.074 A 
ATOM     62  C   UNL A   1      40.451  30.226  29.882  1.00  0.00     0.029 A 
ATOM     63  N   UNL A   1      39.755  29.761  31.929  1.00  0.00    -0.354 N 
ATOM     64  N   UNL A   1      37.113  32.037  34.523  1.00  0.00    -0.248 NA
ATOM     65  C   UNL A   1      38.606  30.909  35.938  1.00  0.00     0.031 C 
ATOM     66  C   UNL A   1      39.315  31.028  30.201  1.00  0.00     0.029 A 
ATOM     67  C   UNL A   1      38.937  30.772  31.519  1.00  0.00     0.049 A 
ATOM     68  H   UNL A   1      39.603  29.201  32.724  1.00  0.00     0.167 HD
ATOM     69  C   UNL A   1      37.871  31.189  33.735  1.00  0.00     0.074 A 
ATOM     70  C   UNL A   1      38.781  30.512  34.673  1.00  0.00     0.031 C 
ATOM     71  C   UNL A   1      37.941  31.367  32.381  1.00  0.00     0.031 A 
BRANCH  58  72
ATOM     72  C   UNL A   1      42.230  28.132  32.621  1.00  0.00    -0.014 A 
ATOM     73  C   UNL A   1      41.328  27.991  33.696  1.00  0.00     0.010 A 
ATOM     74  C   UNL A   1      43.363  27.288  32.629  1.00  0.00     0.010 A 
ATOM     75  C   UNL A   1      41.561  27.083  34.734  1.00  0.00     0.020 A 
ATOM     76  C   UNL A   1      43.588  26.353  33.645  1.00  0.00     0.020 A 
ATOM     77  C   UNL A   1      42.685  26.261  34.695  1.00  0.00     0.054 A 
BRANCH  77  78
ATOM     78  S   UNL A   1      42.933  25.061  36.026  1.00  0.00     0.124 S 
ATOM     79  O   UNL A   1      42.486  25.805  37.198  1.00  0.00    -0.237 OA
ATOM     80  O   UNL A   1      42.067  23.963  35.603  1.00  0.00    -0.237 OA
ATOM     81  O   UNL A   1      44.365  24.775  35.966  1.00  0.00    -0.744 OA
ENDBRANCH  77  78
ENDBRANCH  58  72
BRANCH  59  82
ATOM     82  C   UNL A   1      37.814  33.489  37.806  1.00  0.00    -0.014 A 
ATOM     83  C   UNL A   1      36.814  32.742  38.497  1.00  0.00     0.010 A 
ATOM     84  C   UNL A   1      38.752  34.151  38.613  1.00  0.00     0.010 A 
ATOM     85  C   UNL A   1      36.804  32.624  39.917  1.00  0.00     0.020 A 
ATOM     86  C   UNL A   1      38.754  34.030  40.016  1.00  0.00     0.020 A 
ATOM     87  C   UNL A   1      37.800  33.251  40.668  1.00  0.00     0.054 A 
BRANCH  87  88
ATOM     88  S   UNL A   1      37.951  32.962  42.470  1.00  0.00     0.124 S 
ATOM     89  O   UNL A   1      36.591  32.593  42.853  1.00  0.00    -0.237 OA
ATOM     90  O   UNL A   1      38.940  31.891  42.549  1.00  0.00    -0.237 OA
ATOM     91  O   UNL A   1      38.404  34.254  42.986  1.00  0.00    -0.744 OA
ENDBRANCH  87  88
ENDBRANCH  59  82
BRANCH  71  92
ATOM     92  C   UNL A   1      36.946  32.281  31.707  1.00  0.00    -0.014 A 
ATOM     93  C   UNL A   1      37.055  33.681  31.561  1.00  0.00     0.010 A 
ATOM     94  C   UNL A   1      35.895  31.619  31.051  1.00  0.00     0.010 A 
ATOM     95  C   UNL A   1      36.097  34.391  30.809  1.00  0.00     0.020 A 
ATOM     96  C   UNL A   1      34.963  32.311  30.288  1.00  0.00     0.020 A 
ATOM     97  C   UNL A   1      35.051  33.697  30.188  1.00  0.00     0.054 A 
BRANCH  97  98
ATOM     98  S   UNL A   1      33.779  34.593  29.252  1.00  0.00     0.124 S 
ATOM     99  O   UNL A   1      33.298  33.578  28.320  1.00  0.00    -0.237 OA
ATOM    100  O   UNL A   1      32.835  34.997  30.290  1.00  0.00    -0.237 OA
ATOM    101  O   UNL A   1      34.516  35.697  28.635  1.00  0.00    -0.744 OA
ENDBRANCH  97  98
ENDBRANCH  71  92
ENDBRANCH  45  46
ENDBRANCH  38  40
ENDBRANCH  37  38
ENDBRANCH  36  37
ENDBRANCH  35  36
ENDBRANCH  34  35
ENDBRANCH  33  34
ENDBRANCH   1  33
TORSDOF 26
ENDMDL
