MODEL 1
REMARK VINA RESULT:     -11.1      0.000      0.000
REMARK SMILES O=C(OCCOCCOCCOC(=O)[C@H]1Cc2c([nH]c3ccccc23)[C@H](c2c[nH]c3ccccc23)[NH2+]1)c1ccc(-c2c3nc(c(-c4ccc(S(=O)(=O)[O-])cc4)c4ccc([nH]4)c(-c4ccc(S(=O)(=O)[O-])cc4)c4nc(c(-c5ccc(S(=O)(=O)[O-])cc5)c5ccc2[nH]5)C=C4)C=C3)cc1
REMARK SMILES IDX 7 1 6 2 5 3 4 4 3 5 2 6 1 7 37 8 38 9 96 10 39 11 95 12
REMARK SMILES IDX 40 13 41 14 42 15 89 16 43 17 94 18 88 19 90 20 44 21 93 22
REMARK SMILES IDX 87 23 86 24 45 26 75 27 56 28 74 29 57 30 60 31 73 32 91 33
REMARK SMILES IDX 58 34 59 35 72 37 92 38 61 39 46 40 47 41 55 42 48 43 54 44
REMARK SMILES IDX 49 45 50 46 51 47 52 48 53 49 76 50 77 51 85 52 78 53 84 54
REMARK SMILES IDX 79 55 80 56 81 57 82 58 83 59 62 60 63 61 71 62 64 63 70 64
REMARK SMILES IDX 65 65 66 66 67 67 68 68 69 69 8 70 9 71 10 72 11 73 12 74
REMARK SMILES IDX 13 75 14 76 15 77 16 78 36 79 17 80 26 81 18 84 25 85 19 86
REMARK SMILES IDX 20 87 24 88 21 90 23 91 22 92 27 93 28 94 35 95 29 96 30 97
REMARK SMILES IDX 34 98 31 100 33 101 32 102
REMARK H PARENT 90 25 60 36 36 82 36 83 19 89 29 99
REMARK Flexibility Score: inf
ROOT
ATOM      1  C   UNL A   1      32.198  27.986  23.196  1.00  0.00     0.188 C 
ENDROOT
BRANCH   1   2
ATOM      2  O   UNL A   1      31.951  28.869  24.284  1.00  0.00    -0.376 OA
BRANCH   2   3
ATOM      3  C   UNL A   1      32.911  28.933  25.338  1.00  0.00     0.202 C 
BRANCH   3   4
ATOM      4  C   UNL A   1      32.674  29.851  26.550  1.00  0.00     0.261 C 
BRANCH   4   5
ATOM      5  O   UNL A   1      33.658  29.802  27.591  1.00  0.00    -0.460 OA
BRANCH   5   6
ATOM      6  C   UNL A   1      34.700  30.629  27.828  1.00  0.00     0.338 C 
ATOM      7  O   UNL A   1      34.553  31.831  27.609  1.00  0.00    -0.246 OA
BRANCH   6   8
ATOM      8  C   UNL A   1      36.036  30.159  28.291  1.00  0.00     0.060 A 
ATOM      9  C   UNL A   1      36.341  29.667  29.564  1.00  0.00     0.016 A 
ATOM     10  C   UNL A   1      37.028  30.086  27.316  1.00  0.00     0.016 A 
ATOM     11  C   UNL A   1      37.618  29.208  29.909  1.00  0.00     0.010 A 
ATOM     12  C   UNL A   1      38.280  29.563  27.635  1.00  0.00     0.010 A 
ATOM     13  C   UNL A   1      38.605  29.138  28.942  1.00  0.00    -0.014 A 
BRANCH  13  14
ATOM     14  C   UNL A   1      40.022  28.799  29.244  1.00  0.00     0.031 A 
ATOM     15  C   UNL A   1      40.898  29.968  29.582  1.00  0.00     0.074 A 
ATOM     16  C   UNL A   1      40.548  27.555  29.181  1.00  0.00     0.049 A 
ATOM     17  N   UNL A   1      42.191  30.097  29.513  1.00  0.00    -0.248 NA
ATOM     18  C   UNL A   1      40.190  31.189  30.025  1.00  0.00     0.031 C 
ATOM     19  C   UNL A   1      39.808  26.303  29.050  1.00  0.00     0.029 A 
ATOM     20  N   UNL A   1      41.867  27.149  29.145  1.00  0.00    -0.354 N 
ATOM     21  C   UNL A   1      42.442  31.412  29.882  1.00  0.00     0.074 A 
ATOM     22  C   UNL A   1      41.171  32.072  30.043  1.00  0.00     0.031 C 
ATOM     23  C   UNL A   1      40.666  25.294  28.815  1.00  0.00     0.029 A 
ATOM     24  C   UNL A   1      42.013  25.832  28.744  1.00  0.00     0.049 A 
ATOM     25  H   UNL A   1      42.623  27.733  29.380  1.00  0.00     0.167 HD
ATOM     26  C   UNL A   1      43.634  31.997  30.131  1.00  0.00     0.031 A 
ATOM     27  C   UNL A   1      43.097  25.169  28.291  1.00  0.00     0.031 A 
ATOM     28  C   UNL A   1      44.874  31.294  29.997  1.00  0.00     0.049 A 
ATOM     29  C   UNL A   1      44.414  25.886  28.341  1.00  0.00     0.074 A 
ATOM     30  C   UNL A   1      46.153  31.731  30.273  1.00  0.00     0.029 A 
ATOM     31  N   UNL A   1      44.977  29.984  29.543  1.00  0.00    -0.354 N 
ATOM     32  N   UNL A   1      44.654  27.135  28.662  1.00  0.00    -0.248 NA
ATOM     33  C   UNL A   1      45.608  25.090  28.041  1.00  0.00     0.031 C 
ATOM     34  C   UNL A   1      47.035  30.698  29.938  1.00  0.00     0.029 A 
ATOM     35  C   UNL A   1      46.300  29.599  29.513  1.00  0.00     0.049 A 
ATOM     36  H   UNL A   1      44.216  29.415  29.282  1.00  0.00     0.167 HD
ATOM     37  C   UNL A   1      46.036  27.249  28.707  1.00  0.00     0.074 A 
ATOM     38  C   UNL A   1      46.573  25.963  28.304  1.00  0.00     0.031 C 
ATOM     39  C   UNL A   1      46.787  28.301  29.113  1.00  0.00     0.031 A 
BRANCH  26  40
ATOM     40  C   UNL A   1      43.602  33.436  30.566  1.00  0.00    -0.014 A 
ATOM     41  C   UNL A   1      43.556  34.481  29.620  1.00  0.00     0.010 A 
ATOM     42  C   UNL A   1      43.709  33.755  31.930  1.00  0.00     0.010 A 
ATOM     43  C   UNL A   1      43.716  35.809  30.022  1.00  0.00     0.020 A 
ATOM     44  C   UNL A   1      43.828  35.086  32.339  1.00  0.00     0.020 A 
ATOM     45  C   UNL A   1      43.866  36.101  31.380  1.00  0.00     0.054 A 
BRANCH  45  46
ATOM     46  S   UNL A   1      44.120  37.827  31.869  1.00  0.00     0.124 S 
ATOM     47  O   UNL A   1      43.675  38.547  30.680  1.00  0.00    -0.237 OA
ATOM     48  O   UNL A   1      43.264  37.961  33.042  1.00  0.00    -0.237 OA
ATOM     49  O   UNL A   1      45.558  37.900  32.140  1.00  0.00    -0.744 OA
ENDBRANCH  45  46
ENDBRANCH  26  40
BRANCH  27  50
ATOM     50  C   UNL A   1      42.995  23.790  27.723  1.00  0.00    -0.014 A 
ATOM     51  C   UNL A   1      42.698  22.675  28.522  1.00  0.00     0.010 A 
ATOM     52  C   UNL A   1      43.197  23.585  26.345  1.00  0.00     0.010 A 
ATOM     53  C   UNL A   1      42.556  21.401  27.947  1.00  0.00     0.020 A 
ATOM     54  C   UNL A   1      43.036  22.324  25.761  1.00  0.00     0.020 A 
ATOM     55  C   UNL A   1      42.709  21.235  26.567  1.00  0.00     0.054 A 
BRANCH  55  56
ATOM     56  S   UNL A   1      42.386  19.618  25.800  1.00  0.00     0.124 S 
ATOM     57  O   UNL A   1      40.983  19.734  25.418  1.00  0.00    -0.237 OA
ATOM     58  O   UNL A   1      43.344  19.584  24.701  1.00  0.00    -0.237 OA
ATOM     59  O   UNL A   1      42.665  18.674  26.884  1.00  0.00    -0.744 OA
ENDBRANCH  55  56
ENDBRANCH  27  50
BRANCH  39  60
ATOM     60  C   UNL A   1      48.261  28.073  29.254  1.00  0.00    -0.014 A 
ATOM     61  C   UNL A   1      48.838  27.714  30.481  1.00  0.00     0.010 A 
ATOM     62  C   UNL A   1      49.051  28.103  28.089  1.00  0.00     0.010 A 
ATOM     63  C   UNL A   1      50.190  27.378  30.539  1.00  0.00     0.020 A 
ATOM     64  C   UNL A   1      50.394  27.738  28.139  1.00  0.00     0.020 A 
ATOM     65  C   UNL A   1      50.955  27.377  29.365  1.00  0.00     0.054 A 
BRANCH  65  66
ATOM     66  S   UNL A   1      52.676  26.820  29.448  1.00  0.00     0.124 S 
ATOM     67  O   UNL A   1      52.658  25.952  30.620  1.00  0.00    -0.237 OA
ATOM     68  O   UNL A   1      52.853  26.144  28.164  1.00  0.00    -0.237 OA
ATOM     69  O   UNL A   1      53.435  28.059  29.600  1.00  0.00    -0.744 OA
ENDBRANCH  65  66
ENDBRANCH  39  60
ENDBRANCH  13  14
ENDBRANCH   6   8
ENDBRANCH   5   6
ENDBRANCH   4   5
ENDBRANCH   3   4
ENDBRANCH   2   3
ENDBRANCH   1   2
BRANCH   1  70
ATOM     70  C   UNL A   1      32.493  26.537  23.593  1.00  0.00     0.188 C 
BRANCH  70  71
ATOM     71  O   UNL A   1      31.535  25.542  23.272  1.00  0.00    -0.376 OA
BRANCH  71  72
ATOM     72  C   UNL A   1      30.289  25.586  23.951  1.00  0.00     0.202 C 
BRANCH  72  73
ATOM     73  C   UNL A   1      30.227  25.845  25.476  1.00  0.00     0.261 C 
BRANCH  73  74
ATOM     74  O   UNL A   1      31.370  25.500  26.285  1.00  0.00    -0.459 OA
BRANCH  74  75
ATOM     75  C   UNL A   1      31.429  24.174  26.577  1.00  0.00     0.365 C 
ATOM     76  O   UNL A   1      30.553  23.598  27.224  1.00  0.00    -0.245 OA
BRANCH  75  77
ATOM     77  C   UNL A   1      32.737  23.458  26.195  1.00  0.00     0.298 C 
ATOM     78  C   UNL A   1      34.093  24.141  26.503  1.00  0.00     0.115 C 
ATOM     79  N   UNL A   1      32.609  22.074  26.734  1.00  0.00    -0.323 N 
ATOM     80  C   UNL A   1      35.212  23.182  26.178  1.00  0.00    -0.006 A 
ATOM     81  C   UNL A   1      33.619  21.143  26.226  1.00  0.00     0.264 C 
ATOM     82  H   UNL A   1      31.687  21.716  26.483  1.00  0.00     0.347 HD
ATOM     83  H   UNL A   1      32.744  22.136  27.743  1.00  0.00     0.347 HD
ATOM     84  C   UNL A   1      34.942  21.828  26.093  1.00  0.00     0.083 A 
ATOM     85  C   UNL A   1      36.632  23.328  26.035  1.00  0.00     0.003 A 
ATOM     86  N   UNL A   1      36.126  21.159  25.947  1.00  0.00    -0.353 N 
ATOM     87  C   UNL A   1      37.177  22.040  26.026  1.00  0.00     0.046 A 
ATOM     88  C   UNL A   1      37.535  24.407  25.993  1.00  0.00     0.010 A 
ATOM     89  H   UNL A   1      36.213  20.189  25.805  1.00  0.00     0.166 HD
ATOM     90  C   UNL A   1      38.554  21.792  26.126  1.00  0.00     0.026 A 
ATOM     91  C   UNL A   1      38.917  24.173  26.121  1.00  0.00     0.001 A 
ATOM     92  C   UNL A   1      39.414  22.882  26.230  1.00  0.00     0.002 A 
BRANCH  81  93
ATOM     93  C   UNL A   1      33.222  20.432  24.952  1.00  0.00     0.041 A 
ATOM     94  C   UNL A   1      32.321  20.996  24.063  1.00  0.00     0.093 A 
ATOM     95  C   UNL A   1      33.572  19.153  24.377  1.00  0.00     0.009 A 
ATOM     96  N   UNL A   1      32.027  20.102  23.077  1.00  0.00    -0.361 N 
ATOM     97  C   UNL A   1      32.731  18.941  23.278  1.00  0.00     0.046 A 
ATOM     98  C   UNL A   1      34.497  18.125  24.663  1.00  0.00     0.011 A 
ATOM     99  H   UNL A   1      31.404  20.264  22.332  1.00  0.00     0.166 HD
ATOM    100  C   UNL A   1      32.703  17.736  22.559  1.00  0.00     0.026 A 
ATOM    101  C   UNL A   1      34.485  16.915  23.966  1.00  0.00     0.001 A 
ATOM    102  C   UNL A   1      33.579  16.717  22.939  1.00  0.00     0.002 A 
ENDBRANCH  81  93
ENDBRANCH  75  77
ENDBRANCH  74  75
ENDBRANCH  73  74
ENDBRANCH  72  73
ENDBRANCH  71  72
ENDBRANCH  70  71
ENDBRANCH   1  70
TORSDOF 21
ENDMDL
MODEL 2
REMARK VINA RESULT:     -10.6      2.181      4.152
REMARK SMILES O=C(OCCOCCOCCOC(=O)[C@H]1Cc2c([nH]c3ccccc23)[C@H](c2c[nH]c3ccccc23)[NH2+]1)c1ccc(-c2c3nc(c(-c4ccc(S(=O)(=O)[O-])cc4)c4ccc([nH]4)c(-c4ccc(S(=O)(=O)[O-])cc4)c4nc(c(-c5ccc(S(=O)(=O)[O-])cc5)c5ccc2[nH]5)C=C4)C=C3)cc1
REMARK SMILES IDX 7 1 6 2 5 3 4 4 3 5 2 6 1 7 37 8 38 9 96 10 39 11 95 12
REMARK SMILES IDX 40 13 41 14 42 15 89 16 43 17 94 18 88 19 90 20 44 21 93 22
REMARK SMILES IDX 87 23 86 24 45 26 75 27 56 28 74 29 57 30 60 31 73 32 91 33
REMARK SMILES IDX 58 34 59 35 72 37 92 38 61 39 46 40 47 41 55 42 48 43 54 44
REMARK SMILES IDX 49 45 50 46 51 47 52 48 53 49 76 50 77 51 85 52 78 53 84 54
REMARK SMILES IDX 79 55 80 56 81 57 82 58 83 59 62 60 63 61 71 62 64 63 70 64
REMARK SMILES IDX 65 65 66 66 67 67 68 68 69 69 8 70 9 71 10 72 11 73 12 74
REMARK SMILES IDX 13 75 14 76 15 77 16 78 36 79 17 80 26 81 18 84 25 85 19 86
REMARK SMILES IDX 20 87 24 88 21 90 23 91 22 92 27 93 28 94 35 95 29 96 30 97
REMARK SMILES IDX 34 98 31 100 33 101 32 102
REMARK H PARENT 90 25 60 36 36 82 36 83 19 89 29 99
REMARK Flexibility Score: inf
ROOT
ATOM      1  C   UNL A   1      33.087  29.589  26.640  1.00  0.00     0.188 C 
ENDROOT
BRANCH   1   2
ATOM      2  O   UNL A   1      34.296  30.316  26.819  1.00  0.00    -0.376 OA
BRANCH   2   3
ATOM      3  C   UNL A   1      34.271  31.485  27.637  1.00  0.00     0.202 C 
BRANCH   3   4
ATOM      4  C   UNL A   1      35.584  32.177  28.044  1.00  0.00     0.261 C 
BRANCH   4   5
ATOM      5  O   UNL A   1      36.244  31.663  29.208  1.00  0.00    -0.460 OA
BRANCH   5   6
ATOM      6  C   UNL A   1      36.680  30.411  29.465  1.00  0.00     0.338 C 
ATOM      7  O   UNL A   1      35.922  29.636  30.047  1.00  0.00    -0.246 OA
BRANCH   6   8
ATOM      8  C   UNL A   1      38.049  29.930  29.127  1.00  0.00     0.060 A 
ATOM      9  C   UNL A   1      38.533  29.656  27.844  1.00  0.00     0.016 A 
ATOM     10  C   UNL A   1      38.956  29.881  30.183  1.00  0.00     0.016 A 
ATOM     11  C   UNL A   1      39.850  29.243  27.607  1.00  0.00     0.010 A 
ATOM     12  C   UNL A   1      40.286  29.540  29.943  1.00  0.00     0.010 A 
ATOM     13  C   UNL A   1      40.751  29.191  28.655  1.00  0.00    -0.014 A 
BRANCH  13  14
ATOM     14  C   UNL A   1      42.125  28.633  28.526  1.00  0.00     0.031 A 
ATOM     15  C   UNL A   1      43.216  29.653  28.394  1.00  0.00     0.074 A 
ATOM     16  C   UNL A   1      42.419  27.315  28.471  1.00  0.00     0.049 A 
ATOM     17  N   UNL A   1      44.412  29.543  27.893  1.00  0.00    -0.248 NA
ATOM     18  C   UNL A   1      42.879  31.013  28.867  1.00  0.00     0.031 C 
ATOM     19  C   UNL A   1      41.513  26.208  28.764  1.00  0.00     0.029 A 
ATOM     20  N   UNL A   1      43.577  26.679  28.068  1.00  0.00    -0.354 N 
ATOM     21  C   UNL A   1      44.954  30.820  27.972  1.00  0.00     0.074 A 
ATOM     22  C   UNL A   1      43.919  31.707  28.441  1.00  0.00     0.031 C 
ATOM     23  C   UNL A   1      42.091  25.046  28.408  1.00  0.00     0.029 A 
ATOM     24  C   UNL A   1      43.392  25.328  27.830  1.00  0.00     0.049 A 
ATOM     25  H   UNL A   1      44.440  27.138  27.961  1.00  0.00     0.167 HD
ATOM     26  C   UNL A   1      46.228  31.203  27.737  1.00  0.00     0.031 A 
ATOM     27  C   UNL A   1      44.152  24.446  27.149  1.00  0.00     0.031 A 
ATOM     28  C   UNL A   1      47.236  30.281  27.308  1.00  0.00     0.049 A 
ATOM     29  C   UNL A   1      45.492  24.920  26.668  1.00  0.00     0.074 A 
ATOM     30  C   UNL A   1      48.580  30.506  27.091  1.00  0.00     0.029 A 
ATOM     31  N   UNL A   1      46.995  28.940  27.034  1.00  0.00    -0.354 N 
ATOM     32  N   UNL A   1      45.999  26.129  26.715  1.00  0.00    -0.248 NA
ATOM     33  C   UNL A   1      46.389  23.901  26.112  1.00  0.00     0.031 C 
ATOM     34  C   UNL A   1      49.142  29.308  26.637  1.00  0.00     0.029 A 
ATOM     35  C   UNL A   1      48.161  28.325  26.631  1.00  0.00     0.049 A 
ATOM     36  H   UNL A   1      46.120  28.495  27.116  1.00  0.00     0.167 HD
ATOM     37  C   UNL A   1      47.314  25.999  26.293  1.00  0.00     0.074 A 
ATOM     38  C   UNL A   1      47.497  24.608  25.923  1.00  0.00     0.031 C 
ATOM     39  C   UNL A   1      48.297  26.932  26.282  1.00  0.00     0.031 A 
BRANCH  26  40
ATOM     40  C   UNL A   1      46.546  32.657  27.951  1.00  0.00    -0.014 A 
ATOM     41  C   UNL A   1      47.086  33.111  29.171  1.00  0.00     0.010 A 
ATOM     42  C   UNL A   1      46.219  33.595  26.958  1.00  0.00     0.010 A 
ATOM     43  C   UNL A   1      47.201  34.479  29.430  1.00  0.00     0.020 A 
ATOM     44  C   UNL A   1      46.372  34.963  27.199  1.00  0.00     0.020 A 
ATOM     45  C   UNL A   1      46.829  35.397  28.445  1.00  0.00     0.054 A 
BRANCH  45  46
ATOM     46  S   UNL A   1      46.944  37.165  28.826  1.00  0.00     0.124 S 
ATOM     47  O   UNL A   1      47.647  37.681  27.655  1.00  0.00    -0.237 OA
ATOM     48  O   UNL A   1      45.546  37.561  28.945  1.00  0.00    -0.237 OA
ATOM     49  O   UNL A   1      47.708  37.199  30.076  1.00  0.00    -0.744 OA
ENDBRANCH  45  46
ENDBRANCH  26  40
BRANCH  27  50
ATOM     50  C   UNL A   1      43.672  23.064  26.843  1.00  0.00    -0.014 A 
ATOM     51  C   UNL A   1      43.774  22.507  25.559  1.00  0.00     0.010 A 
ATOM     52  C   UNL A   1      43.099  22.282  27.863  1.00  0.00     0.010 A 
ATOM     53  C   UNL A   1      43.362  21.186  25.318  1.00  0.00     0.020 A 
ATOM     54  C   UNL A   1      42.706  20.958  27.637  1.00  0.00     0.020 A 
ATOM     55  C   UNL A   1      42.846  20.412  26.364  1.00  0.00     0.054 A 
BRANCH  55  56
ATOM     56  S   UNL A   1      42.445  18.659  26.090  1.00  0.00     0.124 S 
ATOM     57  O   UNL A   1      43.364  18.299  25.017  1.00  0.00    -0.237 OA
ATOM     58  O   UNL A   1      42.719  18.058  27.391  1.00  0.00    -0.237 OA
ATOM     59  O   UNL A   1      41.029  18.695  25.720  1.00  0.00    -0.744 OA
ENDBRANCH  55  56
ENDBRANCH  27  50
BRANCH  39  60
ATOM     60  C   UNL A   1      49.683  26.458  25.969  1.00  0.00    -0.014 A 
ATOM     61  C   UNL A   1      50.261  26.650  24.705  1.00  0.00     0.010 A 
ATOM     62  C   UNL A   1      50.453  25.921  27.018  1.00  0.00     0.010 A 
ATOM     63  C   UNL A   1      51.600  26.318  24.498  1.00  0.00     0.020 A 
ATOM     64  C   UNL A   1      51.798  25.617  26.821  1.00  0.00     0.020 A 
ATOM     65  C   UNL A   1      52.363  25.818  25.561  1.00  0.00     0.054 A 
BRANCH  65  66
ATOM     66  S   UNL A   1      54.127  25.509  25.297  1.00  0.00     0.124 S 
ATOM     67  O   UNL A   1      54.168  24.055  25.190  1.00  0.00    -0.237 OA
ATOM     68  O   UNL A   1      54.396  26.241  24.060  1.00  0.00    -0.237 OA
ATOM     69  O   UNL A   1      54.760  26.066  26.491  1.00  0.00    -0.744 OA
ENDBRANCH  65  66
ENDBRANCH  39  60
ENDBRANCH  13  14
ENDBRANCH   6   8
ENDBRANCH   5   6
ENDBRANCH   4   5
ENDBRANCH   3   4
ENDBRANCH   2   3
ENDBRANCH   1   2
BRANCH   1  70
ATOM     70  C   UNL A   1      32.898  28.980  25.248  1.00  0.00     0.188 C 
BRANCH  70  71
ATOM     71  O   UNL A   1      31.597  28.577  24.860  1.00  0.00    -0.376 OA
BRANCH  71  72
ATOM     72  C   UNL A   1      31.145  27.304  25.298  1.00  0.00     0.202 C 
BRANCH  72  73
ATOM     73  C   UNL A   1      31.558  26.015  24.545  1.00  0.00     0.261 C 
BRANCH  73  74
ATOM     74  O   UNL A   1      31.335  24.740  25.180  1.00  0.00    -0.459 OA
BRANCH  74  75
ATOM     75  C   UNL A   1      31.377  23.701  24.305  1.00  0.00     0.365 C 
ATOM     76  O   UNL A   1      30.563  23.572  23.390  1.00  0.00    -0.245 OA
BRANCH  75  77
ATOM     77  C   UNL A   1      32.404  22.597  24.619  1.00  0.00     0.298 C 
ATOM     78  C   UNL A   1      31.937  21.120  24.670  1.00  0.00     0.115 C 
ATOM     79  N   UNL A   1      33.554  22.847  23.703  1.00  0.00    -0.323 N 
ATOM     80  C   UNL A   1      33.143  20.230  24.840  1.00  0.00    -0.006 A 
ATOM     81  C   UNL A   1      34.759  22.087  24.043  1.00  0.00     0.264 C 
ATOM     82  H   UNL A   1      33.781  23.841  23.737  1.00  0.00     0.347 HD
ATOM     83  H   UNL A   1      33.263  22.542  22.774  1.00  0.00     0.347 HD
ATOM     84  C   UNL A   1      34.396  20.714  24.513  1.00  0.00     0.083 A 
ATOM     85  C   UNL A   1      33.312  18.846  25.180  1.00  0.00     0.003 A 
ATOM     86  N   UNL A   1      35.294  19.686  24.601  1.00  0.00    -0.353 N 
ATOM     87  C   UNL A   1      34.639  18.513  24.892  1.00  0.00     0.046 A 
ATOM     88  C   UNL A   1      32.473  17.807  25.625  1.00  0.00     0.010 A 
ATOM     89  H   UNL A   1      36.266  19.773  24.475  1.00  0.00     0.166 HD
ATOM     90  C   UNL A   1      35.112  17.192  24.884  1.00  0.00     0.026 A 
ATOM     91  C   UNL A   1      32.926  16.475  25.595  1.00  0.00     0.001 A 
ATOM     92  C   UNL A   1      34.217  16.171  25.187  1.00  0.00     0.002 A 
BRANCH  81  93
ATOM     93  C   UNL A   1      35.681  22.789  25.014  1.00  0.00     0.041 A 
ATOM     94  C   UNL A   1      35.306  23.966  25.642  1.00  0.00     0.093 A 
ATOM     95  C   UNL A   1      37.020  22.518  25.486  1.00  0.00     0.009 A 
ATOM     96  N   UNL A   1      36.359  24.465  26.349  1.00  0.00    -0.361 N 
ATOM     97  C   UNL A   1      37.442  23.632  26.221  1.00  0.00     0.046 A 
ATOM     98  C   UNL A   1      37.949  21.460  25.367  1.00  0.00     0.011 A 
ATOM     99  H   UNL A   1      36.345  25.299  26.873  1.00  0.00     0.166 HD
ATOM    100  C   UNL A   1      38.746  23.769  26.719  1.00  0.00     0.026 A 
ATOM    101  C   UNL A   1      39.254  21.575  25.849  1.00  0.00     0.001 A 
ATOM    102  C   UNL A   1      39.653  22.730  26.498  1.00  0.00     0.002 A 
ENDBRANCH  81  93
ENDBRANCH  75  77
ENDBRANCH  74  75
ENDBRANCH  73  74
ENDBRANCH  72  73
ENDBRANCH  71  72
ENDBRANCH  70  71
ENDBRANCH   1  70
TORSDOF 21
ENDMDL
MODEL 3
REMARK VINA RESULT:     -10.5      4.826      9.917
REMARK SMILES O=C(OCCOCCOCCOC(=O)[C@H]1Cc2c([nH]c3ccccc23)[C@H](c2c[nH]c3ccccc23)[NH2+]1)c1ccc(-c2c3nc(c(-c4ccc(S(=O)(=O)[O-])cc4)c4ccc([nH]4)c(-c4ccc(S(=O)(=O)[O-])cc4)c4nc(c(-c5ccc(S(=O)(=O)[O-])cc5)c5ccc2[nH]5)C=C4)C=C3)cc1
REMARK SMILES IDX 7 1 6 2 5 3 4 4 3 5 2 6 1 7 37 8 38 9 96 10 39 11 95 12
REMARK SMILES IDX 40 13 41 14 42 15 89 16 43 17 94 18 88 19 90 20 44 21 93 22
REMARK SMILES IDX 87 23 86 24 45 26 75 27 56 28 74 29 57 30 60 31 73 32 91 33
REMARK SMILES IDX 58 34 59 35 72 37 92 38 61 39 46 40 47 41 55 42 48 43 54 44
REMARK SMILES IDX 49 45 50 46 51 47 52 48 53 49 76 50 77 51 85 52 78 53 84 54
REMARK SMILES IDX 79 55 80 56 81 57 82 58 83 59 62 60 63 61 71 62 64 63 70 64
REMARK SMILES IDX 65 65 66 66 67 67 68 68 69 69 8 70 9 71 10 72 11 73 12 74
REMARK SMILES IDX 13 75 14 76 15 77 16 78 36 79 17 80 26 81 18 84 25 85 19 86
REMARK SMILES IDX 20 87 24 88 21 90 23 91 22 92 27 93 28 94 35 95 29 96 30 97
REMARK SMILES IDX 34 98 31 100 33 101 32 102
REMARK H PARENT 90 25 60 36 36 82 36 83 19 89 29 99
REMARK Flexibility Score: inf
ROOT
ATOM      1  C   UNL A   1      41.818  23.219  26.536  1.00  0.00     0.188 C 
ENDROOT
BRANCH   1   2
ATOM      2  O   UNL A   1      43.201  23.551  26.529  1.00  0.00    -0.376 OA
BRANCH   2   3
ATOM      3  C   UNL A   1      43.771  24.063  25.325  1.00  0.00     0.202 C 
BRANCH   3   4
ATOM      4  C   UNL A   1      44.567  25.380  25.341  1.00  0.00     0.261 C 
BRANCH   4   5
ATOM      5  O   UNL A   1      43.799  26.590  25.369  1.00  0.00    -0.460 OA
BRANCH   5   6
ATOM      6  C   UNL A   1      42.529  26.792  25.782  1.00  0.00     0.338 C 
ATOM      7  O   UNL A   1      41.618  26.630  24.971  1.00  0.00    -0.246 OA
BRANCH   6   8
ATOM      8  C   UNL A   1      42.172  27.250  27.153  1.00  0.00     0.060 A 
ATOM      9  C   UNL A   1      41.330  26.586  28.051  1.00  0.00     0.016 A 
ATOM     10  C   UNL A   1      42.850  28.375  27.616  1.00  0.00     0.016 A 
ATOM     11  C   UNL A   1      41.075  27.066  29.341  1.00  0.00     0.010 A 
ATOM     12  C   UNL A   1      42.654  28.816  28.924  1.00  0.00     0.010 A 
ATOM     13  C   UNL A   1      41.746  28.185  29.802  1.00  0.00    -0.014 A 
BRANCH  13  14
ATOM     14  C   UNL A   1      41.438  28.847  31.099  1.00  0.00     0.031 A 
ATOM     15  C   UNL A   1      40.325  29.852  31.052  1.00  0.00     0.074 A 
ATOM     16  C   UNL A   1      42.113  28.638  32.250  1.00  0.00     0.049 A 
ATOM     17  N   UNL A   1      40.062  30.850  31.843  1.00  0.00    -0.248 NA
ATOM     18  C   UNL A   1      39.397  29.723  29.908  1.00  0.00     0.031 C 
ATOM     19  C   UNL A   1      43.085  27.579  32.510  1.00  0.00     0.029 A 
ATOM     20  N   UNL A   1      42.130  29.376  33.417  1.00  0.00    -0.354 N 
ATOM     21  C   UNL A   1      38.958  31.475  31.278  1.00  0.00     0.074 A 
ATOM     22  C   UNL A   1      38.685  30.829  30.019  1.00  0.00     0.031 C 
ATOM     23  C   UNL A   1      43.697  27.806  33.686  1.00  0.00     0.029 A 
ATOM     24  C   UNL A   1      43.187  29.044  34.247  1.00  0.00     0.049 A 
ATOM     25  H   UNL A   1      41.463  30.064  33.635  1.00  0.00     0.167 HD
ATOM     26  C   UNL A   1      38.196  32.460  31.803  1.00  0.00     0.031 A 
ATOM     27  C   UNL A   1      43.728  29.712  35.288  1.00  0.00     0.031 A 
ATOM     28  C   UNL A   1      38.479  33.050  33.076  1.00  0.00     0.049 A 
ATOM     29  C   UNL A   1      43.023  30.953  35.750  1.00  0.00     0.074 A 
ATOM     30  C   UNL A   1      37.765  34.008  33.765  1.00  0.00     0.029 A 
ATOM     31  N   UNL A   1      39.581  32.719  33.856  1.00  0.00    -0.354 N 
ATOM     32  N   UNL A   1      41.997  31.563  35.206  1.00  0.00    -0.248 NA
ATOM     33  C   UNL A   1      43.500  31.553  37.000  1.00  0.00     0.031 C 
ATOM     34  C   UNL A   1      38.466  34.293  34.942  1.00  0.00     0.029 A 
ATOM     35  C   UNL A   1      39.580  33.467  35.013  1.00  0.00     0.049 A 
ATOM     36  H   UNL A   1      40.262  32.048  33.616  1.00  0.00     0.167 HD
ATOM     37  C   UNL A   1      41.635  32.557  36.103  1.00  0.00     0.074 A 
ATOM     38  C   UNL A   1      42.603  32.513  37.185  1.00  0.00     0.031 C 
ATOM     39  C   UNL A   1      40.561  33.381  36.068  1.00  0.00     0.031 A 
BRANCH  26  40
ATOM     40  C   UNL A   1      37.020  32.913  30.982  1.00  0.00    -0.014 A 
ATOM     41  C   UNL A   1      37.204  33.614  29.772  1.00  0.00     0.010 A 
ATOM     42  C   UNL A   1      35.716  32.718  31.466  1.00  0.00     0.010 A 
ATOM     43  C   UNL A   1      36.116  34.194  29.116  1.00  0.00     0.020 A 
ATOM     44  C   UNL A   1      34.621  33.262  30.789  1.00  0.00     0.020 A 
ATOM     45  C   UNL A   1      34.831  34.025  29.638  1.00  0.00     0.054 A 
BRANCH  45  46
ATOM     46  S   UNL A   1      33.444  34.828  28.793  1.00  0.00     0.124 S 
ATOM     47  O   UNL A   1      32.489  35.006  29.882  1.00  0.00    -0.237 OA
ATOM     48  O   UNL A   1      34.045  36.052  28.277  1.00  0.00    -0.237 OA
ATOM     49  O   UNL A   1      33.051  33.852  27.773  1.00  0.00    -0.744 OA
ENDBRANCH  45  46
ENDBRANCH  26  40
BRANCH  27  50
ATOM     50  C   UNL A   1      45.000  29.265  35.934  1.00  0.00    -0.014 A 
ATOM     51  C   UNL A   1      45.012  28.357  37.004  1.00  0.00     0.010 A 
ATOM     52  C   UNL A   1      46.232  29.757  35.466  1.00  0.00     0.010 A 
ATOM     53  C   UNL A   1      46.227  27.916  37.554  1.00  0.00     0.020 A 
ATOM     54  C   UNL A   1      47.448  29.306  35.993  1.00  0.00     0.020 A 
ATOM     55  C   UNL A   1      47.439  28.380  37.033  1.00  0.00     0.054 A 
BRANCH  55  56
ATOM     56  S   UNL A   1      49.014  27.705  37.645  1.00  0.00     0.124 S 
ATOM     57  O   UNL A   1      48.683  27.355  39.021  1.00  0.00    -0.237 OA
ATOM     58  O   UNL A   1      49.256  26.583  36.743  1.00  0.00    -0.237 OA
ATOM     59  O   UNL A   1      49.941  28.826  37.486  1.00  0.00    -0.744 OA
ENDBRANCH  55  56
ENDBRANCH  27  50
BRANCH  39  60
ATOM     60  C   UNL A   1      40.305  34.221  37.282  1.00  0.00    -0.014 A 
ATOM     61  C   UNL A   1      40.706  35.564  37.348  1.00  0.00     0.010 A 
ATOM     62  C   UNL A   1      39.533  33.667  38.321  1.00  0.00     0.010 A 
ATOM     63  C   UNL A   1      40.328  36.347  38.439  1.00  0.00     0.020 A 
ATOM     64  C   UNL A   1      39.128  34.455  39.396  1.00  0.00     0.020 A 
ATOM     65  C   UNL A   1      39.529  35.791  39.447  1.00  0.00     0.054 A 
BRANCH  65  66
ATOM     66  S   UNL A   1      38.952  36.861  40.790  1.00  0.00     0.124 S 
ATOM     67  O   UNL A   1      38.086  35.961  41.544  1.00  0.00    -0.237 OA
ATOM     68  O   UNL A   1      40.199  37.240  41.452  1.00  0.00    -0.237 OA
ATOM     69  O   UNL A   1      38.268  37.950  40.096  1.00  0.00    -0.744 OA
ENDBRANCH  65  66
ENDBRANCH  39  60
ENDBRANCH  13  14
ENDBRANCH   6   8
ENDBRANCH   5   6
ENDBRANCH   4   5
ENDBRANCH   3   4
ENDBRANCH   2   3
ENDBRANCH   1   2
BRANCH   1  70
ATOM     70  C   UNL A   1      41.358  22.386  27.735  1.00  0.00     0.188 C 
BRANCH  70  71
ATOM     71  O   UNL A   1      40.281  21.483  27.556  1.00  0.00    -0.376 OA
BRANCH  71  72
ATOM     72  C   UNL A   1      40.039  21.000  26.243  1.00  0.00     0.202 C 
BRANCH  72  73
ATOM     73  C   UNL A   1      38.683  21.256  25.542  1.00  0.00     0.261 C 
BRANCH  73  74
ATOM     74  O   UNL A   1      37.623  21.886  26.290  1.00  0.00    -0.459 OA
BRANCH  74  75
ATOM     75  C   UNL A   1      37.133  22.996  25.678  1.00  0.00     0.365 C 
ATOM     76  O   UNL A   1      37.825  23.991  25.458  1.00  0.00    -0.245 OA
BRANCH  75  77
ATOM     77  C   UNL A   1      35.615  23.008  25.419  1.00  0.00     0.298 C 
ATOM     78  C   UNL A   1      34.878  24.366  25.302  1.00  0.00     0.115 C 
ATOM     79  N   UNL A   1      35.398  22.088  24.267  1.00  0.00    -0.323 N 
ATOM     80  C   UNL A   1      33.446  24.113  24.899  1.00  0.00    -0.006 A 
ATOM     81  C   UNL A   1      33.994  21.730  24.050  1.00  0.00     0.264 C 
ATOM     82  H   UNL A   1      35.924  21.230  24.437  1.00  0.00     0.347 HD
ATOM     83  H   UNL A   1      35.710  22.581  23.431  1.00  0.00     0.347 HD
ATOM     84  C   UNL A   1      33.109  22.908  24.309  1.00  0.00     0.083 A 
ATOM     85  C   UNL A   1      32.266  24.929  24.872  1.00  0.00     0.003 A 
ATOM     86  N   UNL A   1      31.806  22.978  23.897  1.00  0.00    -0.353 N 
ATOM     87  C   UNL A   1      31.307  24.238  24.124  1.00  0.00     0.046 A 
ATOM     88  C   UNL A   1      31.919  26.216  25.326  1.00  0.00     0.010 A 
ATOM     89  H   UNL A   1      31.299  22.234  23.498  1.00  0.00     0.166 HD
ATOM     90  C   UNL A   1      30.107  24.822  23.693  1.00  0.00     0.026 A 
ATOM     91  C   UNL A   1      30.731  26.823  24.878  1.00  0.00     0.001 A 
ATOM     92  C   UNL A   1      29.858  26.147  24.037  1.00  0.00     0.002 A 
BRANCH  81  93
ATOM     93  C   UNL A   1      33.540  20.506  24.813  1.00  0.00     0.041 A 
ATOM     94  C   UNL A   1      33.275  20.561  26.171  1.00  0.00     0.093 A 
ATOM     95  C   UNL A   1      33.311  19.130  24.436  1.00  0.00     0.009 A 
ATOM     96  N   UNL A   1      33.024  19.307  26.641  1.00  0.00    -0.361 N 
ATOM     97  C   UNL A   1      33.101  18.401  25.613  1.00  0.00     0.046 A 
ATOM     98  C   UNL A   1      33.271  18.394  23.231  1.00  0.00     0.011 A 
ATOM     99  H   UNL A   1      32.818  19.083  27.578  1.00  0.00     0.166 HD
ATOM    100  C   UNL A   1      32.977  17.003  25.634  1.00  0.00     0.026 A 
ATOM    101  C   UNL A   1      33.155  17.003  23.227  1.00  0.00     0.001 A 
ATOM    102  C   UNL A   1      33.033  16.314  24.421  1.00  0.00     0.002 A 
ENDBRANCH  81  93
ENDBRANCH  75  77
ENDBRANCH  74  75
ENDBRANCH  73  74
ENDBRANCH  72  73
ENDBRANCH  71  72
ENDBRANCH  70  71
ENDBRANCH   1  70
TORSDOF 21
ENDMDL
