MODEL 1
REMARK VINA RESULT:     -10.6      0.000      0.000
REMARK SMILES O=C(OCCOCCOCCOC(=O)[C@H]1C[C@H](O)CN1S(=O)(=O)c1ccc2c(c1)OCCO2)c1ccc(-c2c3nc(c(-c4ccc(S(=O)(=O)[O-])cc4)c4ccc([nH]4)c(-c4ccc(S(=O)(=O)[O-])cc4)c4nc(c(-c5ccc(S(=O)(=O)[O-])cc5)c5ccc2[nH]5)C=C4)C=C3)cc1
REMARK SMILES IDX 7 1 6 2 5 3 4 4 3 5 2 6 1 7 34 8 35 9 93 10 36 11 92 12
REMARK SMILES IDX 37 13 38 14 39 15 86 16 40 17 91 18 85 19 87 20 41 21 90 22
REMARK SMILES IDX 84 23 83 24 42 26 72 27 53 28 71 29 54 30 57 31 70 32 88 33
REMARK SMILES IDX 55 34 56 35 69 37 89 38 58 39 43 40 44 41 52 42 45 43 51 44
REMARK SMILES IDX 46 45 47 46 48 47 49 48 50 49 73 50 74 51 82 52 75 53 81 54
REMARK SMILES IDX 76 55 77 56 78 57 79 58 80 59 59 60 60 61 68 62 61 63 67 64
REMARK SMILES IDX 62 65 63 66 64 67 65 68 66 69 8 70 9 71 10 72 11 73 12 74
REMARK SMILES IDX 13 75 14 76 15 77 16 78 20 79 17 80 19 81 21 82 22 83 23 84
REMARK SMILES IDX 24 85 25 86 29 87 26 88 28 89 27 90 30 91 33 92 31 93 32 94
REMARK SMILES IDX 18 95
REMARK H PARENT 87 25 57 36 18 96
REMARK Flexibility Score: inf
ROOT
ATOM      1  C   UNL A   1      31.786  30.598  26.179  1.00  0.00     0.188 C 
ENDROOT
BRANCH   1   2
ATOM      2  O   UNL A   1      32.866  30.681  27.118  1.00  0.00    -0.376 OA
BRANCH   2   3
ATOM      3  C   UNL A   1      33.509  29.427  27.359  1.00  0.00     0.202 C 
BRANCH   3   4
ATOM      4  C   UNL A   1      35.006  29.517  27.683  1.00  0.00     0.261 C 
BRANCH   4   5
ATOM      5  O   UNL A   1      35.336  30.657  28.491  1.00  0.00    -0.460 OA
BRANCH   5   6
ATOM      6  C   UNL A   1      36.335  30.764  29.403  1.00  0.00     0.338 C 
ATOM      7  O   UNL A   1      36.079  31.245  30.506  1.00  0.00    -0.246 OA
BRANCH   6   8
ATOM      8  C   UNL A   1      37.727  30.285  29.157  1.00  0.00     0.060 A 
ATOM      9  C   UNL A   1      38.701  30.114  30.143  1.00  0.00     0.016 A 
ATOM     10  C   UNL A   1      38.034  29.888  27.844  1.00  0.00     0.016 A 
ATOM     11  C   UNL A   1      39.974  29.648  29.823  1.00  0.00     0.010 A 
ATOM     12  C   UNL A   1      39.297  29.383  27.521  1.00  0.00     0.010 A 
ATOM     13  C   UNL A   1      40.281  29.288  28.510  1.00  0.00    -0.014 A 
BRANCH  13  14
ATOM     14  C   UNL A   1      41.661  28.874  28.191  1.00  0.00     0.031 A 
ATOM     15  C   UNL A   1      42.777  29.837  28.445  1.00  0.00     0.074 A 
ATOM     16  C   UNL A   1      41.892  27.624  27.750  1.00  0.00     0.049 A 
ATOM     17  N   UNL A   1      44.057  29.674  28.257  1.00  0.00    -0.248 NA
ATOM     18  C   UNL A   1      42.404  31.169  28.954  1.00  0.00     0.031 C 
ATOM     19  C   UNL A   1      40.852  26.633  27.482  1.00  0.00     0.029 A 
ATOM     20  N   UNL A   1      43.061  26.953  27.504  1.00  0.00    -0.354 N 
ATOM     21  C   UNL A   1      44.632  30.908  28.527  1.00  0.00     0.074 A 
ATOM     22  C   UNL A   1      43.573  31.791  28.960  1.00  0.00     0.031 C 
ATOM     23  C   UNL A   1      41.432  25.453  27.210  1.00  0.00     0.029 A 
ATOM     24  C   UNL A   1      42.879  25.612  27.244  1.00  0.00     0.049 A 
ATOM     25  H   UNL A   1      43.945  27.386  27.512  1.00  0.00     0.167 HD
ATOM     26  C   UNL A   1      45.924  31.273  28.363  1.00  0.00     0.031 A 
ATOM     27  C   UNL A   1      43.788  24.632  27.070  1.00  0.00     0.031 A 
ATOM     28  C   UNL A   1      46.948  30.364  27.929  1.00  0.00     0.049 A 
ATOM     29  C   UNL A   1      45.239  25.038  27.021  1.00  0.00     0.074 A 
ATOM     30  C   UNL A   1      48.281  30.624  27.670  1.00  0.00     0.029 A 
ATOM     31  N   UNL A   1      46.747  29.011  27.690  1.00  0.00    -0.354 N 
ATOM     32  N   UNL A   1      45.771  26.216  27.260  1.00  0.00    -0.248 NA
ATOM     33  C   UNL A   1      46.205  24.009  26.616  1.00  0.00     0.031 C 
ATOM     34  C   UNL A   1      48.873  29.436  27.228  1.00  0.00     0.029 A 
ATOM     35  C   UNL A   1      47.922  28.427  27.261  1.00  0.00     0.049 A 
ATOM     36  H   UNL A   1      45.891  28.538  27.809  1.00  0.00     0.167 HD
ATOM     37  C   UNL A   1      47.121  26.085  26.966  1.00  0.00     0.074 A 
ATOM     38  C   UNL A   1      47.342  24.692  26.626  1.00  0.00     0.031 C 
ATOM     39  C   UNL A   1      48.084  27.038  26.918  1.00  0.00     0.031 A 
BRANCH  26  40
ATOM     40  C   UNL A   1      46.254  32.729  28.521  1.00  0.00    -0.014 A 
ATOM     41  C   UNL A   1      46.736  33.261  29.727  1.00  0.00     0.010 A 
ATOM     42  C   UNL A   1      46.069  33.584  27.417  1.00  0.00     0.010 A 
ATOM     43  C   UNL A   1      47.001  34.630  29.834  1.00  0.00     0.020 A 
ATOM     44  C   UNL A   1      46.351  34.947  27.514  1.00  0.00     0.020 A 
ATOM     45  C   UNL A   1      46.803  35.465  28.728  1.00  0.00     0.054 A 
BRANCH  45  46
ATOM     46  S   UNL A   1      47.173  37.234  28.888  1.00  0.00     0.124 S 
ATOM     47  O   UNL A   1      47.563  37.334  30.293  1.00  0.00    -0.237 OA
ATOM     48  O   UNL A   1      48.251  37.425  27.922  1.00  0.00    -0.237 OA
ATOM     49  O   UNL A   1      45.910  37.884  28.545  1.00  0.00    -0.744 OA
ENDBRANCH  45  46
ENDBRANCH  26  40
BRANCH  27  50
ATOM     50  C   UNL A   1      43.381  23.209  26.878  1.00  0.00    -0.014 A 
ATOM     51  C   UNL A   1      43.177  22.367  27.991  1.00  0.00     0.010 A 
ATOM     52  C   UNL A   1      43.229  22.664  25.590  1.00  0.00     0.010 A 
ATOM     53  C   UNL A   1      42.871  21.011  27.818  1.00  0.00     0.020 A 
ATOM     54  C   UNL A   1      42.888  21.320  25.413  1.00  0.00     0.020 A 
ATOM     55  C   UNL A   1      42.737  20.495  26.529  1.00  0.00     0.054 A 
BRANCH  55  56
ATOM     56  S   UNL A   1      42.351  18.740  26.273  1.00  0.00     0.124 S 
ATOM     57  O   UNL A   1      42.492  18.197  27.619  1.00  0.00    -0.237 OA
ATOM     58  O   UNL A   1      40.988  18.762  25.747  1.00  0.00    -0.237 OA
ATOM     59  O   UNL A   1      43.371  18.328  25.312  1.00  0.00    -0.744 OA
ENDBRANCH  55  56
ENDBRANCH  27  50
BRANCH  39  60
ATOM     60  C   UNL A   1      49.431  26.611  26.412  1.00  0.00    -0.014 A 
ATOM     61  C   UNL A   1      50.431  26.224  27.323  1.00  0.00     0.010 A 
ATOM     62  C   UNL A   1      49.670  26.506  25.033  1.00  0.00     0.010 A 
ATOM     63  C   UNL A   1      51.658  25.750  26.861  1.00  0.00     0.020 A 
ATOM     64  C   UNL A   1      50.890  26.012  24.567  1.00  0.00     0.020 A 
ATOM     65  C   UNL A   1      51.878  25.643  25.484  1.00  0.00     0.054 A 
BRANCH  65  66
ATOM     66  S   UNL A   1      53.453  24.953  24.909  1.00  0.00     0.124 S 
ATOM     67  O   UNL A   1      53.494  25.410  23.522  1.00  0.00    -0.237 OA
ATOM     68  O   UNL A   1      54.423  25.576  25.806  1.00  0.00    -0.237 OA
ATOM     69  O   UNL A   1      53.283  23.513  25.087  1.00  0.00    -0.744 OA
ENDBRANCH  65  66
ENDBRANCH  39  60
ENDBRANCH  13  14
ENDBRANCH   6   8
ENDBRANCH   5   6
ENDBRANCH   4   5
ENDBRANCH   3   4
ENDBRANCH   2   3
ENDBRANCH   1   2
BRANCH   1  70
ATOM     70  C   UNL A   1      31.833  29.276  25.421  1.00  0.00     0.188 C 
BRANCH  70  71
ATOM     71  O   UNL A   1      30.956  29.170  24.300  1.00  0.00    -0.376 OA
BRANCH  71  72
ATOM     72  C   UNL A   1      31.513  28.840  23.034  1.00  0.00     0.202 C 
BRANCH  72  73
ATOM     73  C   UNL A   1      31.421  27.390  22.535  1.00  0.00     0.261 C 
BRANCH  73  74
ATOM     74  O   UNL A   1      31.980  26.377  23.380  1.00  0.00    -0.462 OA
BRANCH  74  75
ATOM     75  C   UNL A   1      31.048  25.599  23.994  1.00  0.00     0.324 C 
ATOM     76  O   UNL A   1      30.003  25.260  23.452  1.00  0.00    -0.250 OA
BRANCH  75  77
ATOM     77  C   UNL A   1      31.437  25.153  25.401  1.00  0.00     0.185 C 
ATOM     78  C   UNL A   1      30.254  24.817  26.329  1.00  0.00     0.065 C 
ATOM     79  N   UNL A   1      32.420  23.965  25.532  1.00  0.00    -0.181 NA
ATOM     80  C   UNL A   1      30.349  23.316  26.516  1.00  0.00     0.131 C 
ATOM     81  C   UNL A   1      31.856  23.152  26.651  1.00  0.00     0.135 C 
BRANCH  79  82
ATOM     82  S   UNL A   1      32.710  23.154  24.042  1.00  0.00     0.244 S 
ATOM     83  O   UNL A   1      31.415  22.986  23.397  1.00  0.00    -0.207 OA
ATOM     84  O   UNL A   1      33.784  23.830  23.365  1.00  0.00    -0.207 OA
BRANCH  82  85
ATOM     85  C   UNL A   1      33.332  21.536  24.396  1.00  0.00     0.086 A 
ATOM     86  C   UNL A   1      34.711  21.377  24.607  1.00  0.00     0.026 A 
ATOM     87  C   UNL A   1      32.507  20.423  24.261  1.00  0.00     0.072 A 
ATOM     88  C   UNL A   1      35.260  20.099  24.702  1.00  0.00     0.052 A 
ATOM     89  C   UNL A   1      33.048  19.158  24.442  1.00  0.00     0.162 A 
ATOM     90  C   UNL A   1      34.426  18.987  24.622  1.00  0.00     0.161 A 
ATOM     91  O   UNL A   1      32.166  18.110  24.419  1.00  0.00    -0.486 OA
ATOM     92  O   UNL A   1      35.026  17.758  24.721  1.00  0.00    -0.486 OA
ATOM     93  C   UNL A   1      32.740  16.992  25.111  1.00  0.00     0.271 C 
ATOM     94  C   UNL A   1      34.094  16.688  24.492  1.00  0.00     0.271 C 
ENDBRANCH  82  85
ENDBRANCH  79  82
BRANCH  80  95
ATOM     95  O   UNL A   1      29.619  22.906  27.649  1.00  0.00    -0.392 OA
ATOM     96  H   UNL A   1      29.327  23.687  28.146  1.00  0.00     0.211 HD
ENDBRANCH  80  95
ENDBRANCH  75  77
ENDBRANCH  74  75
ENDBRANCH  73  74
ENDBRANCH  72  73
ENDBRANCH  71  72
ENDBRANCH  70  71
ENDBRANCH   1  70
TORSDOF 23
ENDMDL
MODEL 2
REMARK VINA RESULT:     -10.6      1.855      3.014
REMARK SMILES O=C(OCCOCCOCCOC(=O)[C@H]1C[C@H](O)CN1S(=O)(=O)c1ccc2c(c1)OCCO2)c1ccc(-c2c3nc(c(-c4ccc(S(=O)(=O)[O-])cc4)c4ccc([nH]4)c(-c4ccc(S(=O)(=O)[O-])cc4)c4nc(c(-c5ccc(S(=O)(=O)[O-])cc5)c5ccc2[nH]5)C=C4)C=C3)cc1
REMARK SMILES IDX 7 1 6 2 5 3 4 4 3 5 2 6 1 7 34 8 35 9 93 10 36 11 92 12
REMARK SMILES IDX 37 13 38 14 39 15 86 16 40 17 91 18 85 19 87 20 41 21 90 22
REMARK SMILES IDX 84 23 83 24 42 26 72 27 53 28 71 29 54 30 57 31 70 32 88 33
REMARK SMILES IDX 55 34 56 35 69 37 89 38 58 39 43 40 44 41 52 42 45 43 51 44
REMARK SMILES IDX 46 45 47 46 48 47 49 48 50 49 73 50 74 51 82 52 75 53 81 54
REMARK SMILES IDX 76 55 77 56 78 57 79 58 80 59 59 60 60 61 68 62 61 63 67 64
REMARK SMILES IDX 62 65 63 66 64 67 65 68 66 69 8 70 9 71 10 72 11 73 12 74
REMARK SMILES IDX 13 75 14 76 15 77 16 78 20 79 17 80 19 81 21 82 22 83 23 84
REMARK SMILES IDX 24 85 25 86 29 87 26 88 28 89 27 90 30 91 33 92 31 93 32 94
REMARK SMILES IDX 18 95
REMARK H PARENT 87 25 57 36 18 96
REMARK Flexibility Score: inf
ROOT
ATOM      1  C   UNL A   1      32.439  30.048  25.700  1.00  0.00     0.188 C 
ENDROOT
BRANCH   1   2
ATOM      2  O   UNL A   1      32.490  29.288  26.915  1.00  0.00    -0.376 OA
BRANCH   2   3
ATOM      3  C   UNL A   1      33.750  28.650  27.134  1.00  0.00     0.202 C 
BRANCH   3   4
ATOM      4  C   UNL A   1      34.919  29.604  27.418  1.00  0.00     0.261 C 
BRANCH   4   5
ATOM      5  O   UNL A   1      36.104  28.922  27.856  1.00  0.00    -0.460 OA
BRANCH   5   6
ATOM      6  C   UNL A   1      37.076  29.396  28.675  1.00  0.00     0.338 C 
ATOM      7  O   UNL A   1      36.746  29.999  29.695  1.00  0.00    -0.246 OA
BRANCH   6   8
ATOM      8  C   UNL A   1      38.533  29.184  28.430  1.00  0.00     0.060 A 
ATOM      9  C   UNL A   1      39.441  28.695  29.372  1.00  0.00     0.016 A 
ATOM     10  C   UNL A   1      38.991  29.406  27.120  1.00  0.00     0.016 A 
ATOM     11  C   UNL A   1      40.784  28.516  29.052  1.00  0.00     0.010 A 
ATOM     12  C   UNL A   1      40.330  29.193  26.780  1.00  0.00     0.010 A 
ATOM     13  C   UNL A   1      41.237  28.772  27.756  1.00  0.00    -0.014 A 
BRANCH  13  14
ATOM     14  C   UNL A   1      42.679  28.649  27.471  1.00  0.00     0.031 A 
ATOM     15  C   UNL A   1      43.596  29.745  27.917  1.00  0.00     0.074 A 
ATOM     16  C   UNL A   1      43.146  27.531  26.887  1.00  0.00     0.049 A 
ATOM     17  N   UNL A   1      44.891  29.831  27.788  1.00  0.00    -0.248 NA
ATOM     18  C   UNL A   1      42.973  30.909  28.571  1.00  0.00     0.031 C 
ATOM     19  C   UNL A   1      42.310  26.424  26.429  1.00  0.00     0.029 A 
ATOM     20  N   UNL A   1      44.424  27.111  26.627  1.00  0.00    -0.354 N 
ATOM     21  C   UNL A   1      45.227  31.096  28.251  1.00  0.00     0.074 A 
ATOM     22  C   UNL A   1      44.012  31.716  28.729  1.00  0.00     0.031 C 
ATOM     23  C   UNL A   1      43.100  25.409  26.042  1.00  0.00     0.029 A 
ATOM     24  C   UNL A   1      44.494  25.807  26.184  1.00  0.00     0.049 A 
ATOM     25  H   UNL A   1      45.216  27.684  26.746  1.00  0.00     0.167 HD
ATOM     26  C   UNL A   1      46.438  31.696  28.215  1.00  0.00     0.031 A 
ATOM     27  C   UNL A   1      45.569  25.032  25.940  1.00  0.00     0.031 A 
ATOM     28  C   UNL A   1      47.624  31.044  27.730  1.00  0.00     0.049 A 
ATOM     29  C   UNL A   1      46.924  25.684  26.033  1.00  0.00     0.074 A 
ATOM     30  C   UNL A   1      48.897  31.563  27.589  1.00  0.00     0.029 A 
ATOM     31  N   UNL A   1      47.675  29.724  27.305  1.00  0.00    -0.354 N 
ATOM     32  N   UNL A   1      47.229  26.890  26.456  1.00  0.00    -0.248 NA
ATOM     33  C   UNL A   1      48.073  24.902  25.558  1.00  0.00     0.031 C 
ATOM     34  C   UNL A   1      49.707  30.567  27.033  1.00  0.00     0.029 A 
ATOM     35  C   UNL A   1      48.951  29.416  26.876  1.00  0.00     0.049 A 
ATOM     36  H   UNL A   1      46.913  29.099  27.309  1.00  0.00     0.167 HD
ATOM     37  C   UNL A   1      48.591  27.034  26.230  1.00  0.00     0.074 A 
ATOM     38  C   UNL A   1      49.069  25.761  25.727  1.00  0.00     0.031 C 
ATOM     39  C   UNL A   1      49.370  28.135  26.366  1.00  0.00     0.031 A 
BRANCH  26  40
ATOM     40  C   UNL A   1      46.497  33.150  28.581  1.00  0.00    -0.014 A 
ATOM     41  C   UNL A   1      46.285  34.169  27.639  1.00  0.00     0.010 A 
ATOM     42  C   UNL A   1      46.778  33.496  29.917  1.00  0.00     0.010 A 
ATOM     43  C   UNL A   1      46.380  35.511  28.022  1.00  0.00     0.020 A 
ATOM     44  C   UNL A   1      46.854  34.834  30.308  1.00  0.00     0.020 A 
ATOM     45  C   UNL A   1      46.668  35.834  29.354  1.00  0.00     0.054 A 
BRANCH  45  46
ATOM     46  S   UNL A   1      46.767  37.583  29.829  1.00  0.00     0.124 S 
ATOM     47  O   UNL A   1      45.358  37.973  29.832  1.00  0.00    -0.237 OA
ATOM     48  O   UNL A   1      47.405  37.523  31.141  1.00  0.00    -0.237 OA
ATOM     49  O   UNL A   1      47.576  38.184  28.772  1.00  0.00    -0.744 OA
ENDBRANCH  45  46
ENDBRANCH  26  40
BRANCH  27  50
ATOM     50  C   UNL A   1      45.429  23.600  25.540  1.00  0.00    -0.014 A 
ATOM     51  C   UNL A   1      45.461  23.233  24.179  1.00  0.00     0.010 A 
ATOM     52  C   UNL A   1      45.223  22.594  26.501  1.00  0.00     0.010 A 
ATOM     53  C   UNL A   1      45.253  21.903  23.790  1.00  0.00     0.020 A 
ATOM     54  C   UNL A   1      45.052  21.260  26.120  1.00  0.00     0.020 A 
ATOM     55  C   UNL A   1      45.041  20.926  24.764  1.00  0.00     0.054 A 
BRANCH  55  56
ATOM     56  S   UNL A   1      44.758  19.198  24.291  1.00  0.00     0.124 S 
ATOM     57  O   UNL A   1      43.597  18.846  25.101  1.00  0.00    -0.237 OA
ATOM     58  O   UNL A   1      44.518  19.271  22.852  1.00  0.00    -0.237 OA
ATOM     59  O   UNL A   1      46.014  18.555  24.670  1.00  0.00    -0.744 OA
ENDBRANCH  55  56
ENDBRANCH  27  50
BRANCH  39  60
ATOM     60  C   UNL A   1      50.790  28.020  25.893  1.00  0.00    -0.014 A 
ATOM     61  C   UNL A   1      51.760  27.430  26.724  1.00  0.00     0.010 A 
ATOM     62  C   UNL A   1      51.137  28.413  24.590  1.00  0.00     0.010 A 
ATOM     63  C   UNL A   1      53.062  27.246  26.262  1.00  0.00     0.020 A 
ATOM     64  C   UNL A   1      52.435  28.210  24.118  1.00  0.00     0.020 A 
ATOM     65  C   UNL A   1      53.391  27.634  24.959  1.00  0.00     0.054 A 
BRANCH  65  66
ATOM     66  S   UNL A   1      55.070  27.315  24.357  1.00  0.00     0.124 S 
ATOM     67  O   UNL A   1      55.593  26.416  25.383  1.00  0.00    -0.237 OA
ATOM     68  O   UNL A   1      54.834  26.708  23.050  1.00  0.00    -0.237 OA
ATOM     69  O   UNL A   1      55.681  28.641  24.321  1.00  0.00    -0.744 OA
ENDBRANCH  65  66
ENDBRANCH  39  60
ENDBRANCH  13  14
ENDBRANCH   6   8
ENDBRANCH   5   6
ENDBRANCH   4   5
ENDBRANCH   3   4
ENDBRANCH   2   3
ENDBRANCH   1   2
BRANCH   1  70
ATOM     70  C   UNL A   1      31.719  29.267  24.607  1.00  0.00     0.188 C 
BRANCH  70  71
ATOM     71  O   UNL A   1      31.058  28.074  25.028  1.00  0.00    -0.376 OA
BRANCH  71  72
ATOM     72  C   UNL A   1      30.145  27.454  24.131  1.00  0.00     0.202 C 
BRANCH  72  73
ATOM     73  C   UNL A   1      30.421  26.017  23.664  1.00  0.00     0.261 C 
BRANCH  73  74
ATOM     74  O   UNL A   1      31.650  25.420  24.093  1.00  0.00    -0.462 OA
BRANCH  74  75
ATOM     75  C   UNL A   1      31.684  24.068  23.948  1.00  0.00     0.324 C 
ATOM     76  O   UNL A   1      31.528  23.511  22.868  1.00  0.00    -0.250 OA
BRANCH  75  77
ATOM     77  C   UNL A   1      31.972  23.309  25.241  1.00  0.00     0.185 C 
ATOM     78  C   UNL A   1      31.331  21.912  25.334  1.00  0.00     0.065 C 
ATOM     79  N   UNL A   1      33.454  23.115  25.644  1.00  0.00    -0.181 NA
ATOM     80  C   UNL A   1      32.509  20.961  25.262  1.00  0.00     0.131 C 
ATOM     81  C   UNL A   1      33.513  21.704  26.131  1.00  0.00     0.135 C 
BRANCH  79  82
ATOM     82  S   UNL A   1      34.561  23.564  24.405  1.00  0.00     0.244 S 
ATOM     83  O   UNL A   1      34.143  22.869  23.196  1.00  0.00    -0.207 OA
ATOM     84  O   UNL A   1      34.692  24.997  24.419  1.00  0.00    -0.207 OA
BRANCH  82  85
ATOM     85  C   UNL A   1      36.163  22.948  24.836  1.00  0.00     0.086 A 
ATOM     86  C   UNL A   1      36.532  21.667  24.396  1.00  0.00     0.026 A 
ATOM     87  C   UNL A   1      36.951  23.629  25.760  1.00  0.00     0.072 A 
ATOM     88  C   UNL A   1      37.702  21.076  24.869  1.00  0.00     0.052 A 
ATOM     89  C   UNL A   1      38.155  23.070  26.160  1.00  0.00     0.162 A 
ATOM     90  C   UNL A   1      38.517  21.781  25.750  1.00  0.00     0.161 A 
ATOM     91  O   UNL A   1      38.944  23.840  26.974  1.00  0.00    -0.486 OA
ATOM     92  O   UNL A   1      39.654  21.145  26.181  1.00  0.00    -0.486 OA
ATOM     93  C   UNL A   1      40.304  23.395  26.877  1.00  0.00     0.271 C 
ATOM     94  C   UNL A   1      40.345  21.907  27.185  1.00  0.00     0.271 C 
ENDBRANCH  82  85
ENDBRANCH  79  82
BRANCH  80  95
ATOM     95  O   UNL A   1      32.154  19.687  25.749  1.00  0.00    -0.392 OA
ATOM     96  H   UNL A   1      32.421  19.611  26.679  1.00  0.00     0.211 HD
ENDBRANCH  80  95
ENDBRANCH  75  77
ENDBRANCH  74  75
ENDBRANCH  73  74
ENDBRANCH  72  73
ENDBRANCH  71  72
ENDBRANCH  70  71
ENDBRANCH   1  70
TORSDOF 23
ENDMDL
MODEL 3
REMARK VINA RESULT:     -10.1      6.141     12.134
REMARK SMILES O=C(OCCOCCOCCOC(=O)[C@H]1C[C@H](O)CN1S(=O)(=O)c1ccc2c(c1)OCCO2)c1ccc(-c2c3nc(c(-c4ccc(S(=O)(=O)[O-])cc4)c4ccc([nH]4)c(-c4ccc(S(=O)(=O)[O-])cc4)c4nc(c(-c5ccc(S(=O)(=O)[O-])cc5)c5ccc2[nH]5)C=C4)C=C3)cc1
REMARK SMILES IDX 7 1 6 2 5 3 4 4 3 5 2 6 1 7 34 8 35 9 93 10 36 11 92 12
REMARK SMILES IDX 37 13 38 14 39 15 86 16 40 17 91 18 85 19 87 20 41 21 90 22
REMARK SMILES IDX 84 23 83 24 42 26 72 27 53 28 71 29 54 30 57 31 70 32 88 33
REMARK SMILES IDX 55 34 56 35 69 37 89 38 58 39 43 40 44 41 52 42 45 43 51 44
REMARK SMILES IDX 46 45 47 46 48 47 49 48 50 49 73 50 74 51 82 52 75 53 81 54
REMARK SMILES IDX 76 55 77 56 78 57 79 58 80 59 59 60 60 61 68 62 61 63 67 64
REMARK SMILES IDX 62 65 63 66 64 67 65 68 66 69 8 70 9 71 10 72 11 73 12 74
REMARK SMILES IDX 13 75 14 76 15 77 16 78 20 79 17 80 19 81 21 82 22 83 23 84
REMARK SMILES IDX 24 85 25 86 29 87 26 88 28 89 27 90 30 91 33 92 31 93 32 94
REMARK SMILES IDX 18 95
REMARK H PARENT 87 25 57 36 18 96
REMARK Flexibility Score: inf
ROOT
ATOM      1  C   UNL A   1      42.102  21.491  26.662  1.00  0.00     0.188 C 
ENDROOT
BRANCH   1   2
ATOM      2  O   UNL A   1      42.768  21.464  25.392  1.00  0.00    -0.376 OA
BRANCH   2   3
ATOM      3  C   UNL A   1      43.400  22.701  25.054  1.00  0.00     0.202 C 
BRANCH   3   4
ATOM      4  C   UNL A   1      43.342  23.778  26.146  1.00  0.00     0.261 C 
BRANCH   4   5
ATOM      5  O   UNL A   1      42.989  25.073  25.637  1.00  0.00    -0.460 OA
BRANCH   5   6
ATOM      6  C   UNL A   1      41.826  25.746  25.822  1.00  0.00     0.338 C 
ATOM      7  O   UNL A   1      40.908  25.571  25.021  1.00  0.00    -0.246 OA
BRANCH   6   8
ATOM      8  C   UNL A   1      41.579  26.658  26.977  1.00  0.00     0.060 A 
ATOM      9  C   UNL A   1      41.978  27.995  27.042  1.00  0.00     0.016 A 
ATOM     10  C   UNL A   1      40.800  26.147  28.029  1.00  0.00     0.016 A 
ATOM     11  C   UNL A   1      41.693  28.778  28.157  1.00  0.00     0.010 A 
ATOM     12  C   UNL A   1      40.476  26.938  29.135  1.00  0.00     0.010 A 
ATOM     13  C   UNL A   1      40.947  28.251  29.213  1.00  0.00    -0.014 A 
BRANCH  13  14
ATOM     14  C   UNL A   1      40.731  29.081  30.413  1.00  0.00     0.031 A 
ATOM     15  C   UNL A   1      41.766  29.067  31.494  1.00  0.00     0.074 A 
ATOM     16  C   UNL A   1      39.652  29.882  30.479  1.00  0.00     0.049 A 
ATOM     17  N   UNL A   1      41.787  29.730  32.616  1.00  0.00    -0.248 NA
ATOM     18  C   UNL A   1      42.919  28.170  31.299  1.00  0.00     0.031 C 
ATOM     19  C   UNL A   1      38.605  29.947  29.463  1.00  0.00     0.029 A 
ATOM     20  N   UNL A   1      39.281  30.827  31.399  1.00  0.00    -0.354 N 
ATOM     21  C   UNL A   1      42.896  29.260  33.305  1.00  0.00     0.074 A 
ATOM     22  C   UNL A   1      43.563  28.307  32.448  1.00  0.00     0.031 C 
ATOM     23  C   UNL A   1      37.767  30.953  29.761  1.00  0.00     0.029 A 
ATOM     24  C   UNL A   1      38.192  31.576  31.007  1.00  0.00     0.049 A 
ATOM     25  H   UNL A   1      39.747  30.959  32.256  1.00  0.00     0.167 HD
ATOM     26  C   UNL A   1      43.274  29.561  34.568  1.00  0.00     0.031 A 
ATOM     27  C   UNL A   1      37.624  32.649  31.592  1.00  0.00     0.031 A 
ATOM     28  C   UNL A   1      42.582  30.515  35.390  1.00  0.00     0.049 A 
ATOM     29  C   UNL A   1      38.146  33.055  32.945  1.00  0.00     0.074 A 
ATOM     30  C   UNL A   1      42.833  30.865  36.703  1.00  0.00     0.029 A 
ATOM     31  N   UNL A   1      41.498  31.272  34.968  1.00  0.00    -0.354 N 
ATOM     32  N   UNL A   1      39.188  32.588  33.597  1.00  0.00    -0.248 NA
ATOM     33  C   UNL A   1      37.387  34.080  33.673  1.00  0.00     0.031 C 
ATOM     34  C   UNL A   1      41.867  31.800  37.090  1.00  0.00     0.029 A 
ATOM     35  C   UNL A   1      41.048  32.069  36.003  1.00  0.00     0.049 A 
ATOM     36  H   UNL A   1      41.106  31.244  34.065  1.00  0.00     0.167 HD
ATOM     37  C   UNL A   1      39.164  33.212  34.837  1.00  0.00     0.074 A 
ATOM     38  C   UNL A   1      38.067  34.160  34.809  1.00  0.00     0.031 C 
ATOM     39  C   UNL A   1      39.938  32.983  35.927  1.00  0.00     0.031 A 
BRANCH  26  40
ATOM     40  C   UNL A   1      44.392  28.754  35.163  1.00  0.00    -0.014 A 
ATOM     41  C   UNL A   1      45.739  29.125  35.024  1.00  0.00     0.010 A 
ATOM     42  C   UNL A   1      44.071  27.586  35.880  1.00  0.00     0.010 A 
ATOM     43  C   UNL A   1      46.748  28.325  35.572  1.00  0.00     0.020 A 
ATOM     44  C   UNL A   1      45.072  26.795  36.444  1.00  0.00     0.020 A 
ATOM     45  C   UNL A   1      46.407  27.163  36.275  1.00  0.00     0.054 A 
BRANCH  45  46
ATOM     46  S   UNL A   1      47.734  26.152  36.991  1.00  0.00     0.124 S 
ATOM     47  O   UNL A   1      47.344  26.099  38.398  1.00  0.00    -0.237 OA
ATOM     48  O   UNL A   1      47.611  24.896  36.257  1.00  0.00    -0.237 OA
ATOM     49  O   UNL A   1      48.944  26.920  36.709  1.00  0.00    -0.744 OA
ENDBRANCH  45  46
ENDBRANCH  26  40
BRANCH  27  50
ATOM     50  C   UNL A   1      36.485  33.377  30.956  1.00  0.00    -0.014 A 
ATOM     51  C   UNL A   1      36.622  33.931  29.667  1.00  0.00     0.010 A 
ATOM     52  C   UNL A   1      35.269  33.561  31.639  1.00  0.00     0.010 A 
ATOM     53  C   UNL A   1      35.586  34.682  29.095  1.00  0.00     0.020 A 
ATOM     54  C   UNL A   1      34.219  34.278  31.058  1.00  0.00     0.020 A 
ATOM     55  C   UNL A   1      34.394  34.858  29.799  1.00  0.00     0.054 A 
BRANCH  55  56
ATOM     56  S   UNL A   1      33.039  35.834  29.090  1.00  0.00     0.124 S 
ATOM     57  O   UNL A   1      32.369  34.855  28.243  1.00  0.00    -0.237 OA
ATOM     58  O   UNL A   1      32.282  36.271  30.261  1.00  0.00    -0.237 OA
ATOM     59  O   UNL A   1      33.749  36.900  28.388  1.00  0.00    -0.744 OA
ENDBRANCH  55  56
ENDBRANCH  27  50
BRANCH  39  60
ATOM     60  C   UNL A   1      39.569  33.716  37.183  1.00  0.00    -0.014 A 
ATOM     61  C   UNL A   1      39.137  32.996  38.313  1.00  0.00     0.010 A 
ATOM     62  C   UNL A   1      39.739  35.107  37.270  1.00  0.00     0.010 A 
ATOM     63  C   UNL A   1      38.869  33.660  39.509  1.00  0.00     0.020 A 
ATOM     64  C   UNL A   1      39.492  35.772  38.472  1.00  0.00     0.020 A 
ATOM     65  C   UNL A   1      39.052  35.045  39.582  1.00  0.00     0.054 A 
BRANCH  65  66
ATOM     66  S   UNL A   1      38.769  35.874  41.169  1.00  0.00     0.124 S 
ATOM     67  O   UNL A   1      39.917  35.426  41.952  1.00  0.00    -0.237 OA
ATOM     68  O   UNL A   1      38.773  37.287  40.799  1.00  0.00    -0.237 OA
ATOM     69  O   UNL A   1      37.476  35.353  41.604  1.00  0.00    -0.744 OA
ENDBRANCH  65  66
ENDBRANCH  39  60
ENDBRANCH  13  14
ENDBRANCH   6   8
ENDBRANCH   5   6
ENDBRANCH   4   5
ENDBRANCH   3   4
ENDBRANCH   2   3
ENDBRANCH   1   2
BRANCH   1  70
ATOM     70  C   UNL A   1      40.664  21.003  26.525  1.00  0.00     0.188 C 
BRANCH  70  71
ATOM     71  O   UNL A   1      39.777  21.871  25.820  1.00  0.00    -0.376 OA
BRANCH  71  72
ATOM     72  C   UNL A   1      39.220  22.979  26.516  1.00  0.00     0.202 C 
BRANCH  72  73
ATOM     73  C   UNL A   1      37.849  23.518  26.082  1.00  0.00     0.261 C 
BRANCH  73  74
ATOM     74  O   UNL A   1      37.098  22.716  25.163  1.00  0.00    -0.462 OA
BRANCH  74  75
ATOM     75  C   UNL A   1      35.946  22.215  25.686  1.00  0.00     0.324 C 
ATOM     76  O   UNL A   1      35.720  22.185  26.890  1.00  0.00    -0.250 OA
BRANCH  75  77
ATOM     77  C   UNL A   1      34.944  21.732  24.640  1.00  0.00     0.185 C 
ATOM     78  C   UNL A   1      34.245  20.401  24.973  1.00  0.00     0.065 C 
ATOM     79  N   UNL A   1      33.814  22.705  24.225  1.00  0.00    -0.181 NA
ATOM     80  C   UNL A   1      32.807  20.798  25.240  1.00  0.00     0.131 C 
ATOM     81  C   UNL A   1      32.602  21.836  24.145  1.00  0.00     0.135 C 
BRANCH  79  82
ATOM     82  S   UNL A   1      33.714  24.100  25.229  1.00  0.00     0.244 S 
ATOM     83  O   UNL A   1      33.157  23.662  26.502  1.00  0.00    -0.207 OA
ATOM     84  O   UNL A   1      34.981  24.780  25.178  1.00  0.00    -0.207 OA
BRANCH  82  85
ATOM     85  C   UNL A   1      32.554  25.226  24.509  1.00  0.00     0.086 A 
ATOM     86  C   UNL A   1      31.516  24.708  23.718  1.00  0.00     0.026 A 
ATOM     87  C   UNL A   1      32.788  26.597  24.555  1.00  0.00     0.072 A 
ATOM     88  C   UNL A   1      30.702  25.569  22.985  1.00  0.00     0.052 A 
ATOM     89  C   UNL A   1      31.920  27.451  23.891  1.00  0.00     0.162 A 
ATOM     90  C   UNL A   1      30.901  26.944  23.075  1.00  0.00     0.161 A 
ATOM     91  O   UNL A   1      32.128  28.793  24.072  1.00  0.00    -0.486 OA
ATOM     92  O   UNL A   1      30.067  27.739  22.330  1.00  0.00    -0.486 OA
ATOM     93  C   UNL A   1      30.915  29.504  23.789  1.00  0.00     0.271 C 
ATOM     94  C   UNL A   1      30.449  29.122  22.394  1.00  0.00     0.271 C 
ENDBRANCH  82  85
ENDBRANCH  79  82
BRANCH  80  95
ATOM     95  O   UNL A   1      31.953  19.682  25.145  1.00  0.00    -0.392 OA
ATOM     96  H   UNL A   1      31.545  19.661  24.265  1.00  0.00     0.211 HD
ENDBRANCH  80  95
ENDBRANCH  75  77
ENDBRANCH  74  75
ENDBRANCH  73  74
ENDBRANCH  72  73
ENDBRANCH  71  72
ENDBRANCH  70  71
ENDBRANCH   1  70
TORSDOF 23
ENDMDL
