MODEL 1
REMARK VINA RESULT:      -9.6      0.000      0.000
REMARK SMILES C=C[C@@H]1[C@@H](O)C[C@H]2[C@]3(CC[C@]4(C)[C@@H]([C@H](C)CCC=C(C)C)CC[C@]24C)C[C@]13CCC(=O)OCCOCCOCCOC(=O)c1ccc(-c2c3nc(c(-c4ccc(S(=O)(=O)[O-])cc4)c4ccc([nH]4)c(-c4ccc(S(=O)(=O)[O-])cc4)c4nc(c(-c5ccc(S(=O)(=O)[O-])cc5)c5ccc2[nH]5)C=C4)C=C3)cc1
REMARK SMILES IDX 35 1 34 2 33 3 32 4 30 5 31 6 29 7 28 8 27 9 3 10 4 11 6 12
REMARK SMILES IDX 8 13 26 14 7 15 9 16 24 17 10 18 11 19 23 20 25 21 13 22
REMARK SMILES IDX 12 23 22 24 2 25 1 26 5 27 14 29 15 30 16 31 17 32 18 33
REMARK SMILES IDX 19 34 20 35 21 36 36 37 37 38 38 39 39 40 40 41 41 42 42 43
REMARK SMILES IDX 43 44 44 45 45 46 103 47 46 48 102 49 47 50 48 51 49 52
REMARK SMILES IDX 96 53 50 54 101 55 95 56 97 57 51 58 100 59 94 60 93 61
REMARK SMILES IDX 52 63 82 64 63 65 81 66 64 67 67 68 80 69 98 70 65 71 66 72
REMARK SMILES IDX 79 74 99 75 68 76 53 77 54 78 62 79 55 80 61 81 56 82 57 83
REMARK SMILES IDX 58 84 59 85 60 86 83 87 84 88 92 89 85 90 91 91 86 92 87 93
REMARK SMILES IDX 88 94 89 95 90 96 69 97 70 98 78 99 71 100 77 101 72 102
REMARK SMILES IDX 73 103 74 104 75 105 76 106
REMARK H PARENT 5 28 97 62 67 73
REMARK Flexibility Score: inf
ROOT
ATOM      1  O   UNL A   1      35.669  33.254  28.415  1.00  0.00    -0.376 OA
ENDROOT
BRANCH   1   2
ATOM      2  C   UNL A   1      35.148  31.945  28.635  1.00  0.00     0.202 C 
BRANCH   2   3
ATOM      3  C   UNL A   1      34.393  31.346  27.448  1.00  0.00     0.261 C 
BRANCH   3   4
ATOM      4  O   UNL A   1      32.986  31.641  27.514  1.00  0.00    -0.463 OA
BRANCH   4   5
ATOM      5  C   UNL A   1      32.207  31.129  26.528  1.00  0.00     0.305 C 
ATOM      6  O   UNL A   1      31.126  31.589  26.184  1.00  0.00    -0.252 OA
BRANCH   5   7
ATOM      7  C   UNL A   1      32.787  29.884  25.881  1.00  0.00     0.123 C 
BRANCH   7   8
ATOM      8  C   UNL A   1      32.240  28.490  26.237  1.00  0.00     0.020 C 
BRANCH   8   9
ATOM      9  C   UNL A   1      31.694  27.645  25.069  1.00  0.00    -0.014 C 
ATOM     10  C   UNL A   1      31.595  28.407  23.718  1.00  0.00     0.047 C 
ATOM     11  C   UNL A   1      32.289  27.651  22.575  1.00  0.00     0.122 C 
ATOM     12  C   UNL A   1      31.862  26.197  22.554  1.00  0.00     0.037 C 
ATOM     13  C   UNL A   1      31.867  26.075  25.120  1.00  0.00    -0.019 C 
ATOM     14  C   UNL A   1      30.520  26.701  25.330  1.00  0.00     0.016 C 
ATOM     15  C   UNL A   1      32.354  25.438  23.805  1.00  0.00     0.005 C 
ATOM     16  C   UNL A   1      32.327  25.306  26.352  1.00  0.00     0.008 C 
ATOM     17  C   UNL A   1      32.097  23.881  23.701  1.00  0.00    -0.023 C 
ATOM     18  C   UNL A   1      31.942  23.826  26.253  1.00  0.00     0.008 C 
ATOM     19  C   UNL A   1      32.520  23.106  25.020  1.00  0.00    -0.024 C 
ATOM     20  C   UNL A   1      33.077  23.266  22.663  1.00  0.00     0.008 C 
ATOM     21  C   UNL A   1      30.644  23.618  23.251  1.00  0.00     0.012 C 
ATOM     22  C   UNL A   1      34.088  23.147  24.916  1.00  0.00    -0.002 C 
ATOM     23  C   UNL A   1      31.974  21.657  25.023  1.00  0.00     0.012 C 
ATOM     24  C   UNL A   1      34.364  22.918  23.415  1.00  0.00     0.005 C 
BRANCH  10  25
ATOM     25  C   UNL A   1      30.199  28.900  23.360  1.00  0.00    -0.028 C 
ATOM     26  C   UNL A   1      29.947  30.018  22.666  1.00  0.00     0.004 C 
ENDBRANCH  10  25
BRANCH  11  27
ATOM     27  O   UNL A   1      33.716  27.730  22.684  1.00  0.00    -0.392 OA
ATOM     28  H   UNL A   1      33.959  28.540  23.160  1.00  0.00     0.210 HD
ENDBRANCH  11  27
BRANCH  22  29
ATOM     29  C   UNL A   1      35.072  22.334  25.820  1.00  0.00    -0.010 C 
ATOM     30  C   UNL A   1      34.498  21.799  27.133  1.00  0.00     0.008 C 
BRANCH  29  31
ATOM     31  C   UNL A   1      36.423  23.053  26.092  1.00  0.00     0.008 C 
BRANCH  31  32
ATOM     32  C   UNL A   1      37.600  22.605  25.203  1.00  0.00     0.027 C 
BRANCH  32  33
ATOM     33  C   UNL A   1      38.689  21.899  25.947  1.00  0.00    -0.028 C 
ATOM     34  C   UNL A   1      39.634  22.443  26.733  1.00  0.00    -0.080 C 
ATOM     35  C   UNL A   1      40.702  21.552  27.296  1.00  0.00     0.039 C 
ATOM     36  C   UNL A   1      39.753  23.911  27.028  1.00  0.00     0.039 C 
ENDBRANCH  32  33
ENDBRANCH  31  32
ENDBRANCH  29  31
ENDBRANCH  22  29
ENDBRANCH   8   9
ENDBRANCH   7   8
ENDBRANCH   5   7
ENDBRANCH   4   5
ENDBRANCH   3   4
ENDBRANCH   2   3
ENDBRANCH   1   2
BRANCH   1  37
ATOM     37  C   UNL A   1      35.260  34.252  29.338  1.00  0.00     0.188 C 
BRANCH  37  38
ATOM     38  C   UNL A   1      33.785  34.244  29.718  1.00  0.00     0.188 C 
BRANCH  38  39
ATOM     39  O   UNL A   1      33.343  34.969  30.862  1.00  0.00    -0.376 OA
BRANCH  39  40
ATOM     40  C   UNL A   1      34.328  35.017  31.914  1.00  0.00     0.202 C 
BRANCH  40  41
ATOM     41  C   UNL A   1      34.319  33.835  32.917  1.00  0.00     0.261 C 
BRANCH  41  42
ATOM     42  O   UNL A   1      35.284  32.785  32.655  1.00  0.00    -0.460 OA
BRANCH  42  43
ATOM     43  C   UNL A   1      36.322  32.640  33.521  1.00  0.00     0.338 C 
ATOM     44  O   UNL A   1      36.220  32.422  34.713  1.00  0.00    -0.246 OA
BRANCH  43  45
ATOM     45  C   UNL A   1      37.595  32.481  32.736  1.00  0.00     0.060 A 
ATOM     46  C   UNL A   1      38.736  32.022  33.415  1.00  0.00     0.016 A 
ATOM     47  C   UNL A   1      37.654  32.638  31.346  1.00  0.00     0.016 A 
ATOM     48  C   UNL A   1      39.935  31.780  32.727  1.00  0.00     0.010 A 
ATOM     49  C   UNL A   1      38.857  32.402  30.658  1.00  0.00     0.010 A 
ATOM     50  C   UNL A   1      40.019  32.011  31.348  1.00  0.00    -0.014 A 
BRANCH  50  51
ATOM     51  C   UNL A   1      41.352  32.101  30.679  1.00  0.00     0.031 A 
ATOM     52  C   UNL A   1      42.085  33.420  30.763  1.00  0.00     0.074 A 
ATOM     53  C   UNL A   1      41.928  31.070  30.027  1.00  0.00     0.049 A 
ATOM     54  N   UNL A   1      43.226  33.774  30.231  1.00  0.00    -0.248 NA
ATOM     55  C   UNL A   1      41.437  34.481  31.554  1.00  0.00     0.031 C 
ATOM     56  C   UNL A   1      41.375  29.725  29.891  1.00  0.00     0.029 A 
ATOM     57  N   UNL A   1      43.122  31.008  29.340  1.00  0.00    -0.354 N 
ATOM     58  C   UNL A   1      43.422  35.100  30.604  1.00  0.00     0.074 A 
ATOM     59  C   UNL A   1      42.277  35.493  31.394  1.00  0.00     0.031 C 
ATOM     60  C   UNL A   1      42.218  28.976  29.153  1.00  0.00     0.029 A 
ATOM     61  C   UNL A   1      43.359  29.792  28.735  1.00  0.00     0.049 A 
ATOM     62  H   UNL A   1      43.750  31.764  29.286  1.00  0.00     0.167 HD
ATOM     63  C   UNL A   1      44.458  35.922  30.321  1.00  0.00     0.031 A 
ATOM     64  C   UNL A   1      44.361  29.392  27.921  1.00  0.00     0.031 A 
ATOM     65  C   UNL A   1      45.608  35.548  29.545  1.00  0.00     0.049 A 
ATOM     66  C   UNL A   1      45.477  30.353  27.567  1.00  0.00     0.074 A 
ATOM     67  C   UNL A   1      46.722  36.314  29.246  1.00  0.00     0.029 A 
ATOM     68  N   UNL A   1      45.794  34.317  28.941  1.00  0.00    -0.354 N 
ATOM     69  N   UNL A   1      45.667  31.586  27.974  1.00  0.00    -0.248 NA
ATOM     70  C   UNL A   1      46.517  29.864  26.647  1.00  0.00     0.031 C 
ATOM     71  C   UNL A   1      47.551  35.570  28.405  1.00  0.00     0.029 A 
ATOM     72  C   UNL A   1      46.988  34.316  28.240  1.00  0.00     0.049 A 
ATOM     73  H   UNL A   1      45.171  33.558  29.000  1.00  0.00     0.167 HD
ATOM     74  C   UNL A   1      46.863  32.001  27.390  1.00  0.00     0.074 A 
ATOM     75  C   UNL A   1      47.361  30.886  26.614  1.00  0.00     0.031 C 
ATOM     76  C   UNL A   1      47.493  33.198  27.487  1.00  0.00     0.031 A 
BRANCH  63  77
ATOM     77  C   UNL A   1      44.391  37.338  30.826  1.00  0.00    -0.014 A 
ATOM     78  C   UNL A   1      44.220  37.618  32.193  1.00  0.00     0.010 A 
ATOM     79  C   UNL A   1      44.594  38.398  29.925  1.00  0.00     0.010 A 
ATOM     80  C   UNL A   1      44.246  38.939  32.648  1.00  0.00     0.020 A 
ATOM     81  C   UNL A   1      44.646  39.717  30.380  1.00  0.00     0.020 A 
ATOM     82  C   UNL A   1      44.466  39.980  31.739  1.00  0.00     0.054 A 
BRANCH  82  83
ATOM     83  S   UNL A   1      44.568  41.676  32.369  1.00  0.00     0.124 S 
ATOM     84  O   UNL A   1      44.167  42.456  31.201  1.00  0.00    -0.237 OA
ATOM     85  O   UNL A   1      43.612  41.664  33.474  1.00  0.00    -0.237 OA
ATOM     86  O   UNL A   1      45.968  41.819  32.761  1.00  0.00    -0.744 OA
ENDBRANCH  82  83
ENDBRANCH  63  77
BRANCH  64  87
ATOM     87  C   UNL A   1      44.357  28.023  27.319  1.00  0.00    -0.014 A 
ATOM     88  C   UNL A   1      45.068  26.964  27.915  1.00  0.00     0.010 A 
ATOM     89  C   UNL A   1      43.710  27.795  26.090  1.00  0.00     0.010 A 
ATOM     90  C   UNL A   1      45.169  25.723  27.274  1.00  0.00     0.020 A 
ATOM     91  C   UNL A   1      43.781  26.547  25.463  1.00  0.00     0.020 A 
ATOM     92  C   UNL A   1      44.529  25.525  26.048  1.00  0.00     0.054 A 
BRANCH  92  93
ATOM     93  S   UNL A   1      44.673  23.911  25.230  1.00  0.00     0.124 S 
ATOM     94  O   UNL A   1      45.765  24.144  24.289  1.00  0.00    -0.237 OA
ATOM     95  O   UNL A   1      44.978  23.017  26.343  1.00  0.00    -0.237 OA
ATOM     96  O   UNL A   1      43.358  23.715  24.625  1.00  0.00    -0.744 OA
ENDBRANCH  92  93
ENDBRANCH  64  87
BRANCH  76  97
ATOM     97  C   UNL A   1      48.822  33.365  26.793  1.00  0.00    -0.014 A 
ATOM     98  C   UNL A   1      48.984  34.249  25.712  1.00  0.00     0.010 A 
ATOM     99  C   UNL A   1      49.949  32.678  27.285  1.00  0.00     0.010 A 
ATOM    100  C   UNL A   1      50.239  34.418  25.117  1.00  0.00     0.020 A 
ATOM    101  C   UNL A   1      51.210  32.867  26.713  1.00  0.00     0.020 A 
ATOM    102  C   UNL A   1      51.344  33.727  25.621  1.00  0.00     0.054 A 
BRANCH 102 103
ATOM    103  S   UNL A   1      52.970  33.998  24.863  1.00  0.00     0.124 S 
ATOM    104  O   UNL A   1      53.877  33.640  25.950  1.00  0.00    -0.237 OA
ATOM    105  O   UNL A   1      52.953  33.076  23.729  1.00  0.00    -0.237 OA
ATOM    106  O   UNL A   1      52.956  35.414  24.505  1.00  0.00    -0.744 OA
ENDBRANCH 102 103
ENDBRANCH  76  97
ENDBRANCH  50  51
ENDBRANCH  43  45
ENDBRANCH  42  43
ENDBRANCH  41  42
ENDBRANCH  40  41
ENDBRANCH  39  40
ENDBRANCH  38  39
ENDBRANCH  37  38
ENDBRANCH   1  37
TORSDOF 28
ENDMDL
MODEL 2
REMARK VINA RESULT:      -9.3      5.831      9.104
REMARK SMILES C=C[C@@H]1[C@@H](O)C[C@H]2[C@]3(CC[C@]4(C)[C@@H]([C@H](C)CCC=C(C)C)CC[C@]24C)C[C@]13CCC(=O)OCCOCCOCCOC(=O)c1ccc(-c2c3nc(c(-c4ccc(S(=O)(=O)[O-])cc4)c4ccc([nH]4)c(-c4ccc(S(=O)(=O)[O-])cc4)c4nc(c(-c5ccc(S(=O)(=O)[O-])cc5)c5ccc2[nH]5)C=C4)C=C3)cc1
REMARK SMILES IDX 35 1 34 2 33 3 32 4 30 5 31 6 29 7 28 8 27 9 3 10 4 11 6 12
REMARK SMILES IDX 8 13 26 14 7 15 9 16 24 17 10 18 11 19 23 20 25 21 13 22
REMARK SMILES IDX 12 23 22 24 2 25 1 26 5 27 14 29 15 30 16 31 17 32 18 33
REMARK SMILES IDX 19 34 20 35 21 36 36 37 37 38 38 39 39 40 40 41 41 42 42 43
REMARK SMILES IDX 43 44 44 45 45 46 103 47 46 48 102 49 47 50 48 51 49 52
REMARK SMILES IDX 96 53 50 54 101 55 95 56 97 57 51 58 100 59 94 60 93 61
REMARK SMILES IDX 52 63 82 64 63 65 81 66 64 67 67 68 80 69 98 70 65 71 66 72
REMARK SMILES IDX 79 74 99 75 68 76 53 77 54 78 62 79 55 80 61 81 56 82 57 83
REMARK SMILES IDX 58 84 59 85 60 86 83 87 84 88 92 89 85 90 91 91 86 92 87 93
REMARK SMILES IDX 88 94 89 95 90 96 69 97 70 98 78 99 71 100 77 101 72 102
REMARK SMILES IDX 73 103 74 104 75 105 76 106
REMARK H PARENT 5 28 97 62 67 73
REMARK Flexibility Score: inf
ROOT
ATOM      1  O   UNL A   1      36.649  32.392  29.433  1.00  0.00    -0.376 OA
ENDROOT
BRANCH   1   2
ATOM      2  C   UNL A   1      35.951  31.304  28.833  1.00  0.00     0.202 C 
BRANCH   2   3
ATOM      3  C   UNL A   1      34.947  31.702  27.751  1.00  0.00     0.261 C 
BRANCH   3   4
ATOM      4  O   UNL A   1      33.641  31.159  28.017  1.00  0.00    -0.463 OA
BRANCH   4   5
ATOM      5  C   UNL A   1      32.806  31.028  26.957  1.00  0.00     0.305 C 
ATOM      6  O   UNL A   1      31.915  31.817  26.668  1.00  0.00    -0.252 OA
BRANCH   5   7
ATOM      7  C   UNL A   1      33.051  29.770  26.143  1.00  0.00     0.123 C 
BRANCH   7   8
ATOM      8  C   UNL A   1      32.289  28.471  26.461  1.00  0.00     0.020 C 
BRANCH   8   9
ATOM      9  C   UNL A   1      31.682  27.716  25.262  1.00  0.00    -0.014 C 
ATOM     10  C   UNL A   1      31.434  28.601  24.007  1.00  0.00     0.047 C 
ATOM     11  C   UNL A   1      32.060  27.996  22.741  1.00  0.00     0.122 C 
ATOM     12  C   UNL A   1      31.697  26.532  22.607  1.00  0.00     0.037 C 
ATOM     13  C   UNL A   1      31.927  26.161  25.139  1.00  0.00    -0.019 C 
ATOM     14  C   UNL A   1      30.577  26.692  25.520  1.00  0.00     0.016 C 
ATOM     15  C   UNL A   1      32.326  25.680  23.731  1.00  0.00     0.005 C 
ATOM     16  C   UNL A   1      32.523  25.300  26.245  1.00  0.00     0.008 C 
ATOM     17  C   UNL A   1      32.128  24.130  23.490  1.00  0.00    -0.023 C 
ATOM     18  C   UNL A   1      32.196  23.818  26.028  1.00  0.00     0.008 C 
ATOM     19  C   UNL A   1      32.696  23.253  24.685  1.00  0.00    -0.024 C 
ATOM     20  C   UNL A   1      33.042  23.670  22.320  1.00  0.00     0.008 C 
ATOM     21  C   UNL A   1      30.655  23.837  23.135  1.00  0.00     0.012 C 
ATOM     22  C   UNL A   1      34.247  23.385  24.460  1.00  0.00    -0.002 C 
ATOM     23  C   UNL A   1      32.216  21.784  24.586  1.00  0.00     0.012 C 
ATOM     24  C   UNL A   1      34.403  23.318  22.926  1.00  0.00     0.005 C 
BRANCH  10  25
ATOM     25  C   UNL A   1      29.993  29.053  23.815  1.00  0.00    -0.028 C 
ATOM     26  C   UNL A   1      29.128  28.482  22.966  1.00  0.00     0.004 C 
ENDBRANCH  10  25
BRANCH  11  27
ATOM     27  O   UNL A   1      33.487  28.138  22.741  1.00  0.00    -0.392 OA
ATOM     28  H   UNL A   1      33.815  28.104  21.828  1.00  0.00     0.210 HD
ENDBRANCH  11  27
BRANCH  22  29
ATOM     29  C   UNL A   1      35.339  22.539  25.193  1.00  0.00    -0.010 C 
ATOM     30  C   UNL A   1      34.841  21.316  25.965  1.00  0.00     0.008 C 
BRANCH  29  31
ATOM     31  C   UNL A   1      36.288  23.376  26.094  1.00  0.00     0.008 C 
BRANCH  31  32
ATOM     32  C   UNL A   1      37.676  23.675  25.494  1.00  0.00     0.027 C 
BRANCH  32  33
ATOM     33  C   UNL A   1      38.780  23.713  26.503  1.00  0.00    -0.028 C 
ATOM     34  C   UNL A   1      39.658  22.738  26.798  1.00  0.00    -0.080 C 
ATOM     35  C   UNL A   1      40.618  22.954  27.930  1.00  0.00     0.039 C 
ATOM     36  C   UNL A   1      39.695  21.396  26.125  1.00  0.00     0.039 C 
ENDBRANCH  32  33
ENDBRANCH  31  32
ENDBRANCH  29  31
ENDBRANCH  22  29
ENDBRANCH   8   9
ENDBRANCH   7   8
ENDBRANCH   5   7
ENDBRANCH   4   5
ENDBRANCH   3   4
ENDBRANCH   2   3
ENDBRANCH   1   2
BRANCH   1  37
ATOM     37  C   UNL A   1      36.234  32.756  30.741  1.00  0.00     0.188 C 
BRANCH  37  38
ATOM     38  C   UNL A   1      34.811  32.364  31.121  1.00  0.00     0.188 C 
BRANCH  38  39
ATOM     39  O   UNL A   1      34.083  33.155  32.055  1.00  0.00    -0.376 OA
BRANCH  39  40
ATOM     40  C   UNL A   1      34.916  34.083  32.777  1.00  0.00     0.202 C 
BRANCH  40  41
ATOM     41  C   UNL A   1      35.252  33.709  34.243  1.00  0.00     0.261 C 
BRANCH  41  42
ATOM     42  O   UNL A   1      36.393  32.832  34.419  1.00  0.00    -0.460 OA
BRANCH  42  43
ATOM     43  C   UNL A   1      37.304  33.152  35.374  1.00  0.00     0.338 C 
ATOM     44  O   UNL A   1      37.065  33.750  36.406  1.00  0.00    -0.246 OA
BRANCH  43  45
ATOM     45  C   UNL A   1      38.575  32.391  35.113  1.00  0.00     0.060 A 
ATOM     46  C   UNL A   1      38.516  30.988  35.112  1.00  0.00     0.016 A 
ATOM     47  C   UNL A   1      39.771  33.017  34.738  1.00  0.00     0.016 A 
ATOM     48  C   UNL A   1      39.648  30.219  34.801  1.00  0.00     0.010 A 
ATOM     49  C   UNL A   1      40.906  32.247  34.433  1.00  0.00     0.010 A 
ATOM     50  C   UNL A   1      40.867  30.842  34.502  1.00  0.00    -0.014 A 
BRANCH  50  51
ATOM     51  C   UNL A   1      42.138  30.057  34.520  1.00  0.00     0.031 A 
ATOM     52  C   UNL A   1      42.549  29.370  33.238  1.00  0.00     0.074 A 
ATOM     53  C   UNL A   1      42.929  29.947  35.607  1.00  0.00     0.049 A 
ATOM     54  N   UNL A   1      43.574  28.593  33.001  1.00  0.00    -0.248 NA
ATOM     55  C   UNL A   1      41.682  29.593  32.068  1.00  0.00     0.031 C 
ATOM     56  C   UNL A   1      42.698  30.580  36.903  1.00  0.00     0.029 A 
ATOM     57  N   UNL A   1      44.099  29.240  35.787  1.00  0.00    -0.354 N 
ATOM     58  C   UNL A   1      43.463  28.218  31.667  1.00  0.00     0.074 A 
ATOM     59  C   UNL A   1      42.266  28.839  31.148  1.00  0.00     0.031 C 
ATOM     60  C   UNL A   1      43.684  30.220  37.749  1.00  0.00     0.029 A 
ATOM     61  C   UNL A   1      44.603  29.307  37.069  1.00  0.00     0.049 A 
ATOM     62  H   UNL A   1      44.536  28.733  35.066  1.00  0.00     0.167 HD
ATOM     63  C   UNL A   1      44.280  27.430  30.930  1.00  0.00     0.031 A 
ATOM     64  C   UNL A   1      45.664  28.687  37.633  1.00  0.00     0.031 A 
ATOM     65  C   UNL A   1      45.479  26.810  31.425  1.00  0.00     0.049 A 
ATOM     66  C   UNL A   1      46.526  27.758  36.803  1.00  0.00     0.074 A 
ATOM     67  C   UNL A   1      46.385  26.027  30.729  1.00  0.00     0.029 A 
ATOM     68  N   UNL A   1      45.937  26.892  32.729  1.00  0.00    -0.354 N 
ATOM     69  N   UNL A   1      46.431  27.459  35.529  1.00  0.00    -0.248 NA
ATOM     70  C   UNL A   1      47.643  27.087  37.490  1.00  0.00     0.031 C 
ATOM     71  C   UNL A   1      47.355  25.579  31.628  1.00  0.00     0.029 A 
ATOM     72  C   UNL A   1      47.093  26.143  32.866  1.00  0.00     0.049 A 
ATOM     73  H   UNL A   1      45.505  27.404  33.449  1.00  0.00     0.167 HD
ATOM     74  C   UNL A   1      47.496  26.600  35.259  1.00  0.00     0.074 A 
ATOM     75  C   UNL A   1      48.229  26.436  36.495  1.00  0.00     0.031 C 
ATOM     76  C   UNL A   1      47.834  25.999  34.091  1.00  0.00     0.031 A 
BRANCH  63  77
ATOM     77  C   UNL A   1      43.895  27.155  29.503  1.00  0.00    -0.014 A 
ATOM     78  C   UNL A   1      43.240  25.966  29.139  1.00  0.00     0.010 A 
ATOM     79  C   UNL A   1      44.112  28.148  28.530  1.00  0.00     0.010 A 
ATOM     80  C   UNL A   1      42.816  25.771  27.822  1.00  0.00     0.020 A 
ATOM     81  C   UNL A   1      43.666  27.967  27.219  1.00  0.00     0.020 A 
ATOM     82  C   UNL A   1      43.026  26.776  26.872  1.00  0.00     0.054 A 
BRANCH  82  83
ATOM     83  S   UNL A   1      42.399  26.525  25.190  1.00  0.00     0.124 S 
ATOM     84  O   UNL A   1      42.654  27.827  24.577  1.00  0.00    -0.237 OA
ATOM     85  O   UNL A   1      43.229  25.428  24.700  1.00  0.00    -0.237 OA
ATOM     86  O   UNL A   1      40.990  26.196  25.389  1.00  0.00    -0.744 OA
ENDBRANCH  82  83
ENDBRANCH  63  77
BRANCH  64  87
ATOM     87  C   UNL A   1      45.968  28.863  39.086  1.00  0.00    -0.014 A 
ATOM     88  C   UNL A   1      45.489  27.950  40.045  1.00  0.00     0.010 A 
ATOM     89  C   UNL A   1      46.668  30.001  39.528  1.00  0.00     0.010 A 
ATOM     90  C   UNL A   1      45.664  28.195  41.413  1.00  0.00     0.020 A 
ATOM     91  C   UNL A   1      46.874  30.232  40.892  1.00  0.00     0.020 A 
ATOM     92  C   UNL A   1      46.351  29.339  41.828  1.00  0.00     0.054 A 
BRANCH  92  93
ATOM     93  S   UNL A   1      46.566  29.642  43.605  1.00  0.00     0.124 S 
ATOM     94  O   UNL A   1      47.851  29.000  43.867  1.00  0.00    -0.237 OA
ATOM     95  O   UNL A   1      46.561  31.100  43.681  1.00  0.00    -0.237 OA
ATOM     96  O   UNL A   1      45.406  28.989  44.206  1.00  0.00    -0.744 OA
ENDBRANCH  92  93
ENDBRANCH  64  87
BRANCH  76  97
ATOM     97  C   UNL A   1      49.083  25.154  34.059  1.00  0.00    -0.014 A 
ATOM     98  C   UNL A   1      50.348  25.714  33.807  1.00  0.00     0.010 A 
ATOM     99  C   UNL A   1      48.996  23.781  34.364  1.00  0.00     0.010 A 
ATOM    100  C   UNL A   1      51.496  24.914  33.829  1.00  0.00     0.020 A 
ATOM    101  C   UNL A   1      50.143  22.985  34.416  1.00  0.00     0.020 A 
ATOM    102  C   UNL A   1      51.386  23.554  34.134  1.00  0.00     0.054 A 
BRANCH 102 103
ATOM    103  S   UNL A   1      52.893  22.546  34.202  1.00  0.00     0.124 S 
ATOM    104  O   UNL A   1      53.937  23.565  34.274  1.00  0.00    -0.237 OA
ATOM    105  O   UNL A   1      52.699  21.760  35.419  1.00  0.00    -0.237 OA
ATOM    106  O   UNL A   1      52.856  21.779  32.960  1.00  0.00    -0.744 OA
ENDBRANCH 102 103
ENDBRANCH  76  97
ENDBRANCH  50  51
ENDBRANCH  43  45
ENDBRANCH  42  43
ENDBRANCH  41  42
ENDBRANCH  40  41
ENDBRANCH  39  40
ENDBRANCH  38  39
ENDBRANCH  37  38
ENDBRANCH   1  37
TORSDOF 28
ENDMDL
MODEL 3
REMARK VINA RESULT:      -9.3      8.194     12.003
REMARK SMILES C=C[C@@H]1[C@@H](O)C[C@H]2[C@]3(CC[C@]4(C)[C@@H]([C@H](C)CCC=C(C)C)CC[C@]24C)C[C@]13CCC(=O)OCCOCCOCCOC(=O)c1ccc(-c2c3nc(c(-c4ccc(S(=O)(=O)[O-])cc4)c4ccc([nH]4)c(-c4ccc(S(=O)(=O)[O-])cc4)c4nc(c(-c5ccc(S(=O)(=O)[O-])cc5)c5ccc2[nH]5)C=C4)C=C3)cc1
REMARK SMILES IDX 35 1 34 2 33 3 32 4 30 5 31 6 29 7 28 8 27 9 3 10 4 11 6 12
REMARK SMILES IDX 8 13 26 14 7 15 9 16 24 17 10 18 11 19 23 20 25 21 13 22
REMARK SMILES IDX 12 23 22 24 2 25 1 26 5 27 14 29 15 30 16 31 17 32 18 33
REMARK SMILES IDX 19 34 20 35 21 36 36 37 37 38 38 39 39 40 40 41 41 42 42 43
REMARK SMILES IDX 43 44 44 45 45 46 103 47 46 48 102 49 47 50 48 51 49 52
REMARK SMILES IDX 96 53 50 54 101 55 95 56 97 57 51 58 100 59 94 60 93 61
REMARK SMILES IDX 52 63 82 64 63 65 81 66 64 67 67 68 80 69 98 70 65 71 66 72
REMARK SMILES IDX 79 74 99 75 68 76 53 77 54 78 62 79 55 80 61 81 56 82 57 83
REMARK SMILES IDX 58 84 59 85 60 86 83 87 84 88 92 89 85 90 91 91 86 92 87 93
REMARK SMILES IDX 88 94 89 95 90 96 69 97 70 98 78 99 71 100 77 101 72 102
REMARK SMILES IDX 73 103 74 104 75 105 76 106
REMARK H PARENT 5 28 97 62 67 73
REMARK Flexibility Score: inf
ROOT
ATOM      1  O   UNL A   1      36.402  30.804  28.027  1.00  0.00    -0.376 OA
ENDROOT
BRANCH   1   2
ATOM      2  C   UNL A   1      35.158  30.272  27.577  1.00  0.00     0.202 C 
BRANCH   2   3
ATOM      3  C   UNL A   1      33.983  31.248  27.635  1.00  0.00     0.261 C 
BRANCH   3   4
ATOM      4  O   UNL A   1      32.721  30.561  27.558  1.00  0.00    -0.463 OA
BRANCH   4   5
ATOM      5  C   UNL A   1      31.927  30.856  26.499  1.00  0.00     0.305 C 
ATOM      6  O   UNL A   1      31.268  31.882  26.385  1.00  0.00    -0.252 OA
BRANCH   5   7
ATOM      7  C   UNL A   1      31.897  29.768  25.440  1.00  0.00     0.123 C 
BRANCH   7   8
ATOM      8  C   UNL A   1      32.337  28.332  25.782  1.00  0.00     0.020 C 
BRANCH   8   9
ATOM      9  C   UNL A   1      31.759  27.207  24.900  1.00  0.00    -0.014 C 
ATOM     10  C   UNL A   1      31.005  27.706  23.635  1.00  0.00     0.047 C 
ATOM     11  C   UNL A   1      31.516  27.031  22.354  1.00  0.00     0.122 C 
ATOM     12  C   UNL A   1      31.597  25.529  22.532  1.00  0.00     0.037 C 
ATOM     13  C   UNL A   1      32.437  25.781  24.947  1.00  0.00    -0.019 C 
ATOM     14  C   UNL A   1      31.096  26.008  25.579  1.00  0.00     0.016 C 
ATOM     15  C   UNL A   1      32.670  25.133  23.569  1.00  0.00     0.005 C 
ATOM     16  C   UNL A   1      33.479  25.363  25.977  1.00  0.00     0.008 C 
ATOM     17  C   UNL A   1      32.911  23.570  23.615  1.00  0.00    -0.023 C 
ATOM     18  C   UNL A   1      33.582  23.836  26.069  1.00  0.00     0.008 C 
ATOM     19  C   UNL A   1      33.949  23.149  24.740  1.00  0.00    -0.024 C 
ATOM     20  C   UNL A   1      33.664  23.128  22.330  1.00  0.00     0.008 C 
ATOM     21  C   UNL A   1      31.557  22.833  23.695  1.00  0.00     0.012 C 
ATOM     22  C   UNL A   1      35.306  23.632  24.109  1.00  0.00    -0.002 C 
ATOM     23  C   UNL A   1      33.930  21.620  24.981  1.00  0.00     0.012 C 
ATOM     24  C   UNL A   1      35.161  23.282  22.613  1.00  0.00     0.005 C 
BRANCH  10  25
ATOM     25  C   UNL A   1      29.487  27.713  23.755  1.00  0.00    -0.028 C 
ATOM     26  C   UNL A   1      28.675  28.493  23.028  1.00  0.00     0.004 C 
ENDBRANCH  10  25
BRANCH  11  27
ATOM     27  O   UNL A   1      32.800  27.539  21.968  1.00  0.00    -0.392 OA
ATOM     28  H   UNL A   1      33.452  27.323  22.654  1.00  0.00     0.210 HD
ENDBRANCH  11  27
BRANCH  22  29
ATOM     29  C   UNL A   1      36.729  23.279  24.654  1.00  0.00    -0.010 C 
ATOM     30  C   UNL A   1      37.194  21.837  24.445  1.00  0.00     0.008 C 
BRANCH  29  31
ATOM     31  C   UNL A   1      36.961  23.696  26.132  1.00  0.00     0.008 C 
BRANCH  31  32
ATOM     32  C   UNL A   1      38.342  24.311  26.436  1.00  0.00     0.027 C 
BRANCH  32  33
ATOM     33  C   UNL A   1      39.303  23.360  27.076  1.00  0.00    -0.028 C 
ATOM     34  C   UNL A   1      40.576  23.597  27.438  1.00  0.00    -0.080 C 
ATOM     35  C   UNL A   1      41.397  22.457  27.966  1.00  0.00     0.039 C 
ATOM     36  C   UNL A   1      41.275  24.916  27.272  1.00  0.00     0.039 C 
ENDBRANCH  32  33
ENDBRANCH  31  32
ENDBRANCH  29  31
ENDBRANCH  22  29
ENDBRANCH   8   9
ENDBRANCH   7   8
ENDBRANCH   5   7
ENDBRANCH   4   5
ENDBRANCH   3   4
ENDBRANCH   2   3
ENDBRANCH   1   2
BRANCH   1  37
ATOM     37  C   UNL A   1      37.124  30.007  28.954  1.00  0.00     0.188 C 
BRANCH  37  38
ATOM     38  C   UNL A   1      36.453  29.783  30.303  1.00  0.00     0.188 C 
BRANCH  38  39
ATOM     39  O   UNL A   1      36.761  30.639  31.399  1.00  0.00    -0.376 OA
BRANCH  39  40
ATOM     40  C   UNL A   1      35.928  31.815  31.446  1.00  0.00     0.202 C 
BRANCH  40  41
ATOM     41  C   UNL A   1      36.615  33.158  31.087  1.00  0.00     0.261 C 
BRANCH  41  42
ATOM     42  O   UNL A   1      37.576  33.646  32.056  1.00  0.00    -0.460 OA
BRANCH  42  43
ATOM     43  C   UNL A   1      37.123  34.441  33.062  1.00  0.00     0.338 C 
ATOM     44  O   UNL A   1      36.194  35.221  32.980  1.00  0.00    -0.246 OA
BRANCH  43  45
ATOM     45  C   UNL A   1      37.734  33.984  34.358  1.00  0.00     0.060 A 
ATOM     46  C   UNL A   1      38.564  34.883  35.048  1.00  0.00     0.016 A 
ATOM     47  C   UNL A   1      37.403  32.767  34.966  1.00  0.00     0.016 A 
ATOM     48  C   UNL A   1      39.105  34.548  36.300  1.00  0.00     0.010 A 
ATOM     49  C   UNL A   1      37.950  32.429  36.216  1.00  0.00     0.010 A 
ATOM     50  C   UNL A   1      38.839  33.298  36.874  1.00  0.00    -0.014 A 
BRANCH  50  51
ATOM     51  C   UNL A   1      39.674  32.798  38.008  1.00  0.00     0.031 A 
ATOM     52  C   UNL A   1      41.128  32.499  37.721  1.00  0.00     0.074 A 
ATOM     53  C   UNL A   1      39.201  32.616  39.257  1.00  0.00     0.049 A 
ATOM     54  N   UNL A   1      42.050  32.011  38.510  1.00  0.00    -0.248 NA
ATOM     55  C   UNL A   1      41.600  32.791  36.356  1.00  0.00     0.031 C 
ATOM     56  C   UNL A   1      37.840  32.895  39.708  1.00  0.00     0.029 A 
ATOM     57  N   UNL A   1      39.831  32.135  40.386  1.00  0.00    -0.354 N 
ATOM     58  C   UNL A   1      43.201  31.918  37.735  1.00  0.00     0.074 A 
ATOM     59  C   UNL A   1      42.861  32.385  36.410  1.00  0.00     0.031 C 
ATOM     60  C   UNL A   1      37.732  32.566  41.010  1.00  0.00     0.029 A 
ATOM     61  C   UNL A   1      39.006  32.023  41.484  1.00  0.00     0.049 A 
ATOM     62  H   UNL A   1      40.784  31.892  40.406  1.00  0.00     0.167 HD
ATOM     63  C   UNL A   1      44.434  31.487  38.086  1.00  0.00     0.031 A 
ATOM     64  C   UNL A   1      39.241  31.520  42.717  1.00  0.00     0.031 A 
ATOM     65  C   UNL A   1      44.794  31.027  39.400  1.00  0.00     0.049 A 
ATOM     66  C   UNL A   1      40.613  30.983  43.065  1.00  0.00     0.074 A 
ATOM     67  C   UNL A   1      46.036  30.609  39.847  1.00  0.00     0.029 A 
ATOM     68  N   UNL A   1      43.924  30.915  40.469  1.00  0.00    -0.354 N 
ATOM     69  N   UNL A   1      41.701  30.953  42.331  1.00  0.00    -0.248 NA
ATOM     70  C   UNL A   1      40.790  30.416  44.413  1.00  0.00     0.031 C 
ATOM     71  C   UNL A   1      45.903  30.180  41.169  1.00  0.00     0.029 A 
ATOM     72  C   UNL A   1      44.594  30.400  41.565  1.00  0.00     0.049 A 
ATOM     73  H   UNL A   1      42.972  31.164  40.453  1.00  0.00     0.167 HD
ATOM     74  C   UNL A   1      42.693  30.402  43.141  1.00  0.00     0.074 A 
ATOM     75  C   UNL A   1      42.084  30.125  44.424  1.00  0.00     0.031 C 
ATOM     76  C   UNL A   1      43.992  30.147  42.848  1.00  0.00     0.031 A 
BRANCH  63  77
ATOM     77  C   UNL A   1      45.497  31.455  37.023  1.00  0.00    -0.014 A 
ATOM     78  C   UNL A   1      45.648  30.345  36.174  1.00  0.00     0.010 A 
ATOM     79  C   UNL A   1      46.296  32.594  36.815  1.00  0.00     0.010 A 
ATOM     80  C   UNL A   1      46.586  30.373  35.139  1.00  0.00     0.020 A 
ATOM     81  C   UNL A   1      47.216  32.636  35.767  1.00  0.00     0.020 A 
ATOM     82  C   UNL A   1      47.360  31.521  34.938  1.00  0.00     0.054 A 
BRANCH  82  83
ATOM     83  S   UNL A   1      48.515  31.556  33.542  1.00  0.00     0.124 S 
ATOM     84  O   UNL A   1      48.692  30.133  33.261  1.00  0.00    -0.237 OA
ATOM     85  O   UNL A   1      47.773  32.308  32.533  1.00  0.00    -0.237 OA
ATOM     86  O   UNL A   1      49.692  32.234  34.080  1.00  0.00    -0.744 OA
ENDBRANCH  82  83
ENDBRANCH  63  77
BRANCH  64  87
ATOM     87  C   UNL A   1      38.145  31.436  43.731  1.00  0.00    -0.014 A 
ATOM     88  C   UNL A   1      37.784  32.555  44.506  1.00  0.00     0.010 A 
ATOM     89  C   UNL A   1      37.514  30.205  43.988  1.00  0.00     0.010 A 
ATOM     90  C   UNL A   1      36.851  32.433  45.543  1.00  0.00     0.020 A 
ATOM     91  C   UNL A   1      36.558  30.087  45.002  1.00  0.00     0.020 A 
ATOM     92  C   UNL A   1      36.249  31.197  45.789  1.00  0.00     0.054 A 
BRANCH  92  93
ATOM     93  S   UNL A   1      35.044  31.056  47.140  1.00  0.00     0.124 S 
ATOM     94  O   UNL A   1      35.797  30.304  48.139  1.00  0.00    -0.237 OA
ATOM     95  O   UNL A   1      34.774  32.453  47.470  1.00  0.00    -0.237 OA
ATOM     96  O   UNL A   1      33.927  30.341  46.529  1.00  0.00    -0.744 OA
ENDBRANCH  92  93
ENDBRANCH  64  87
BRANCH  76  97
ATOM     97  C   UNL A   1      44.875  29.595  43.939  1.00  0.00    -0.014 A 
ATOM     98  C   UNL A   1      45.042  28.211  44.125  1.00  0.00     0.010 A 
ATOM     99  C   UNL A   1      45.614  30.483  44.745  1.00  0.00     0.010 A 
ATOM    100  C   UNL A   1      45.904  27.727  45.116  1.00  0.00     0.020 A 
ATOM    101  C   UNL A   1      46.498  30.004  45.716  1.00  0.00     0.020 A 
ATOM    102  C   UNL A   1      46.627  28.627  45.904  1.00  0.00     0.054 A 
BRANCH 102 103
ATOM    103  S   UNL A   1      47.774  27.975  47.151  1.00  0.00     0.124 S 
ATOM    104  O   UNL A   1      46.888  27.751  48.290  1.00  0.00    -0.237 OA
ATOM    105  O   UNL A   1      48.292  26.768  46.510  1.00  0.00    -0.237 OA
ATOM    106  O   UNL A   1      48.749  29.048  47.322  1.00  0.00    -0.744 OA
ENDBRANCH 102 103
ENDBRANCH  76  97
ENDBRANCH  50  51
ENDBRANCH  43  45
ENDBRANCH  42  43
ENDBRANCH  41  42
ENDBRANCH  40  41
ENDBRANCH  39  40
ENDBRANCH  38  39
ENDBRANCH  37  38
ENDBRANCH   1  37
TORSDOF 28
ENDMDL
