MODEL 1
REMARK VINA RESULT:     -10.5      0.000      0.000
REMARK SMILES CC(C)[C@H](NC(=O)OCc1ccccc1)C(=O)NCC(=O)OCCOCCOCCOC(=O)c1ccc(-c2c3nc(c(-c4ccc(S(=O)(=O)[O-])cc4)c4ccc([nH]4)c(-c4ccc(S(=O)(=O)[O-])cc4)c4nc(c(-c5ccc(S(=O)(=O)[O-])cc5)c5ccc2[nH]5)C=C4)C=C3)cc1
REMARK SMILES IDX 25 1 24 2 23 3 22 4 20 5 21 6 19 7 18 8 16 9 17 10 4 12 2 13
REMARK SMILES IDX 1 14 3 15 5 16 6 17 7 19 8 20 9 21 10 22 11 23 15 24 12 25
REMARK SMILES IDX 14 26 13 27 26 28 27 29 28 30 29 31 30 32 31 33 32 34 33 35
REMARK SMILES IDX 34 36 35 37 93 38 36 39 92 40 37 41 38 42 39 43 86 44 40 45
REMARK SMILES IDX 91 46 85 47 87 48 41 49 90 50 84 51 83 52 42 54 72 55 53 56
REMARK SMILES IDX 71 57 54 58 57 59 70 60 88 61 55 62 56 63 69 65 89 66 58 67
REMARK SMILES IDX 43 68 44 69 52 70 45 71 51 72 46 73 47 74 48 75 49 76 50 77
REMARK SMILES IDX 73 78 74 79 82 80 75 81 81 82 76 83 77 84 78 85 79 86 80 87
REMARK SMILES IDX 59 88 60 89 68 90 61 91 67 92 62 93 63 94 64 95 65 96 66 97
REMARK H PARENT 18 11 5 18 87 53 57 64
REMARK Flexibility Score: inf
ROOT
ATOM      1  O   UNL A   1      40.226  21.439  26.648  1.00  0.00    -0.376 OA
ENDROOT
BRANCH   1   2
ATOM      2  C   UNL A   1      38.864  21.637  25.802  1.00  0.00     0.202 C 
BRANCH   2   3
ATOM      3  C   UNL A   1      37.447  23.315  25.734  1.00  0.00     0.261 C 
BRANCH   3   4
ATOM      4  O   UNL A   1      35.769  23.164  25.563  1.00  0.00    -0.462 OA
BRANCH   4   5
ATOM      5  C   UNL A   1      34.999  24.112  24.957  1.00  0.00     0.325 C 
ATOM      6  O   UNL A   1      34.834  25.233  25.430  1.00  0.00    -0.250 OA
BRANCH   5   7
ATOM      7  C   UNL A   1      34.453  23.742  23.519  1.00  0.00     0.238 C 
BRANCH   7   8
ATOM      8  N   UNL A   1      33.507  22.683  23.103  1.00  0.00    -0.343 N 
ATOM      9  C   UNL A   1      32.788  21.738  23.755  1.00  0.00     0.243 C 
ATOM     10  O   UNL A   1      31.971  21.083  23.099  1.00  0.00    -0.273 OA
ATOM     11  H   UNL A   1      33.370  22.658  22.128  1.00  0.00     0.164 HD
BRANCH   9  12
ATOM     12  C   UNL A   1      32.865  21.588  25.268  1.00  0.00     0.177 C 
BRANCH  12  13
ATOM     13  C   UNL A   1      33.602  20.245  25.621  1.00  0.00     0.015 C 
ATOM     14  C   UNL A   1      32.740  18.980  25.517  1.00  0.00     0.010 C 
ATOM     15  C   UNL A   1      34.948  20.043  24.881  1.00  0.00     0.010 C 
ENDBRANCH  12  13
BRANCH  12  16
ATOM     16  N   UNL A   1      31.563  21.785  25.911  1.00  0.00    -0.309 N 
ATOM     17  C   UNL A   1      31.082  22.965  26.439  1.00  0.00     0.408 C 
ATOM     18  H   UNL A   1      30.974  20.999  25.972  1.00  0.00     0.167 HD
ATOM     19  O   UNL A   1      30.131  22.968  27.209  1.00  0.00    -0.225 OA
BRANCH  17  20
ATOM     20  O   UNL A   1      31.691  24.076  25.953  1.00  0.00    -0.445 OA
BRANCH  20  21
ATOM     21  C   UNL A   1      31.413  25.317  26.633  1.00  0.00     0.270 C 
BRANCH  21  22
ATOM     22  C   UNL A   1      31.046  26.389  25.634  1.00  0.00    -0.011 A 
ATOM     23  C   UNL A   1      29.709  26.107  24.457  1.00  0.00     0.007 A 
ATOM     24  C   UNL A   1      31.857  27.975  25.625  1.00  0.00     0.007 A 
ATOM     25  C   UNL A   1      29.069  27.463  23.402  1.00  0.00     0.000 A 
ATOM     26  C   UNL A   1      31.257  29.299  24.588  1.00  0.00     0.000 A 
ATOM     27  C   UNL A   1      29.912  29.043  23.440  1.00  0.00     0.000 A 
ENDBRANCH  21  22
ENDBRANCH  20  21
ENDBRANCH  17  20
ENDBRANCH  12  16
ENDBRANCH   9  12
ENDBRANCH   7   8
ENDBRANCH   5   7
ENDBRANCH   4   5
ENDBRANCH   3   4
ENDBRANCH   2   3
ENDBRANCH   1   2
BRANCH   1  28
ATOM     28  C   UNL A   1      41.495  20.981  26.123  1.00  0.00     0.188 C 
BRANCH  28  29
ATOM     29  C   UNL A   1      42.778  21.852  26.143  1.00  0.00     0.188 C 
BRANCH  29  30
ATOM     30  O   UNL A   1      42.812  23.059  25.415  1.00  0.00    -0.376 OA
BRANCH  30  31
ATOM     31  C   UNL A   1      43.662  24.067  25.936  1.00  0.00     0.202 C 
BRANCH  31  32
ATOM     32  C   UNL A   1      42.999  25.400  26.293  1.00  0.00     0.261 C 
BRANCH  32  33
ATOM     33  O   UNL A   1      41.867  25.251  27.171  1.00  0.00    -0.460 OA
BRANCH  33  34
ATOM     34  C   UNL A   1      40.713  25.842  26.758  1.00  0.00     0.338 C 
ATOM     35  O   UNL A   1      39.998  25.494  25.835  1.00  0.00    -0.246 OA
BRANCH  34  36
ATOM     36  C   UNL A   1      40.292  26.820  27.791  1.00  0.00     0.060 A 
ATOM     37  C   UNL A   1      40.602  28.181  27.600  1.00  0.00     0.016 A 
ATOM     38  C   UNL A   1      39.588  26.406  28.920  1.00  0.00     0.016 A 
ATOM     39  C   UNL A   1      40.259  29.121  28.568  1.00  0.00     0.010 A 
ATOM     40  C   UNL A   1      39.280  27.340  29.908  1.00  0.00     0.010 A 
ATOM     41  C   UNL A   1      39.668  28.684  29.757  1.00  0.00    -0.014 A 
BRANCH  41  42
ATOM     42  C   UNL A   1      39.786  29.525  30.969  1.00  0.00     0.031 A 
ATOM     43  C   UNL A   1      40.953  29.241  31.878  1.00  0.00     0.074 A 
ATOM     44  C   UNL A   1      38.901  30.491  31.259  1.00  0.00     0.049 A 
ATOM     45  N   UNL A   1      41.230  29.730  33.055  1.00  0.00    -0.248 NA
ATOM     46  C   UNL A   1      41.934  28.253  31.390  1.00  0.00     0.031 C 
ATOM     47  C   UNL A   1      37.779  30.898  30.416  1.00  0.00     0.029 A 
ATOM     48  N   UNL A   1      38.807  31.299  32.363  1.00  0.00    -0.354 N 
ATOM     49  C   UNL A   1      42.400  29.094  33.457  1.00  0.00     0.074 A 
ATOM     50  C   UNL A   1      42.764  28.163  32.415  1.00  0.00     0.031 C 
ATOM     51  C   UNL A   1      37.094  31.870  31.047  1.00  0.00     0.029 A 
ATOM     52  C   UNL A   1      37.704  32.117  32.352  1.00  0.00     0.049 A 
ATOM     53  H   UNL A   1      39.466  31.291  33.094  1.00  0.00     0.167 HD
ATOM     54  C   UNL A   1      43.108  29.270  34.595  1.00  0.00     0.031 A 
ATOM     55  C   UNL A   1      37.231  32.944  33.306  1.00  0.00     0.031 A 
ATOM     56  C   UNL A   1      42.718  30.183  35.632  1.00  0.00     0.049 A 
ATOM     57  C   UNL A   1      37.984  33.058  34.608  1.00  0.00     0.074 A 
ATOM     58  C   UNL A   1      43.356  30.450  36.829  1.00  0.00     0.029 A 
ATOM     59  N   UNL A   1      41.577  30.972  35.597  1.00  0.00    -0.354 N 
ATOM     60  N   UNL A   1      39.093  32.461  34.978  1.00  0.00    -0.248 NA
ATOM     61  C   UNL A   1      37.425  33.965  35.620  1.00  0.00     0.031 C 
ATOM     62  C   UNL A   1      42.563  31.347  37.550  1.00  0.00     0.029 A 
ATOM     63  C   UNL A   1      41.474  31.704  36.766  1.00  0.00     0.049 A 
ATOM     64  H   UNL A   1      40.935  31.005  34.852  1.00  0.00     0.167 HD
ATOM     65  C   UNL A   1      39.384  32.947  36.248  1.00  0.00     0.074 A 
ATOM     66  C   UNL A   1      38.340  33.896  36.579  1.00  0.00     0.031 C 
ATOM     67  C   UNL A   1      40.423  32.644  37.069  1.00  0.00     0.031 A 
BRANCH  54  68
ATOM     68  C   UNL A   1      44.334  28.417  34.790  1.00  0.00    -0.014 A 
ATOM     69  C   UNL A   1      45.622  28.982  34.866  1.00  0.00     0.010 A 
ATOM     70  C   UNL A   1      44.196  27.022  34.909  1.00  0.00     0.010 A 
ATOM     71  C   UNL A   1      46.747  28.166  35.013  1.00  0.00     0.020 A 
ATOM     72  C   UNL A   1      45.314  26.206  35.093  1.00  0.00     0.020 A 
ATOM     73  C   UNL A   1      46.586  26.782  35.127  1.00  0.00     0.054 A 
BRANCH  73  74
ATOM     74  S   UNL A   1      48.061  25.750  35.342  1.00  0.00     0.124 S 
ATOM     75  O   UNL A   1      47.627  24.816  36.379  1.00  0.00    -0.237 OA
ATOM     76  O   UNL A   1      48.242  25.173  34.013  1.00  0.00    -0.237 OA
ATOM     77  O   UNL A   1      49.092  26.700  35.753  1.00  0.00    -0.744 OA
ENDBRANCH  73  74
ENDBRANCH  54  68
BRANCH  55  78
ATOM     78  C   UNL A   1      35.976  33.711  33.073  1.00  0.00    -0.014 A 
ATOM     79  C   UNL A   1      36.023  35.048  32.642  1.00  0.00     0.010 A 
ATOM     80  C   UNL A   1      34.721  33.104  33.273  1.00  0.00     0.010 A 
ATOM     81  C   UNL A   1      34.842  35.766  32.426  1.00  0.00     0.020 A 
ATOM     82  C   UNL A   1      33.539  33.807  33.027  1.00  0.00     0.020 A 
ATOM     83  C   UNL A   1      33.607  35.138  32.613  1.00  0.00     0.054 A 
BRANCH  83  84
ATOM     84  S   UNL A   1      32.092  36.073  32.264  1.00  0.00     0.124 S 
ATOM     85  O   UNL A   1      32.253  37.244  33.120  1.00  0.00    -0.237 OA
ATOM     86  O   UNL A   1      32.200  36.318  30.828  1.00  0.00    -0.237 OA
ATOM     87  O   UNL A   1      31.024  35.155  32.655  1.00  0.00    -0.744 OA
ENDBRANCH  83  84
ENDBRANCH  55  78
BRANCH  67  88
ATOM     88  C   UNL A   1      40.514  33.381  38.381  1.00  0.00    -0.014 A 
ATOM     89  C   UNL A   1      41.475  34.383  38.600  1.00  0.00     0.010 A 
ATOM     90  C   UNL A   1      39.569  33.107  39.387  1.00  0.00     0.010 A 
ATOM     91  C   UNL A   1      41.511  35.072  39.815  1.00  0.00     0.020 A 
ATOM     92  C   UNL A   1      39.577  33.820  40.587  1.00  0.00     0.020 A 
ATOM     93  C   UNL A   1      40.558  34.789  40.799  1.00  0.00     0.054 A 
BRANCH  93  94
ATOM     94  S   UNL A   1      40.598  35.732  42.346  1.00  0.00     0.124 S 
ATOM     95  O   UNL A   1      41.930  36.330  42.303  1.00  0.00    -0.237 OA
ATOM     96  O   UNL A   1      39.485  36.662  42.181  1.00  0.00    -0.237 OA
ATOM     97  O   UNL A   1      40.406  34.716  43.379  1.00  0.00    -0.744 OA
ENDBRANCH  93  94
ENDBRANCH  67  88
ENDBRANCH  41  42
ENDBRANCH  34  36
ENDBRANCH  33  34
ENDBRANCH  32  33
ENDBRANCH  31  32
ENDBRANCH  30  31
ENDBRANCH  29  30
ENDBRANCH  28  29
ENDBRANCH   1  28
TORSDOF 27
ENDMDL
MODEL 2
REMARK VINA RESULT:     -10.1      5.235     11.399
REMARK SMILES CC(C)[C@H](NC(=O)OCc1ccccc1)C(=O)NCC(=O)OCCOCCOCCOC(=O)c1ccc(-c2c3nc(c(-c4ccc(S(=O)(=O)[O-])cc4)c4ccc([nH]4)c(-c4ccc(S(=O)(=O)[O-])cc4)c4nc(c(-c5ccc(S(=O)(=O)[O-])cc5)c5ccc2[nH]5)C=C4)C=C3)cc1
REMARK SMILES IDX 25 1 24 2 23 3 22 4 20 5 21 6 19 7 18 8 16 9 17 10 4 12 2 13
REMARK SMILES IDX 1 14 3 15 5 16 6 17 7 19 8 20 9 21 10 22 11 23 15 24 12 25
REMARK SMILES IDX 14 26 13 27 26 28 27 29 28 30 29 31 30 32 31 33 32 34 33 35
REMARK SMILES IDX 34 36 35 37 93 38 36 39 92 40 37 41 38 42 39 43 86 44 40 45
REMARK SMILES IDX 91 46 85 47 87 48 41 49 90 50 84 51 83 52 42 54 72 55 53 56
REMARK SMILES IDX 71 57 54 58 57 59 70 60 88 61 55 62 56 63 69 65 89 66 58 67
REMARK SMILES IDX 43 68 44 69 52 70 45 71 51 72 46 73 47 74 48 75 49 76 50 77
REMARK SMILES IDX 73 78 74 79 82 80 75 81 81 82 76 83 77 84 78 85 79 86 80 87
REMARK SMILES IDX 59 88 60 89 68 90 61 91 67 92 62 93 63 94 64 95 65 96 66 97
REMARK H PARENT 18 11 5 18 87 53 57 64
REMARK Flexibility Score: inf
ROOT
ATOM      1  O   UNL A   1      33.488  30.455  26.544  1.00  0.00    -0.376 OA
ENDROOT
BRANCH   1   2
ATOM      2  C   UNL A   1      34.258  29.067  26.845  1.00  0.00     0.202 C 
BRANCH   2   3
ATOM      3  C   UNL A   1      33.932  27.044  26.050  1.00  0.00     0.261 C 
BRANCH   3   4
ATOM      4  O   UNL A   1      32.568  26.088  26.356  1.00  0.00    -0.462 OA
BRANCH   4   5
ATOM      5  C   UNL A   1      32.473  24.787  25.959  1.00  0.00     0.325 C 
ATOM      6  O   UNL A   1      33.239  23.914  26.358  1.00  0.00    -0.250 OA
BRANCH   5   7
ATOM      7  C   UNL A   1      31.213  24.426  25.073  1.00  0.00     0.238 C 
BRANCH   7   8
ATOM      8  N   UNL A   1      30.155  25.301  24.522  1.00  0.00    -0.343 N 
ATOM      9  C   UNL A   1      30.140  26.368  23.687  1.00  0.00     0.243 C 
ATOM     10  O   UNL A   1      29.041  26.792  23.316  1.00  0.00    -0.273 OA
ATOM     11  H   UNL A   1      29.255  25.051  24.833  1.00  0.00     0.164 HD
BRANCH   9  12
ATOM     12  C   UNL A   1      31.427  26.934  23.101  1.00  0.00     0.177 C 
BRANCH  12  13
ATOM     13  C   UNL A   1      31.486  28.481  23.371  1.00  0.00     0.015 C 
ATOM     14  C   UNL A   1      30.784  29.354  22.322  1.00  0.00     0.010 C 
ATOM     15  C   UNL A   1      31.048  28.897  24.798  1.00  0.00     0.010 C 
ENDBRANCH  12  13
BRANCH  12  16
ATOM     16  N   UNL A   1      31.628  26.524  21.709  1.00  0.00    -0.309 N 
ATOM     17  C   UNL A   1      32.615  25.684  21.238  1.00  0.00     0.408 C 
ATOM     18  H   UNL A   1      30.997  26.884  21.044  1.00  0.00     0.167 HD
ATOM     19  O   UNL A   1      32.885  25.638  20.045  1.00  0.00    -0.225 OA
BRANCH  17  20
ATOM     20  O   UNL A   1      33.156  24.881  22.188  1.00  0.00    -0.445 OA
BRANCH  20  21
ATOM     21  C   UNL A   1      33.224  23.472  21.885  1.00  0.00     0.270 C 
BRANCH  21  22
ATOM     22  C   UNL A   1      33.976  22.741  22.971  1.00  0.00    -0.011 A 
ATOM     23  C   UNL A   1      35.668  23.217  23.376  1.00  0.00     0.007 A 
ATOM     24  C   UNL A   1      33.212  21.448  23.929  1.00  0.00     0.007 A 
ATOM     25  C   UNL A   1      36.524  22.529  24.844  1.00  0.00     0.000 A 
ATOM     26  C   UNL A   1      34.043  20.754  25.349  1.00  0.00     0.000 A 
ATOM     27  C   UNL A   1      35.707  21.240  25.781  1.00  0.00     0.000 A 
ENDBRANCH  21  22
ENDBRANCH  20  21
ENDBRANCH  17  20
ENDBRANCH  12  16
ENDBRANCH   9  12
ENDBRANCH   7   8
ENDBRANCH   5   7
ENDBRANCH   4   5
ENDBRANCH   3   4
ENDBRANCH   2   3
ENDBRANCH   1   2
BRANCH   1  28
ATOM     28  C   UNL A   1      33.270  31.529  27.490  1.00  0.00     0.188 C 
BRANCH  28  29
ATOM     29  C   UNL A   1      34.393  32.092  28.399  1.00  0.00     0.188 C 
BRANCH  29  30
ATOM     30  O   UNL A   1      34.344  33.439  28.814  1.00  0.00    -0.376 OA
BRANCH  30  31
ATOM     31  C   UNL A   1      34.439  33.655  30.211  1.00  0.00     0.202 C 
BRANCH  31  32
ATOM     32  C   UNL A   1      34.911  32.468  31.055  1.00  0.00     0.261 C 
BRANCH  32  33
ATOM     33  O   UNL A   1      35.729  32.860  32.173  1.00  0.00    -0.460 OA
BRANCH  33  34
ATOM     34  C   UNL A   1      36.888  33.504  31.865  1.00  0.00     0.338 C 
ATOM     35  O   UNL A   1      37.191  34.648  32.153  1.00  0.00    -0.246 OA
BRANCH  34  36
ATOM     36  C   UNL A   1      37.863  32.502  31.369  1.00  0.00     0.060 A 
ATOM     37  C   UNL A   1      38.390  31.564  32.276  1.00  0.00     0.016 A 
ATOM     38  C   UNL A   1      38.237  32.477  30.027  1.00  0.00     0.016 A 
ATOM     39  C   UNL A   1      39.339  30.635  31.855  1.00  0.00     0.010 A 
ATOM     40  C   UNL A   1      39.216  31.574  29.613  1.00  0.00     0.010 A 
ATOM     41  C   UNL A   1      39.807  30.696  30.540  1.00  0.00    -0.014 A 
BRANCH  41  42
ATOM     42  C   UNL A   1      41.135  30.124  30.223  1.00  0.00     0.031 A 
ATOM     43  C   UNL A   1      42.320  31.039  30.385  1.00  0.00     0.074 A 
ATOM     44  C   UNL A   1      41.287  28.858  29.806  1.00  0.00     0.049 A 
ATOM     45  N   UNL A   1      43.570  30.846  30.064  1.00  0.00    -0.248 NA
ATOM     46  C   UNL A   1      42.048  32.361  30.980  1.00  0.00     0.031 C 
ATOM     47  C   UNL A   1      40.220  27.868  29.684  1.00  0.00     0.029 A 
ATOM     48  N   UNL A   1      42.415  28.196  29.393  1.00  0.00    -0.354 N 
ATOM     49  C   UNL A   1      44.226  32.028  30.395  1.00  0.00     0.074 A 
ATOM     50  C   UNL A   1      43.234  32.941  30.911  1.00  0.00     0.031 C 
ATOM     51  C   UNL A   1      40.744  26.724  29.205  1.00  0.00     0.029 A 
ATOM     52  C   UNL A   1      42.169  26.921  28.946  1.00  0.00     0.049 A 
ATOM     53  H   UNL A   1      43.314  28.597  29.413  1.00  0.00     0.167 HD
ATOM     54  C   UNL A   1      45.539  32.325  30.277  1.00  0.00     0.031 A 
ATOM     55  C   UNL A   1      43.001  26.033  28.365  1.00  0.00     0.031 A 
ATOM     56  C   UNL A   1      46.508  31.413  29.737  1.00  0.00     0.049 A 
ATOM     57  C   UNL A   1      44.445  26.417  28.156  1.00  0.00     0.074 A 
ATOM     58  C   UNL A   1      47.868  31.601  29.571  1.00  0.00     0.029 A 
ATOM     59  N   UNL A   1      46.215  30.141  29.266  1.00  0.00    -0.354 N 
ATOM     60  N   UNL A   1      45.059  27.531  28.479  1.00  0.00    -0.248 NA
ATOM     61  C   UNL A   1      45.310  25.419  27.511  1.00  0.00     0.031 C 
ATOM     62  C   UNL A   1      48.384  30.470  28.932  1.00  0.00     0.029 A 
ATOM     63  C   UNL A   1      47.362  29.543  28.779  1.00  0.00     0.049 A 
ATOM     64  H   UNL A   1      45.322  29.727  29.277  1.00  0.00     0.167 HD
ATOM     65  C   UNL A   1      46.389  27.355  28.110  1.00  0.00     0.074 A 
ATOM     66  C   UNL A   1      46.491  26.022  27.550  1.00  0.00     0.031 C 
ATOM     67  C   UNL A   1      47.436  28.212  28.228  1.00  0.00     0.031 A 
BRANCH  54  68
ATOM     68  C   UNL A   1      45.979  33.707  30.686  1.00  0.00    -0.014 A 
ATOM     69  C   UNL A   1      46.405  33.987  31.999  1.00  0.00     0.010 A 
ATOM     70  C   UNL A   1      45.974  34.745  29.737  1.00  0.00     0.010 A 
ATOM     71  C   UNL A   1      46.775  35.284  32.362  1.00  0.00     0.020 A 
ATOM     72  C   UNL A   1      46.378  36.035  30.087  1.00  0.00     0.020 A 
ATOM     73  C   UNL A   1      46.760  36.301  31.403  1.00  0.00     0.054 A 
BRANCH  73  74
ATOM     74  S   UNL A   1      47.270  37.969  31.897  1.00  0.00     0.124 S 
ATOM     75  O   UNL A   1      47.198  38.694  30.631  1.00  0.00    -0.237 OA
ATOM     76  O   UNL A   1      46.259  38.331  32.887  1.00  0.00    -0.237 OA
ATOM     77  O   UNL A   1      48.618  37.778  32.428  1.00  0.00    -0.744 OA
ENDBRANCH  73  74
ENDBRANCH  54  68
BRANCH  55  78
ATOM     78  C   UNL A   1      42.486  24.706  27.924  1.00  0.00    -0.014 A 
ATOM     79  C   UNL A   1      42.503  23.605  28.798  1.00  0.00     0.010 A 
ATOM     80  C   UNL A   1      41.965  24.538  26.627  1.00  0.00     0.010 A 
ATOM     81  C   UNL A   1      42.021  22.361  28.380  1.00  0.00     0.020 A 
ATOM     82  C   UNL A   1      41.452  23.305  26.216  1.00  0.00     0.020 A 
ATOM     83  C   UNL A   1      41.491  22.220  27.094  1.00  0.00     0.054 A 
BRANCH  83  84
ATOM     84  S   UNL A   1      40.814  20.611  26.601  1.00  0.00     0.124 S 
ATOM     85  O   UNL A   1      41.766  20.179  25.582  1.00  0.00    -0.237 OA
ATOM     86  O   UNL A   1      40.843  19.863  27.854  1.00  0.00    -0.237 OA
ATOM     87  O   UNL A   1      39.477  20.938  26.108  1.00  0.00    -0.744 OA
ENDBRANCH  83  84
ENDBRANCH  55  78
BRANCH  67  88
ATOM     88  C   UNL A   1      48.793  27.721  27.792  1.00  0.00    -0.014 A 
ATOM     89  C   UNL A   1      49.650  27.041  28.674  1.00  0.00     0.010 A 
ATOM     90  C   UNL A   1      49.182  27.885  26.449  1.00  0.00     0.010 A 
ATOM     91  C   UNL A   1      50.887  26.567  28.230  1.00  0.00     0.020 A 
ATOM     92  C   UNL A   1      50.399  27.379  25.992  1.00  0.00     0.020 A 
ATOM     93  C   UNL A   1      51.252  26.735  26.890  1.00  0.00     0.054 A 
BRANCH  93  94
ATOM     94  S   UNL A   1      52.841  26.068  26.330  1.00  0.00     0.124 S 
ATOM     95  O   UNL A   1      53.705  26.335  27.477  1.00  0.00    -0.237 OA
ATOM     96  O   UNL A   1      52.529  24.661  26.091  1.00  0.00    -0.237 OA
ATOM     97  O   UNL A   1      53.142  26.846  25.130  1.00  0.00    -0.744 OA
ENDBRANCH  93  94
ENDBRANCH  67  88
ENDBRANCH  41  42
ENDBRANCH  34  36
ENDBRANCH  33  34
ENDBRANCH  32  33
ENDBRANCH  31  32
ENDBRANCH  30  31
ENDBRANCH  29  30
ENDBRANCH  28  29
ENDBRANCH   1  28
TORSDOF 27
ENDMDL
MODEL 3
REMARK VINA RESULT:      -9.9      2.083      8.529
REMARK SMILES CC(C)[C@H](NC(=O)OCc1ccccc1)C(=O)NCC(=O)OCCOCCOCCOC(=O)c1ccc(-c2c3nc(c(-c4ccc(S(=O)(=O)[O-])cc4)c4ccc([nH]4)c(-c4ccc(S(=O)(=O)[O-])cc4)c4nc(c(-c5ccc(S(=O)(=O)[O-])cc5)c5ccc2[nH]5)C=C4)C=C3)cc1
REMARK SMILES IDX 25 1 24 2 23 3 22 4 20 5 21 6 19 7 18 8 16 9 17 10 4 12 2 13
REMARK SMILES IDX 1 14 3 15 5 16 6 17 7 19 8 20 9 21 10 22 11 23 15 24 12 25
REMARK SMILES IDX 14 26 13 27 26 28 27 29 28 30 29 31 30 32 31 33 32 34 33 35
REMARK SMILES IDX 34 36 35 37 93 38 36 39 92 40 37 41 38 42 39 43 86 44 40 45
REMARK SMILES IDX 91 46 85 47 87 48 41 49 90 50 84 51 83 52 42 54 72 55 53 56
REMARK SMILES IDX 71 57 54 58 57 59 70 60 88 61 55 62 56 63 69 65 89 66 58 67
REMARK SMILES IDX 43 68 44 69 52 70 45 71 51 72 46 73 47 74 48 75 49 76 50 77
REMARK SMILES IDX 73 78 74 79 82 80 75 81 81 82 76 83 77 84 78 85 79 86 80 87
REMARK SMILES IDX 59 88 60 89 68 90 61 91 67 92 62 93 63 94 64 95 65 96 66 97
REMARK H PARENT 18 11 5 18 87 53 57 64
REMARK Flexibility Score: inf
ROOT
ATOM      1  O   UNL A   1      40.869  21.013  26.878  1.00  0.00    -0.376 OA
ENDROOT
BRANCH   1   2
ATOM      2  C   UNL A   1      39.945  22.299  26.559  1.00  0.00     0.202 C 
BRANCH   2   3
ATOM      3  C   UNL A   1      37.858  22.434  25.884  1.00  0.00     0.261 C 
BRANCH   3   4
ATOM      4  O   UNL A   1      36.821  23.738  26.189  1.00  0.00    -0.462 OA
BRANCH   4   5
ATOM      5  C   UNL A   1      35.469  23.598  26.297  1.00  0.00     0.325 C 
ATOM      6  O   UNL A   1      34.937  22.550  26.651  1.00  0.00    -0.250 OA
BRANCH   5   7
ATOM      7  C   UNL A   1      34.621  24.919  26.097  1.00  0.00     0.238 C 
BRANCH   7   8
ATOM      8  N   UNL A   1      33.188  25.090  25.772  1.00  0.00    -0.343 N 
ATOM      9  C   UNL A   1      32.500  25.490  24.675  1.00  0.00     0.243 C 
ATOM     10  O   UNL A   1      31.269  25.387  24.699  1.00  0.00    -0.273 OA
ATOM     11  H   UNL A   1      32.598  24.862  26.527  1.00  0.00     0.164 HD
BRANCH   9  12
ATOM     12  C   UNL A   1      33.218  25.907  23.399  1.00  0.00     0.177 C 
BRANCH  12  13
ATOM     13  C   UNL A   1      32.951  27.431  23.125  1.00  0.00     0.015 C 
ATOM     14  C   UNL A   1      33.999  28.130  22.249  1.00  0.00     0.010 C 
ATOM     15  C   UNL A   1      31.524  27.746  22.613  1.00  0.00     0.010 C 
ENDBRANCH  12  13
BRANCH  12  16
ATOM     16  N   UNL A   1      32.932  25.001  22.282  1.00  0.00    -0.309 N 
ATOM     17  C   UNL A   1      33.325  23.684  22.177  1.00  0.00     0.408 C 
ATOM     18  H   UNL A   1      32.409  25.369  21.534  1.00  0.00     0.167 HD
ATOM     19  O   UNL A   1      33.302  23.105  21.098  1.00  0.00    -0.225 OA
BRANCH  17  20
ATOM     20  O   UNL A   1      33.631  23.101  23.363  1.00  0.00    -0.445 OA
BRANCH  20  21
ATOM     21  C   UNL A   1      32.630  22.237  23.938  1.00  0.00     0.270 C 
BRANCH  21  22
ATOM     22  C   UNL A   1      32.961  20.792  23.650  1.00  0.00    -0.011 A 
ATOM     23  C   UNL A   1      34.202  19.935  24.639  1.00  0.00     0.007 A 
ATOM     24  C   UNL A   1      32.101  19.869  22.392  1.00  0.00     0.007 A 
ATOM     25  C   UNL A   1      34.453  18.125  24.491  1.00  0.00     0.000 A 
ATOM     26  C   UNL A   1      32.352  18.109  22.222  1.00  0.00     0.000 A 
ATOM     27  C   UNL A   1      33.556  17.242  23.217  1.00  0.00     0.000 A 
ENDBRANCH  21  22
ENDBRANCH  20  21
ENDBRANCH  17  20
ENDBRANCH  12  16
ENDBRANCH   9  12
ENDBRANCH   7   8
ENDBRANCH   5   7
ENDBRANCH   4   5
ENDBRANCH   3   4
ENDBRANCH   2   3
ENDBRANCH   1   2
BRANCH   1  28
ATOM     28  C   UNL A   1      41.962  20.527  26.063  1.00  0.00     0.188 C 
BRANCH  28  29
ATOM     29  C   UNL A   1      43.260  21.342  25.822  1.00  0.00     0.188 C 
BRANCH  29  30
ATOM     30  O   UNL A   1      43.271  22.727  26.088  1.00  0.00    -0.376 OA
BRANCH  30  31
ATOM     31  C   UNL A   1      43.103  23.570  24.961  1.00  0.00     0.202 C 
BRANCH  31  32
ATOM     32  C   UNL A   1      43.397  25.058  25.172  1.00  0.00     0.261 C 
BRANCH  32  33
ATOM     33  O   UNL A   1      42.206  25.867  25.220  1.00  0.00    -0.460 OA
BRANCH  33  34
ATOM     34  C   UNL A   1      42.401  27.200  25.412  1.00  0.00     0.338 C 
ATOM     35  O   UNL A   1      42.347  28.079  24.570  1.00  0.00    -0.246 OA
BRANCH  34  36
ATOM     36  C   UNL A   1      42.405  27.468  26.871  1.00  0.00     0.060 A 
ATOM     37  C   UNL A   1      41.414  26.869  27.672  1.00  0.00     0.016 A 
ATOM     38  C   UNL A   1      43.383  28.280  27.443  1.00  0.00     0.016 A 
ATOM     39  C   UNL A   1      41.362  27.131  29.039  1.00  0.00     0.010 A 
ATOM     40  C   UNL A   1      43.308  28.575  28.804  1.00  0.00     0.010 A 
ATOM     41  C   UNL A   1      42.264  28.048  29.587  1.00  0.00    -0.014 A 
BRANCH  41  42
ATOM     42  C   UNL A   1      41.912  28.734  30.849  1.00  0.00     0.031 A 
ATOM     43  C   UNL A   1      40.709  29.640  30.813  1.00  0.00     0.074 A 
ATOM     44  C   UNL A   1      42.624  28.571  31.975  1.00  0.00     0.049 A 
ATOM     45  N   UNL A   1      40.252  30.453  31.725  1.00  0.00    -0.248 NA
ATOM     46  C   UNL A   1      39.925  29.634  29.563  1.00  0.00     0.031 C 
ATOM     47  C   UNL A   1      43.759  27.666  32.141  1.00  0.00     0.029 A 
ATOM     48  N   UNL A   1      42.496  29.183  33.195  1.00  0.00    -0.354 N 
ATOM     49  C   UNL A   1      39.145  31.071  31.152  1.00  0.00     0.074 A 
ATOM     50  C   UNL A   1      39.017  30.563  29.806  1.00  0.00     0.031 C 
ATOM     51  C   UNL A   1      44.239  27.798  33.391  1.00  0.00     0.029 A 
ATOM     52  C   UNL A   1      43.473  28.827  34.093  1.00  0.00     0.049 A 
ATOM     53  H   UNL A   1      41.774  29.818  33.407  1.00  0.00     0.167 HD
ATOM     54  C   UNL A   1      38.309  31.981  31.699  1.00  0.00     0.031 A 
ATOM     55  C   UNL A   1      43.731  29.307  35.326  1.00  0.00     0.031 A 
ATOM     56  C   UNL A   1      38.465  32.493  33.032  1.00  0.00     0.049 A 
ATOM     57  C   UNL A   1      42.842  30.390  35.886  1.00  0.00     0.074 A 
ATOM     58  C   UNL A   1      37.680  33.416  33.698  1.00  0.00     0.029 A 
ATOM     59  N   UNL A   1      39.486  32.130  33.899  1.00  0.00    -0.354 N 
ATOM     60  N   UNL A   1      41.793  30.963  35.342  1.00  0.00    -0.248 NA
ATOM     61  C   UNL A   1      43.169  30.887  37.229  1.00  0.00     0.031 C 
ATOM     62  C   UNL A   1      38.268  33.665  34.940  1.00  0.00     0.029 A 
ATOM     63  C   UNL A   1      39.370  32.834  35.083  1.00  0.00     0.049 A 
ATOM     64  H   UNL A   1      40.189  31.470  33.701  1.00  0.00     0.167 HD
ATOM     65  C   UNL A   1      41.313  31.860  36.291  1.00  0.00     0.074 A 
ATOM     66  C   UNL A   1      42.180  31.745  37.446  1.00  0.00     0.031 C 
ATOM     67  C   UNL A   1      40.248  32.699  36.220  1.00  0.00     0.031 A 
BRANCH  54  68
ATOM     68  C   UNL A   1      37.196  32.513  30.834  1.00  0.00    -0.014 A 
ATOM     69  C   UNL A   1      37.312  33.743  30.158  1.00  0.00     0.010 A 
ATOM     70  C   UNL A   1      36.015  31.764  30.686  1.00  0.00     0.010 A 
ATOM     71  C   UNL A   1      36.253  34.231  29.387  1.00  0.00     0.020 A 
ATOM     72  C   UNL A   1      34.968  32.231  29.888  1.00  0.00     0.020 A 
ATOM     73  C   UNL A   1      35.087  33.471  29.257  1.00  0.00     0.054 A 
BRANCH  73  74
ATOM     74  S   UNL A   1      33.739  34.117  28.231  1.00  0.00     0.124 S 
ATOM     75  O   UNL A   1      33.112  32.889  27.748  1.00  0.00    -0.237 OA
ATOM     76  O   UNL A   1      32.953  34.889  29.190  1.00  0.00    -0.237 OA
ATOM     77  O   UNL A   1      34.426  34.907  27.212  1.00  0.00    -0.744 OA
ENDBRANCH  73  74
ENDBRANCH  54  68
BRANCH  55  78
ATOM     78  C   UNL A   1      44.887  28.782  36.104  1.00  0.00    -0.014 A 
ATOM     79  C   UNL A   1      46.112  29.472  36.123  1.00  0.00     0.010 A 
ATOM     80  C   UNL A   1      44.767  27.590  36.843  1.00  0.00     0.010 A 
ATOM     81  C   UNL A   1      47.195  28.975  36.853  1.00  0.00     0.020 A 
ATOM     82  C   UNL A   1      45.836  27.106  37.601  1.00  0.00     0.020 A 
ATOM     83  C   UNL A   1      47.049  27.798  37.595  1.00  0.00     0.054 A 
BRANCH  83  84
ATOM     84  S   UNL A   1      48.451  27.211  38.584  1.00  0.00     0.124 S 
ATOM     85  O   UNL A   1      47.801  26.815  39.829  1.00  0.00    -0.237 OA
ATOM     86  O   UNL A   1      48.973  26.119  37.767  1.00  0.00    -0.237 OA
ATOM     87  O   UNL A   1      49.320  28.383  38.676  1.00  0.00    -0.744 OA
ENDBRANCH  83  84
ENDBRANCH  55  78
BRANCH  67  88
ATOM     88  C   UNL A   1      39.927  33.524  37.441  1.00  0.00    -0.014 A 
ATOM     89  C   UNL A   1      40.426  34.827  37.604  1.00  0.00     0.010 A 
ATOM     90  C   UNL A   1      39.049  33.001  38.409  1.00  0.00     0.010 A 
ATOM     91  C   UNL A   1      40.081  35.578  38.730  1.00  0.00     0.020 A 
ATOM     92  C   UNL A   1      38.672  33.762  39.516  1.00  0.00     0.020 A 
ATOM     93  C   UNL A   1      39.202  35.042  39.677  1.00  0.00     0.054 A 
BRANCH  93  94
ATOM     94  S   UNL A   1      38.735  36.058  41.104  1.00  0.00     0.124 S 
ATOM     95  O   UNL A   1      37.572  35.339  41.621  1.00  0.00    -0.237 OA
ATOM     96  O   UNL A   1      39.931  36.003  41.940  1.00  0.00    -0.237 OA
ATOM     97  O   UNL A   1      38.447  37.366  40.521  1.00  0.00    -0.744 OA
ENDBRANCH  93  94
ENDBRANCH  67  88
ENDBRANCH  41  42
ENDBRANCH  34  36
ENDBRANCH  33  34
ENDBRANCH  32  33
ENDBRANCH  31  32
ENDBRANCH  30  31
ENDBRANCH  29  30
ENDBRANCH  28  29
ENDBRANCH   1  28
TORSDOF 27
ENDMDL
