MODEL 1
REMARK VINA RESULT:      -8.8      0.000      0.000
REMARK SMILES O=C(OCCOCCOCCOC(=O)c1cc2c(c(S(=O)(=O)Nc3cc(C(F)(F)F)ccc3-n3cccn3)c1)CCC2)c1ccc(-c2c3nc(c(-c4ccc(S(=O)(=O)[O-])cc4)c4ccc([nH]4)c(-c4ccc(S(=O)(=O)[O-])cc4)c4nc(c(-c5ccc(S(=O)(=O)[O-])cc5)c5ccc2[nH]5)C=C4)C=C3)cc1
REMARK SMILES IDX 8 1 7 2 6 3 5 4 4 5 3 6 2 7 1 8 43 9 44 10 102 11 45 12
REMARK SMILES IDX 101 13 46 14 47 15 48 16 95 17 49 18 100 19 94 20 96 21
REMARK SMILES IDX 50 22 99 23 93 24 92 25 51 27 81 28 62 29 80 30 63 31 66 32
REMARK SMILES IDX 79 33 97 34 64 35 65 36 78 38 98 39 67 40 52 41 53 42 61 43
REMARK SMILES IDX 54 44 60 45 55 46 56 47 57 48 58 49 59 50 82 51 83 52 91 53
REMARK SMILES IDX 84 54 90 55 85 56 86 57 87 58 88 59 89 60 68 61 69 62 77 63
REMARK SMILES IDX 70 64 76 65 71 66 72 67 73 68 74 69 75 70 9 71 10 72 11 73
REMARK SMILES IDX 12 74 13 75 14 76 15 77 16 78 39 79 17 80 19 81 18 82 42 83
REMARK SMILES IDX 40 84 41 85 20 86 21 87 22 88 23 89 24 91 25 92 33 93 26 94
REMARK SMILES IDX 32 95 31 96 34 97 35 98 38 99 36 100 37 101 27 102 28 103
REMARK SMILES IDX 29 104 30 105
REMARK H PARENT 96 26 66 37 23 90
REMARK Flexibility Score: inf
ROOT
ATOM      1  C   UNL A   1      44.700  34.743  25.903  1.00  0.00     0.188 C 
ENDROOT
BRANCH   1   2
ATOM      2  C   UNL A   1      45.269  35.936  26.712  1.00  0.00     0.188 C 
BRANCH   2   3
ATOM      3  O   UNL A   1      44.305  36.906  27.061  1.00  0.00    -0.376 OA
BRANCH   3   4
ATOM      4  C   UNL A   1      44.695  38.227  27.371  1.00  0.00     0.202 C 
BRANCH   4   5
ATOM      5  C   UNL A   1      45.922  38.483  28.257  1.00  0.00     0.261 C 
BRANCH   5   6
ATOM      6  O   UNL A   1      45.753  38.248  29.659  1.00  0.00    -0.460 OA
BRANCH   6   7
ATOM      7  C   UNL A   1      44.653  38.145  30.428  1.00  0.00     0.338 C 
ATOM      8  O   UNL A   1      44.140  39.186  30.840  1.00  0.00    -0.246 OA
BRANCH   7   9
ATOM      9  C   UNL A   1      44.078  36.856  30.910  1.00  0.00     0.060 A 
ATOM     10  C   UNL A   1      43.480  35.868  30.128  1.00  0.00     0.016 A 
ATOM     11  C   UNL A   1      44.129  36.673  32.306  1.00  0.00     0.016 A 
ATOM     12  C   UNL A   1      42.770  34.839  30.731  1.00  0.00     0.010 A 
ATOM     13  C   UNL A   1      43.442  35.639  32.914  1.00  0.00     0.010 A 
ATOM     14  C   UNL A   1      42.686  34.789  32.121  1.00  0.00    -0.014 A 
BRANCH  14  15
ATOM     15  C   UNL A   1      41.786  33.816  32.715  1.00  0.00     0.031 A 
ATOM     16  C   UNL A   1      42.162  32.400  32.484  1.00  0.00     0.074 A 
ATOM     17  C   UNL A   1      40.739  34.205  33.469  1.00  0.00     0.049 A 
ATOM     18  N   UNL A   1      41.503  31.498  31.834  1.00  0.00    -0.248 NA
ATOM     19  C   UNL A   1      43.502  31.970  32.915  1.00  0.00     0.031 C 
ATOM     20  C   UNL A   1      40.435  35.554  33.962  1.00  0.00     0.029 A 
ATOM     21  N   UNL A   1      39.777  33.447  34.061  1.00  0.00    -0.354 N 
ATOM     22  C   UNL A   1      42.244  30.326  31.953  1.00  0.00     0.074 A 
ATOM     23  C   UNL A   1      43.529  30.710  32.481  1.00  0.00     0.031 C 
ATOM     24  C   UNL A   1      39.537  35.469  34.969  1.00  0.00     0.029 A 
ATOM     25  C   UNL A   1      39.099  34.089  35.091  1.00  0.00     0.049 A 
ATOM     26  H   UNL A   1      39.579  32.524  33.783  1.00  0.00     0.167 HD
ATOM     27  C   UNL A   1      41.671  29.097  31.833  1.00  0.00     0.031 A 
ATOM     28  C   UNL A   1      38.302  33.508  36.024  1.00  0.00     0.031 A 
ATOM     29  C   UNL A   1      40.392  29.160  31.178  1.00  0.00     0.049 A 
ATOM     30  C   UNL A   1      37.894  32.185  35.488  1.00  0.00     0.074 A 
ATOM     31  C   UNL A   1      39.967  29.571  29.930  1.00  0.00     0.029 A 
ATOM     32  N   UNL A   1      39.271  29.134  31.974  1.00  0.00    -0.354 N 
ATOM     33  N   UNL A   1      37.125  32.042  34.444  1.00  0.00    -0.248 NA
ATOM     34  C   UNL A   1      38.718  31.032  35.816  1.00  0.00     0.031 C 
ATOM     35  C   UNL A   1      38.728  30.233  30.167  1.00  0.00     0.029 A 
ATOM     36  C   UNL A   1      38.429  30.120  31.526  1.00  0.00     0.049 A 
ATOM     37  H   UNL A   1      39.103  28.520  32.725  1.00  0.00     0.167 HD
ATOM     38  C   UNL A   1      37.678  30.982  33.739  1.00  0.00     0.074 A 
ATOM     39  C   UNL A   1      38.601  30.344  34.677  1.00  0.00     0.031 C 
ATOM     40  C   UNL A   1      37.548  30.886  32.383  1.00  0.00     0.031 A 
BRANCH  27  41
ATOM     41  C   UNL A   1      42.099  27.912  32.661  1.00  0.00    -0.014 A 
ATOM     42  C   UNL A   1      41.452  27.653  33.886  1.00  0.00     0.010 A 
ATOM     43  C   UNL A   1      43.296  27.209  32.408  1.00  0.00     0.010 A 
ATOM     44  C   UNL A   1      42.007  26.774  34.827  1.00  0.00     0.020 A 
ATOM     45  C   UNL A   1      43.834  26.300  33.321  1.00  0.00     0.020 A 
ATOM     46  C   UNL A   1      43.201  26.112  34.540  1.00  0.00     0.054 A 
BRANCH  46  47
ATOM     47  S   UNL A   1      43.956  25.048  35.793  1.00  0.00     0.124 S 
ATOM     48  O   UNL A   1      45.094  25.852  36.226  1.00  0.00    -0.237 OA
ATOM     49  O   UNL A   1      42.875  24.901  36.764  1.00  0.00    -0.237 OA
ATOM     50  O   UNL A   1      44.291  23.832  35.053  1.00  0.00    -0.744 OA
ENDBRANCH  46  47
ENDBRANCH  27  41
BRANCH  28  51
ATOM     51  C   UNL A   1      38.191  33.860  37.465  1.00  0.00    -0.014 A 
ATOM     52  C   UNL A   1      37.504  33.029  38.372  1.00  0.00     0.010 A 
ATOM     53  C   UNL A   1      39.007  34.877  38.005  1.00  0.00     0.010 A 
ATOM     54  C   UNL A   1      37.677  33.172  39.762  1.00  0.00     0.020 A 
ATOM     55  C   UNL A   1      39.179  35.030  39.387  1.00  0.00     0.020 A 
ATOM     56  C   UNL A   1      38.533  34.158  40.260  1.00  0.00     0.054 A 
BRANCH  56  57
ATOM     57  S   UNL A   1      38.899  34.218  42.040  1.00  0.00     0.124 S 
ATOM     58  O   UNL A   1      40.033  33.306  42.156  1.00  0.00    -0.237 OA
ATOM     59  O   UNL A   1      39.199  35.631  42.256  1.00  0.00    -0.237 OA
ATOM     60  O   UNL A   1      37.661  33.751  42.663  1.00  0.00    -0.744 OA
ENDBRANCH  56  57
ENDBRANCH  28  51
BRANCH  40  61
ATOM     61  C   UNL A   1      36.571  31.807  31.683  1.00  0.00    -0.014 A 
ATOM     62  C   UNL A   1      36.594  33.213  31.795  1.00  0.00     0.010 A 
ATOM     63  C   UNL A   1      35.694  31.227  30.751  1.00  0.00     0.010 A 
ATOM     64  C   UNL A   1      35.742  34.009  31.011  1.00  0.00     0.020 A 
ATOM     65  C   UNL A   1      34.859  32.013  29.955  1.00  0.00     0.020 A 
ATOM     66  C   UNL A   1      34.878  33.401  30.095  1.00  0.00     0.054 A 
BRANCH  66  67
ATOM     67  S   UNL A   1      33.808  34.431  29.051  1.00  0.00     0.124 S 
ATOM     68  O   UNL A   1      34.733  35.440  28.546  1.00  0.00    -0.237 OA
ATOM     69  O   UNL A   1      33.309  33.479  28.060  1.00  0.00    -0.237 OA
ATOM     70  O   UNL A   1      32.794  34.931  29.979  1.00  0.00    -0.744 OA
ENDBRANCH  66  67
ENDBRANCH  40  61
ENDBRANCH  14  15
ENDBRANCH   7   9
ENDBRANCH   6   7
ENDBRANCH   5   6
ENDBRANCH   4   5
ENDBRANCH   3   4
ENDBRANCH   2   3
ENDBRANCH   1   2
BRANCH   1  71
ATOM     71  O   UNL A   1      45.494  33.607  25.562  1.00  0.00    -0.376 OA
BRANCH  71  72
ATOM     72  C   UNL A   1      45.557  32.488  26.425  1.00  0.00     0.202 C 
BRANCH  72  73
ATOM     73  C   UNL A   1      44.281  31.652  26.604  1.00  0.00     0.261 C 
BRANCH  73  74
ATOM     74  O   UNL A   1      44.463  30.272  26.970  1.00  0.00    -0.460 OA
BRANCH  74  75
ATOM     75  C   UNL A   1      43.652  29.778  27.930  1.00  0.00     0.338 C 
ATOM     76  O   UNL A   1      42.617  30.283  28.372  1.00  0.00    -0.246 OA
BRANCH  75  77
ATOM     77  C   UNL A   1      44.174  28.482  28.405  1.00  0.00     0.061 A 
ATOM     78  C   UNL A   1      45.357  28.493  29.135  1.00  0.00     0.019 A 
ATOM     79  C   UNL A   1      43.465  27.273  28.183  1.00  0.00     0.038 A 
ATOM     80  C   UNL A   1      45.794  27.290  29.650  1.00  0.00    -0.043 A 
ATOM     81  C   UNL A   1      43.954  26.034  28.662  1.00  0.00     0.092 A 
ATOM     82  C   UNL A   1      45.148  26.061  29.372  1.00  0.00    -0.024 A 
ATOM     83  C   UNL A   1      46.949  27.094  30.589  1.00  0.00     0.036 C 
ATOM     84  C   UNL A   1      45.984  24.975  29.970  1.00  0.00     0.037 C 
ATOM     85  C   UNL A   1      46.565  25.734  31.169  1.00  0.00     0.010 C 
BRANCH  81  86
ATOM     86  S   UNL A   1      43.144  24.529  28.135  1.00  0.00     0.262 S 
ATOM     87  O   UNL A   1      42.511  23.967  29.315  1.00  0.00    -0.201 OA
ATOM     88  O   UNL A   1      42.327  24.875  26.993  1.00  0.00    -0.201 OA
BRANCH  86  89
ATOM     89  N   UNL A   1      44.188  23.284  27.592  1.00  0.00    -0.277 N 
ATOM     90  H   UNL A   1      44.315  22.500  28.173  1.00  0.00     0.180 HD
BRANCH  89  91
ATOM     91  C   UNL A   1      44.890  23.320  26.339  1.00  0.00     0.075 A 
ATOM     92  C   UNL A   1      45.676  24.452  26.042  1.00  0.00     0.042 A 
ATOM     93  C   UNL A   1      44.896  22.235  25.452  1.00  0.00     0.089 A 
ATOM     94  C   UNL A   1      46.542  24.462  24.928  1.00  0.00     0.058 A 
ATOM     95  C   UNL A   1      45.736  22.249  24.327  1.00  0.00     0.031 A 
ATOM     96  C   UNL A   1      46.550  23.354  24.068  1.00  0.00     0.015 A 
BRANCH  93  97
ATOM     97  N   UNL A   1      44.101  21.089  25.683  1.00  0.00    -0.239 N 
ATOM     98  C   UNL A   1      44.408  19.776  25.411  1.00  0.00     0.115 A 
ATOM     99  N   UNL A   1      42.826  21.217  26.131  1.00  0.00    -0.177 NA
ATOM    100  C   UNL A   1      43.231  19.072  25.479  1.00  0.00     0.042 A 
ATOM    101  C   UNL A   1      42.282  20.020  25.888  1.00  0.00     0.135 A 
ENDBRANCH  93  97
BRANCH  94 102
ATOM    102  C   UNL A   1      47.508  25.609  24.715  1.00  0.00     0.416 C 
ATOM    103  F   UNL A   1      46.879  26.776  24.421  1.00  0.00    -0.166 F 
ATOM    104  F   UNL A   1      48.275  25.844  25.812  1.00  0.00    -0.166 F 
ATOM    105  F   UNL A   1      48.383  25.383  23.694  1.00  0.00    -0.166 F 
ENDBRANCH  94 102
ENDBRANCH  89  91
ENDBRANCH  86  89
ENDBRANCH  81  86
ENDBRANCH  75  77
ENDBRANCH  74  75
ENDBRANCH  73  74
ENDBRANCH  72  73
ENDBRANCH  71  72
ENDBRANCH   1  71
TORSDOF 25
ENDMDL
MODEL 2
REMARK VINA RESULT:      -8.8      2.977      8.084
REMARK SMILES O=C(OCCOCCOCCOC(=O)c1cc2c(c(S(=O)(=O)Nc3cc(C(F)(F)F)ccc3-n3cccn3)c1)CCC2)c1ccc(-c2c3nc(c(-c4ccc(S(=O)(=O)[O-])cc4)c4ccc([nH]4)c(-c4ccc(S(=O)(=O)[O-])cc4)c4nc(c(-c5ccc(S(=O)(=O)[O-])cc5)c5ccc2[nH]5)C=C4)C=C3)cc1
REMARK SMILES IDX 8 1 7 2 6 3 5 4 4 5 3 6 2 7 1 8 43 9 44 10 102 11 45 12
REMARK SMILES IDX 101 13 46 14 47 15 48 16 95 17 49 18 100 19 94 20 96 21
REMARK SMILES IDX 50 22 99 23 93 24 92 25 51 27 81 28 62 29 80 30 63 31 66 32
REMARK SMILES IDX 79 33 97 34 64 35 65 36 78 38 98 39 67 40 52 41 53 42 61 43
REMARK SMILES IDX 54 44 60 45 55 46 56 47 57 48 58 49 59 50 82 51 83 52 91 53
REMARK SMILES IDX 84 54 90 55 85 56 86 57 87 58 88 59 89 60 68 61 69 62 77 63
REMARK SMILES IDX 70 64 76 65 71 66 72 67 73 68 74 69 75 70 9 71 10 72 11 73
REMARK SMILES IDX 12 74 13 75 14 76 15 77 16 78 39 79 17 80 19 81 18 82 42 83
REMARK SMILES IDX 40 84 41 85 20 86 21 87 22 88 23 89 24 91 25 92 33 93 26 94
REMARK SMILES IDX 32 95 31 96 34 97 35 98 38 99 36 100 37 101 27 102 28 103
REMARK SMILES IDX 29 104 30 105
REMARK H PARENT 96 26 66 37 23 90
REMARK Flexibility Score: inf
ROOT
ATOM      1  C   UNL A   1      37.043  31.985  29.091  1.00  0.00     0.188 C 
ENDROOT
BRANCH   1   2
ATOM      2  C   UNL A   1      36.147  32.934  28.256  1.00  0.00     0.188 C 
BRANCH   2   3
ATOM      3  O   UNL A   1      35.476  33.913  29.020  1.00  0.00    -0.376 OA
BRANCH   3   4
ATOM      4  C   UNL A   1      34.076  33.855  29.193  1.00  0.00     0.202 C 
BRANCH   4   5
ATOM      5  C   UNL A   1      33.361  34.894  30.068  1.00  0.00     0.261 C 
BRANCH   5   6
ATOM      6  O   UNL A   1      33.306  34.613  31.470  1.00  0.00    -0.460 OA
BRANCH   6   7
ATOM      7  C   UNL A   1      34.203  34.787  32.459  1.00  0.00     0.338 C 
ATOM      8  O   UNL A   1      33.922  35.580  33.358  1.00  0.00    -0.246 OA
BRANCH   7   9
ATOM      9  C   UNL A   1      35.562  34.172  32.483  1.00  0.00     0.060 A 
ATOM     10  C   UNL A   1      35.927  32.984  33.118  1.00  0.00     0.016 A 
ATOM     11  C   UNL A   1      36.557  34.914  31.818  1.00  0.00     0.016 A 
ATOM     12  C   UNL A   1      37.267  32.660  33.267  1.00  0.00     0.010 A 
ATOM     13  C   UNL A   1      37.894  34.587  31.944  1.00  0.00     0.010 A 
ATOM     14  C   UNL A   1      38.239  33.515  32.754  1.00  0.00    -0.014 A 
BRANCH  14  15
ATOM     15  C   UNL A   1      39.627  33.248  33.087  1.00  0.00     0.031 A 
ATOM     16  C   UNL A   1      40.206  34.152  34.111  1.00  0.00     0.074 A 
ATOM     17  C   UNL A   1      40.288  32.208  32.540  1.00  0.00     0.049 A 
ATOM     18  N   UNL A   1      41.181  34.988  33.974  1.00  0.00    -0.248 NA
ATOM     19  C   UNL A   1      39.525  34.231  35.414  1.00  0.00     0.031 C 
ATOM     20  C   UNL A   1      39.737  31.119  31.724  1.00  0.00     0.029 A 
ATOM     21  N   UNL A   1      41.587  31.835  32.697  1.00  0.00    -0.354 N 
ATOM     22  C   UNL A   1      41.380  35.550  35.231  1.00  0.00     0.074 A 
ATOM     23  C   UNL A   1      40.239  35.174  36.029  1.00  0.00     0.031 C 
ATOM     24  C   UNL A   1      40.622  30.098  31.687  1.00  0.00     0.029 A 
ATOM     25  C   UNL A   1      41.847  30.515  32.347  1.00  0.00     0.049 A 
ATOM     26  H   UNL A   1      42.281  32.448  33.031  1.00  0.00     0.167 HD
ATOM     27  C   UNL A   1      42.576  36.085  35.600  1.00  0.00     0.031 A 
ATOM     28  C   UNL A   1      42.960  29.798  32.651  1.00  0.00     0.031 A 
ATOM     29  C   UNL A   1      43.409  36.376  34.464  1.00  0.00     0.049 A 
ATOM     30  C   UNL A   1      44.028  30.772  32.989  1.00  0.00     0.074 A 
ATOM     31  C   UNL A   1      43.285  37.201  33.363  1.00  0.00     0.029 A 
ATOM     32  N   UNL A   1      44.395  35.470  34.154  1.00  0.00    -0.354 N 
ATOM     33  N   UNL A   1      44.546  31.595  32.121  1.00  0.00    -0.248 NA
ATOM     34  C   UNL A   1      44.182  31.160  34.383  1.00  0.00     0.031 C 
ATOM     35  C   UNL A   1      43.841  36.455  32.285  1.00  0.00     0.029 A 
ATOM     36  C   UNL A   1      44.342  35.256  32.799  1.00  0.00     0.049 A 
ATOM     37  H   UNL A   1      45.023  35.051  34.786  1.00  0.00     0.167 HD
ATOM     38  C   UNL A   1      44.695  32.791  32.810  1.00  0.00     0.074 A 
ATOM     39  C   UNL A   1      44.538  32.437  34.220  1.00  0.00     0.031 C 
ATOM     40  C   UNL A   1      44.652  33.993  32.163  1.00  0.00     0.031 A 
BRANCH  27  41
ATOM     41  C   UNL A   1      43.125  35.972  37.000  1.00  0.00    -0.014 A 
ATOM     42  C   UNL A   1      43.474  34.704  37.505  1.00  0.00     0.010 A 
ATOM     43  C   UNL A   1      43.050  37.033  37.927  1.00  0.00     0.010 A 
ATOM     44  C   UNL A   1      43.686  34.503  38.877  1.00  0.00     0.020 A 
ATOM     45  C   UNL A   1      43.300  36.852  39.288  1.00  0.00     0.020 A 
ATOM     46  C   UNL A   1      43.586  35.580  39.759  1.00  0.00     0.054 A 
BRANCH  46  47
ATOM     47  S   UNL A   1      43.773  35.297  41.536  1.00  0.00     0.124 S 
ATOM     48  O   UNL A   1      42.399  35.026  41.944  1.00  0.00    -0.237 OA
ATOM     49  O   UNL A   1      44.684  34.156  41.573  1.00  0.00    -0.237 OA
ATOM     50  O   UNL A   1      44.338  36.553  42.025  1.00  0.00    -0.744 OA
ENDBRANCH  46  47
ENDBRANCH  27  41
BRANCH  28  51
ATOM     51  C   UNL A   1      43.034  28.360  33.025  1.00  0.00    -0.014 A 
ATOM     52  C   UNL A   1      44.088  27.541  32.576  1.00  0.00     0.010 A 
ATOM     53  C   UNL A   1      42.218  27.860  34.062  1.00  0.00     0.010 A 
ATOM     54  C   UNL A   1      44.350  26.297  33.182  1.00  0.00     0.020 A 
ATOM     55  C   UNL A   1      42.468  26.621  34.665  1.00  0.00     0.020 A 
ATOM     56  C   UNL A   1      43.551  25.856  34.240  1.00  0.00     0.054 A 
BRANCH  56  57
ATOM     57  S   UNL A   1      44.006  24.344  35.142  1.00  0.00     0.124 S 
ATOM     58  O   UNL A   1      44.902  23.678  34.204  1.00  0.00    -0.237 OA
ATOM     59  O   UNL A   1      44.633  24.872  36.351  1.00  0.00    -0.237 OA
ATOM     60  O   UNL A   1      42.724  23.673  35.359  1.00  0.00    -0.744 OA
ENDBRANCH  56  57
ENDBRANCH  28  51
BRANCH  40  61
ATOM     61  C   UNL A   1      44.706  34.003  30.650  1.00  0.00    -0.014 A 
ATOM     62  C   UNL A   1      45.880  33.778  29.901  1.00  0.00     0.010 A 
ATOM     63  C   UNL A   1      43.483  34.087  29.963  1.00  0.00     0.010 A 
ATOM     64  C   UNL A   1      45.828  33.667  28.502  1.00  0.00     0.020 A 
ATOM     65  C   UNL A   1      43.422  33.958  28.574  1.00  0.00     0.020 A 
ATOM     66  C   UNL A   1      44.595  33.758  27.847  1.00  0.00     0.054 A 
BRANCH  66  67
ATOM     67  S   UNL A   1      44.521  33.573  26.043  1.00  0.00     0.124 S 
ATOM     68  O   UNL A   1      45.853  33.999  25.625  1.00  0.00    -0.237 OA
ATOM     69  O   UNL A   1      44.232  32.150  25.874  1.00  0.00    -0.237 OA
ATOM     70  O   UNL A   1      43.433  34.467  25.645  1.00  0.00    -0.744 OA
ENDBRANCH  66  67
ENDBRANCH  40  61
ENDBRANCH  14  15
ENDBRANCH   7   9
ENDBRANCH   6   7
ENDBRANCH   5   6
ENDBRANCH   4   5
ENDBRANCH   3   4
ENDBRANCH   2   3
ENDBRANCH   1   2
BRANCH   1  71
ATOM     71  O   UNL A   1      36.498  31.004  29.973  1.00  0.00    -0.376 OA
BRANCH  71  72
ATOM     72  C   UNL A   1      36.945  29.663  29.922  1.00  0.00     0.202 C 
BRANCH  72  73
ATOM     73  C   UNL A   1      37.682  29.203  28.656  1.00  0.00     0.261 C 
BRANCH  73  74
ATOM     74  O   UNL A   1      39.113  29.085  28.752  1.00  0.00    -0.460 OA
BRANCH  74  75
ATOM     75  C   UNL A   1      39.617  27.847  28.944  1.00  0.00     0.338 C 
ATOM     76  O   UNL A   1      38.988  26.799  29.117  1.00  0.00    -0.246 OA
BRANCH  75  77
ATOM     77  C   UNL A   1      41.091  27.896  28.908  1.00  0.00     0.061 A 
ATOM     78  C   UNL A   1      41.690  29.142  28.756  1.00  0.00     0.019 A 
ATOM     79  C   UNL A   1      41.875  26.727  29.084  1.00  0.00     0.038 A 
ATOM     80  C   UNL A   1      43.068  29.192  28.809  1.00  0.00    -0.043 A 
ATOM     81  C   UNL A   1      43.290  26.780  29.075  1.00  0.00     0.092 A 
ATOM     82  C   UNL A   1      43.871  28.030  28.902  1.00  0.00    -0.024 A 
ATOM     83  C   UNL A   1      43.910  30.435  28.824  1.00  0.00     0.036 C 
ATOM     84  C   UNL A   1      45.297  28.465  28.783  1.00  0.00     0.037 C 
ATOM     85  C   UNL A   1      45.191  29.855  29.421  1.00  0.00     0.010 C 
BRANCH  81  86
ATOM     86  S   UNL A   1      44.207  25.245  29.053  1.00  0.00     0.262 S 
ATOM     87  O   UNL A   1      45.338  25.428  29.944  1.00  0.00    -0.201 OA
ATOM     88  O   UNL A   1      43.257  24.189  29.326  1.00  0.00    -0.201 OA
BRANCH  86  89
ATOM     89  N   UNL A   1      44.924  24.839  27.551  1.00  0.00    -0.277 N 
ATOM     90  H   UNL A   1      44.830  23.914  27.228  1.00  0.00     0.180 HD
BRANCH  89  91
ATOM     91  C   UNL A   1      45.656  25.769  26.738  1.00  0.00     0.075 A 
ATOM     92  C   UNL A   1      47.048  25.879  26.931  1.00  0.00     0.042 A 
ATOM     93  C   UNL A   1      45.053  26.497  25.702  1.00  0.00     0.089 A 
ATOM     94  C   UNL A   1      47.849  26.621  26.037  1.00  0.00     0.058 A 
ATOM     95  C   UNL A   1      45.841  27.258  24.824  1.00  0.00     0.031 A 
ATOM     96  C   UNL A   1      47.226  27.319  24.992  1.00  0.00     0.015 A 
BRANCH  93  97
ATOM     97  N   UNL A   1      43.658  26.449  25.485  1.00  0.00    -0.239 N 
ATOM     98  C   UNL A   1      42.770  27.500  25.440  1.00  0.00     0.115 A 
ATOM     99  N   UNL A   1      43.015  25.256  25.403  1.00  0.00    -0.177 NA
ATOM    100  C   UNL A   1      41.512  26.962  25.551  1.00  0.00     0.042 A 
ATOM    101  C   UNL A   1      41.728  25.575  25.565  1.00  0.00     0.135 A 
ENDBRANCH  93  97
BRANCH  94 102
ATOM    102  C   UNL A   1      49.359  26.592  26.150  1.00  0.00     0.416 C 
ATOM    103  F   UNL A   1      49.950  27.658  25.553  1.00  0.00    -0.166 F 
ATOM    104  F   UNL A   1      49.776  26.589  27.444  1.00  0.00    -0.166 F 
ATOM    105  F   UNL A   1      49.913  25.484  25.580  1.00  0.00    -0.166 F 
ENDBRANCH  94 102
ENDBRANCH  89  91
ENDBRANCH  86  89
ENDBRANCH  81  86
ENDBRANCH  75  77
ENDBRANCH  74  75
ENDBRANCH  73  74
ENDBRANCH  72  73
ENDBRANCH  71  72
ENDBRANCH   1  71
TORSDOF 25
ENDMDL
MODEL 3
REMARK VINA RESULT:      -8.6      4.258     13.288
REMARK SMILES O=C(OCCOCCOCCOC(=O)c1cc2c(c(S(=O)(=O)Nc3cc(C(F)(F)F)ccc3-n3cccn3)c1)CCC2)c1ccc(-c2c3nc(c(-c4ccc(S(=O)(=O)[O-])cc4)c4ccc([nH]4)c(-c4ccc(S(=O)(=O)[O-])cc4)c4nc(c(-c5ccc(S(=O)(=O)[O-])cc5)c5ccc2[nH]5)C=C4)C=C3)cc1
REMARK SMILES IDX 8 1 7 2 6 3 5 4 4 5 3 6 2 7 1 8 43 9 44 10 102 11 45 12
REMARK SMILES IDX 101 13 46 14 47 15 48 16 95 17 49 18 100 19 94 20 96 21
REMARK SMILES IDX 50 22 99 23 93 24 92 25 51 27 81 28 62 29 80 30 63 31 66 32
REMARK SMILES IDX 79 33 97 34 64 35 65 36 78 38 98 39 67 40 52 41 53 42 61 43
REMARK SMILES IDX 54 44 60 45 55 46 56 47 57 48 58 49 59 50 82 51 83 52 91 53
REMARK SMILES IDX 84 54 90 55 85 56 86 57 87 58 88 59 89 60 68 61 69 62 77 63
REMARK SMILES IDX 70 64 76 65 71 66 72 67 73 68 74 69 75 70 9 71 10 72 11 73
REMARK SMILES IDX 12 74 13 75 14 76 15 77 16 78 39 79 17 80 19 81 18 82 42 83
REMARK SMILES IDX 40 84 41 85 20 86 21 87 22 88 23 89 24 91 25 92 33 93 26 94
REMARK SMILES IDX 32 95 31 96 34 97 35 98 38 99 36 100 37 101 27 102 28 103
REMARK SMILES IDX 29 104 30 105
REMARK H PARENT 96 26 66 37 23 90
REMARK Flexibility Score: inf
ROOT
ATOM      1  C   UNL A   1      39.687  27.612  29.454  1.00  0.00     0.188 C 
ENDROOT
BRANCH   1   2
ATOM      2  C   UNL A   1      40.124  26.544  28.420  1.00  0.00     0.188 C 
BRANCH   2   3
ATOM      3  O   UNL A   1      39.052  25.839  27.831  1.00  0.00    -0.376 OA
BRANCH   3   4
ATOM      4  C   UNL A   1      38.970  24.434  27.938  1.00  0.00     0.202 C 
BRANCH   4   5
ATOM      5  C   UNL A   1      39.005  23.559  26.678  1.00  0.00     0.261 C 
BRANCH   5   6
ATOM      6  O   UNL A   1      39.675  22.300  26.798  1.00  0.00    -0.460 OA
BRANCH   6   7
ATOM      7  C   UNL A   1      40.813  21.942  27.421  1.00  0.00     0.338 C 
ATOM      8  O   UNL A   1      40.787  20.940  28.136  1.00  0.00    -0.246 OA
BRANCH   7   9
ATOM      9  C   UNL A   1      42.074  22.738  27.396  1.00  0.00     0.060 A 
ATOM     10  C   UNL A   1      43.045  22.791  28.398  1.00  0.00     0.016 A 
ATOM     11  C   UNL A   1      42.248  23.532  26.246  1.00  0.00     0.016 A 
ATOM     12  C   UNL A   1      44.039  23.757  28.351  1.00  0.00     0.010 A 
ATOM     13  C   UNL A   1      43.248  24.483  26.181  1.00  0.00     0.010 A 
ATOM     14  C   UNL A   1      44.074  24.652  27.283  1.00  0.00    -0.014 A 
BRANCH  14  15
ATOM     15  C   UNL A   1      45.005  25.764  27.355  1.00  0.00     0.031 A 
ATOM     16  C   UNL A   1      46.233  25.601  26.539  1.00  0.00     0.074 A 
ATOM     17  C   UNL A   1      44.713  26.872  28.065  1.00  0.00     0.049 A 
ATOM     18  N   UNL A   1      47.456  25.525  26.948  1.00  0.00    -0.248 NA
ATOM     19  C   UNL A   1      46.066  25.356  25.096  1.00  0.00     0.031 C 
ATOM     20  C   UNL A   1      43.434  27.232  28.688  1.00  0.00     0.029 A 
ATOM     21  N   UNL A   1      45.473  27.980  28.280  1.00  0.00    -0.354 N 
ATOM     22  C   UNL A   1      48.236  25.436  25.800  1.00  0.00     0.074 A 
ATOM     23  C   UNL A   1      47.328  25.172  24.711  1.00  0.00     0.031 C 
ATOM     24  C   UNL A   1      43.432  28.554  28.972  1.00  0.00     0.029 A 
ATOM     25  C   UNL A   1      44.750  29.096  28.687  1.00  0.00     0.049 A 
ATOM     26  H   UNL A   1      46.449  27.990  28.157  1.00  0.00     0.167 HD
ATOM     27  C   UNL A   1      49.543  25.818  25.786  1.00  0.00     0.031 A 
ATOM     28  C   UNL A   1      45.185  30.382  28.708  1.00  0.00     0.031 A 
ATOM     29  C   UNL A   1      50.095  25.899  27.111  1.00  0.00     0.049 A 
ATOM     30  C   UNL A   1      46.668  30.342  28.688  1.00  0.00     0.074 A 
ATOM     31  C   UNL A   1      50.285  24.991  28.134  1.00  0.00     0.029 A 
ATOM     32  N   UNL A   1      50.181  27.145  27.686  1.00  0.00    -0.354 N 
ATOM     33  N   UNL A   1      47.384  29.868  29.670  1.00  0.00    -0.248 NA
ATOM     34  C   UNL A   1      47.336  30.385  27.396  1.00  0.00     0.031 C 
ATOM     35  C   UNL A   1      49.986  25.714  29.324  1.00  0.00     0.029 A 
ATOM     36  C   UNL A   1      49.708  27.036  28.969  1.00  0.00     0.049 A 
ATOM     37  H   UNL A   1      50.519  27.964  27.256  1.00  0.00     0.167 HD
ATOM     38  C   UNL A   1      48.406  29.157  29.054  1.00  0.00     0.074 A 
ATOM     39  C   UNL A   1      48.374  29.586  27.656  1.00  0.00     0.031 C 
ATOM     40  C   UNL A   1      48.996  28.088  29.665  1.00  0.00     0.031 A 
BRANCH  27  41
ATOM     41  C   UNL A   1      50.186  26.489  24.598  1.00  0.00    -0.014 A 
ATOM     42  C   UNL A   1      51.546  26.851  24.660  1.00  0.00     0.010 A 
ATOM     43  C   UNL A   1      49.429  27.023  23.533  1.00  0.00     0.010 A 
ATOM     44  C   UNL A   1      52.103  27.742  23.731  1.00  0.00     0.020 A 
ATOM     45  C   UNL A   1      49.984  27.877  22.580  1.00  0.00     0.020 A 
ATOM     46  C   UNL A   1      51.312  28.256  22.703  1.00  0.00     0.054 A 
BRANCH  46  47
ATOM     47  S   UNL A   1      52.012  29.473  21.562  1.00  0.00     0.124 S 
ATOM     48  O   UNL A   1      53.269  28.838  21.178  1.00  0.00    -0.237 OA
ATOM     49  O   UNL A   1      50.991  29.542  20.520  1.00  0.00    -0.237 OA
ATOM     50  O   UNL A   1      52.141  30.676  22.382  1.00  0.00    -0.744 OA
ENDBRANCH  46  47
ENDBRANCH  27  41
BRANCH  28  51
ATOM     51  C   UNL A   1      44.409  31.605  28.367  1.00  0.00    -0.014 A 
ATOM     52  C   UNL A   1      43.696  32.317  29.351  1.00  0.00     0.010 A 
ATOM     53  C   UNL A   1      44.602  32.236  27.120  1.00  0.00     0.010 A 
ATOM     54  C   UNL A   1      43.249  33.632  29.114  1.00  0.00     0.020 A 
ATOM     55  C   UNL A   1      44.154  33.540  26.874  1.00  0.00     0.020 A 
ATOM     56  C   UNL A   1      43.501  34.243  27.883  1.00  0.00     0.054 A 
BRANCH  56  57
ATOM     57  S   UNL A   1      43.091  35.999  27.648  1.00  0.00     0.124 S 
ATOM     58  O   UNL A   1      42.965  36.098  26.198  1.00  0.00    -0.237 OA
ATOM     59  O   UNL A   1      41.848  36.139  28.403  1.00  0.00    -0.237 OA
ATOM     60  O   UNL A   1      44.240  36.701  28.221  1.00  0.00    -0.744 OA
ENDBRANCH  56  57
ENDBRANCH  28  51
BRANCH  40  61
ATOM     61  C   UNL A   1      48.709  27.844  31.131  1.00  0.00    -0.014 A 
ATOM     62  C   UNL A   1      49.580  28.213  32.177  1.00  0.00     0.010 A 
ATOM     63  C   UNL A   1      47.431  27.363  31.465  1.00  0.00     0.010 A 
ATOM     64  C   UNL A   1      49.187  28.078  33.519  1.00  0.00     0.020 A 
ATOM     65  C   UNL A   1      47.027  27.245  32.797  1.00  0.00     0.020 A 
ATOM     66  C   UNL A   1      47.910  27.594  33.820  1.00  0.00     0.054 A 
BRANCH  66  67
ATOM     67  S   UNL A   1      47.385  27.459  35.552  1.00  0.00     0.124 S 
ATOM     68  O   UNL A   1      47.556  28.823  36.043  1.00  0.00    -0.237 OA
ATOM     69  O   UNL A   1      46.003  26.998  35.438  1.00  0.00    -0.237 OA
ATOM     70  O   UNL A   1      48.310  26.478  36.121  1.00  0.00    -0.744 OA
ENDBRANCH  66  67
ENDBRANCH  40  61
ENDBRANCH  14  15
ENDBRANCH   7   9
ENDBRANCH   6   7
ENDBRANCH   5   6
ENDBRANCH   4   5
ENDBRANCH   3   4
ENDBRANCH   2   3
ENDBRANCH   1   2
BRANCH   1  71
ATOM     71  O   UNL A   1      40.426  27.861  30.649  1.00  0.00    -0.376 OA
BRANCH  71  72
ATOM     72  C   UNL A   1      40.732  29.184  31.044  1.00  0.00     0.202 C 
BRANCH  72  73
ATOM     73  C   UNL A   1      40.394  29.595  32.485  1.00  0.00     0.261 C 
BRANCH  73  74
ATOM     74  O   UNL A   1      39.488  28.738  33.202  1.00  0.00    -0.460 OA
BRANCH  74  75
ATOM     75  C   UNL A   1      38.167  28.935  33.004  1.00  0.00     0.338 C 
ATOM     76  O   UNL A   1      37.375  28.190  32.420  1.00  0.00    -0.246 OA
BRANCH  75  77
ATOM     77  C   UNL A   1      37.756  30.214  33.615  1.00  0.00     0.061 A 
ATOM     78  C   UNL A   1      38.243  30.507  34.884  1.00  0.00     0.019 A 
ATOM     79  C   UNL A   1      36.946  31.143  32.912  1.00  0.00     0.038 A 
ATOM     80  C   UNL A   1      37.927  31.741  35.414  1.00  0.00    -0.043 A 
ATOM     81  C   UNL A   1      36.575  32.381  33.490  1.00  0.00     0.092 A 
ATOM     82  C   UNL A   1      37.054  32.648  34.767  1.00  0.00    -0.024 A 
ATOM     83  C   UNL A   1      38.467  32.325  36.688  1.00  0.00     0.036 C 
ATOM     84  C   UNL A   1      36.833  33.796  35.700  1.00  0.00     0.037 C 
ATOM     85  C   UNL A   1      38.189  33.802  36.417  1.00  0.00     0.010 C 
BRANCH  81  86
ATOM     86  S   UNL A   1      35.356  33.387  32.655  1.00  0.00     0.262 S 
ATOM     87  O   UNL A   1      34.195  32.540  32.446  1.00  0.00    -0.201 OA
ATOM     88  O   UNL A   1      35.214  34.600  33.431  1.00  0.00    -0.201 OA
BRANCH  86  89
ATOM     89  N   UNL A   1      35.782  33.900  31.077  1.00  0.00    -0.277 N 
ATOM     90  H   UNL A   1      36.353  34.697  30.987  1.00  0.00     0.180 HD
BRANCH  89  91
ATOM     91  C   UNL A   1      35.354  33.235  29.878  1.00  0.00     0.075 A 
ATOM     92  C   UNL A   1      35.972  32.018  29.528  1.00  0.00     0.042 A 
ATOM     93  C   UNL A   1      34.284  33.704  29.102  1.00  0.00     0.089 A 
ATOM     94  C   UNL A   1      35.464  31.221  28.480  1.00  0.00     0.058 A 
ATOM     95  C   UNL A   1      33.790  32.927  28.042  1.00  0.00     0.031 A 
ATOM     96  C   UNL A   1      34.377  31.697  27.734  1.00  0.00     0.015 A 
BRANCH  93  97
ATOM     97  N   UNL A   1      33.649  34.933  29.388  1.00  0.00    -0.239 N 
ATOM     98  C   UNL A   1      33.758  36.123  28.705  1.00  0.00     0.115 A 
ATOM     99  N   UNL A   1      32.905  35.076  30.515  1.00  0.00    -0.177 NA
ATOM    100  C   UNL A   1      33.253  37.100  29.528  1.00  0.00     0.042 A 
ATOM    101  C   UNL A   1      32.777  36.400  30.647  1.00  0.00     0.135 A 
ENDBRANCH  93  97
BRANCH  94 102
ATOM    102  C   UNL A   1      36.025  29.838  28.224  1.00  0.00     0.416 C 
ATOM    103  F   UNL A   1      35.057  28.902  28.053  1.00  0.00    -0.166 F 
ATOM    104  F   UNL A   1      36.806  29.799  27.111  1.00  0.00    -0.166 F 
ATOM    105  F   UNL A   1      36.812  29.386  29.242  1.00  0.00    -0.166 F 
ENDBRANCH  94 102
ENDBRANCH  89  91
ENDBRANCH  86  89
ENDBRANCH  81  86
ENDBRANCH  75  77
ENDBRANCH  74  75
ENDBRANCH  73  74
ENDBRANCH  72  73
ENDBRANCH  71  72
ENDBRANCH   1  71
TORSDOF 25
ENDMDL
