MODEL 1
REMARK VINA RESULT:      -6.0      0.000      0.000
REMARK SMILES COc1cc(C)cc2c1[C@@H](C)[C@@H](CC(=O)N[C@@H](Cc1c[nH]c3ccccc13)C(=O)OCCOCCOCCOC(=O)c1ccc(-c3c4nc(c(-c5ccc(S(=O)(=O)[O-])cc5)c5ccc([nH]5)c(-c5ccc(S(=O)(=O)[O-])cc5)c5nc(c(-c6ccc(S(=O)(=O)[O-])cc6)c6ccc3[nH]6)C=C5)C=C4)cc1)C(=O)O2
REMARK SMILES IDX 34 1 33 2 32 3 31 4 30 5 28 6 29 7 17 8 16 9 14 10 15 11
REMARK SMILES IDX 13 13 12 14 3 15 4 16 9 17 5 18 8 19 10 20 6 21 7 22 104 23
REMARK SMILES IDX 11 24 102 25 103 26 2 27 1 28 18 29 19 30 20 31 27 32 21 33
REMARK SMILES IDX 22 34 26 35 23 37 25 38 24 39 35 40 36 41 37 42 38 43 39 44
REMARK SMILES IDX 40 45 41 46 42 47 43 48 101 49 44 50 100 51 45 52 46 53
REMARK SMILES IDX 47 54 94 55 48 56 99 57 93 58 95 59 49 60 98 61 92 62 91 63
REMARK SMILES IDX 50 65 80 66 61 67 79 68 62 69 65 70 78 71 96 72 63 73 64 74
REMARK SMILES IDX 77 76 97 77 66 78 51 79 52 80 60 81 53 82 59 83 54 84 55 85
REMARK SMILES IDX 56 86 57 87 58 88 81 89 82 90 90 91 83 92 89 93 84 94 85 95
REMARK SMILES IDX 86 96 87 97 88 98 67 99 68 100 76 101 69 102 75 103 70 104
REMARK SMILES IDX 71 105 72 106 73 107 74 108
REMARK H PARENT 16 12 21 36 95 64 65 75
REMARK Flexibility Score: inf
ROOT
ATOM      1  C   UNL A   1      47.988  32.568  36.105  1.00  0.00     0.188 C 
ENDROOT
BRANCH   1   2
ATOM      2  O   UNL A   1      48.540  31.276  36.359  1.00  0.00    -0.376 OA
BRANCH   2   3
ATOM      3  C   UNL A   1      47.638  30.290  36.874  1.00  0.00     0.202 C 
BRANCH   3   4
ATOM      4  C   UNL A   1      46.433  30.000  35.973  1.00  0.00     0.261 C 
BRANCH   4   5
ATOM      5  O   UNL A   1      46.101  28.598  35.977  1.00  0.00    -0.462 OA
BRANCH   5   6
ATOM      6  C   UNL A   1      45.625  28.123  34.803  1.00  0.00     0.329 C 
ATOM      7  O   UNL A   1      46.302  27.500  33.989  1.00  0.00    -0.250 OA
BRANCH   6   8
ATOM      8  C   UNL A   1      44.110  28.317  34.640  1.00  0.00     0.196 C 
BRANCH   8   9
ATOM      9  N   UNL A   1      43.447  28.571  33.358  1.00  0.00    -0.342 N 
ATOM     10  C   UNL A   1      42.156  29.046  33.240  1.00  0.00     0.221 C 
ATOM     11  O   UNL A   1      41.381  28.521  32.443  1.00  0.00    -0.275 OA
ATOM     12  H   UNL A   1      43.952  28.392  32.532  1.00  0.00     0.164 HD
BRANCH  10  13
ATOM     13  C   UNL A   1      41.766  30.330  33.969  1.00  0.00     0.116 C 
BRANCH  13  14
ATOM     14  C   UNL A   1      41.208  30.255  35.412  1.00  0.00     0.116 C 
ATOM     15  C   UNL A   1      39.569  33.655  35.033  1.00  0.00     0.126 A 
ATOM     16  C   UNL A   1      40.113  34.913  34.727  1.00  0.00     0.050 A 
ATOM     17  C   UNL A   1      40.404  32.612  35.438  1.00  0.00     0.041 A 
ATOM     18  C   UNL A   1      41.498  35.149  34.797  1.00  0.00    -0.044 A 
ATOM     19  C   UNL A   1      41.757  32.923  35.645  1.00  0.00     0.138 A 
ATOM     20  C   UNL A   1      39.975  31.172  35.679  1.00  0.00     0.038 C 
ATOM     21  C   UNL A   1      42.106  36.455  34.378  1.00  0.00     0.044 C 
ATOM     22  C   UNL A   1      42.322  34.139  35.277  1.00  0.00     0.051 A 
ATOM     23  O   UNL A   1      42.622  32.021  36.289  1.00  0.00    -0.426 OA
ATOM     24  C   UNL A   1      38.757  30.662  34.900  1.00  0.00     0.014 C 
ATOM     25  C   UNL A   1      42.194  30.717  36.450  1.00  0.00     0.315 C 
ATOM     26  O   UNL A   1      42.621  30.001  37.347  1.00  0.00    -0.251 OA
BRANCH  15  27
ATOM     27  O   UNL A   1      38.219  33.452  35.096  1.00  0.00    -0.496 OA
ATOM     28  C   UNL A   1      37.628  33.772  36.353  1.00  0.00     0.278 C 
ENDBRANCH  15  27
ENDBRANCH  13  14
ENDBRANCH  10  13
ENDBRANCH   8   9
BRANCH   8  29
ATOM     29  C   UNL A   1      43.405  27.191  35.382  1.00  0.00     0.074 C 
BRANCH  29  30
ATOM     30  C   UNL A   1      43.785  25.755  35.187  1.00  0.00    -0.020 A 
ATOM     31  C   UNL A   1      43.816  25.180  33.929  1.00  0.00     0.087 A 
ATOM     32  C   UNL A   1      44.495  24.851  36.050  1.00  0.00     0.003 A 
ATOM     33  N   UNL A   1      44.961  24.433  33.916  1.00  0.00    -0.361 N 
ATOM     34  C   UNL A   1      45.301  24.088  35.199  1.00  0.00     0.046 A 
ATOM     35  C   UNL A   1      44.662  24.659  37.438  1.00  0.00     0.010 A 
ATOM     36  H   UNL A   1      45.465  24.182  33.108  1.00  0.00     0.166 HD
ATOM     37  C   UNL A   1      46.295  23.213  35.654  1.00  0.00     0.026 A 
ATOM     38  C   UNL A   1      45.577  23.706  37.911  1.00  0.00     0.001 A 
ATOM     39  C   UNL A   1      46.397  23.012  37.030  1.00  0.00     0.002 A 
ENDBRANCH  29  30
ENDBRANCH   8  29
ENDBRANCH   6   8
ENDBRANCH   5   6
ENDBRANCH   4   5
ENDBRANCH   3   4
ENDBRANCH   2   3
ENDBRANCH   1   2
BRANCH   1  40
ATOM     40  C   UNL A   1      48.513  33.670  37.032  1.00  0.00     0.188 C 
BRANCH  40  41
ATOM     41  O   UNL A   1      47.836  34.905  36.866  1.00  0.00    -0.376 OA
BRANCH  41  42
ATOM     42  C   UNL A   1      48.504  36.007  36.260  1.00  0.00     0.202 C 
BRANCH  42  43
ATOM     43  C   UNL A   1      47.811  37.367  36.052  1.00  0.00     0.261 C 
BRANCH  43  44
ATOM     44  O   UNL A   1      46.516  37.333  35.436  1.00  0.00    -0.460 OA
BRANCH  44  45
ATOM     45  C   UNL A   1      46.451  37.549  34.103  1.00  0.00     0.338 C 
ATOM     46  O   UNL A   1      46.954  38.486  33.503  1.00  0.00    -0.246 OA
BRANCH  45  47
ATOM     47  C   UNL A   1      45.897  36.315  33.474  1.00  0.00     0.060 A 
ATOM     48  C   UNL A   1      45.725  35.127  34.196  1.00  0.00     0.016 A 
ATOM     49  C   UNL A   1      45.658  36.325  32.094  1.00  0.00     0.016 A 
ATOM     50  C   UNL A   1      45.280  33.969  33.548  1.00  0.00     0.010 A 
ATOM     51  C   UNL A   1      45.233  35.161  31.443  1.00  0.00     0.010 A 
ATOM     52  C   UNL A   1      45.010  33.979  32.169  1.00  0.00    -0.014 A 
BRANCH  52  53
ATOM     53  C   UNL A   1      44.255  32.861  31.547  1.00  0.00     0.031 A 
ATOM     54  C   UNL A   1      42.810  32.945  31.165  1.00  0.00     0.074 A 
ATOM     55  C   UNL A   1      44.930  31.722  31.306  1.00  0.00     0.049 A 
ATOM     56  N   UNL A   1      42.013  31.986  30.757  1.00  0.00    -0.248 NA
ATOM     57  C   UNL A   1      42.171  34.261  31.249  1.00  0.00     0.031 C 
ATOM     58  C   UNL A   1      46.361  31.535  31.549  1.00  0.00     0.029 A 
ATOM     59  N   UNL A   1      44.520  30.533  30.763  1.00  0.00    -0.354 N 
ATOM     60  C   UNL A   1      40.752  32.558  30.635  1.00  0.00     0.074 A 
ATOM     61  C   UNL A   1      40.924  33.968  30.898  1.00  0.00     0.031 C 
ATOM     62  C   UNL A   1      46.725  30.333  31.086  1.00  0.00     0.029 A 
ATOM     63  C   UNL A   1      45.547  29.642  30.565  1.00  0.00     0.049 A 
ATOM     64  H   UNL A   1      43.583  30.336  30.535  1.00  0.00     0.167 HD
ATOM     65  C   UNL A   1      39.565  31.941  30.396  1.00  0.00     0.031 A 
ATOM     66  C   UNL A   1      45.552  28.418  30.003  1.00  0.00     0.031 A 
ATOM     67  C   UNL A   1      39.449  30.564  29.979  1.00  0.00     0.049 A 
ATOM     68  C   UNL A   1      44.271  27.830  29.491  1.00  0.00     0.074 A 
ATOM     69  C   UNL A   1      38.301  29.851  29.668  1.00  0.00     0.029 A 
ATOM     70  N   UNL A   1      40.516  29.715  29.730  1.00  0.00    -0.354 N 
ATOM     71  N   UNL A   1      43.061  28.333  29.540  1.00  0.00    -0.248 NA
ATOM     72  C   UNL A   1      44.351  26.517  28.837  1.00  0.00     0.031 C 
ATOM     73  C   UNL A   1      38.672  28.574  29.241  1.00  0.00     0.029 A 
ATOM     74  C   UNL A   1      40.055  28.509  29.232  1.00  0.00     0.049 A 
ATOM     75  H   UNL A   1      41.462  29.938  29.886  1.00  0.00     0.167 HD
ATOM     76  C   UNL A   1      42.238  27.398  28.925  1.00  0.00     0.074 A 
ATOM     77  C   UNL A   1      43.089  26.318  28.476  1.00  0.00     0.031 C 
ATOM     78  C   UNL A   1      40.894  27.434  28.767  1.00  0.00     0.031 A 
BRANCH  65  79
ATOM     79  C   UNL A   1      38.272  32.698  30.617  1.00  0.00    -0.014 A 
ATOM     80  C   UNL A   1      37.691  32.681  31.905  1.00  0.00     0.010 A 
ATOM     81  C   UNL A   1      37.558  33.298  29.569  1.00  0.00     0.010 A 
ATOM     82  C   UNL A   1      36.414  33.206  32.130  1.00  0.00     0.020 A 
ATOM     83  C   UNL A   1      36.298  33.864  29.798  1.00  0.00     0.020 A 
ATOM     84  C   UNL A   1      35.721  33.787  31.069  1.00  0.00     0.054 A 
BRANCH  84  85
ATOM     85  S   UNL A   1      34.056  34.452  31.355  1.00  0.00     0.124 S 
ATOM     86  O   UNL A   1      33.432  34.290  30.046  1.00  0.00    -0.237 OA
ATOM     87  O   UNL A   1      33.536  33.592  32.415  1.00  0.00    -0.237 OA
ATOM     88  O   UNL A   1      34.315  35.833  31.760  1.00  0.00    -0.744 OA
ENDBRANCH  84  85
ENDBRANCH  65  79
BRANCH  66  89
ATOM     89  C   UNL A   1      46.856  27.734  29.816  1.00  0.00    -0.014 A 
ATOM     90  C   UNL A   1      47.616  27.933  28.649  1.00  0.00     0.010 A 
ATOM     91  C   UNL A   1      47.271  26.774  30.755  1.00  0.00     0.010 A 
ATOM     92  C   UNL A   1      48.735  27.138  28.395  1.00  0.00     0.020 A 
ATOM     93  C   UNL A   1      48.409  26.000  30.519  1.00  0.00     0.020 A 
ATOM     94  C   UNL A   1      49.112  26.164  29.325  1.00  0.00     0.054 A 
BRANCH  94  95
ATOM     95  S   UNL A   1      50.524  25.092  28.944  1.00  0.00     0.124 S 
ATOM     96  O   UNL A   1      50.684  24.357  30.195  1.00  0.00    -0.237 OA
ATOM     97  O   UNL A   1      50.035  24.311  27.811  1.00  0.00    -0.237 OA
ATOM     98  O   UNL A   1      51.593  26.037  28.631  1.00  0.00    -0.744 OA
ENDBRANCH  94  95
ENDBRANCH  66  89
BRANCH  78  99
ATOM     99  C   UNL A   1      40.214  26.278  28.081  1.00  0.00    -0.014 A 
ATOM    100  C   UNL A   1      40.398  26.080  26.701  1.00  0.00     0.010 A 
ATOM    101  C   UNL A   1      39.283  25.481  28.769  1.00  0.00     0.010 A 
ATOM    102  C   UNL A   1      39.642  25.126  26.013  1.00  0.00     0.020 A 
ATOM    103  C   UNL A   1      38.542  24.509  28.090  1.00  0.00     0.020 A 
ATOM    104  C   UNL A   1      38.709  24.355  26.711  1.00  0.00     0.054 A 
BRANCH 104 105
ATOM    105  S   UNL A   1      37.704  23.154  25.794  1.00  0.00     0.124 S 
ATOM    106  O   UNL A   1      36.442  23.186  26.527  1.00  0.00    -0.237 OA
ATOM    107  O   UNL A   1      37.666  23.727  24.451  1.00  0.00    -0.237 OA
ATOM    108  O   UNL A   1      38.464  21.912  25.911  1.00  0.00    -0.744 OA
ENDBRANCH 104 105
ENDBRANCH  78  99
ENDBRANCH  52  53
ENDBRANCH  45  47
ENDBRANCH  44  45
ENDBRANCH  43  44
ENDBRANCH  42  43
ENDBRANCH  41  42
ENDBRANCH  40  41
ENDBRANCH   1  40
TORSDOF 26
ENDMDL
MODEL 2
REMARK VINA RESULT:      -5.6      4.746     10.281
REMARK SMILES COc1cc(C)cc2c1[C@@H](C)[C@@H](CC(=O)N[C@@H](Cc1c[nH]c3ccccc13)C(=O)OCCOCCOCCOC(=O)c1ccc(-c3c4nc(c(-c5ccc(S(=O)(=O)[O-])cc5)c5ccc([nH]5)c(-c5ccc(S(=O)(=O)[O-])cc5)c5nc(c(-c6ccc(S(=O)(=O)[O-])cc6)c6ccc3[nH]6)C=C5)C=C4)cc1)C(=O)O2
REMARK SMILES IDX 34 1 33 2 32 3 31 4 30 5 28 6 29 7 17 8 16 9 14 10 15 11
REMARK SMILES IDX 13 13 12 14 3 15 4 16 9 17 5 18 8 19 10 20 6 21 7 22 104 23
REMARK SMILES IDX 11 24 102 25 103 26 2 27 1 28 18 29 19 30 20 31 27 32 21 33
REMARK SMILES IDX 22 34 26 35 23 37 25 38 24 39 35 40 36 41 37 42 38 43 39 44
REMARK SMILES IDX 40 45 41 46 42 47 43 48 101 49 44 50 100 51 45 52 46 53
REMARK SMILES IDX 47 54 94 55 48 56 99 57 93 58 95 59 49 60 98 61 92 62 91 63
REMARK SMILES IDX 50 65 80 66 61 67 79 68 62 69 65 70 78 71 96 72 63 73 64 74
REMARK SMILES IDX 77 76 97 77 66 78 51 79 52 80 60 81 53 82 59 83 54 84 55 85
REMARK SMILES IDX 56 86 57 87 58 88 81 89 82 90 90 91 83 92 89 93 84 94 85 95
REMARK SMILES IDX 86 96 87 97 88 98 67 99 68 100 76 101 69 102 75 103 70 104
REMARK SMILES IDX 71 105 72 106 73 107 74 108
REMARK H PARENT 16 12 21 36 95 64 65 75
REMARK Flexibility Score: inf
ROOT
ATOM      1  C   UNL A   1      50.385  21.688  39.066  1.00  0.00     0.188 C 
ENDROOT
BRANCH   1   2
ATOM      2  O   UNL A   1      50.733  22.354  37.851  1.00  0.00    -0.376 OA
BRANCH   2   3
ATOM      3  C   UNL A   1      51.131  23.724  37.970  1.00  0.00     0.202 C 
BRANCH   3   4
ATOM      4  C   UNL A   1      52.625  23.974  37.735  1.00  0.00     0.261 C 
BRANCH   4   5
ATOM      5  O   UNL A   1      53.150  23.094  36.722  1.00  0.00    -0.462 OA
BRANCH   5   6
ATOM      6  C   UNL A   1      54.184  23.599  36.010  1.00  0.00     0.329 C 
ATOM      7  O   UNL A   1      55.266  23.913  36.498  1.00  0.00    -0.250 OA
BRANCH   6   8
ATOM      8  C   UNL A   1      53.925  23.619  34.496  1.00  0.00     0.196 C 
BRANCH   8   9
ATOM      9  N   UNL A   1      54.422  24.658  33.590  1.00  0.00    -0.342 N 
ATOM     10  C   UNL A   1      54.052  24.764  32.263  1.00  0.00     0.221 C 
ATOM     11  O   UNL A   1      54.909  24.952  31.402  1.00  0.00    -0.275 OA
ATOM     12  H   UNL A   1      55.058  25.318  33.947  1.00  0.00     0.164 HD
BRANCH  10  13
ATOM     13  C   UNL A   1      52.568  24.827  31.909  1.00  0.00     0.116 C 
BRANCH  13  14
ATOM     14  C   UNL A   1      51.808  26.172  32.017  1.00  0.00     0.116 C 
ATOM     15  C   UNL A   1      50.074  25.544  28.702  1.00  0.00     0.126 A 
ATOM     16  C   UNL A   1      50.593  25.316  27.417  1.00  0.00     0.050 A 
ATOM     17  C   UNL A   1      50.892  26.071  29.703  1.00  0.00     0.041 A 
ATOM     18  C   UNL A   1      51.939  25.588  27.112  1.00  0.00    -0.044 A 
ATOM     19  C   UNL A   1      52.182  26.474  29.325  1.00  0.00     0.138 A 
ATOM     20  C   UNL A   1      50.505  26.252  31.164  1.00  0.00     0.038 C 
ATOM     21  C   UNL A   1      52.536  25.259  25.775  1.00  0.00     0.044 C 
ATOM     22  C   UNL A   1      52.733  26.188  28.081  1.00  0.00     0.051 A 
ATOM     23  O   UNL A   1      52.987  27.242  30.185  1.00  0.00    -0.426 OA
ATOM     24  C   UNL A   1      49.442  25.304  31.732  1.00  0.00     0.014 C 
ATOM     25  C   UNL A   1      52.606  27.342  31.509  1.00  0.00     0.315 C 
ATOM     26  O   UNL A   1      52.932  28.294  32.207  1.00  0.00    -0.251 OA
BRANCH  15  27
ATOM     27  O   UNL A   1      48.741  25.408  28.973  1.00  0.00    -0.496 OA
ATOM     28  C   UNL A   1      47.966  24.885  27.898  1.00  0.00     0.278 C 
ENDBRANCH  15  27
ENDBRANCH  13  14
ENDBRANCH  10  13
ENDBRANCH   8   9
BRANCH   8  29
ATOM     29  C   UNL A   1      54.248  22.239  33.942  1.00  0.00     0.074 C 
BRANCH  29  30
ATOM     30  C   UNL A   1      53.173  21.270  33.554  1.00  0.00    -0.020 A 
ATOM     31  C   UNL A   1      53.456  19.939  33.303  1.00  0.00     0.087 A 
ATOM     32  C   UNL A   1      51.746  21.346  33.709  1.00  0.00     0.003 A 
ATOM     33  N   UNL A   1      52.451  19.247  33.922  1.00  0.00    -0.361 N 
ATOM     34  C   UNL A   1      51.342  20.047  34.033  1.00  0.00     0.046 A 
ATOM     35  C   UNL A   1      50.759  22.355  33.746  1.00  0.00     0.010 A 
ATOM     36  H   UNL A   1      52.516  18.318  34.239  1.00  0.00     0.166 HD
ATOM     37  C   UNL A   1      50.047  19.721  34.452  1.00  0.00     0.026 A 
ATOM     38  C   UNL A   1      49.431  22.028  34.059  1.00  0.00     0.001 A 
ATOM     39  C   UNL A   1      49.088  20.733  34.429  1.00  0.00     0.002 A 
ENDBRANCH  29  30
ENDBRANCH   8  29
ENDBRANCH   6   8
ENDBRANCH   5   6
ENDBRANCH   4   5
ENDBRANCH   3   4
ENDBRANCH   2   3
ENDBRANCH   1   2
BRANCH   1  40
ATOM     40  C   UNL A   1      49.180  20.750  38.947  1.00  0.00     0.188 C 
BRANCH  40  41
ATOM     41  O   UNL A   1      48.376  21.021  37.810  1.00  0.00    -0.376 OA
BRANCH  41  42
ATOM     42  C   UNL A   1      46.959  20.902  37.896  1.00  0.00     0.202 C 
BRANCH  42  43
ATOM     43  C   UNL A   1      46.013  21.833  37.114  1.00  0.00     0.261 C 
BRANCH  43  44
ATOM     44  O   UNL A   1      46.490  22.304  35.845  1.00  0.00    -0.460 OA
BRANCH  44  45
ATOM     45  C   UNL A   1      45.631  22.270  34.802  1.00  0.00     0.338 C 
ATOM     46  O   UNL A   1      44.982  21.303  34.439  1.00  0.00    -0.246 OA
BRANCH  45  47
ATOM     47  C   UNL A   1      45.417  23.675  34.351  1.00  0.00     0.060 A 
ATOM     48  C   UNL A   1      46.465  24.601  34.283  1.00  0.00     0.016 A 
ATOM     49  C   UNL A   1      44.105  24.100  34.106  1.00  0.00     0.016 A 
ATOM     50  C   UNL A   1      46.207  25.932  33.934  1.00  0.00     0.010 A 
ATOM     51  C   UNL A   1      43.844  25.435  33.777  1.00  0.00     0.010 A 
ATOM     52  C   UNL A   1      44.896  26.358  33.657  1.00  0.00    -0.014 A 
BRANCH  52  53
ATOM     53  C   UNL A   1      44.660  27.668  32.997  1.00  0.00     0.031 A 
ATOM     54  C   UNL A   1      44.188  28.891  33.722  1.00  0.00     0.074 A 
ATOM     55  C   UNL A   1      44.904  27.744  31.676  1.00  0.00     0.049 A 
ATOM     56  N   UNL A   1      43.804  30.041  33.223  1.00  0.00    -0.248 NA
ATOM     57  C   UNL A   1      44.137  28.823  35.184  1.00  0.00     0.031 C 
ATOM     58  C   UNL A   1      45.448  26.653  30.866  1.00  0.00     0.029 A 
ATOM     59  N   UNL A   1      44.775  28.787  30.797  1.00  0.00    -0.354 N 
ATOM     60  C   UNL A   1      43.365  30.802  34.301  1.00  0.00     0.074 A 
ATOM     61  C   UNL A   1      43.644  30.021  35.483  1.00  0.00     0.031 C 
ATOM     62  C   UNL A   1      45.678  27.108  29.628  1.00  0.00     0.029 A 
ATOM     63  C   UNL A   1      45.248  28.502  29.540  1.00  0.00     0.049 A 
ATOM     64  H   UNL A   1      44.383  29.657  31.043  1.00  0.00     0.167 HD
ATOM     65  C   UNL A   1      42.728  32.001  34.283  1.00  0.00     0.031 A 
ATOM     66  C   UNL A   1      45.352  29.277  28.444  1.00  0.00     0.031 A 
ATOM     67  C   UNL A   1      42.609  32.828  33.105  1.00  0.00     0.049 A 
ATOM     68  C   UNL A   1      44.887  30.702  28.494  1.00  0.00     0.074 A 
ATOM     69  C   UNL A   1      42.024  34.079  32.984  1.00  0.00     0.029 A 
ATOM     70  N   UNL A   1      43.156  32.530  31.867  1.00  0.00    -0.354 N 
ATOM     71  N   UNL A   1      44.322  31.345  29.487  1.00  0.00    -0.248 NA
ATOM     72  C   UNL A   1      45.080  31.513  27.284  1.00  0.00     0.031 C 
ATOM     73  C   UNL A   1      42.209  34.532  31.676  1.00  0.00     0.029 A 
ATOM     74  C   UNL A   1      42.959  33.588  30.996  1.00  0.00     0.049 A 
ATOM     75  H   UNL A   1      43.616  31.690  31.640  1.00  0.00     0.167 HD
ATOM     76  C   UNL A   1      44.093  32.634  29.022  1.00  0.00     0.074 A 
ATOM     77  C   UNL A   1      44.614  32.694  27.673  1.00  0.00     0.031 C 
ATOM     78  C   UNL A   1      43.487  33.664  29.658  1.00  0.00     0.031 A 
BRANCH  65  79
ATOM     79  C   UNL A   1      42.053  32.508  35.541  1.00  0.00    -0.014 A 
ATOM     80  C   UNL A   1      40.685  32.215  35.739  1.00  0.00     0.010 A 
ATOM     81  C   UNL A   1      42.691  33.368  36.447  1.00  0.00     0.010 A 
ATOM     82  C   UNL A   1      39.963  32.800  36.783  1.00  0.00     0.020 A 
ATOM     83  C   UNL A   1      41.982  33.923  37.521  1.00  0.00     0.020 A 
ATOM     84  C   UNL A   1      40.617  33.660  37.664  1.00  0.00     0.054 A 
BRANCH  84  85
ATOM     85  S   UNL A   1      39.676  34.437  39.010  1.00  0.00     0.124 S 
ATOM     86  O   UNL A   1      40.136  35.819  38.947  1.00  0.00    -0.237 OA
ATOM     87  O   UNL A   1      38.289  34.212  38.612  1.00  0.00    -0.237 OA
ATOM     88  O   UNL A   1      40.103  33.685  40.188  1.00  0.00    -0.744 OA
ENDBRANCH  84  85
ENDBRANCH  65  79
BRANCH  66  89
ATOM     89  C   UNL A   1      46.027  28.717  27.246  1.00  0.00    -0.014 A 
ATOM     90  C   UNL A   1      45.310  27.966  26.297  1.00  0.00     0.010 A 
ATOM     91  C   UNL A   1      47.423  28.825  27.128  1.00  0.00     0.010 A 
ATOM     92  C   UNL A   1      45.986  27.280  25.287  1.00  0.00     0.020 A 
ATOM     93  C   UNL A   1      48.099  28.167  26.099  1.00  0.00     0.020 A 
ATOM     94  C   UNL A   1      47.379  27.372  25.207  1.00  0.00     0.054 A 
BRANCH  94  95
ATOM     95  S   UNL A   1      48.247  26.417  23.934  1.00  0.00     0.124 S 
ATOM     96  O   UNL A   1      49.620  26.443  24.427  1.00  0.00    -0.237 OA
ATOM     97  O   UNL A   1      47.579  25.119  23.997  1.00  0.00    -0.237 OA
ATOM     98  O   UNL A   1      48.004  27.180  22.712  1.00  0.00    -0.744 OA
ENDBRANCH  94  95
ENDBRANCH  66  89
BRANCH  78  99
ATOM     99  C   UNL A   1      43.331  34.974  28.930  1.00  0.00    -0.014 A 
ATOM    100  C   UNL A   1      44.312  35.972  29.074  1.00  0.00     0.010 A 
ATOM    101  C   UNL A   1      42.151  35.269  28.227  1.00  0.00     0.010 A 
ATOM    102  C   UNL A   1      44.103  37.253  28.553  1.00  0.00     0.020 A 
ATOM    103  C   UNL A   1      41.948  36.542  27.684  1.00  0.00     0.020 A 
ATOM    104  C   UNL A   1      42.915  37.532  27.872  1.00  0.00     0.054 A 
BRANCH 104 105
ATOM    105  S   UNL A   1      42.642  39.213  27.244  1.00  0.00     0.124 S 
ATOM    106  O   UNL A   1      43.839  39.438  26.439  1.00  0.00    -0.237 OA
ATOM    107  O   UNL A   1      41.396  39.076  26.495  1.00  0.00    -0.237 OA
ATOM    108  O   UNL A   1      42.544  40.021  28.458  1.00  0.00    -0.744 OA
ENDBRANCH 104 105
ENDBRANCH  78  99
ENDBRANCH  52  53
ENDBRANCH  45  47
ENDBRANCH  44  45
ENDBRANCH  43  44
ENDBRANCH  42  43
ENDBRANCH  41  42
ENDBRANCH  40  41
ENDBRANCH   1  40
TORSDOF 26
ENDMDL
MODEL 3
REMARK VINA RESULT:      -5.5      6.666     11.621
REMARK SMILES COc1cc(C)cc2c1[C@@H](C)[C@@H](CC(=O)N[C@@H](Cc1c[nH]c3ccccc13)C(=O)OCCOCCOCCOC(=O)c1ccc(-c3c4nc(c(-c5ccc(S(=O)(=O)[O-])cc5)c5ccc([nH]5)c(-c5ccc(S(=O)(=O)[O-])cc5)c5nc(c(-c6ccc(S(=O)(=O)[O-])cc6)c6ccc3[nH]6)C=C5)C=C4)cc1)C(=O)O2
REMARK SMILES IDX 34 1 33 2 32 3 31 4 30 5 28 6 29 7 17 8 16 9 14 10 15 11
REMARK SMILES IDX 13 13 12 14 3 15 4 16 9 17 5 18 8 19 10 20 6 21 7 22 104 23
REMARK SMILES IDX 11 24 102 25 103 26 2 27 1 28 18 29 19 30 20 31 27 32 21 33
REMARK SMILES IDX 22 34 26 35 23 37 25 38 24 39 35 40 36 41 37 42 38 43 39 44
REMARK SMILES IDX 40 45 41 46 42 47 43 48 101 49 44 50 100 51 45 52 46 53
REMARK SMILES IDX 47 54 94 55 48 56 99 57 93 58 95 59 49 60 98 61 92 62 91 63
REMARK SMILES IDX 50 65 80 66 61 67 79 68 62 69 65 70 78 71 96 72 63 73 64 74
REMARK SMILES IDX 77 76 97 77 66 78 51 79 52 80 60 81 53 82 59 83 54 84 55 85
REMARK SMILES IDX 56 86 57 87 58 88 81 89 82 90 90 91 83 92 89 93 84 94 85 95
REMARK SMILES IDX 86 96 87 97 88 98 67 99 68 100 76 101 69 102 75 103 70 104
REMARK SMILES IDX 71 105 72 106 73 107 74 108
REMARK H PARENT 16 12 21 36 95 64 65 75
REMARK Flexibility Score: inf
ROOT
ATOM      1  C   UNL A   1      48.987  29.268  43.055  1.00  0.00     0.188 C 
ENDROOT
BRANCH   1   2
ATOM      2  O   UNL A   1      50.346  29.264  42.615  1.00  0.00    -0.376 OA
BRANCH   2   3
ATOM      3  C   UNL A   1      50.657  28.390  41.525  1.00  0.00     0.202 C 
BRANCH   3   4
ATOM      4  C   UNL A   1      50.928  26.938  41.933  1.00  0.00     0.261 C 
BRANCH   4   5
ATOM      5  O   UNL A   1      49.798  26.093  41.643  1.00  0.00    -0.462 OA
BRANCH   5   6
ATOM      6  C   UNL A   1      50.110  24.894  41.098  1.00  0.00     0.329 C 
ATOM      7  O   UNL A   1      50.965  24.136  41.549  1.00  0.00    -0.250 OA
BRANCH   6   8
ATOM      8  C   UNL A   1      49.192  24.500  39.931  1.00  0.00     0.196 C 
BRANCH   8   9
ATOM      9  N   UNL A   1      48.183  23.440  39.999  1.00  0.00    -0.342 N 
ATOM     10  C   UNL A   1      47.407  23.046  38.927  1.00  0.00     0.221 C 
ATOM     11  O   UNL A   1      46.197  22.885  39.073  1.00  0.00    -0.275 OA
ATOM     12  H   UNL A   1      48.049  22.983  40.860  1.00  0.00     0.164 HD
BRANCH  10  13
ATOM     13  C   UNL A   1      48.091  22.641  37.623  1.00  0.00     0.116 C 
BRANCH  13  14
ATOM     14  C   UNL A   1      47.600  21.390  36.853  1.00  0.00     0.116 C 
ATOM     15  C   UNL A   1      50.791  21.308  34.804  1.00  0.00     0.126 A 
ATOM     16  C   UNL A   1      51.372  22.270  33.961  1.00  0.00     0.050 A 
ATOM     17  C   UNL A   1      49.457  21.435  35.194  1.00  0.00     0.041 A 
ATOM     18  C   UNL A   1      50.643  23.384  33.510  1.00  0.00    -0.044 A 
ATOM     19  C   UNL A   1      48.716  22.471  34.604  1.00  0.00     0.138 A 
ATOM     20  C   UNL A   1      48.735  20.546  36.197  1.00  0.00     0.038 C 
ATOM     21  C   UNL A   1      51.274  24.472  32.692  1.00  0.00     0.044 C 
ATOM     22  C   UNL A   1      49.294  23.470  33.829  1.00  0.00     0.051 A 
ATOM     23  O   UNL A   1      47.317  22.531  34.731  1.00  0.00    -0.426 OA
ATOM     24  C   UNL A   1      49.587  19.871  37.278  1.00  0.00     0.014 C 
ATOM     25  C   UNL A   1      46.720  21.727  35.682  1.00  0.00     0.315 C 
ATOM     26  O   UNL A   1      45.556  21.359  35.580  1.00  0.00    -0.251 OA
BRANCH  15  27
ATOM     27  O   UNL A   1      51.447  20.157  35.140  1.00  0.00    -0.496 OA
ATOM     28  C   UNL A   1      52.311  19.647  34.127  1.00  0.00     0.278 C 
ENDBRANCH  15  27
ENDBRANCH  13  14
ENDBRANCH  10  13
ENDBRANCH   8   9
BRANCH   8  29
ATOM     29  C   UNL A   1      48.582  25.771  39.359  1.00  0.00     0.074 C 
BRANCH  29  30
ATOM     30  C   UNL A   1      49.278  26.578  38.305  1.00  0.00    -0.020 A 
ATOM     31  C   UNL A   1      49.137  27.953  38.238  1.00  0.00     0.087 A 
ATOM     32  C   UNL A   1      50.409  26.258  37.477  1.00  0.00     0.003 A 
ATOM     33  N   UNL A   1      50.399  28.421  37.996  1.00  0.00    -0.361 N 
ATOM     34  C   UNL A   1      51.143  27.445  37.383  1.00  0.00     0.046 A 
ATOM     35  C   UNL A   1      50.978  25.101  36.902  1.00  0.00     0.010 A 
ATOM     36  H   UNL A   1      50.724  29.321  38.227  1.00  0.00     0.166 HD
ATOM     37  C   UNL A   1      52.422  27.520  36.819  1.00  0.00     0.026 A 
ATOM     38  C   UNL A   1      52.211  25.182  36.236  1.00  0.00     0.001 A 
ATOM     39  C   UNL A   1      52.931  26.370  36.217  1.00  0.00     0.002 A 
ENDBRANCH  29  30
ENDBRANCH   8  29
ENDBRANCH   6   8
ENDBRANCH   5   6
ENDBRANCH   4   5
ENDBRANCH   3   4
ENDBRANCH   2   3
ENDBRANCH   1   2
BRANCH   1  40
ATOM     40  C   UNL A   1      47.999  29.857  42.042  1.00  0.00     0.188 C 
BRANCH  40  41
ATOM     41  O   UNL A   1      47.369  28.869  41.243  1.00  0.00    -0.376 OA
BRANCH  41  42
ATOM     42  C   UNL A   1      46.187  28.226  41.709  1.00  0.00     0.202 C 
BRANCH  42  43
ATOM     43  C   UNL A   1      45.248  27.456  40.758  1.00  0.00     0.261 C 
BRANCH  43  44
ATOM     44  O   UNL A   1      45.461  27.657  39.354  1.00  0.00    -0.460 OA
BRANCH  44  45
ATOM     45  C   UNL A   1      44.739  26.901  38.497  1.00  0.00     0.338 C 
ATOM     46  O   UNL A   1      43.601  26.499  38.679  1.00  0.00    -0.246 OA
BRANCH  45  47
ATOM     47  C   UNL A   1      45.469  26.875  37.197  1.00  0.00     0.060 A 
ATOM     48  C   UNL A   1      46.046  25.703  36.691  1.00  0.00     0.016 A 
ATOM     49  C   UNL A   1      45.679  28.089  36.531  1.00  0.00     0.016 A 
ATOM     50  C   UNL A   1      46.793  25.740  35.508  1.00  0.00     0.010 A 
ATOM     51  C   UNL A   1      46.444  28.130  35.360  1.00  0.00     0.010 A 
ATOM     52  C   UNL A   1      46.983  26.951  34.819  1.00  0.00    -0.014 A 
BRANCH  52  53
ATOM     53  C   UNL A   1      47.502  26.945  33.427  1.00  0.00     0.031 A 
ATOM     54  C   UNL A   1      48.886  27.379  33.054  1.00  0.00     0.074 A 
ATOM     55  C   UNL A   1      46.672  26.506  32.463  1.00  0.00     0.049 A 
ATOM     56  N   UNL A   1      49.393  27.559  31.858  1.00  0.00    -0.248 NA
ATOM     57  C   UNL A   1      49.820  27.648  34.150  1.00  0.00     0.031 C 
ATOM     58  C   UNL A   1      45.330  25.973  32.700  1.00  0.00     0.029 A 
ATOM     59  N   UNL A   1      46.849  26.391  31.109  1.00  0.00    -0.354 N 
ATOM     60  C   UNL A   1      50.674  28.063  32.055  1.00  0.00     0.074 A 
ATOM     61  C   UNL A   1      50.898  28.044  33.481  1.00  0.00     0.031 C 
ATOM     62  C   UNL A   1      44.835  25.518  31.541  1.00  0.00     0.029 A 
ATOM     63  C   UNL A   1      45.799  25.776  30.474  1.00  0.00     0.049 A 
ATOM     64  H   UNL A   1      47.650  26.717  30.638  1.00  0.00     0.167 HD
ATOM     65  C   UNL A   1      51.538  28.555  31.130  1.00  0.00     0.031 A 
ATOM     66  C   UNL A   1      45.635  25.431  29.182  1.00  0.00     0.031 A 
ATOM     67  C   UNL A   1      51.352  28.412  29.704  1.00  0.00     0.049 A 
ATOM     68  C   UNL A   1      46.713  25.739  28.187  1.00  0.00     0.074 A 
ATOM     69  C   UNL A   1      52.186  28.833  28.679  1.00  0.00     0.029 A 
ATOM     70  N   UNL A   1      50.307  27.728  29.104  1.00  0.00    -0.354 N 
ATOM     71  N   UNL A   1      47.848  26.368  28.378  1.00  0.00    -0.248 NA
ATOM     72  C   UNL A   1      46.501  25.286  26.806  1.00  0.00     0.031 C 
ATOM     73  C   UNL A   1      51.642  28.413  27.463  1.00  0.00     0.029 A 
ATOM     74  C   UNL A   1      50.499  27.681  27.734  1.00  0.00     0.049 A 
ATOM     75  H   UNL A   1      49.542  27.335  29.581  1.00  0.00     0.167 HD
ATOM     76  C   UNL A   1      48.483  26.384  27.142  1.00  0.00     0.074 A 
ATOM     77  C   UNL A   1      47.627  25.671  26.218  1.00  0.00     0.031 C 
ATOM     78  C   UNL A   1      49.663  26.959  26.808  1.00  0.00     0.031 A 
BRANCH  65  79
ATOM     79  C   UNL A   1      52.748  29.345  31.583  1.00  0.00    -0.014 A 
ATOM     80  C   UNL A   1      53.872  28.640  32.069  1.00  0.00     0.010 A 
ATOM     81  C   UNL A   1      52.749  30.745  31.669  1.00  0.00     0.010 A 
ATOM     82  C   UNL A   1      54.944  29.310  32.666  1.00  0.00     0.020 A 
ATOM     83  C   UNL A   1      53.840  31.424  32.226  1.00  0.00     0.020 A 
ATOM     84  C   UNL A   1      54.916  30.701  32.749  1.00  0.00     0.054 A 
BRANCH  84  85
ATOM     85  S   UNL A   1      56.299  31.572  33.541  1.00  0.00     0.124 S 
ATOM     86  O   UNL A   1      57.436  31.139  32.736  1.00  0.00    -0.237 OA
ATOM     87  O   UNL A   1      55.924  32.977  33.403  1.00  0.00    -0.237 OA
ATOM     88  O   UNL A   1      56.270  31.063  34.911  1.00  0.00    -0.744 OA
ENDBRANCH  84  85
ENDBRANCH  65  79
BRANCH  66  89
ATOM     89  C   UNL A   1      44.425  24.656  28.808  1.00  0.00    -0.014 A 
ATOM     90  C   UNL A   1      44.402  23.253  28.916  1.00  0.00     0.010 A 
ATOM     91  C   UNL A   1      43.338  25.320  28.213  1.00  0.00     0.010 A 
ATOM     92  C   UNL A   1      43.342  22.524  28.378  1.00  0.00     0.020 A 
ATOM     93  C   UNL A   1      42.260  24.595  27.703  1.00  0.00     0.020 A 
ATOM     94  C   UNL A   1      42.286  23.200  27.759  1.00  0.00     0.054 A 
BRANCH  94  95
ATOM     95  S   UNL A   1      40.952  22.233  27.001  1.00  0.00     0.124 S 
ATOM     96  O   UNL A   1      39.892  23.231  26.884  1.00  0.00    -0.237 OA
ATOM     97  O   UNL A   1      41.550  21.796  25.742  1.00  0.00    -0.237 OA
ATOM     98  O   UNL A   1      40.708  21.171  27.974  1.00  0.00    -0.744 OA
ENDBRANCH  94  95
ENDBRANCH  66  89
BRANCH  78  99
ATOM     99  C   UNL A   1      50.138  26.865  25.382  1.00  0.00    -0.014 A 
ATOM    100  C   UNL A   1      51.386  26.280  25.100  1.00  0.00     0.010 A 
ATOM    101  C   UNL A   1      49.420  27.481  24.343  1.00  0.00     0.010 A 
ATOM    102  C   UNL A   1      51.923  26.339  23.811  1.00  0.00     0.020 A 
ATOM    103  C   UNL A   1      49.943  27.522  23.047  1.00  0.00     0.020 A 
ATOM    104  C   UNL A   1      51.202  26.973  22.795  1.00  0.00     0.054 A 
BRANCH 104 105
ATOM    105  S   UNL A   1      51.936  27.080  21.138  1.00  0.00     0.124 S 
ATOM    106  O   UNL A   1      52.051  28.523  20.947  1.00  0.00    -0.237 OA
ATOM    107  O   UNL A   1      53.198  26.364  21.299  1.00  0.00    -0.237 OA
ATOM    108  O   UNL A   1      50.954  26.414  20.285  1.00  0.00    -0.744 OA
ENDBRANCH 104 105
ENDBRANCH  78  99
ENDBRANCH  52  53
ENDBRANCH  45  47
ENDBRANCH  44  45
ENDBRANCH  43  44
ENDBRANCH  42  43
ENDBRANCH  41  42
ENDBRANCH  40  41
ENDBRANCH   1  40
TORSDOF 26
ENDMDL
