MODEL 1
REMARK VINA RESULT:      -9.2      0.000      0.000
REMARK SMILES O=C(OCCOCCOCCOC(=O)[C@@H]1CCCCN1c1ccccc1[N+](=O)[O-])c1ccc(-c2c3nc(c(-c4ccc(S(=O)(=O)[O-])cc4)c4ccc([nH]4)c(-c4ccc(S(=O)(=O)[O-])cc4)c4nc(c(-c5ccc(S(=O)(=O)[O-])cc5)c5ccc2[nH]5)C=C4)C=C3)cc1
REMARK SMILES IDX 7 1 6 2 5 3 4 4 3 5 2 6 1 7 30 8 31 9 89 10 32 11 88 12
REMARK SMILES IDX 33 13 34 14 35 15 82 16 36 17 87 18 81 19 83 20 37 21 86 22
REMARK SMILES IDX 80 23 79 24 38 26 68 27 49 28 67 29 50 30 53 31 66 32 84 33
REMARK SMILES IDX 51 34 52 35 65 37 85 38 54 39 39 40 40 41 48 42 41 43 47 44
REMARK SMILES IDX 42 45 43 46 44 47 45 48 46 49 69 50 70 51 78 52 71 53 77 54
REMARK SMILES IDX 72 55 73 56 74 57 75 58 76 59 55 60 56 61 64 62 57 63 63 64
REMARK SMILES IDX 58 65 59 66 60 67 61 68 62 69 8 70 9 71 10 72 11 73 12 74
REMARK SMILES IDX 13 75 14 76 15 77 16 78 20 79 17 80 19 81 18 82 21 83 22 84
REMARK SMILES IDX 26 85 23 86 25 87 24 88 27 89 28 90 29 91
REMARK H PARENT 83 25 53 36
REMARK Flexibility Score: inf
ROOT
ATOM      1  C   UNL A   1      32.580  28.673  27.202  1.00  0.00     0.188 C 
ENDROOT
BRANCH   1   2
ATOM      2  O   UNL A   1      32.086  29.965  26.878  1.00  0.00    -0.376 OA
BRANCH   2   3
ATOM      3  C   UNL A   1      32.887  31.073  27.248  1.00  0.00     0.202 C 
BRANCH   3   4
ATOM      4  C   UNL A   1      32.104  32.378  27.274  1.00  0.00     0.261 C 
BRANCH   4   5
ATOM      5  O   UNL A   1      33.007  33.489  27.358  1.00  0.00    -0.460 OA
BRANCH   5   6
ATOM      6  C   UNL A   1      33.332  34.163  28.481  1.00  0.00     0.338 C 
ATOM      7  O   UNL A   1      32.531  34.961  28.963  1.00  0.00    -0.246 OA
BRANCH   6   8
ATOM      8  C   UNL A   1      34.579  33.927  29.241  1.00  0.00     0.060 A 
ATOM      9  C   UNL A   1      36.218  34.619  28.937  1.00  0.00     0.016 A 
ATOM     10  C   UNL A   1      34.416  32.787  30.599  1.00  0.00     0.016 A 
ATOM     11  C   UNL A   1      37.742  34.011  30.105  1.00  0.00     0.010 A 
ATOM     12  C   UNL A   1      35.785  32.293  31.645  1.00  0.00     0.010 A 
ATOM     13  C   UNL A   1      37.439  32.869  31.437  1.00  0.00    -0.014 A 
BRANCH  13  14
ATOM     14  C   UNL A   1      38.661  32.329  32.085  1.00  0.00     0.031 A 
ATOM     15  C   UNL A   1      38.954  32.696  33.504  1.00  0.00     0.074 A 
ATOM     16  C   UNL A   1      39.334  31.306  31.509  1.00  0.00     0.049 A 
ATOM     17  N   UNL A   1      39.934  32.288  34.262  1.00  0.00    -0.248 NA
ATOM     18  C   UNL A   1      38.000  33.581  34.187  1.00  0.00     0.031 C 
ATOM     19  C   UNL A   1      38.977  30.694  30.238  1.00  0.00     0.029 A 
ATOM     20  N   UNL A   1      40.403  30.541  31.903  1.00  0.00    -0.354 N 
ATOM     21  C   UNL A   1      39.711  32.862  35.503  1.00  0.00     0.074 A 
ATOM     22  C   UNL A   1      38.527  33.679  35.396  1.00  0.00     0.031 C 
ATOM     23  C   UNL A   1      39.752  29.646  29.964  1.00  0.00     0.029 A 
ATOM     24  C   UNL A   1      40.773  29.589  30.970  1.00  0.00     0.049 A 
ATOM     25  H   UNL A   1      40.863  30.658  32.766  1.00  0.00     0.167 HD
ATOM     26  C   UNL A   1      40.431  32.702  36.634  1.00  0.00     0.031 A 
ATOM     27  C   UNL A   1      41.845  28.787  30.873  1.00  0.00     0.031 A 
ATOM     28  C   UNL A   1      41.616  31.892  36.692  1.00  0.00     0.049 A 
ATOM     29  C   UNL A   1      42.761  28.805  32.042  1.00  0.00     0.074 A 
ATOM     30  C   UNL A   1      42.514  31.746  37.731  1.00  0.00     0.029 A 
ATOM     31  N   UNL A   1      42.065  31.084  35.652  1.00  0.00    -0.354 N 
ATOM     32  N   UNL A   1      42.611  29.469  33.163  1.00  0.00    -0.248 NA
ATOM     33  C   UNL A   1      43.957  27.970  31.968  1.00  0.00     0.031 C 
ATOM     34  C   UNL A   1      43.539  30.900  37.295  1.00  0.00     0.029 A 
ATOM     35  C   UNL A   1      43.242  30.457  36.014  1.00  0.00     0.049 A 
ATOM     36  H   UNL A   1      41.610  30.976  34.785  1.00  0.00     0.167 HD
ATOM     37  C   UNL A   1      43.681  29.109  33.953  1.00  0.00     0.074 A 
ATOM     38  C   UNL A   1      44.458  28.150  33.181  1.00  0.00     0.031 C 
ATOM     39  C   UNL A   1      43.988  29.525  35.203  1.00  0.00     0.031 A 
BRANCH  26  40
ATOM     40  C   UNL A   1      39.991  33.492  37.834  1.00  0.00    -0.014 A 
ATOM     41  C   UNL A   1      40.532  34.759  38.125  1.00  0.00     0.010 A 
ATOM     42  C   UNL A   1      39.057  32.928  38.720  1.00  0.00     0.010 A 
ATOM     43  C   UNL A   1      40.170  35.430  39.297  1.00  0.00     0.020 A 
ATOM     44  C   UNL A   1      38.672  33.607  39.878  1.00  0.00     0.020 A 
ATOM     45  C   UNL A   1      39.242  34.848  40.167  1.00  0.00     0.054 A 
BRANCH  45  46
ATOM     46  S   UNL A   1      38.775  35.749  41.669  1.00  0.00     0.124 S 
ATOM     47  O   UNL A   1      37.417  35.263  41.904  1.00  0.00    -0.237 OA
ATOM     48  O   UNL A   1      39.778  35.302  42.632  1.00  0.00    -0.237 OA
ATOM     49  O   UNL A   1      38.873  37.154  41.278  1.00  0.00    -0.744 OA
ENDBRANCH  45  46
ENDBRANCH  26  40
BRANCH  27  50
ATOM     50  C   UNL A   1      42.124  28.023  29.618  1.00  0.00    -0.014 A 
ATOM     51  C   UNL A   1      42.809  28.589  28.531  1.00  0.00     0.010 A 
ATOM     52  C   UNL A   1      41.686  26.683  29.512  1.00  0.00     0.010 A 
ATOM     53  C   UNL A   1      43.010  27.851  27.355  1.00  0.00     0.020 A 
ATOM     54  C   UNL A   1      41.915  25.933  28.355  1.00  0.00     0.020 A 
ATOM     55  C   UNL A   1      42.555  26.531  27.272  1.00  0.00     0.054 A 
BRANCH  55  56
ATOM     56  S   UNL A   1      42.805  25.606  25.730  1.00  0.00     0.124 S 
ATOM     57  O   UNL A   1      44.162  25.996  25.358  1.00  0.00    -0.237 OA
ATOM     58  O   UNL A   1      42.640  24.222  26.164  1.00  0.00    -0.237 OA
ATOM     59  O   UNL A   1      41.749  26.107  24.853  1.00  0.00    -0.744 OA
ENDBRANCH  55  56
ENDBRANCH  27  50
BRANCH  39  60
ATOM     60  C   UNL A   1      45.202  28.899  35.808  1.00  0.00    -0.014 A 
ATOM     61  C   UNL A   1      45.152  27.609  36.362  1.00  0.00     0.010 A 
ATOM     62  C   UNL A   1      46.406  29.623  35.813  1.00  0.00     0.010 A 
ATOM     63  C   UNL A   1      46.286  27.068  36.959  1.00  0.00     0.020 A 
ATOM     64  C   UNL A   1      47.551  29.067  36.372  1.00  0.00     0.020 A 
ATOM     65  C   UNL A   1      47.478  27.801  36.957  1.00  0.00     0.054 A 
BRANCH  65  66
ATOM     66  S   UNL A   1      48.948  27.057  37.704  1.00  0.00     0.124 S 
ATOM     67  O   UNL A   1      49.683  28.234  38.160  1.00  0.00    -0.237 OA
ATOM     68  O   UNL A   1      48.379  26.221  38.758  1.00  0.00    -0.237 OA
ATOM     69  O   UNL A   1      49.564  26.326  36.599  1.00  0.00    -0.744 OA
ENDBRANCH  65  66
ENDBRANCH  39  60
ENDBRANCH  13  14
ENDBRANCH   6   8
ENDBRANCH   5   6
ENDBRANCH   4   5
ENDBRANCH   3   4
ENDBRANCH   2   3
ENDBRANCH   1   2
BRANCH   1  70
ATOM     70  C   UNL A   1      31.952  27.653  26.254  1.00  0.00     0.188 C 
BRANCH  70  71
ATOM     71  O   UNL A   1      30.923  26.855  26.846  1.00  0.00    -0.376 OA
BRANCH  71  72
ATOM     72  C   UNL A   1      30.246  25.933  25.984  1.00  0.00     0.202 C 
BRANCH  72  73
ATOM     73  C   UNL A   1      29.909  24.575  26.602  1.00  0.00     0.261 C 
BRANCH  73  74
ATOM     74  O   UNL A   1      30.228  23.479  25.729  1.00  0.00    -0.462 OA
BRANCH  74  75
ATOM     75  C   UNL A   1      31.494  23.021  25.763  1.00  0.00     0.328 C 
ATOM     76  O   UNL A   1      31.990  22.498  26.761  1.00  0.00    -0.250 OA
BRANCH  75  77
ATOM     77  C   UNL A   1      32.334  23.288  24.528  1.00  0.00     0.192 C 
ATOM     78  C   UNL A   1      31.456  24.082  23.547  1.00  0.00     0.037 C 
ATOM     79  N   UNL A   1      33.154  22.281  23.767  1.00  0.00    -0.353 N 
ATOM     80  C   UNL A   1      32.326  24.862  22.571  1.00  0.00     0.005 C 
ATOM     81  C   UNL A   1      34.030  22.972  22.771  1.00  0.00     0.118 C 
ATOM     82  C   UNL A   1      33.258  23.919  21.841  1.00  0.00     0.022 C 
BRANCH  79  83
ATOM     83  C   UNL A   1      33.327  20.898  23.992  1.00  0.00     0.116 A 
ATOM     84  C   UNL A   1      32.278  19.763  23.120  1.00  0.00     0.033 A 
ATOM     85  C   UNL A   1      34.813  20.195  24.783  1.00  0.00     0.292 A 
ATOM     86  C   UNL A   1      32.561  18.007  22.982  1.00  0.00     0.003 A 
ATOM     87  C   UNL A   1      35.144  18.203  24.582  1.00  0.00     0.088 A 
ATOM     88  C   UNL A   1      33.958  17.201  23.669  1.00  0.00     0.007 A 
BRANCH  85  89
ATOM     89  N   UNL A   1      35.359  21.308  25.700  1.00  0.00     0.064 N 
ATOM     90  O   UNL A   1      34.851  21.483  26.820  1.00  0.00    -0.258 OA
ATOM     91  O   UNL A   1      36.367  21.908  25.290  1.00  0.00    -0.258 OA
ENDBRANCH  85  89
ENDBRANCH  79  83
ENDBRANCH  75  77
ENDBRANCH  74  75
ENDBRANCH  73  74
ENDBRANCH  72  73
ENDBRANCH  71  72
ENDBRANCH  70  71
ENDBRANCH   1  70
TORSDOF 22
ENDMDL
MODEL 2
REMARK VINA RESULT:      -9.1      0.446      8.132
REMARK SMILES O=C(OCCOCCOCCOC(=O)[C@@H]1CCCCN1c1ccccc1[N+](=O)[O-])c1ccc(-c2c3nc(c(-c4ccc(S(=O)(=O)[O-])cc4)c4ccc([nH]4)c(-c4ccc(S(=O)(=O)[O-])cc4)c4nc(c(-c5ccc(S(=O)(=O)[O-])cc5)c5ccc2[nH]5)C=C4)C=C3)cc1
REMARK SMILES IDX 7 1 6 2 5 3 4 4 3 5 2 6 1 7 30 8 31 9 89 10 32 11 88 12
REMARK SMILES IDX 33 13 34 14 35 15 82 16 36 17 87 18 81 19 83 20 37 21 86 22
REMARK SMILES IDX 80 23 79 24 38 26 68 27 49 28 67 29 50 30 53 31 66 32 84 33
REMARK SMILES IDX 51 34 52 35 65 37 85 38 54 39 39 40 40 41 48 42 41 43 47 44
REMARK SMILES IDX 42 45 43 46 44 47 45 48 46 49 69 50 70 51 78 52 71 53 77 54
REMARK SMILES IDX 72 55 73 56 74 57 75 58 76 59 55 60 56 61 64 62 57 63 63 64
REMARK SMILES IDX 58 65 59 66 60 67 61 68 62 69 8 70 9 71 10 72 11 73 12 74
REMARK SMILES IDX 13 75 14 76 15 77 16 78 20 79 17 80 19 81 18 82 21 83 22 84
REMARK SMILES IDX 26 85 23 86 25 87 24 88 27 89 28 90 29 91
REMARK H PARENT 83 25 53 36
REMARK Flexibility Score: inf
ROOT
ATOM      1  C   UNL A   1      32.752  28.615  27.229  1.00  0.00     0.188 C 
ENDROOT
BRANCH   1   2
ATOM      2  O   UNL A   1      32.226  29.902  26.936  1.00  0.00    -0.376 OA
BRANCH   2   3
ATOM      3  C   UNL A   1      33.008  31.019  27.318  1.00  0.00     0.202 C 
BRANCH   3   4
ATOM      4  C   UNL A   1      32.197  32.307  27.378  1.00  0.00     0.261 C 
BRANCH   4   5
ATOM      5  O   UNL A   1      33.077  33.438  27.416  1.00  0.00    -0.460 OA
BRANCH   5   6
ATOM      6  C   UNL A   1      33.422  34.137  28.518  1.00  0.00     0.338 C 
ATOM      7  O   UNL A   1      32.686  35.034  28.922  1.00  0.00    -0.246 OA
BRANCH   6   8
ATOM      8  C   UNL A   1      34.607  33.823  29.344  1.00  0.00     0.060 A 
ATOM      9  C   UNL A   1      36.286  34.465  29.177  1.00  0.00     0.016 A 
ATOM     10  C   UNL A   1      34.317  32.632  30.636  1.00  0.00     0.016 A 
ATOM     11  C   UNL A   1      37.709  33.751  30.412  1.00  0.00     0.010 A 
ATOM     12  C   UNL A   1      35.597  32.042  31.743  1.00  0.00     0.010 A 
ATOM     13  C   UNL A   1      37.280  32.565  31.669  1.00  0.00    -0.014 A 
BRANCH  13  14
ATOM     14  C   UNL A   1      38.437  31.952  32.368  1.00  0.00     0.031 A 
ATOM     15  C   UNL A   1      39.314  30.999  31.624  1.00  0.00     0.074 A 
ATOM     16  C   UNL A   1      38.857  32.461  33.550  1.00  0.00     0.049 A 
ATOM     17  N   UNL A   1      40.399  30.403  32.036  1.00  0.00    -0.248 NA
ATOM     18  C   UNL A   1      38.977  30.721  30.220  1.00  0.00     0.031 C 
ATOM     19  C   UNL A   1      38.224  33.572  34.244  1.00  0.00     0.029 A 
ATOM     20  N   UNL A   1      39.930  32.192  34.363  1.00  0.00    -0.354 N 
ATOM     21  C   UNL A   1      40.870  29.688  30.947  1.00  0.00     0.074 A 
ATOM     22  C   UNL A   1      39.940  29.887  29.863  1.00  0.00     0.031 C 
ATOM     23  C   UNL A   1      38.907  33.925  35.331  1.00  0.00     0.029 A 
ATOM     24  C   UNL A   1      39.961  32.969  35.508  1.00  0.00     0.049 A 
ATOM     25  H   UNL A   1      40.611  31.513  34.153  1.00  0.00     0.167 HD
ATOM     26  C   UNL A   1      41.994  28.943  30.865  1.00  0.00     0.031 A 
ATOM     27  C   UNL A   1      40.704  32.903  36.625  1.00  0.00     0.031 A 
ATOM     28  C   UNL A   1      42.885  28.757  31.976  1.00  0.00     0.049 A 
ATOM     29  C   UNL A   1      41.798  31.899  36.603  1.00  0.00     0.074 A 
ATOM     30  C   UNL A   1      43.984  27.927  32.074  1.00  0.00     0.029 A 
ATOM     31  N   UNL A   1      42.771  29.423  33.192  1.00  0.00    -0.354 N 
ATOM     32  N   UNL A   1      42.147  31.120  35.607  1.00  0.00    -0.248 NA
ATOM     33  C   UNL A   1      42.612  31.771  37.808  1.00  0.00     0.031 C 
ATOM     34  C   UNL A   1      44.495  28.044  33.370  1.00  0.00     0.029 A 
ATOM     35  C   UNL A   1      43.764  29.003  34.057  1.00  0.00     0.049 A 
ATOM     36  H   UNL A   1      42.082  30.095  33.406  1.00  0.00     0.167 HD
ATOM     37  C   UNL A   1      43.250  30.424  36.051  1.00  0.00     0.074 A 
ATOM     38  C   UNL A   1      43.519  30.895  37.401  1.00  0.00     0.031 C 
ATOM     39  C   UNL A   1      43.979  29.489  35.398  1.00  0.00     0.031 A 
BRANCH  26  40
ATOM     40  C   UNL A   1      42.237  28.227  29.566  1.00  0.00    -0.014 A 
ATOM     41  C   UNL A   1      41.772  26.916  29.347  1.00  0.00     0.010 A 
ATOM     42  C   UNL A   1      42.997  28.859  28.567  1.00  0.00     0.010 A 
ATOM     43  C   UNL A   1      42.092  26.241  28.164  1.00  0.00     0.020 A 
ATOM     44  C   UNL A   1      43.295  28.199  27.373  1.00  0.00     0.020 A 
ATOM     45  C   UNL A   1      42.853  26.888  27.185  1.00  0.00     0.054 A 
BRANCH  45  46
ATOM     46  S   UNL A   1      43.236  25.998  25.653  1.00  0.00     0.124 S 
ATOM     47  O   UNL A   1      44.543  26.546  25.303  1.00  0.00    -0.237 OA
ATOM     48  O   UNL A   1      43.235  24.604  26.088  1.00  0.00    -0.237 OA
ATOM     49  O   UNL A   1      42.145  26.368  24.753  1.00  0.00    -0.744 OA
ENDBRANCH  45  46
ENDBRANCH  26  40
BRANCH  27  50
ATOM     50  C   UNL A   1      40.358  33.721  37.828  1.00  0.00    -0.014 A 
ATOM     51  C   UNL A   1      39.600  33.208  38.892  1.00  0.00     0.010 A 
ATOM     52  C   UNL A   1      40.805  35.059  37.906  1.00  0.00     0.010 A 
ATOM     53  C   UNL A   1      39.259  34.024  39.981  1.00  0.00     0.020 A 
ATOM     54  C   UNL A   1      40.499  35.866  39.006  1.00  0.00     0.020 A 
ATOM     55  C   UNL A   1      39.705  35.349  40.028  1.00  0.00     0.054 A 
BRANCH  55  56
ATOM     56  S   UNL A   1      39.231  36.392  41.436  1.00  0.00     0.124 S 
ATOM     57  O   UNL A   1      38.785  37.614  40.773  1.00  0.00    -0.237 OA
ATOM     58  O   UNL A   1      38.185  35.599  42.075  1.00  0.00    -0.237 OA
ATOM     59  O   UNL A   1      40.468  36.516  42.204  1.00  0.00    -0.744 OA
ENDBRANCH  55  56
ENDBRANCH  27  50
BRANCH  39  60
ATOM     60  C   UNL A   1      45.158  28.957  36.147  1.00  0.00    -0.014 A 
ATOM     61  C   UNL A   1      46.414  29.577  36.054  1.00  0.00     0.010 A 
ATOM     62  C   UNL A   1      44.990  27.819  36.953  1.00  0.00     0.010 A 
ATOM     63  C   UNL A   1      47.505  29.033  36.726  1.00  0.00     0.020 A 
ATOM     64  C   UNL A   1      46.069  27.300  37.659  1.00  0.00     0.020 A 
ATOM     65  C   UNL A   1      47.323  27.900  37.526  1.00  0.00     0.054 A 
BRANCH  65  66
ATOM     66  S   UNL A   1      48.749  27.239  38.421  1.00  0.00     0.124 S 
ATOM     67  O   UNL A   1      48.449  27.628  39.795  1.00  0.00    -0.237 OA
ATOM     68  O   UNL A   1      48.664  25.808  38.137  1.00  0.00    -0.237 OA
ATOM     69  O   UNL A   1      49.886  27.924  37.810  1.00  0.00    -0.744 OA
ENDBRANCH  65  66
ENDBRANCH  39  60
ENDBRANCH  13  14
ENDBRANCH   6   8
ENDBRANCH   5   6
ENDBRANCH   4   5
ENDBRANCH   3   4
ENDBRANCH   2   3
ENDBRANCH   1   2
BRANCH   1  70
ATOM     70  C   UNL A   1      32.094  27.592  26.305  1.00  0.00     0.188 C 
BRANCH  70  71
ATOM     71  O   UNL A   1      31.215  26.679  26.968  1.00  0.00    -0.376 OA
BRANCH  71  72
ATOM     72  C   UNL A   1      30.305  25.944  26.143  1.00  0.00     0.202 C 
BRANCH  72  73
ATOM     73  C   UNL A   1      29.904  24.564  26.664  1.00  0.00     0.261 C 
BRANCH  73  74
ATOM     74  O   UNL A   1      30.227  23.511  25.741  1.00  0.00    -0.462 OA
BRANCH  74  75
ATOM     75  C   UNL A   1      31.487  23.038  25.772  1.00  0.00     0.328 C 
ATOM     76  O   UNL A   1      31.979  22.508  26.769  1.00  0.00    -0.250 OA
BRANCH  75  77
ATOM     77  C   UNL A   1      32.329  23.298  24.536  1.00  0.00     0.192 C 
ATOM     78  C   UNL A   1      31.441  24.058  23.536  1.00  0.00     0.037 C 
ATOM     79  N   UNL A   1      33.171  22.293  23.798  1.00  0.00    -0.353 N 
ATOM     80  C   UNL A   1      32.301  24.835  22.550  1.00  0.00     0.005 C 
ATOM     81  C   UNL A   1      34.038  22.982  22.793  1.00  0.00     0.118 C 
ATOM     82  C   UNL A   1      33.254  23.896  21.842  1.00  0.00     0.022 C 
BRANCH  79  83
ATOM     83  C   UNL A   1      33.368  20.918  24.050  1.00  0.00     0.116 A 
ATOM     84  C   UNL A   1      32.350  19.746  23.189  1.00  0.00     0.033 A 
ATOM     85  C   UNL A   1      34.861  20.259  24.867  1.00  0.00     0.292 A 
ATOM     86  C   UNL A   1      32.669  17.994  23.086  1.00  0.00     0.003 A 
ATOM     87  C   UNL A   1      35.233  18.270  24.706  1.00  0.00     0.088 A 
ATOM     88  C   UNL A   1      34.075  17.229  23.800  1.00  0.00     0.007 A 
BRANCH  85  89
ATOM     89  N   UNL A   1      35.376  21.399  25.768  1.00  0.00     0.064 N 
ATOM     90  O   UNL A   1      34.913  21.532  26.913  1.00  0.00    -0.258 OA
ATOM     91  O   UNL A   1      36.322  22.067  25.316  1.00  0.00    -0.258 OA
ENDBRANCH  85  89
ENDBRANCH  79  83
ENDBRANCH  75  77
ENDBRANCH  74  75
ENDBRANCH  73  74
ENDBRANCH  72  73
ENDBRANCH  71  72
ENDBRANCH  70  71
ENDBRANCH   1  70
TORSDOF 22
ENDMDL
MODEL 3
REMARK VINA RESULT:      -8.7      1.448      2.204
REMARK SMILES O=C(OCCOCCOCCOC(=O)[C@@H]1CCCCN1c1ccccc1[N+](=O)[O-])c1ccc(-c2c3nc(c(-c4ccc(S(=O)(=O)[O-])cc4)c4ccc([nH]4)c(-c4ccc(S(=O)(=O)[O-])cc4)c4nc(c(-c5ccc(S(=O)(=O)[O-])cc5)c5ccc2[nH]5)C=C4)C=C3)cc1
REMARK SMILES IDX 7 1 6 2 5 3 4 4 3 5 2 6 1 7 30 8 31 9 89 10 32 11 88 12
REMARK SMILES IDX 33 13 34 14 35 15 82 16 36 17 87 18 81 19 83 20 37 21 86 22
REMARK SMILES IDX 80 23 79 24 38 26 68 27 49 28 67 29 50 30 53 31 66 32 84 33
REMARK SMILES IDX 51 34 52 35 65 37 85 38 54 39 39 40 40 41 48 42 41 43 47 44
REMARK SMILES IDX 42 45 43 46 44 47 45 48 46 49 69 50 70 51 78 52 71 53 77 54
REMARK SMILES IDX 72 55 73 56 74 57 75 58 76 59 55 60 56 61 64 62 57 63 63 64
REMARK SMILES IDX 58 65 59 66 60 67 61 68 62 69 8 70 9 71 10 72 11 73 12 74
REMARK SMILES IDX 13 75 14 76 15 77 16 78 20 79 17 80 19 81 18 82 21 83 22 84
REMARK SMILES IDX 26 85 23 86 25 87 24 88 27 89 28 90 29 91
REMARK H PARENT 83 25 53 36
REMARK Flexibility Score: inf
ROOT
ATOM      1  C   UNL A   1      32.650  28.213  25.571  1.00  0.00     0.188 C 
ENDROOT
BRANCH   1   2
ATOM      2  O   UNL A   1      32.139  29.521  25.790  1.00  0.00    -0.376 OA
BRANCH   2   3
ATOM      3  C   UNL A   1      32.292  30.062  27.089  1.00  0.00     0.202 C 
BRANCH   3   4
ATOM      4  C   UNL A   1      31.991  31.555  27.139  1.00  0.00     0.261 C 
BRANCH   4   5
ATOM      5  O   UNL A   1      33.216  32.299  27.168  1.00  0.00    -0.460 OA
BRANCH   5   6
ATOM      6  C   UNL A   1      33.546  33.247  28.071  1.00  0.00     0.338 C 
ATOM      7  O   UNL A   1      32.740  34.132  28.345  1.00  0.00    -0.246 OA
BRANCH   6   8
ATOM      8  C   UNL A   1      34.809  33.233  28.840  1.00  0.00     0.060 A 
ATOM      9  C   UNL A   1      36.261  34.283  28.621  1.00  0.00     0.016 A 
ATOM     10  C   UNL A   1      34.889  31.991  30.114  1.00  0.00     0.016 A 
ATOM     11  C   UNL A   1      37.873  33.938  29.779  1.00  0.00     0.010 A 
ATOM     12  C   UNL A   1      36.326  31.732  31.154  1.00  0.00     0.010 A 
ATOM     13  C   UNL A   1      37.816  32.666  31.024  1.00  0.00    -0.014 A 
BRANCH  13  14
ATOM     14  C   UNL A   1      39.122  32.359  31.660  1.00  0.00     0.031 A 
ATOM     15  C   UNL A   1      39.435  32.949  32.997  1.00  0.00     0.074 A 
ATOM     16  C   UNL A   1      39.882  31.346  31.184  1.00  0.00     0.049 A 
ATOM     17  N   UNL A   1      40.491  32.760  33.740  1.00  0.00    -0.248 NA
ATOM     18  C   UNL A   1      38.416  33.810  33.615  1.00  0.00     0.031 C 
ATOM     19  C   UNL A   1      39.541  30.528  30.030  1.00  0.00     0.029 A 
ATOM     20  N   UNL A   1      41.051  30.765  31.609  1.00  0.00    -0.354 N 
ATOM     21  C   UNL A   1      40.259  33.472  34.906  1.00  0.00     0.074 A 
ATOM     22  C   UNL A   1      38.984  34.132  34.765  1.00  0.00     0.031 C 
ATOM     23  C   UNL A   1      40.420  29.543  29.850  1.00  0.00     0.029 A 
ATOM     24  C   UNL A   1      41.486  29.739  30.789  1.00  0.00     0.049 A 
ATOM     25  H   UNL A   1      41.533  31.050  32.419  1.00  0.00     0.167 HD
ATOM     26  C   UNL A   1      41.045  33.551  36.001  1.00  0.00     0.031 A 
ATOM     27  C   UNL A   1      42.640  29.053  30.733  1.00  0.00     0.031 A 
ATOM     28  C   UNL A   1      42.318  32.892  36.092  1.00  0.00     0.049 A 
ATOM     29  C   UNL A   1      43.600  29.335  31.831  1.00  0.00     0.074 A 
ATOM     30  C   UNL A   1      43.275  32.991  37.084  1.00  0.00     0.029 A 
ATOM     31  N   UNL A   1      42.810  32.002  35.143  1.00  0.00    -0.354 N 
ATOM     32  N   UNL A   1      43.425  30.127  32.861  1.00  0.00    -0.248 NA
ATOM     33  C   UNL A   1      44.881  28.634  31.794  1.00  0.00     0.031 C 
ATOM     34  C   UNL A   1      44.370  32.210  36.702  1.00  0.00     0.029 A 
ATOM     35  C   UNL A   1      44.068  31.564  35.511  1.00  0.00     0.049 A 
ATOM     36  H   UNL A   1      42.331  31.725  34.327  1.00  0.00     0.167 HD
ATOM     37  C   UNL A   1      44.566  30.000  33.624  1.00  0.00     0.074 A 
ATOM     38  C   UNL A   1      45.413  29.034  32.939  1.00  0.00     0.031 C 
ATOM     39  C   UNL A   1      44.879  30.616  34.786  1.00  0.00     0.031 A 
BRANCH  26  40
ATOM     40  C   UNL A   1      40.571  34.447  37.111  1.00  0.00    -0.014 A 
ATOM     41  C   UNL A   1      39.784  33.957  38.171  1.00  0.00     0.010 A 
ATOM     42  C   UNL A   1      40.873  35.818  37.060  1.00  0.00     0.010 A 
ATOM     43  C   UNL A   1      39.282  34.831  39.140  1.00  0.00     0.020 A 
ATOM     44  C   UNL A   1      40.396  36.691  38.041  1.00  0.00     0.020 A 
ATOM     45  C   UNL A   1      39.591  36.193  39.068  1.00  0.00     0.054 A 
BRANCH  45  46
ATOM     46  S   UNL A   1      38.943  37.301  40.349  1.00  0.00     0.124 S 
ATOM     47  O   UNL A   1      38.073  36.408  41.110  1.00  0.00    -0.237 OA
ATOM     48  O   UNL A   1      40.156  37.734  41.037  1.00  0.00    -0.237 OA
ATOM     49  O   UNL A   1      38.254  38.343  39.591  1.00  0.00    -0.744 OA
ENDBRANCH  45  46
ENDBRANCH  26  40
BRANCH  27  50
ATOM     50  C   UNL A   1      42.948  28.159  29.576  1.00  0.00    -0.014 A 
ATOM     51  C   UNL A   1      42.674  26.781  29.597  1.00  0.00     0.010 A 
ATOM     52  C   UNL A   1      43.536  28.708  28.414  1.00  0.00     0.010 A 
ATOM     53  C   UNL A   1      43.021  25.970  28.507  1.00  0.00     0.020 A 
ATOM     54  C   UNL A   1      43.851  27.910  27.311  1.00  0.00     0.020 A 
ATOM     55  C   UNL A   1      43.614  26.538  27.374  1.00  0.00     0.054 A 
BRANCH  55  56
ATOM     56  S   UNL A   1      44.076  25.464  25.986  1.00  0.00     0.124 S 
ATOM     57  O   UNL A   1      45.514  25.694  25.889  1.00  0.00    -0.237 OA
ATOM     58  O   UNL A   1      43.675  24.144  26.464  1.00  0.00    -0.237 OA
ATOM     59  O   UNL A   1      43.285  25.982  24.871  1.00  0.00    -0.744 OA
ENDBRANCH  55  56
ENDBRANCH  27  50
BRANCH  39  60
ATOM     60  C   UNL A   1      46.186  30.217  35.393  1.00  0.00    -0.014 A 
ATOM     61  C   UNL A   1      46.276  29.111  36.253  1.00  0.00     0.010 A 
ATOM     62  C   UNL A   1      47.332  30.969  35.086  1.00  0.00     0.010 A 
ATOM     63  C   UNL A   1      47.497  28.789  36.839  1.00  0.00     0.020 A 
ATOM     64  C   UNL A   1      48.560  30.623  35.638  1.00  0.00     0.020 A 
ATOM     65  C   UNL A   1      48.630  29.546  36.524  1.00  0.00     0.054 A 
BRANCH  65  66
ATOM     66  S   UNL A   1      50.212  29.081  37.269  1.00  0.00     0.124 S 
ATOM     67  O   UNL A   1      50.456  27.774  36.666  1.00  0.00    -0.237 OA
ATOM     68  O   UNL A   1      51.098  30.155  36.827  1.00  0.00    -0.237 OA
ATOM     69  O   UNL A   1      49.926  29.065  38.702  1.00  0.00    -0.744 OA
ENDBRANCH  65  66
ENDBRANCH  39  60
ENDBRANCH  13  14
ENDBRANCH   6   8
ENDBRANCH   5   6
ENDBRANCH   4   5
ENDBRANCH   3   4
ENDBRANCH   2   3
ENDBRANCH   1   2
BRANCH   1  70
ATOM     70  C   UNL A   1      33.300  28.162  24.190  1.00  0.00     0.188 C 
BRANCH  70  71
ATOM     71  O   UNL A   1      32.519  27.494  23.196  1.00  0.00    -0.376 OA
BRANCH  71  72
ATOM     72  C   UNL A   1      33.208  27.057  22.019  1.00  0.00     0.202 C 
BRANCH  72  73
ATOM     73  C   UNL A   1      33.275  25.543  21.814  1.00  0.00     0.261 C 
BRANCH  73  74
ATOM     74  O   UNL A   1      33.850  24.860  22.939  1.00  0.00    -0.462 OA
BRANCH  74  75
ATOM     75  C   UNL A   1      33.452  23.591  23.151  1.00  0.00     0.328 C 
ATOM     76  O   UNL A   1      33.819  22.649  22.448  1.00  0.00    -0.250 OA
BRANCH  75  77
ATOM     77  C   UNL A   1      32.419  23.388  24.244  1.00  0.00     0.192 C 
ATOM     78  C   UNL A   1      32.525  24.591  25.195  1.00  0.00     0.037 C 
ATOM     79  N   UNL A   1      32.195  22.133  25.043  1.00  0.00    -0.353 N 
ATOM     80  C   UNL A   1      31.223  24.777  25.961  1.00  0.00     0.005 C 
ATOM     81  C   UNL A   1      30.935  22.243  25.840  1.00  0.00     0.118 C 
ATOM     82  C   UNL A   1      30.878  23.507  26.709  1.00  0.00     0.022 C 
BRANCH  79  83
ATOM     83  C   UNL A   1      32.870  20.893  24.990  1.00  0.00     0.116 A 
ATOM     84  C   UNL A   1      32.152  19.580  24.036  1.00  0.00     0.033 A 
ATOM     85  C   UNL A   1      34.614  20.688  25.482  1.00  0.00     0.292 A 
ATOM     86  C   UNL A   1      32.999  18.088  23.549  1.00  0.00     0.003 A 
ATOM     87  C   UNL A   1      35.578  19.004  24.885  1.00  0.00     0.088 A 
ATOM     88  C   UNL A   1      34.680  17.768  23.930  1.00  0.00     0.007 A 
BRANCH  85  89
ATOM     89  N   UNL A   1      34.882  21.789  26.527  1.00  0.00     0.064 N 
ATOM     90  O   UNL A   1      35.473  22.827  26.184  1.00  0.00    -0.258 OA
ATOM     91  O   UNL A   1      34.385  21.608  27.651  1.00  0.00    -0.258 OA
ENDBRANCH  85  89
ENDBRANCH  79  83
ENDBRANCH  75  77
ENDBRANCH  74  75
ENDBRANCH  73  74
ENDBRANCH  72  73
ENDBRANCH  71  72
ENDBRANCH  70  71
ENDBRANCH   1  70
TORSDOF 22
ENDMDL
