MODEL 1
REMARK VINA RESULT:      -9.5      0.000      0.000
REMARK SMILES Cc1cc(C)c2c(O[C@@H](C)C(=O)OCCOCCOCCOC(=O)c3ccc(-c4c5nc(c(-c6ccc(S(=O)(=O)[O-])cc6)c6ccc([nH]6)c(-c6ccc(S(=O)(=O)[O-])cc6)c6nc(c(-c7ccc(S(=O)(=O)[O-])cc7)c7ccc4[nH]7)C=C6)C=C5)cc3)nsc2n1
REMARK SMILES IDX 18 1 17 2 16 3 15 4 14 5 13 6 11 7 12 8 9 9 10 10 8 11 7 12
REMARK SMILES IDX 1 13 2 14 3 15 88 16 4 17 87 18 5 19 6 20 86 21 85 22 19 23
REMARK SMILES IDX 20 24 21 25 22 26 23 27 24 28 25 29 26 30 84 31 27 32 83 33
REMARK SMILES IDX 28 34 29 35 30 36 77 37 31 38 82 39 76 40 78 41 32 42 81 43
REMARK SMILES IDX 75 44 74 45 33 47 63 48 44 49 62 50 45 51 48 52 61 53 79 54
REMARK SMILES IDX 46 55 47 56 60 58 80 59 49 60 34 61 35 62 43 63 36 64 42 65
REMARK SMILES IDX 37 66 38 67 39 68 40 69 41 70 64 71 65 72 73 73 66 74 72 75
REMARK SMILES IDX 67 76 68 77 69 78 70 79 71 80 50 81 51 82 59 83 52 84 58 85
REMARK SMILES IDX 53 86 54 87 55 88 56 89 57 90
REMARK H PARENT 78 46 48 57
REMARK Flexibility Score: inf
ROOT
ATOM      1  C   UNL A   1      34.670  31.370  27.952  1.00  0.00     0.188 C 
ENDROOT
BRANCH   1   2
ATOM      2  C   UNL A   1      33.269  31.092  27.355  1.00  0.00     0.188 C 
BRANCH   2   3
ATOM      3  O   UNL A   1      33.132  30.087  26.357  1.00  0.00    -0.376 OA
BRANCH   3   4
ATOM      4  C   UNL A   1      31.890  29.394  26.267  1.00  0.00     0.202 C 
BRANCH   4   5
ATOM      5  C   UNL A   1      31.684  28.112  27.100  1.00  0.00     0.261 C 
BRANCH   5   6
ATOM      6  O   UNL A   1      32.612  27.046  26.807  1.00  0.00    -0.461 OA
BRANCH   6   7
ATOM      7  C   UNL A   1      32.134  25.821  26.479  1.00  0.00     0.347 C 
ATOM      8  O   UNL A   1      31.197  25.274  27.049  1.00  0.00    -0.248 OA
BRANCH   7   9
ATOM      9  C   UNL A   1      32.874  25.197  25.262  1.00  0.00     0.281 C 
ATOM     10  C   UNL A   1      34.308  24.763  25.573  1.00  0.00     0.066 C 
BRANCH   9  11
ATOM     11  O   UNL A   1      32.887  25.587  23.922  1.00  0.00    -0.462 OA
BRANCH  11  12
ATOM     12  C   UNL A   1      32.490  26.794  23.470  1.00  0.00     0.236 A 
ATOM     13  C   UNL A   1      28.415  30.398  21.833  1.00  0.00     0.067 C 
ATOM     14  C   UNL A   1      29.384  29.370  22.332  1.00  0.00     0.039 A 
ATOM     15  C   UNL A   1      28.925  28.249  22.998  1.00  0.00     0.027 A 
ATOM     16  N   UNL A   1      30.682  29.640  22.165  1.00  0.00    -0.240 NA
ATOM     17  C   UNL A   1      29.816  27.294  23.533  1.00  0.00    -0.034 A 
ATOM     18  C   UNL A   1      31.519  28.692  22.629  1.00  0.00     0.147 A 
ATOM     19  C   UNL A   1      29.123  26.201  24.300  1.00  0.00     0.045 C 
ATOM     20  C   UNL A   1      31.213  27.482  23.277  1.00  0.00     0.078 A 
ATOM     21  S   UNL A   1      33.196  28.911  22.495  1.00  0.00    -0.012 S 
ATOM     22  N   UNL A   1      33.596  27.476  23.169  1.00  0.00    -0.153 NA
ENDBRANCH  11  12
ENDBRANCH   9  11
ENDBRANCH   7   9
ENDBRANCH   6   7
ENDBRANCH   5   6
ENDBRANCH   4   5
ENDBRANCH   3   4
ENDBRANCH   2   3
ENDBRANCH   1   2
BRANCH   1  23
ATOM     23  O   UNL A   1      34.985  32.746  28.079  1.00  0.00    -0.376 OA
BRANCH  23  24
ATOM     24  C   UNL A   1      33.978  33.746  28.085  1.00  0.00     0.202 C 
BRANCH  24  25
ATOM     25  C   UNL A   1      33.668  34.529  29.361  1.00  0.00     0.261 C 
BRANCH  25  26
ATOM     26  O   UNL A   1      34.062  33.864  30.537  1.00  0.00    -0.460 OA
BRANCH  26  27
ATOM     27  C   UNL A   1      33.821  34.538  31.680  1.00  0.00     0.338 C 
ATOM     28  O   UNL A   1      32.895  35.282  31.922  1.00  0.00    -0.246 OA
BRANCH  27  29
ATOM     29  C   UNL A   1      34.858  34.122  32.632  1.00  0.00     0.060 A 
ATOM     30  C   UNL A   1      35.847  35.051  32.960  1.00  0.00     0.016 A 
ATOM     31  C   UNL A   1      34.964  32.761  32.931  1.00  0.00     0.016 A 
ATOM     32  C   UNL A   1      37.102  34.561  33.220  1.00  0.00     0.010 A 
ATOM     33  C   UNL A   1      36.210  32.273  33.166  1.00  0.00     0.010 A 
ATOM     34  C   UNL A   1      37.267  33.179  33.129  1.00  0.00    -0.014 A 
BRANCH  34  35
ATOM     35  C   UNL A   1      38.549  32.670  32.704  1.00  0.00     0.031 A 
ATOM     36  C   UNL A   1      39.473  32.406  33.815  1.00  0.00     0.074 A 
ATOM     37  C   UNL A   1      38.727  32.307  31.417  1.00  0.00     0.049 A 
ATOM     38  N   UNL A   1      40.486  33.119  34.176  1.00  0.00    -0.248 NA
ATOM     39  C   UNL A   1      39.078  31.373  34.788  1.00  0.00     0.031 C 
ATOM     40  C   UNL A   1      37.735  32.211  30.335  1.00  0.00     0.029 A 
ATOM     41  N   UNL A   1      39.841  31.813  30.832  1.00  0.00    -0.354 N 
ATOM     42  C   UNL A   1      40.962  32.492  35.317  1.00  0.00     0.074 A 
ATOM     43  C   UNL A   1      39.892  31.662  35.799  1.00  0.00     0.031 C 
ATOM     44  C   UNL A   1      38.243  31.456  29.332  1.00  0.00     0.029 A 
ATOM     45  C   UNL A   1      39.623  31.124  29.647  1.00  0.00     0.049 A 
ATOM     46  H   UNL A   1      40.740  31.934  31.217  1.00  0.00     0.167 HD
ATOM     47  C   UNL A   1      42.287  32.427  35.614  1.00  0.00     0.031 A 
ATOM     48  C   UNL A   1      40.498  30.262  29.064  1.00  0.00     0.031 A 
ATOM     49  C   UNL A   1      43.063  33.305  34.778  1.00  0.00     0.049 A 
ATOM     50  C   UNL A   1      41.830  30.523  29.684  1.00  0.00     0.074 A 
ATOM     51  C   UNL A   1      43.108  34.673  34.602  1.00  0.00     0.029 A 
ATOM     52  N   UNL A   1      43.632  32.751  33.652  1.00  0.00    -0.354 N 
ATOM     53  N   UNL A   1      42.483  31.644  29.546  1.00  0.00    -0.248 NA
ATOM     54  C   UNL A   1      42.195  29.738  30.857  1.00  0.00     0.031 C 
ATOM     55  C   UNL A   1      43.288  34.861  33.202  1.00  0.00     0.029 A 
ATOM     56  C   UNL A   1      43.414  33.607  32.598  1.00  0.00     0.049 A 
ATOM     57  H   UNL A   1      44.111  31.892  33.609  1.00  0.00     0.167 HD
ATOM     58  C   UNL A   1      43.023  31.910  30.800  1.00  0.00     0.074 A 
ATOM     59  C   UNL A   1      42.882  30.659  31.543  1.00  0.00     0.031 C 
ATOM     60  C   UNL A   1      43.258  33.192  31.215  1.00  0.00     0.031 A 
BRANCH  47  61
ATOM     61  C   UNL A   1      42.889  31.295  36.401  1.00  0.00    -0.014 A 
ATOM     62  C   UNL A   1      43.630  31.586  37.557  1.00  0.00     0.010 A 
ATOM     63  C   UNL A   1      42.928  29.962  35.932  1.00  0.00     0.010 A 
ATOM     64  C   UNL A   1      44.390  30.594  38.194  1.00  0.00     0.020 A 
ATOM     65  C   UNL A   1      43.632  28.957  36.587  1.00  0.00     0.020 A 
ATOM     66  C   UNL A   1      44.387  29.287  37.700  1.00  0.00     0.054 A 
BRANCH  66  67
ATOM     67  S   UNL A   1      45.444  28.040  38.469  1.00  0.00     0.124 S 
ATOM     68  O   UNL A   1      46.756  28.675  38.400  1.00  0.00    -0.237 OA
ATOM     69  O   UNL A   1      44.862  27.924  39.803  1.00  0.00    -0.237 OA
ATOM     70  O   UNL A   1      45.270  26.868  37.614  1.00  0.00    -0.744 OA
ENDBRANCH  66  67
ENDBRANCH  47  61
BRANCH  48  71
ATOM     71  C   UNL A   1      40.177  28.979  28.377  1.00  0.00    -0.014 A 
ATOM     72  C   UNL A   1      40.702  28.685  27.103  1.00  0.00     0.010 A 
ATOM     73  C   UNL A   1      39.593  27.916  29.097  1.00  0.00     0.010 A 
ATOM     74  C   UNL A   1      40.710  27.369  26.604  1.00  0.00     0.020 A 
ATOM     75  C   UNL A   1      39.591  26.603  28.605  1.00  0.00     0.020 A 
ATOM     76  C   UNL A   1      40.177  26.330  27.373  1.00  0.00     0.054 A 
BRANCH  76  77
ATOM     77  S   UNL A   1      40.372  24.609  26.819  1.00  0.00     0.124 S 
ATOM     78  O   UNL A   1      39.150  24.387  26.051  1.00  0.00    -0.237 OA
ATOM     79  O   UNL A   1      41.607  24.664  26.042  1.00  0.00    -0.237 OA
ATOM     80  O   UNL A   1      40.465  23.854  28.067  1.00  0.00    -0.744 OA
ENDBRANCH  76  77
ENDBRANCH  48  71
BRANCH  60  81
ATOM     81  C   UNL A   1      43.131  34.304  30.191  1.00  0.00    -0.014 A 
ATOM     82  C   UNL A   1      41.899  34.762  29.677  1.00  0.00     0.010 A 
ATOM     83  C   UNL A   1      44.294  35.015  29.853  1.00  0.00     0.010 A 
ATOM     84  C   UNL A   1      41.841  35.880  28.828  1.00  0.00     0.020 A 
ATOM     85  C   UNL A   1      44.243  36.138  29.023  1.00  0.00     0.020 A 
ATOM     86  C   UNL A   1      43.019  36.560  28.504  1.00  0.00     0.054 A 
BRANCH  86  87
ATOM     87  S   UNL A   1      42.942  38.019  27.426  1.00  0.00     0.124 S 
ATOM     88  O   UNL A   1      44.133  37.864  26.596  1.00  0.00    -0.237 OA
ATOM     89  O   UNL A   1      41.666  37.848  26.736  1.00  0.00    -0.237 OA
ATOM     90  O   UNL A   1      42.985  39.144  28.360  1.00  0.00    -0.744 OA
ENDBRANCH  86  87
ENDBRANCH  60  81
ENDBRANCH  34  35
ENDBRANCH  27  29
ENDBRANCH  26  27
ENDBRANCH  25  26
ENDBRANCH  24  25
ENDBRANCH  23  24
ENDBRANCH   1  23
TORSDOF 22
ENDMDL
MODEL 2
REMARK VINA RESULT:      -9.2      3.391      9.096
REMARK SMILES Cc1cc(C)c2c(O[C@@H](C)C(=O)OCCOCCOCCOC(=O)c3ccc(-c4c5nc(c(-c6ccc(S(=O)(=O)[O-])cc6)c6ccc([nH]6)c(-c6ccc(S(=O)(=O)[O-])cc6)c6nc(c(-c7ccc(S(=O)(=O)[O-])cc7)c7ccc4[nH]7)C=C6)C=C5)cc3)nsc2n1
REMARK SMILES IDX 18 1 17 2 16 3 15 4 14 5 13 6 11 7 12 8 9 9 10 10 8 11 7 12
REMARK SMILES IDX 1 13 2 14 3 15 88 16 4 17 87 18 5 19 6 20 86 21 85 22 19 23
REMARK SMILES IDX 20 24 21 25 22 26 23 27 24 28 25 29 26 30 84 31 27 32 83 33
REMARK SMILES IDX 28 34 29 35 30 36 77 37 31 38 82 39 76 40 78 41 32 42 81 43
REMARK SMILES IDX 75 44 74 45 33 47 63 48 44 49 62 50 45 51 48 52 61 53 79 54
REMARK SMILES IDX 46 55 47 56 60 58 80 59 49 60 34 61 35 62 43 63 36 64 42 65
REMARK SMILES IDX 37 66 38 67 39 68 40 69 41 70 64 71 65 72 73 73 66 74 72 75
REMARK SMILES IDX 67 76 68 77 69 78 70 79 71 80 50 81 51 82 59 83 52 84 58 85
REMARK SMILES IDX 53 86 54 87 55 88 56 89 57 90
REMARK H PARENT 78 46 48 57
REMARK Flexibility Score: inf
ROOT
ATOM      1  C   UNL A   1      36.348  32.278  28.584  1.00  0.00     0.188 C 
ENDROOT
BRANCH   1   2
ATOM      2  C   UNL A   1      36.203  30.740  28.473  1.00  0.00     0.188 C 
BRANCH   2   3
ATOM      3  O   UNL A   1      35.737  30.179  27.251  1.00  0.00    -0.376 OA
BRANCH   3   4
ATOM      4  C   UNL A   1      34.563  29.372  27.286  1.00  0.00     0.202 C 
BRANCH   4   5
ATOM      5  C   UNL A   1      33.204  30.009  26.925  1.00  0.00     0.261 C 
BRANCH   5   6
ATOM      6  O   UNL A   1      32.273  29.118  26.274  1.00  0.00    -0.461 OA
BRANCH   6   7
ATOM      7  C   UNL A   1      31.870  27.995  26.916  1.00  0.00     0.347 C 
ATOM      8  O   UNL A   1      31.348  27.988  28.026  1.00  0.00    -0.248 OA
BRANCH   7   9
ATOM      9  C   UNL A   1      32.098  26.708  26.073  1.00  0.00     0.281 C 
ATOM     10  C   UNL A   1      33.545  26.213  26.088  1.00  0.00     0.066 C 
BRANCH   9  11
ATOM     11  O   UNL A   1      31.599  26.358  24.816  1.00  0.00    -0.462 OA
BRANCH  11  12
ATOM     12  C   UNL A   1      31.897  25.216  24.164  1.00  0.00     0.236 A 
ATOM     13  C   UNL A   1      32.613  19.582  24.069  1.00  0.00     0.067 C 
ATOM     14  C   UNL A   1      32.347  21.048  24.217  1.00  0.00     0.039 A 
ATOM     15  C   UNL A   1      31.696  21.525  25.340  1.00  0.00     0.027 A 
ATOM     16  N   UNL A   1      32.698  21.828  23.190  1.00  0.00    -0.240 NA
ATOM     17  C   UNL A   1      31.377  22.893  25.481  1.00  0.00    -0.034 A 
ATOM     18  C   UNL A   1      32.440  23.138  23.364  1.00  0.00     0.147 A 
ATOM     19  C   UNL A   1      30.588  23.192  26.726  1.00  0.00     0.045 C 
ATOM     20  C   UNL A   1      31.837  23.785  24.458  1.00  0.00     0.078 A 
ATOM     21  S   UNL A   1      32.822  24.242  22.132  1.00  0.00    -0.012 S 
ATOM     22  N   UNL A   1      32.321  25.568  22.949  1.00  0.00    -0.153 NA
ENDBRANCH  11  12
ENDBRANCH   9  11
ENDBRANCH   7   9
ENDBRANCH   6   7
ENDBRANCH   5   6
ENDBRANCH   4   5
ENDBRANCH   3   4
ENDBRANCH   2   3
ENDBRANCH   1   2
BRANCH   1  23
ATOM     23  O   UNL A   1      35.319  33.006  27.936  1.00  0.00    -0.376 OA
BRANCH  23  24
ATOM     24  C   UNL A   1      34.036  33.169  28.521  1.00  0.00     0.202 C 
BRANCH  24  25
ATOM     25  C   UNL A   1      33.757  34.336  29.468  1.00  0.00     0.261 C 
BRANCH  25  26
ATOM     26  O   UNL A   1      34.529  34.301  30.645  1.00  0.00    -0.460 OA
BRANCH  26  27
ATOM     27  C   UNL A   1      33.822  34.367  31.791  1.00  0.00     0.338 C 
ATOM     28  O   UNL A   1      32.743  34.891  31.970  1.00  0.00    -0.246 OA
BRANCH  27  29
ATOM     29  C   UNL A   1      34.571  33.588  32.784  1.00  0.00     0.060 A 
ATOM     30  C   UNL A   1      34.864  34.201  34.004  1.00  0.00     0.016 A 
ATOM     31  C   UNL A   1      35.187  32.406  32.361  1.00  0.00     0.016 A 
ATOM     32  C   UNL A   1      36.047  33.858  34.607  1.00  0.00     0.010 A 
ATOM     33  C   UNL A   1      36.370  32.081  32.943  1.00  0.00     0.010 A 
ATOM     34  C   UNL A   1      36.845  32.929  33.940  1.00  0.00    -0.014 A 
BRANCH  34  35
ATOM     35  C   UNL A   1      38.278  33.030  34.082  1.00  0.00     0.031 A 
ATOM     36  C   UNL A   1      38.960  33.451  32.850  1.00  0.00     0.074 A 
ATOM     37  C   UNL A   1      38.835  32.932  35.306  1.00  0.00     0.049 A 
ATOM     38  N   UNL A   1      39.638  32.710  32.040  1.00  0.00    -0.248 NA
ATOM     39  C   UNL A   1      38.641  34.791  32.329  1.00  0.00     0.031 C 
ATOM     40  C   UNL A   1      38.178  32.869  36.621  1.00  0.00     0.029 A 
ATOM     41  N   UNL A   1      40.143  33.000  35.640  1.00  0.00    -0.354 N 
ATOM     42  C   UNL A   1      39.989  33.563  31.004  1.00  0.00     0.074 A 
ATOM     43  C   UNL A   1      39.097  34.687  31.084  1.00  0.00     0.031 C 
ATOM     44  C   UNL A   1      39.083  33.162  37.585  1.00  0.00     0.029 A 
ATOM     45  C   UNL A   1      40.391  33.312  36.970  1.00  0.00     0.049 A 
ATOM     46  H   UNL A   1      40.865  32.840  34.989  1.00  0.00     0.167 HD
ATOM     47  C   UNL A   1      41.180  33.468  30.355  1.00  0.00     0.031 A 
ATOM     48  C   UNL A   1      41.573  33.769  37.464  1.00  0.00     0.031 A 
ATOM     49  C   UNL A   1      41.865  32.244  30.676  1.00  0.00     0.049 A 
ATOM     50  C   UNL A   1      42.610  33.471  36.434  1.00  0.00     0.074 A 
ATOM     51  C   UNL A   1      41.585  30.907  30.483  1.00  0.00     0.029 A 
ATOM     52  N   UNL A   1      42.802  32.300  31.685  1.00  0.00    -0.354 N 
ATOM     53  N   UNL A   1      42.956  32.261  36.087  1.00  0.00    -0.248 NA
ATOM     54  C   UNL A   1      42.892  34.501  35.441  1.00  0.00     0.031 C 
ATOM     55  C   UNL A   1      42.024  30.259  31.673  1.00  0.00     0.029 A 
ATOM     56  C   UNL A   1      42.612  31.214  32.507  1.00  0.00     0.049 A 
ATOM     57  H   UNL A   1      43.489  32.997  31.799  1.00  0.00     0.167 HD
ATOM     58  C   UNL A   1      43.106  32.305  34.705  1.00  0.00     0.074 A 
ATOM     59  C   UNL A   1      43.135  33.729  34.375  1.00  0.00     0.031 C 
ATOM     60  C   UNL A   1      42.892  31.198  33.932  1.00  0.00     0.031 A 
BRANCH  47  61
ATOM     61  C   UNL A   1      41.864  34.656  29.735  1.00  0.00    -0.014 A 
ATOM     62  C   UNL A   1      42.884  35.305  30.448  1.00  0.00     0.010 A 
ATOM     63  C   UNL A   1      41.402  35.288  28.558  1.00  0.00     0.010 A 
ATOM     64  C   UNL A   1      43.394  36.537  30.016  1.00  0.00     0.020 A 
ATOM     65  C   UNL A   1      41.939  36.482  28.088  1.00  0.00     0.020 A 
ATOM     66  C   UNL A   1      42.913  37.117  28.839  1.00  0.00     0.054 A 
BRANCH  66  67
ATOM     67  S   UNL A   1      43.507  38.749  28.342  1.00  0.00     0.124 S 
ATOM     68  O   UNL A   1      44.155  38.457  27.066  1.00  0.00    -0.237 OA
ATOM     69  O   UNL A   1      42.269  39.518  28.265  1.00  0.00    -0.237 OA
ATOM     70  O   UNL A   1      44.408  39.133  29.427  1.00  0.00    -0.744 OA
ENDBRANCH  66  67
ENDBRANCH  47  61
BRANCH  48  71
ATOM     71  C   UNL A   1      41.769  34.808  38.514  1.00  0.00    -0.014 A 
ATOM     72  C   UNL A   1      41.584  36.175  38.227  1.00  0.00     0.010 A 
ATOM     73  C   UNL A   1      41.849  34.438  39.873  1.00  0.00     0.010 A 
ATOM     74  C   UNL A   1      41.411  37.119  39.258  1.00  0.00     0.020 A 
ATOM     75  C   UNL A   1      41.685  35.371  40.905  1.00  0.00     0.020 A 
ATOM     76  C   UNL A   1      41.436  36.705  40.593  1.00  0.00     0.054 A 
BRANCH  76  77
ATOM     77  S   UNL A   1      41.012  37.885  41.909  1.00  0.00     0.124 S 
ATOM     78  O   UNL A   1      39.602  38.155  41.645  1.00  0.00    -0.237 OA
ATOM     79  O   UNL A   1      41.293  37.121  43.122  1.00  0.00    -0.237 OA
ATOM     80  O   UNL A   1      41.914  39.010  41.669  1.00  0.00    -0.744 OA
ENDBRANCH  76  77
ENDBRANCH  48  71
BRANCH  60  81
ATOM     81  C   UNL A   1      42.711  29.865  34.635  1.00  0.00    -0.014 A 
ATOM     82  C   UNL A   1      43.744  28.918  34.803  1.00  0.00     0.010 A 
ATOM     83  C   UNL A   1      41.488  29.633  35.286  1.00  0.00     0.010 A 
ATOM     84  C   UNL A   1      43.545  27.761  35.574  1.00  0.00     0.020 A 
ATOM     85  C   UNL A   1      41.288  28.492  36.069  1.00  0.00     0.020 A 
ATOM     86  C   UNL A   1      42.313  27.556  36.201  1.00  0.00     0.054 A 
BRANCH  86  87
ATOM     87  S   UNL A   1      42.062  26.072  37.218  1.00  0.00     0.124 S 
ATOM     88  O   UNL A   1      40.647  26.160  37.566  1.00  0.00    -0.237 OA
ATOM     89  O   UNL A   1      42.421  24.988  36.307  1.00  0.00    -0.237 OA
ATOM     90  O   UNL A   1      42.984  26.258  38.339  1.00  0.00    -0.744 OA
ENDBRANCH  86  87
ENDBRANCH  60  81
ENDBRANCH  34  35
ENDBRANCH  27  29
ENDBRANCH  26  27
ENDBRANCH  25  26
ENDBRANCH  24  25
ENDBRANCH  23  24
ENDBRANCH   1  23
TORSDOF 22
ENDMDL
MODEL 3
REMARK VINA RESULT:      -9.2      4.244      7.916
REMARK SMILES Cc1cc(C)c2c(O[C@@H](C)C(=O)OCCOCCOCCOC(=O)c3ccc(-c4c5nc(c(-c6ccc(S(=O)(=O)[O-])cc6)c6ccc([nH]6)c(-c6ccc(S(=O)(=O)[O-])cc6)c6nc(c(-c7ccc(S(=O)(=O)[O-])cc7)c7ccc4[nH]7)C=C6)C=C5)cc3)nsc2n1
REMARK SMILES IDX 18 1 17 2 16 3 15 4 14 5 13 6 11 7 12 8 9 9 10 10 8 11 7 12
REMARK SMILES IDX 1 13 2 14 3 15 88 16 4 17 87 18 5 19 6 20 86 21 85 22 19 23
REMARK SMILES IDX 20 24 21 25 22 26 23 27 24 28 25 29 26 30 84 31 27 32 83 33
REMARK SMILES IDX 28 34 29 35 30 36 77 37 31 38 82 39 76 40 78 41 32 42 81 43
REMARK SMILES IDX 75 44 74 45 33 47 63 48 44 49 62 50 45 51 48 52 61 53 79 54
REMARK SMILES IDX 46 55 47 56 60 58 80 59 49 60 34 61 35 62 43 63 36 64 42 65
REMARK SMILES IDX 37 66 38 67 39 68 40 69 41 70 64 71 65 72 73 73 66 74 72 75
REMARK SMILES IDX 67 76 68 77 69 78 70 79 71 80 50 81 51 82 59 83 52 84 58 85
REMARK SMILES IDX 53 86 54 87 55 88 56 89 57 90
REMARK H PARENT 78 46 48 57
REMARK Flexibility Score: inf
ROOT
ATOM      1  C   UNL A   1      33.746  35.203  29.593  1.00  0.00     0.188 C 
ENDROOT
BRANCH   1   2
ATOM      2  C   UNL A   1      33.258  35.566  31.016  1.00  0.00     0.188 C 
BRANCH   2   3
ATOM      3  O   UNL A   1      33.486  34.646  32.078  1.00  0.00    -0.376 OA
BRANCH   3   4
ATOM      4  C   UNL A   1      34.500  33.659  31.907  1.00  0.00     0.202 C 
BRANCH   4   5
ATOM      5  C   UNL A   1      35.476  33.378  33.068  1.00  0.00     0.261 C 
BRANCH   5   6
ATOM      6  O   UNL A   1      36.870  33.352  32.693  1.00  0.00    -0.461 OA
BRANCH   6   7
ATOM      7  C   UNL A   1      37.779  33.989  33.470  1.00  0.00     0.347 C 
ATOM      8  O   UNL A   1      37.590  35.083  33.992  1.00  0.00    -0.248 OA
BRANCH   7   9
ATOM      9  C   UNL A   1      39.080  33.161  33.671  1.00  0.00     0.281 C 
ATOM     10  C   UNL A   1      38.825  31.687  33.989  1.00  0.00     0.066 C 
BRANCH   9  11
ATOM     11  O   UNL A   1      40.257  33.489  34.347  1.00  0.00    -0.462 OA
BRANCH  11  12
ATOM     12  C   UNL A   1      41.121  34.450  33.961  1.00  0.00     0.236 A 
ATOM     13  C   UNL A   1      44.727  36.673  30.176  1.00  0.00     0.067 C 
ATOM     14  C   UNL A   1      43.720  36.008  31.063  1.00  0.00     0.039 A 
ATOM     15  C   UNL A   1      42.910  35.006  30.564  1.00  0.00     0.027 A 
ATOM     16  N   UNL A   1      43.608  36.486  32.306  1.00  0.00    -0.240 NA
ATOM     17  C   UNL A   1      41.911  34.402  31.358  1.00  0.00    -0.034 A 
ATOM     18  C   UNL A   1      42.691  35.862  33.070  1.00  0.00     0.147 A 
ATOM     19  C   UNL A   1      41.077  33.403  30.603  1.00  0.00     0.045 C 
ATOM     20  C   UNL A   1      41.831  34.802  32.732  1.00  0.00     0.078 A 
ATOM     21  S   UNL A   1      42.434  36.377  34.666  1.00  0.00    -0.012 S 
ATOM     22  N   UNL A   1      41.299  35.251  35.013  1.00  0.00    -0.153 NA
ENDBRANCH  11  12
ENDBRANCH   9  11
ENDBRANCH   7   9
ENDBRANCH   6   7
ENDBRANCH   5   6
ENDBRANCH   4   5
ENDBRANCH   3   4
ENDBRANCH   2   3
ENDBRANCH   1   2
BRANCH   1  23
ATOM     23  O   UNL A   1      32.831  34.415  28.849  1.00  0.00    -0.376 OA
BRANCH  23  24
ATOM     24  C   UNL A   1      33.257  33.581  27.783  1.00  0.00     0.202 C 
BRANCH  24  25
ATOM     25  C   UNL A   1      33.755  32.162  28.059  1.00  0.00     0.261 C 
BRANCH  25  26
ATOM     26  O   UNL A   1      35.142  32.089  28.291  1.00  0.00    -0.460 OA
BRANCH  26  27
ATOM     27  C   UNL A   1      35.678  30.860  28.149  1.00  0.00     0.338 C 
ATOM     28  O   UNL A   1      35.574  30.109  27.202  1.00  0.00    -0.246 OA
BRANCH  27  29
ATOM     29  C   UNL A   1      36.507  30.630  29.337  1.00  0.00     0.060 A 
ATOM     30  C   UNL A   1      37.302  31.686  29.788  1.00  0.00     0.016 A 
ATOM     31  C   UNL A   1      36.675  29.313  29.774  1.00  0.00     0.016 A 
ATOM     32  C   UNL A   1      38.507  31.361  30.358  1.00  0.00     0.010 A 
ATOM     33  C   UNL A   1      37.876  28.988  30.318  1.00  0.00     0.010 A 
ATOM     34  C   UNL A   1      38.822  30.005  30.431  1.00  0.00    -0.014 A 
BRANCH  34  35
ATOM     35  C   UNL A   1      40.209  29.618  30.342  1.00  0.00     0.031 A 
ATOM     36  C   UNL A   1      40.826  29.344  31.647  1.00  0.00     0.074 A 
ATOM     37  C   UNL A   1      40.752  29.358  29.135  1.00  0.00     0.049 A 
ATOM     38  N   UNL A   1      41.642  30.100  32.301  1.00  0.00    -0.248 NA
ATOM     39  C   UNL A   1      40.278  28.221  32.428  1.00  0.00     0.031 C 
ATOM     40  C   UNL A   1      40.094  29.266  27.823  1.00  0.00     0.029 A 
ATOM     41  N   UNL A   1      42.020  28.986  28.849  1.00  0.00    -0.354 N 
ATOM     42  C   UNL A   1      41.851  29.430  33.497  1.00  0.00     0.074 A 
ATOM     43  C   UNL A   1      40.768  28.496  33.633  1.00  0.00     0.031 C 
ATOM     44  C   UNL A   1      40.913  28.621  26.959  1.00  0.00     0.029 A 
ATOM     45  C   UNL A   1      42.184  28.367  27.617  1.00  0.00     0.049 A 
ATOM     46  H   UNL A   1      42.771  29.143  29.467  1.00  0.00     0.167 HD
ATOM     47  C   UNL A   1      43.051  29.440  34.137  1.00  0.00     0.031 A 
ATOM     48  C   UNL A   1      43.253  27.611  27.252  1.00  0.00     0.031 A 
ATOM     49  C   UNL A   1      43.941  30.425  33.583  1.00  0.00     0.049 A 
ATOM     50  C   UNL A   1      44.345  27.921  28.219  1.00  0.00     0.074 A 
ATOM     51  C   UNL A   1      43.912  31.802  33.491  1.00  0.00     0.029 A 
ATOM     52  N   UNL A   1      44.834  29.992  32.627  1.00  0.00    -0.354 N 
ATOM     53  N   UNL A   1      44.912  29.093  28.316  1.00  0.00    -0.248 NA
ATOM     54  C   UNL A   1      44.454  27.085  29.408  1.00  0.00     0.031 C 
ATOM     55  C   UNL A   1      44.440  32.099  32.202  1.00  0.00     0.029 A 
ATOM     56  C   UNL A   1      44.829  30.902  31.596  1.00  0.00     0.049 A 
ATOM     57  H   UNL A   1      45.380  29.174  32.674  1.00  0.00     0.167 HD
ATOM     58  C   UNL A   1      45.076  29.309  29.680  1.00  0.00     0.074 A 
ATOM     59  C   UNL A   1      44.852  28.003  30.297  1.00  0.00     0.031 C 
ATOM     60  C   UNL A   1      45.081  30.573  30.203  1.00  0.00     0.031 A 
BRANCH  47  61
ATOM     61  C   UNL A   1      43.519  28.301  35.002  1.00  0.00    -0.014 A 
ATOM     62  C   UNL A   1      44.894  28.047  35.109  1.00  0.00     0.010 A 
ATOM     63  C   UNL A   1      42.643  27.339  35.554  1.00  0.00     0.010 A 
ATOM     64  C   UNL A   1      45.365  26.874  35.717  1.00  0.00     0.020 A 
ATOM     65  C   UNL A   1      43.099  26.199  36.210  1.00  0.00     0.020 A 
ATOM     66  C   UNL A   1      44.461  25.957  36.259  1.00  0.00     0.054 A 
BRANCH  66  67
ATOM     67  S   UNL A   1      45.071  24.406  36.954  1.00  0.00     0.124 S 
ATOM     68  O   UNL A   1      46.513  24.538  36.763  1.00  0.00    -0.237 OA
ATOM     69  O   UNL A   1      44.602  24.480  38.335  1.00  0.00    -0.237 OA
ATOM     70  O   UNL A   1      44.423  23.383  36.135  1.00  0.00    -0.744 OA
ENDBRANCH  66  67
ENDBRANCH  47  61
BRANCH  48  71
ATOM     71  C   UNL A   1      43.238  26.359  26.443  1.00  0.00    -0.014 A 
ATOM     72  C   UNL A   1      44.246  26.092  25.496  1.00  0.00     0.010 A 
ATOM     73  C   UNL A   1      42.395  25.288  26.809  1.00  0.00     0.010 A 
ATOM     74  C   UNL A   1      44.450  24.792  24.995  1.00  0.00     0.020 A 
ATOM     75  C   UNL A   1      42.586  23.992  26.311  1.00  0.00     0.020 A 
ATOM     76  C   UNL A   1      43.633  23.744  25.428  1.00  0.00     0.054 A 
BRANCH  76  77
ATOM     77  S   UNL A   1      44.026  22.037  24.939  1.00  0.00     0.124 S 
ATOM     78  O   UNL A   1      45.258  21.775  25.676  1.00  0.00    -0.237 OA
ATOM     79  O   UNL A   1      42.849  21.300  25.390  1.00  0.00    -0.237 OA
ATOM     80  O   UNL A   1      44.178  22.120  23.487  1.00  0.00    -0.744 OA
ENDBRANCH  76  77
ENDBRANCH  48  71
BRANCH  60  81
ATOM     81  C   UNL A   1      45.133  31.741  29.237  1.00  0.00    -0.014 A 
ATOM     82  C   UNL A   1      46.325  32.393  28.854  1.00  0.00     0.010 A 
ATOM     83  C   UNL A   1      43.945  32.090  28.573  1.00  0.00     0.010 A 
ATOM     84  C   UNL A   1      46.319  33.384  27.858  1.00  0.00     0.020 A 
ATOM     85  C   UNL A   1      43.934  33.064  27.569  1.00  0.00     0.020 A 
ATOM     86  C   UNL A   1      45.119  33.714  27.224  1.00  0.00     0.054 A 
BRANCH  86  87
ATOM     87  S   UNL A   1      45.114  34.978  25.920  1.00  0.00     0.124 S 
ATOM     88  O   UNL A   1      45.425  36.199  26.658  1.00  0.00    -0.237 OA
ATOM     89  O   UNL A   1      46.155  34.510  25.009  1.00  0.00    -0.237 OA
ATOM     90  O   UNL A   1      43.756  34.915  25.379  1.00  0.00    -0.744 OA
ENDBRANCH  86  87
ENDBRANCH  60  81
ENDBRANCH  34  35
ENDBRANCH  27  29
ENDBRANCH  26  27
ENDBRANCH  25  26
ENDBRANCH  24  25
ENDBRANCH  23  24
ENDBRANCH   1  23
TORSDOF 22
ENDMDL
