MODEL 1
REMARK VINA RESULT:      -7.7      0.000      0.000
REMARK SMILES C[C@@H](C(=O)OCCOCCOCCOC(=O)c1ccc(-c2c3nc(c(-c4ccc(S(=O)(=O)[O-])cc4)c4ccc([nH]4)c(-c4ccc(S(=O)(=O)[O-])cc4)c4nc(c(-c5ccc(S(=O)(=O)[O-])cc5)c5ccc2[nH]5)C=C4)C=C3)cc1)c1ccc(-c2cccc(OC(=O)Nc3ccccc3)c2)c(F)c1
REMARK SMILES IDX 9 1 8 2 7 3 6 4 5 5 3 6 4 7 2 8 1 9 77 10 78 11 99 12 79 13
REMARK SMILES IDX 97 14 80 15 98 16 81 17 82 18 96 19 83 20 85 21 84 22 86 23
REMARK SMILES IDX 87 24 88 25 89 26 90 28 91 29 95 30 92 31 94 32 93 33 10 34
REMARK SMILES IDX 11 35 12 36 13 37 14 38 15 39 16 40 17 41 18 42 76 43 19 44
REMARK SMILES IDX 75 45 20 46 21 47 22 48 69 49 23 50 74 51 68 52 70 53 24 54
REMARK SMILES IDX 73 55 67 56 66 57 25 59 55 60 36 61 54 62 37 63 40 64 53 65
REMARK SMILES IDX 71 66 38 67 39 68 52 70 72 71 41 72 26 73 27 74 35 75 28 76
REMARK SMILES IDX 34 77 29 78 30 79 31 80 32 81 33 82 56 83 57 84 65 85 58 86
REMARK SMILES IDX 64 87 59 88 60 89 61 90 62 91 63 92 42 93 43 94 51 95 44 96
REMARK SMILES IDX 50 97 45 98 46 99 47 100 48 101 49 102
REMARK H PARENT 89 27 70 58 40 69
REMARK Flexibility Score: inf
ROOT
ATOM      1  C   UNL A   1      33.992  33.488  33.230  1.00  0.00     0.188 C 
ENDROOT
BRANCH   1   2
ATOM      2  O   UNL A   1      34.263  32.935  31.948  1.00  0.00    -0.376 OA
BRANCH   2   3
ATOM      3  C   UNL A   1      34.448  33.826  30.852  1.00  0.00     0.202 C 
BRANCH   3   4
ATOM      4  C   UNL A   1      34.387  33.273  29.417  1.00  0.00     0.261 C 
BRANCH   4   5
ATOM      5  O   UNL A   1      35.638  32.774  28.889  1.00  0.00    -0.463 OA
BRANCH   5   6
ATOM      6  C   UNL A   1      35.902  31.456  29.110  1.00  0.00     0.313 C 
ATOM      7  O   UNL A   1      35.309  30.544  28.543  1.00  0.00    -0.252 OA
BRANCH   6   8
ATOM      8  C   UNL A   1      37.000  31.184  30.156  1.00  0.00     0.126 C 
ATOM      9  C   UNL A   1      37.833  32.358  30.677  1.00  0.00     0.025 C 
BRANCH   8  10
ATOM     10  C   UNL A   1      37.884  30.008  29.749  1.00  0.00    -0.031 A 
ATOM     11  C   UNL A   1      38.634  30.007  28.564  1.00  0.00     0.005 A 
ATOM     12  C   UNL A   1      37.925  28.860  30.545  1.00  0.00     0.044 A 
ATOM     13  C   UNL A   1      39.344  28.871  28.156  1.00  0.00     0.012 A 
ATOM     14  C   UNL A   1      38.655  27.739  30.144  1.00  0.00     0.131 A 
ATOM     15  C   UNL A   1      39.359  27.705  28.932  1.00  0.00     0.018 A 
ATOM     16  F   UNL A   1      38.654  26.671  30.956  1.00  0.00    -0.206 F 
BRANCH  15  17
ATOM     17  C   UNL A   1      40.020  26.483  28.444  1.00  0.00    -0.012 A 
ATOM     18  C   UNL A   1      39.332  25.502  27.709  1.00  0.00     0.009 A 
ATOM     19  C   UNL A   1      41.369  26.248  28.760  1.00  0.00     0.056 A 
ATOM     20  C   UNL A   1      39.976  24.329  27.300  1.00  0.00     0.004 A 
ATOM     21  C   UNL A   1      42.001  25.070  28.374  1.00  0.00     0.133 A 
ATOM     22  C   UNL A   1      41.313  24.114  27.628  1.00  0.00     0.047 A 
BRANCH  21  23
ATOM     23  O   UNL A   1      43.354  24.774  28.671  1.00  0.00    -0.410 OA
BRANCH  23  24
ATOM     24  C   UNL A   1      43.805  23.569  29.222  1.00  0.00     0.417 C 
ATOM     25  O   UNL A   1      43.235  22.964  30.127  1.00  0.00    -0.224 OA
ATOM     26  N   UNL A   1      44.941  23.053  28.647  1.00  0.00    -0.291 N 
ATOM     27  H   UNL A   1      45.229  22.191  29.027  1.00  0.00     0.173 HD
BRANCH  26  28
ATOM     28  C   UNL A   1      45.766  23.532  27.612  1.00  0.00     0.044 A 
ATOM     29  C   UNL A   1      45.661  22.867  26.381  1.00  0.00     0.026 A 
ATOM     30  C   UNL A   1      46.563  24.676  27.686  1.00  0.00     0.026 A 
ATOM     31  C   UNL A   1      46.219  23.412  25.224  1.00  0.00     0.002 A 
ATOM     32  C   UNL A   1      47.136  25.214  26.528  1.00  0.00     0.002 A 
ATOM     33  C   UNL A   1      46.940  24.599  25.293  1.00  0.00     0.000 A 
ENDBRANCH  26  28
ENDBRANCH  23  24
ENDBRANCH  21  23
ENDBRANCH  15  17
ENDBRANCH   8  10
ENDBRANCH   6   8
ENDBRANCH   5   6
ENDBRANCH   4   5
ENDBRANCH   3   4
ENDBRANCH   2   3
ENDBRANCH   1   2
BRANCH   1  34
ATOM     34  C   UNL A   1      35.117  34.270  33.931  1.00  0.00     0.188 C 
BRANCH  34  35
ATOM     35  O   UNL A   1      35.934  33.477  34.760  1.00  0.00    -0.376 OA
BRANCH  35  36
ATOM     36  C   UNL A   1      36.925  34.112  35.542  1.00  0.00     0.202 C 
BRANCH  36  37
ATOM     37  C   UNL A   1      38.089  33.298  36.131  1.00  0.00     0.261 C 
BRANCH  37  38
ATOM     38  O   UNL A   1      39.166  34.028  36.738  1.00  0.00    -0.460 OA
BRANCH  38  39
ATOM     39  C   UNL A   1      39.655  35.096  36.066  1.00  0.00     0.338 C 
ATOM     40  O   UNL A   1      39.405  36.270  36.283  1.00  0.00    -0.246 OA
BRANCH  39  41
ATOM     41  C   UNL A   1      40.726  34.607  35.163  1.00  0.00     0.060 A 
ATOM     42  C   UNL A   1      40.378  34.109  33.900  1.00  0.00     0.016 A 
ATOM     43  C   UNL A   1      42.070  34.656  35.550  1.00  0.00     0.016 A 
ATOM     44  C   UNL A   1      41.371  33.640  33.033  1.00  0.00     0.010 A 
ATOM     45  C   UNL A   1      43.059  34.172  34.685  1.00  0.00     0.010 A 
ATOM     46  C   UNL A   1      42.715  33.644  33.429  1.00  0.00    -0.014 A 
BRANCH  46  47
ATOM     47  C   UNL A   1      43.741  32.948  32.609  1.00  0.00     0.031 A 
ATOM     48  C   UNL A   1      44.373  33.689  31.466  1.00  0.00     0.074 A 
ATOM     49  C   UNL A   1      44.088  31.669  32.844  1.00  0.00     0.049 A 
ATOM     50  N   UNL A   1      45.267  33.278  30.605  1.00  0.00    -0.248 NA
ATOM     51  C   UNL A   1      43.932  35.078  31.267  1.00  0.00     0.031 C 
ATOM     52  C   UNL A   1      43.560  30.841  33.924  1.00  0.00     0.029 A 
ATOM     53  N   UNL A   1      44.955  30.839  32.172  1.00  0.00    -0.354 N 
ATOM     54  C   UNL A   1      45.490  34.353  29.755  1.00  0.00     0.074 A 
ATOM     55  C   UNL A   1      44.627  35.428  30.196  1.00  0.00     0.031 C 
ATOM     56  C   UNL A   1      44.099  29.614  33.830  1.00  0.00     0.029 A 
ATOM     57  C   UNL A   1      44.964  29.548  32.650  1.00  0.00     0.049 A 
ATOM     58  H   UNL A   1      45.517  31.140  31.422  1.00  0.00     0.167 HD
ATOM     59  C   UNL A   1      46.330  34.440  28.697  1.00  0.00     0.031 A 
ATOM     60  C   UNL A   1      45.572  28.436  32.176  1.00  0.00     0.031 A 
ATOM     61  C   UNL A   1      47.157  33.364  28.223  1.00  0.00     0.049 A 
ATOM     62  C   UNL A   1      46.516  28.560  30.994  1.00  0.00     0.074 A 
ATOM     63  C   UNL A   1      48.031  33.362  27.149  1.00  0.00     0.029 A 
ATOM     64  N   UNL A   1      47.201  32.095  28.777  1.00  0.00    -0.354 N 
ATOM     65  N   UNL A   1      46.826  29.628  30.293  1.00  0.00    -0.248 NA
ATOM     66  C   UNL A   1      47.231  27.349  30.558  1.00  0.00     0.031 C 
ATOM     67  C   UNL A   1      48.559  32.073  27.019  1.00  0.00     0.029 A 
ATOM     68  C   UNL A   1      48.066  31.294  28.052  1.00  0.00     0.049 A 
ATOM     69  H   UNL A   1      46.692  31.805  29.568  1.00  0.00     0.167 HD
ATOM     70  C   UNL A   1      47.776  29.216  29.360  1.00  0.00     0.074 A 
ATOM     71  C   UNL A   1      48.043  27.821  29.624  1.00  0.00     0.031 C 
ATOM     72  C   UNL A   1      48.355  29.914  28.350  1.00  0.00     0.031 A 
BRANCH  59  73
ATOM     73  C   UNL A   1      46.351  35.741  27.945  1.00  0.00    -0.014 A 
ATOM     74  C   UNL A   1      47.388  36.672  28.131  1.00  0.00     0.010 A 
ATOM     75  C   UNL A   1      45.328  36.026  27.022  1.00  0.00     0.010 A 
ATOM     76  C   UNL A   1      47.379  37.885  27.440  1.00  0.00     0.020 A 
ATOM     77  C   UNL A   1      45.332  37.224  26.306  1.00  0.00     0.020 A 
ATOM     78  C   UNL A   1      46.349  38.154  26.533  1.00  0.00     0.054 A 
BRANCH  78  79
ATOM     79  S   UNL A   1      46.371  39.731  25.638  1.00  0.00     0.124 S 
ATOM     80  O   UNL A   1      47.201  40.558  26.512  1.00  0.00    -0.237 OA
ATOM     81  O   UNL A   1      46.976  39.364  24.361  1.00  0.00    -0.237 OA
ATOM     82  O   UNL A   1      44.963  40.114  25.573  1.00  0.00    -0.744 OA
ENDBRANCH  78  79
ENDBRANCH  59  73
BRANCH  60  83
ATOM     83  C   UNL A   1      45.299  27.111  32.820  1.00  0.00    -0.014 A 
ATOM     84  C   UNL A   1      44.219  26.317  32.420  1.00  0.00     0.010 A 
ATOM     85  C   UNL A   1      46.119  26.624  33.862  1.00  0.00     0.010 A 
ATOM     86  C   UNL A   1      43.947  25.112  33.064  1.00  0.00     0.020 A 
ATOM     87  C   UNL A   1      45.927  25.348  34.410  1.00  0.00     0.020 A 
ATOM     88  C   UNL A   1      44.842  24.589  33.992  1.00  0.00     0.054 A 
BRANCH  88  89
ATOM     89  S   UNL A   1      44.587  22.891  34.570  1.00  0.00     0.124 S 
ATOM     90  O   UNL A   1      44.695  23.023  36.020  1.00  0.00    -0.237 OA
ATOM     91  O   UNL A   1      43.241  22.594  34.075  1.00  0.00    -0.237 OA
ATOM     92  O   UNL A   1      45.666  22.143  33.932  1.00  0.00    -0.744 OA
ENDBRANCH  88  89
ENDBRANCH  60  83
BRANCH  72  93
ATOM     93  C   UNL A   1      49.357  29.199  27.473  1.00  0.00    -0.014 A 
ATOM     94  C   UNL A   1      48.948  28.463  26.346  1.00  0.00     0.010 A 
ATOM     95  C   UNL A   1      50.734  29.326  27.737  1.00  0.00     0.010 A 
ATOM     96  C   UNL A   1      49.891  27.836  25.525  1.00  0.00     0.020 A 
ATOM     97  C   UNL A   1      51.682  28.729  26.899  1.00  0.00     0.020 A 
ATOM     98  C   UNL A   1      51.253  27.974  25.806  1.00  0.00     0.054 A 
BRANCH  98  99
ATOM     99  S   UNL A   1      52.457  27.190  24.699  1.00  0.00     0.124 S 
ATOM    100  O   UNL A   1      53.376  28.289  24.419  1.00  0.00    -0.237 OA
ATOM    101  O   UNL A   1      52.998  26.113  25.525  1.00  0.00    -0.237 OA
ATOM    102  O   UNL A   1      51.649  26.749  23.562  1.00  0.00    -0.744 OA
ENDBRANCH  98  99
ENDBRANCH  72  93
ENDBRANCH  46  47
ENDBRANCH  39  41
ENDBRANCH  38  39
ENDBRANCH  37  38
ENDBRANCH  36  37
ENDBRANCH  35  36
ENDBRANCH  34  35
ENDBRANCH   1  34
TORSDOF 25
ENDMDL
MODEL 2
REMARK VINA RESULT:      -7.2      4.938      8.790
REMARK SMILES C[C@@H](C(=O)OCCOCCOCCOC(=O)c1ccc(-c2c3nc(c(-c4ccc(S(=O)(=O)[O-])cc4)c4ccc([nH]4)c(-c4ccc(S(=O)(=O)[O-])cc4)c4nc(c(-c5ccc(S(=O)(=O)[O-])cc5)c5ccc2[nH]5)C=C4)C=C3)cc1)c1ccc(-c2cccc(OC(=O)Nc3ccccc3)c2)c(F)c1
REMARK SMILES IDX 9 1 8 2 7 3 6 4 5 5 3 6 4 7 2 8 1 9 77 10 78 11 99 12 79 13
REMARK SMILES IDX 97 14 80 15 98 16 81 17 82 18 96 19 83 20 85 21 84 22 86 23
REMARK SMILES IDX 87 24 88 25 89 26 90 28 91 29 95 30 92 31 94 32 93 33 10 34
REMARK SMILES IDX 11 35 12 36 13 37 14 38 15 39 16 40 17 41 18 42 76 43 19 44
REMARK SMILES IDX 75 45 20 46 21 47 22 48 69 49 23 50 74 51 68 52 70 53 24 54
REMARK SMILES IDX 73 55 67 56 66 57 25 59 55 60 36 61 54 62 37 63 40 64 53 65
REMARK SMILES IDX 71 66 38 67 39 68 52 70 72 71 41 72 26 73 27 74 35 75 28 76
REMARK SMILES IDX 34 77 29 78 30 79 31 80 32 81 33 82 56 83 57 84 65 85 58 86
REMARK SMILES IDX 64 87 59 88 60 89 61 90 62 91 63 92 42 93 43 94 51 95 44 96
REMARK SMILES IDX 50 97 45 98 46 99 47 100 48 101 49 102
REMARK H PARENT 89 27 70 58 40 69
REMARK Flexibility Score: inf
ROOT
ATOM      1  C   UNL A   1      34.814  33.825  33.085  1.00  0.00     0.188 C 
ENDROOT
BRANCH   1   2
ATOM      2  O   UNL A   1      34.964  33.074  31.886  1.00  0.00    -0.376 OA
BRANCH   2   3
ATOM      3  C   UNL A   1      35.242  33.776  30.679  1.00  0.00     0.202 C 
BRANCH   3   4
ATOM      4  C   UNL A   1      36.683  33.796  30.137  1.00  0.00     0.261 C 
BRANCH   4   5
ATOM      5  O   UNL A   1      36.918  32.981  28.965  1.00  0.00    -0.463 OA
BRANCH   5   6
ATOM      6  C   UNL A   1      35.813  32.460  28.362  1.00  0.00     0.313 C 
ATOM      7  O   UNL A   1      35.173  33.051  27.499  1.00  0.00    -0.252 OA
BRANCH   6   8
ATOM      8  C   UNL A   1      35.402  31.062  28.864  1.00  0.00     0.126 C 
ATOM      9  C   UNL A   1      36.472  30.146  29.463  1.00  0.00     0.025 C 
BRANCH   8  10
ATOM     10  C   UNL A   1      34.547  30.326  27.837  1.00  0.00    -0.031 A 
ATOM     11  C   UNL A   1      34.964  29.133  27.228  1.00  0.00     0.005 A 
ATOM     12  C   UNL A   1      33.322  30.867  27.434  1.00  0.00     0.044 A 
ATOM     13  C   UNL A   1      34.215  28.540  26.205  1.00  0.00     0.012 A 
ATOM     14  C   UNL A   1      32.568  30.256  26.430  1.00  0.00     0.131 A 
ATOM     15  C   UNL A   1      33.005  29.097  25.773  1.00  0.00     0.018 A 
ATOM     16  F   UNL A   1      31.401  30.826  26.094  1.00  0.00    -0.206 F 
BRANCH  15  17
ATOM     17  C   UNL A   1      32.279  28.527  24.625  1.00  0.00    -0.012 A 
ATOM     18  C   UNL A   1      31.295  29.249  23.928  1.00  0.00     0.009 A 
ATOM     19  C   UNL A   1      32.529  27.201  24.234  1.00  0.00     0.056 A 
ATOM     20  C   UNL A   1      30.590  28.663  22.871  1.00  0.00     0.004 A 
ATOM     21  C   UNL A   1      31.808  26.611  23.199  1.00  0.00     0.133 A 
ATOM     22  C   UNL A   1      30.849  27.344  22.502  1.00  0.00     0.047 A 
BRANCH  21  23
ATOM     23  O   UNL A   1      32.009  25.277  22.767  1.00  0.00    -0.410 OA
BRANCH  23  24
ATOM     24  C   UNL A   1      31.360  24.159  23.303  1.00  0.00     0.417 C 
ATOM     25  O   UNL A   1      30.172  23.897  23.128  1.00  0.00    -0.224 OA
ATOM     26  N   UNL A   1      32.160  23.311  24.028  1.00  0.00    -0.291 N 
ATOM     27  H   UNL A   1      31.695  22.515  24.375  1.00  0.00     0.173 HD
BRANCH  26  28
ATOM     28  C   UNL A   1      33.526  23.373  24.366  1.00  0.00     0.044 A 
ATOM     29  C   UNL A   1      34.406  22.710  23.498  1.00  0.00     0.026 A 
ATOM     30  C   UNL A   1      34.062  24.139  25.403  1.00  0.00     0.026 A 
ATOM     31  C   UNL A   1      35.783  22.924  23.575  1.00  0.00     0.002 A 
ATOM     32  C   UNL A   1      35.444  24.342  25.489  1.00  0.00     0.002 A 
ATOM     33  C   UNL A   1      36.302  23.758  24.560  1.00  0.00     0.000 A 
ENDBRANCH  26  28
ENDBRANCH  23  24
ENDBRANCH  21  23
ENDBRANCH  15  17
ENDBRANCH   8  10
ENDBRANCH   6   8
ENDBRANCH   5   6
ENDBRANCH   4   5
ENDBRANCH   3   4
ENDBRANCH   2   3
ENDBRANCH   1   2
BRANCH   1  34
ATOM     34  C   UNL A   1      36.030  34.615  33.599  1.00  0.00     0.188 C 
BRANCH  34  35
ATOM     35  O   UNL A   1      37.227  33.872  33.623  1.00  0.00    -0.376 OA
BRANCH  35  36
ATOM     36  C   UNL A   1      38.148  34.104  34.668  1.00  0.00     0.202 C 
BRANCH  36  37
ATOM     37  C   UNL A   1      38.945  32.937  35.274  1.00  0.00     0.261 C 
BRANCH  37  38
ATOM     38  O   UNL A   1      38.966  31.701  34.542  1.00  0.00    -0.460 OA
BRANCH  38  39
ATOM     39  C   UNL A   1      39.553  30.635  35.131  1.00  0.00     0.338 C 
ATOM     40  O   UNL A   1      39.047  29.884  35.948  1.00  0.00    -0.246 OA
BRANCH  39  41
ATOM     41  C   UNL A   1      40.847  30.396  34.445  1.00  0.00     0.060 A 
ATOM     42  C   UNL A   1      41.096  31.031  33.222  1.00  0.00     0.016 A 
ATOM     43  C   UNL A   1      41.819  29.566  35.014  1.00  0.00     0.016 A 
ATOM     44  C   UNL A   1      42.308  30.819  32.555  1.00  0.00     0.010 A 
ATOM     45  C   UNL A   1      43.024  29.344  34.337  1.00  0.00     0.010 A 
ATOM     46  C   UNL A   1      43.270  29.954  33.095  1.00  0.00    -0.014 A 
BRANCH  46  47
ATOM     47  C   UNL A   1      44.454  29.554  32.291  1.00  0.00     0.031 A 
ATOM     48  C   UNL A   1      44.335  28.368  31.378  1.00  0.00     0.074 A 
ATOM     49  C   UNL A   1      45.629  30.203  32.388  1.00  0.00     0.049 A 
ATOM     50  N   UNL A   1      45.238  27.824  30.604  1.00  0.00    -0.248 NA
ATOM     51  C   UNL A   1      43.023  27.704  31.338  1.00  0.00     0.031 C 
ATOM     52  C   UNL A   1      45.875  31.372  33.225  1.00  0.00     0.029 A 
ATOM     53  N   UNL A   1      46.841  29.954  31.786  1.00  0.00    -0.354 N 
ATOM     54  C   UNL A   1      44.608  26.749  29.991  1.00  0.00     0.074 A 
ATOM     55  C   UNL A   1      43.251  26.710  30.495  1.00  0.00     0.031 C 
ATOM     56  C   UNL A   1      47.164  31.728  33.101  1.00  0.00     0.029 A 
ATOM     57  C   UNL A   1      47.853  30.779  32.223  1.00  0.00     0.049 A 
ATOM     58  H   UNL A   1      46.971  29.254  31.106  1.00  0.00     0.167 HD
ATOM     59  C   UNL A   1      45.111  25.867  29.096  1.00  0.00     0.031 A 
ATOM     60  C   UNL A   1      49.182  30.756  31.970  1.00  0.00     0.031 A 
ATOM     61  C   UNL A   1      46.469  25.869  28.624  1.00  0.00     0.049 A 
ATOM     62  C   UNL A   1      49.720  29.763  30.955  1.00  0.00     0.074 A 
ATOM     63  C   UNL A   1      47.066  25.004  27.724  1.00  0.00     0.029 A 
ATOM     64  N   UNL A   1      47.445  26.765  29.026  1.00  0.00    -0.354 N 
ATOM     65  N   UNL A   1      49.072  28.844  30.273  1.00  0.00    -0.248 NA
ATOM     66  C   UNL A   1      51.156  29.821  30.636  1.00  0.00     0.031 C 
ATOM     67  C   UNL A   1      48.420  25.341  27.627  1.00  0.00     0.029 A 
ATOM     68  C   UNL A   1      48.648  26.458  28.413  1.00  0.00     0.049 A 
ATOM     69  H   UNL A   1      47.306  27.510  29.655  1.00  0.00     0.167 HD
ATOM     70  C   UNL A   1      50.016  28.243  29.441  1.00  0.00     0.074 A 
ATOM     71  C   UNL A   1      51.263  28.940  29.652  1.00  0.00     0.031 C 
ATOM     72  C   UNL A   1      49.877  27.186  28.601  1.00  0.00     0.031 A 
BRANCH  59  73
ATOM     73  C   UNL A   1      44.188  24.785  28.609  1.00  0.00    -0.014 A 
ATOM     74  C   UNL A   1      43.370  24.980  27.481  1.00  0.00     0.010 A 
ATOM     75  C   UNL A   1      44.154  23.547  29.277  1.00  0.00     0.010 A 
ATOM     76  C   UNL A   1      42.504  23.971  27.056  1.00  0.00     0.020 A 
ATOM     77  C   UNL A   1      43.311  22.526  28.837  1.00  0.00     0.020 A 
ATOM     78  C   UNL A   1      42.478  22.751  27.739  1.00  0.00     0.054 A 
BRANCH  78  79
ATOM     79  S   UNL A   1      41.353  21.455  27.156  1.00  0.00     0.124 S 
ATOM     80  O   UNL A   1      40.062  21.937  27.643  1.00  0.00    -0.237 OA
ATOM     81  O   UNL A   1      41.535  21.503  25.708  1.00  0.00    -0.237 OA
ATOM     82  O   UNL A   1      41.850  20.245  27.805  1.00  0.00    -0.744 OA
ENDBRANCH  78  79
ENDBRANCH  59  73
BRANCH  60  83
ATOM     83  C   UNL A   1      50.091  31.700  32.695  1.00  0.00    -0.014 A 
ATOM     84  C   UNL A   1      50.511  32.899  32.110  1.00  0.00     0.010 A 
ATOM     85  C   UNL A   1      50.563  31.403  33.993  1.00  0.00     0.010 A 
ATOM     86  C   UNL A   1      51.399  33.740  32.777  1.00  0.00     0.020 A 
ATOM     87  C   UNL A   1      51.340  32.318  34.717  1.00  0.00     0.020 A 
ATOM     88  C   UNL A   1      51.743  33.498  34.103  1.00  0.00     0.054 A 
BRANCH  88  89
ATOM     89  S   UNL A   1      52.654  34.778  35.003  1.00  0.00     0.124 S 
ATOM     90  O   UNL A   1      51.615  35.407  35.814  1.00  0.00    -0.237 OA
ATOM     91  O   UNL A   1      53.633  33.989  35.756  1.00  0.00    -0.237 OA
ATOM     92  O   UNL A   1      53.210  35.616  33.945  1.00  0.00    -0.744 OA
ENDBRANCH  88  89
ENDBRANCH  60  83
BRANCH  72  93
ATOM     93  C   UNL A   1      51.090  26.733  27.821  1.00  0.00    -0.014 A 
ATOM     94  C   UNL A   1      52.304  26.433  28.466  1.00  0.00     0.010 A 
ATOM     95  C   UNL A   1      50.993  26.535  26.431  1.00  0.00     0.010 A 
ATOM     96  C   UNL A   1      53.407  25.982  27.732  1.00  0.00     0.020 A 
ATOM     97  C   UNL A   1      52.083  26.052  25.699  1.00  0.00     0.020 A 
ATOM     98  C   UNL A   1      53.289  25.793  26.353  1.00  0.00     0.054 A 
BRANCH  98  99
ATOM     99  S   UNL A   1      54.720  25.162  25.433  1.00  0.00     0.124 S 
ATOM    100  O   UNL A   1      54.185  23.943  24.835  1.00  0.00    -0.237 OA
ATOM    101  O   UNL A   1      55.004  26.249  24.499  1.00  0.00    -0.237 OA
ATOM    102  O   UNL A   1      55.734  24.956  26.466  1.00  0.00    -0.744 OA
ENDBRANCH  98  99
ENDBRANCH  72  93
ENDBRANCH  46  47
ENDBRANCH  39  41
ENDBRANCH  38  39
ENDBRANCH  37  38
ENDBRANCH  36  37
ENDBRANCH  35  36
ENDBRANCH  34  35
ENDBRANCH   1  34
TORSDOF 25
ENDMDL
MODEL 3
REMARK VINA RESULT:      -7.1      5.585     13.168
REMARK SMILES C[C@@H](C(=O)OCCOCCOCCOC(=O)c1ccc(-c2c3nc(c(-c4ccc(S(=O)(=O)[O-])cc4)c4ccc([nH]4)c(-c4ccc(S(=O)(=O)[O-])cc4)c4nc(c(-c5ccc(S(=O)(=O)[O-])cc5)c5ccc2[nH]5)C=C4)C=C3)cc1)c1ccc(-c2cccc(OC(=O)Nc3ccccc3)c2)c(F)c1
REMARK SMILES IDX 9 1 8 2 7 3 6 4 5 5 3 6 4 7 2 8 1 9 77 10 78 11 99 12 79 13
REMARK SMILES IDX 97 14 80 15 98 16 81 17 82 18 96 19 83 20 85 21 84 22 86 23
REMARK SMILES IDX 87 24 88 25 89 26 90 28 91 29 95 30 92 31 94 32 93 33 10 34
REMARK SMILES IDX 11 35 12 36 13 37 14 38 15 39 16 40 17 41 18 42 76 43 19 44
REMARK SMILES IDX 75 45 20 46 21 47 22 48 69 49 23 50 74 51 68 52 70 53 24 54
REMARK SMILES IDX 73 55 67 56 66 57 25 59 55 60 36 61 54 62 37 63 40 64 53 65
REMARK SMILES IDX 71 66 38 67 39 68 52 70 72 71 41 72 26 73 27 74 35 75 28 76
REMARK SMILES IDX 34 77 29 78 30 79 31 80 32 81 33 82 56 83 57 84 65 85 58 86
REMARK SMILES IDX 64 87 59 88 60 89 61 90 62 91 63 92 42 93 43 94 51 95 44 96
REMARK SMILES IDX 50 97 45 98 46 99 47 100 48 101 49 102
REMARK H PARENT 89 27 70 58 40 69
REMARK Flexibility Score: inf
ROOT
ATOM      1  C   UNL A   1      48.547  28.021  41.788  1.00  0.00     0.188 C 
ENDROOT
BRANCH   1   2
ATOM      2  O   UNL A   1      48.250  28.210  43.166  1.00  0.00    -0.376 OA
BRANCH   2   3
ATOM      3  C   UNL A   1      48.348  29.524  43.706  1.00  0.00     0.202 C 
BRANCH   3   4
ATOM      4  C   UNL A   1      47.200  30.521  43.468  1.00  0.00     0.261 C 
BRANCH   4   5
ATOM      5  O   UNL A   1      47.166  31.130  42.156  1.00  0.00    -0.463 OA
BRANCH   5   6
ATOM      6  C   UNL A   1      46.770  32.432  42.107  1.00  0.00     0.313 C 
ATOM      7  O   UNL A   1      47.416  33.355  42.595  1.00  0.00    -0.252 OA
BRANCH   6   8
ATOM      8  C   UNL A   1      45.419  32.670  41.405  1.00  0.00     0.126 C 
ATOM      9  C   UNL A   1      44.277  31.677  41.640  1.00  0.00     0.025 C 
BRANCH   8  10
ATOM     10  C   UNL A   1      45.604  32.969  39.919  1.00  0.00    -0.031 A 
ATOM     11  C   UNL A   1      45.044  34.098  39.304  1.00  0.00     0.005 A 
ATOM     12  C   UNL A   1      46.309  32.072  39.112  1.00  0.00     0.044 A 
ATOM     13  C   UNL A   1      45.129  34.288  37.920  1.00  0.00     0.012 A 
ATOM     14  C   UNL A   1      46.411  32.281  37.735  1.00  0.00     0.131 A 
ATOM     15  C   UNL A   1      45.804  33.374  37.101  1.00  0.00     0.018 A 
ATOM     16  F   UNL A   1      47.106  31.383  37.019  1.00  0.00    -0.206 F 
BRANCH  15  17
ATOM     17  C   UNL A   1      45.797  33.525  35.636  1.00  0.00    -0.012 A 
ATOM     18  C   UNL A   1      46.722  34.342  34.963  1.00  0.00     0.009 A 
ATOM     19  C   UNL A   1      44.808  32.880  34.876  1.00  0.00     0.056 A 
ATOM     20  C   UNL A   1      46.660  34.502  33.574  1.00  0.00     0.004 A 
ATOM     21  C   UNL A   1      44.732  33.059  33.497  1.00  0.00     0.133 A 
ATOM     22  C   UNL A   1      45.667  33.857  32.839  1.00  0.00     0.047 A 
BRANCH  21  23
ATOM     23  O   UNL A   1      43.753  32.443  32.681  1.00  0.00    -0.410 OA
BRANCH  23  24
ATOM     24  C   UNL A   1      44.019  31.469  31.712  1.00  0.00     0.417 C 
ATOM     25  O   UNL A   1      44.742  30.492  31.891  1.00  0.00    -0.224 OA
ATOM     26  N   UNL A   1      43.370  31.644  30.513  1.00  0.00    -0.291 N 
ATOM     27  H   UNL A   1      43.546  30.935  29.853  1.00  0.00     0.173 HD
BRANCH  26  28
ATOM     28  C   UNL A   1      42.498  32.653  30.060  1.00  0.00     0.044 A 
ATOM     29  C   UNL A   1      41.135  32.455  30.326  1.00  0.00     0.026 A 
ATOM     30  C   UNL A   1      42.899  33.866  29.497  1.00  0.00     0.026 A 
ATOM     31  C   UNL A   1      40.217  33.494  30.169  1.00  0.00     0.002 A 
ATOM     32  C   UNL A   1      41.975  34.903  29.325  1.00  0.00     0.002 A 
ATOM     33  C   UNL A   1      40.641  34.728  29.687  1.00  0.00     0.000 A 
ENDBRANCH  26  28
ENDBRANCH  23  24
ENDBRANCH  21  23
ENDBRANCH  15  17
ENDBRANCH   8  10
ENDBRANCH   6   8
ENDBRANCH   5   6
ENDBRANCH   4   5
ENDBRANCH   3   4
ENDBRANCH   2   3
ENDBRANCH   1   2
BRANCH   1  34
ATOM     34  C   UNL A   1      49.116  26.659  41.352  1.00  0.00     0.188 C 
BRANCH  34  35
ATOM     35  O   UNL A   1      48.725  26.263  40.059  1.00  0.00    -0.376 OA
BRANCH  35  36
ATOM     36  C   UNL A   1      48.727  27.226  39.025  1.00  0.00     0.202 C 
BRANCH  36  37
ATOM     37  C   UNL A   1      49.673  27.072  37.822  1.00  0.00     0.261 C 
BRANCH  37  38
ATOM     38  O   UNL A   1      49.075  26.945  36.523  1.00  0.00    -0.460 OA
BRANCH  38  39
ATOM     39  C   UNL A   1      48.002  26.130  36.405  1.00  0.00     0.338 C 
ATOM     40  O   UNL A   1      47.981  24.923  36.583  1.00  0.00    -0.246 OA
BRANCH  39  41
ATOM     41  C   UNL A   1      46.801  26.986  36.242  1.00  0.00     0.060 A 
ATOM     42  C   UNL A   1      45.578  26.552  36.769  1.00  0.00     0.016 A 
ATOM     43  C   UNL A   1      46.884  28.221  35.590  1.00  0.00     0.016 A 
ATOM     44  C   UNL A   1      44.432  27.341  36.625  1.00  0.00     0.010 A 
ATOM     45  C   UNL A   1      45.732  29.002  35.435  1.00  0.00     0.010 A 
ATOM     46  C   UNL A   1      44.495  28.560  35.934  1.00  0.00    -0.014 A 
BRANCH  46  47
ATOM     47  C   UNL A   1      43.249  29.290  35.587  1.00  0.00     0.031 A 
ATOM     48  C   UNL A   1      42.556  28.957  34.297  1.00  0.00     0.074 A 
ATOM     49  C   UNL A   1      42.750  30.259  36.378  1.00  0.00     0.049 A 
ATOM     50  N   UNL A   1      41.474  29.478  33.779  1.00  0.00    -0.248 NA
ATOM     51  C   UNL A   1      43.169  27.896  33.483  1.00  0.00     0.031 C 
ATOM     52  C   UNL A   1      43.317  30.672  37.657  1.00  0.00     0.029 A 
ATOM     53  N   UNL A   1      41.661  31.081  36.207  1.00  0.00    -0.354 N 
ATOM     54  C   UNL A   1      41.281  28.817  32.572  1.00  0.00     0.074 A 
ATOM     55  C   UNL A   1      42.365  27.868  32.431  1.00  0.00     0.031 C 
ATOM     56  C   UNL A   1      42.584  31.685  38.147  1.00  0.00     0.029 A 
ATOM     57  C   UNL A   1      41.531  32.035  37.191  1.00  0.00     0.049 A 
ATOM     58  H   UNL A   1      41.034  30.996  35.453  1.00  0.00     0.167 HD
ATOM     59  C   UNL A   1      40.297  28.987  31.658  1.00  0.00     0.031 A 
ATOM     60  C   UNL A   1      40.684  33.085  37.297  1.00  0.00     0.031 A 
ATOM     61  C   UNL A   1      39.242  29.958  31.767  1.00  0.00     0.049 A 
ATOM     62  C   UNL A   1      39.583  33.249  36.264  1.00  0.00     0.074 A 
ATOM     63  C   UNL A   1      38.209  30.205  30.880  1.00  0.00     0.029 A 
ATOM     64  N   UNL A   1      39.095  30.853  32.813  1.00  0.00    -0.354 N 
ATOM     65  N   UNL A   1      39.330  32.516  35.202  1.00  0.00    -0.248 NA
ATOM     66  C   UNL A   1      38.623  34.349  36.455  1.00  0.00     0.031 C 
ATOM     67  C   UNL A   1      37.470  31.291  31.362  1.00  0.00     0.029 A 
ATOM     68  C   UNL A   1      38.003  31.673  32.582  1.00  0.00     0.049 A 
ATOM     69  H   UNL A   1      39.679  30.901  33.605  1.00  0.00     0.167 HD
ATOM     70  C   UNL A   1      38.182  33.055  34.625  1.00  0.00     0.074 A 
ATOM     71  C   UNL A   1      37.748  34.131  35.485  1.00  0.00     0.031 C 
ATOM     72  C   UNL A   1      37.556  32.718  33.468  1.00  0.00     0.031 A 
BRANCH  59  73
ATOM     73  C   UNL A   1      40.353  28.129  30.425  1.00  0.00    -0.014 A 
ATOM     74  C   UNL A   1      41.332  28.339  29.437  1.00  0.00     0.010 A 
ATOM     75  C   UNL A   1      39.426  27.084  30.263  1.00  0.00     0.010 A 
ATOM     76  C   UNL A   1      41.356  27.546  28.289  1.00  0.00     0.020 A 
ATOM     77  C   UNL A   1      39.465  26.269  29.131  1.00  0.00     0.020 A 
ATOM     78  C   UNL A   1      40.420  26.517  28.142  1.00  0.00     0.054 A 
BRANCH  78  79
ATOM     79  S   UNL A   1      40.484  25.494  26.647  1.00  0.00     0.124 S 
ATOM     80  O   UNL A   1      41.447  24.464  27.030  1.00  0.00    -0.237 OA
ATOM     81  O   UNL A   1      39.102  25.042  26.512  1.00  0.00    -0.237 OA
ATOM     82  O   UNL A   1      40.940  26.418  25.612  1.00  0.00    -0.744 OA
ENDBRANCH  78  79
ENDBRANCH  59  73
BRANCH  60  83
ATOM     83  C   UNL A   1      40.851  34.062  38.420  1.00  0.00    -0.014 A 
ATOM     84  C   UNL A   1      40.258  33.843  39.668  1.00  0.00     0.010 A 
ATOM     85  C   UNL A   1      41.605  35.244  38.251  1.00  0.00     0.010 A 
ATOM     86  C   UNL A   1      40.379  34.788  40.685  1.00  0.00     0.020 A 
ATOM     87  C   UNL A   1      41.844  36.120  39.319  1.00  0.00     0.020 A 
ATOM     88  C   UNL A   1      41.235  35.874  40.543  1.00  0.00     0.054 A 
BRANCH  88  89
ATOM     89  S   UNL A   1      41.578  36.896  42.000  1.00  0.00     0.124 S 
ATOM     90  O   UNL A   1      42.261  35.966  42.895  1.00  0.00    -0.237 OA
ATOM     91  O   UNL A   1      42.424  37.954  41.443  1.00  0.00    -0.237 OA
ATOM     92  O   UNL A   1      40.253  37.323  42.441  1.00  0.00    -0.744 OA
ENDBRANCH  88  89
ENDBRANCH  60  83
BRANCH  72  93
ATOM     93  C   UNL A   1      36.320  33.492  33.075  1.00  0.00    -0.014 A 
ATOM     94  C   UNL A   1      36.404  34.647  32.275  1.00  0.00     0.010 A 
ATOM     95  C   UNL A   1      35.049  33.018  33.450  1.00  0.00     0.010 A 
ATOM     96  C   UNL A   1      35.246  35.333  31.892  1.00  0.00     0.020 A 
ATOM     97  C   UNL A   1      33.887  33.682  33.041  1.00  0.00     0.020 A 
ATOM     98  C   UNL A   1      33.995  34.845  32.276  1.00  0.00     0.054 A 
BRANCH  98  99
ATOM     99  S   UNL A   1      32.508  35.727  31.726  1.00  0.00     0.124 S 
ATOM    100  O   UNL A   1      32.869  37.119  31.975  1.00  0.00    -0.237 OA
ATOM    101  O   UNL A   1      32.410  35.344  30.319  1.00  0.00    -0.237 OA
ATOM    102  O   UNL A   1      31.450  35.195  32.584  1.00  0.00    -0.744 OA
ENDBRANCH  98  99
ENDBRANCH  72  93
ENDBRANCH  46  47
ENDBRANCH  39  41
ENDBRANCH  38  39
ENDBRANCH  37  38
ENDBRANCH  36  37
ENDBRANCH  35  36
ENDBRANCH  34  35
ENDBRANCH   1  34
TORSDOF 25
ENDMDL
