MODEL 1
REMARK VINA RESULT:     -11.2      0.000      0.000
REMARK SMILES Cc1ccc(NC(=O)C[C@@H](C(=O)OCCOCCOCCOC(=O)c2ccc(-c3c4nc(c(-c5ccc(S(=O)(=O)[O-])cc5)c5ccc([nH]5)c(-c5ccc(S(=O)(=O)[O-])cc5)c5nc(c(-c6ccc(S(=O)(=O)[O-])cc6)c6ccc3[nH]6)C=C5)C=C4)cc2)[NH+]2CCOCC2)cc1
REMARK SMILES IDX 17 1 16 2 15 3 14 4 13 5 11 6 12 7 10 8 9 9 7 10 6 11 8 13
REMARK SMILES IDX 5 14 1 15 2 16 3 17 92 18 4 19 91 20 85 21 86 22 90 23 87 25
REMARK SMILES IDX 89 26 88 27 18 28 19 29 20 30 21 31 22 32 23 33 24 34 25 35
REMARK SMILES IDX 26 36 84 37 27 38 83 39 28 40 29 41 30 42 77 43 31 44 82 45
REMARK SMILES IDX 76 46 78 47 32 48 81 49 75 50 74 51 33 53 63 54 44 55 62 56
REMARK SMILES IDX 45 57 48 58 61 59 79 60 46 61 47 62 60 64 80 65 49 66 34 67
REMARK SMILES IDX 35 68 43 69 36 70 42 71 37 72 38 73 39 74 40 75 41 76 64 77
REMARK SMILES IDX 65 78 73 79 66 80 72 81 67 82 68 83 69 84 70 85 71 86 50 87
REMARK SMILES IDX 51 88 59 89 52 90 58 91 53 92 54 93 55 94 56 95 57 96
REMARK H PARENT 6 12 85 24 78 52 48 63
REMARK Flexibility Score: inf
ROOT
ATOM      1  C   UNL A   1      35.588  33.039  29.704  1.00  0.00     0.188 C 
ENDROOT
BRANCH   1   2
ATOM      2  O   UNL A   1      34.287  33.491  29.290  1.00  0.00    -0.376 OA
BRANCH   2   3
ATOM      3  C   UNL A   1      33.757  33.214  27.746  1.00  0.00     0.202 C 
BRANCH   3   4
ATOM      4  C   UNL A   1      32.427  31.603  26.947  1.00  0.00     0.261 C 
BRANCH   4   5
ATOM      5  O   UNL A   1      32.134  29.717  26.891  1.00  0.00    -0.459 OA
BRANCH   5   6
ATOM      6  C   UNL A   1      31.413  28.164  26.859  1.00  0.00     0.365 C 
ATOM      7  O   UNL A   1      31.240  27.472  27.865  1.00  0.00    -0.245 OA
BRANCH   6   8
ATOM      8  C   UNL A   1      30.992  27.134  25.309  1.00  0.00     0.304 C 
BRANCH   8   9
ATOM      9  C   UNL A   1      30.465  25.335  25.330  1.00  0.00     0.177 C 
BRANCH   9  10
ATOM     10  C   UNL A   1      30.758  23.924  26.572  1.00  0.00     0.231 C 
ATOM     11  N   UNL A   1      31.946  23.042  26.904  1.00  0.00    -0.326 N 
ATOM     12  H   UNL A   1      31.801  22.571  27.755  1.00  0.00     0.169 HD
ATOM     13  O   UNL A   1      29.775  23.700  27.312  1.00  0.00    -0.274 OA
BRANCH  11  14
ATOM     14  C   UNL A   1      33.299  22.668  26.306  1.00  0.00     0.041 A 
ATOM     15  C   UNL A   1      37.632  20.413  24.746  1.00  0.00     0.044 C 
ATOM     16  C   UNL A   1      36.416  21.310  24.829  1.00  0.00    -0.051 A 
ATOM     17  C   UNL A   1      35.012  20.303  25.047  1.00  0.00     0.005 A 
ATOM     18  C   UNL A   1      36.287  23.043  25.288  1.00  0.00     0.005 A 
ATOM     19  C   UNL A   1      33.544  20.995  25.841  1.00  0.00     0.026 A 
ATOM     20  C   UNL A   1      34.762  23.703  26.075  1.00  0.00     0.026 A 
ENDBRANCH  11  14
ENDBRANCH   9  10
ENDBRANCH   8   9
BRANCH   8  21
ATOM     21  N   UNL A   1      32.023  27.522  24.239  1.00  0.00    -0.319 N 
ATOM     22  C   UNL A   1      31.556  27.712  22.852  1.00  0.00     0.291 C 
ATOM     23  C   UNL A   1      33.398  27.017  24.194  1.00  0.00     0.291 C 
ATOM     24  H   UNL A   1      32.113  28.397  24.753  1.00  0.00     0.348 HD
ATOM     25  C   UNL A   1      31.760  26.475  21.984  1.00  0.00     0.221 C 
ATOM     26  C   UNL A   1      33.808  26.049  23.047  1.00  0.00     0.221 C 
ATOM     27  O   UNL A   1      33.164  26.283  21.793  1.00  0.00    -0.370 OA
ENDBRANCH   8  21
ENDBRANCH   6   8
ENDBRANCH   5   6
ENDBRANCH   4   5
ENDBRANCH   3   4
ENDBRANCH   2   3
ENDBRANCH   1   2
BRANCH   1  28
ATOM     28  C   UNL A   1      35.546  32.403  31.096  1.00  0.00     0.188 C 
BRANCH  28  29
ATOM     29  O   UNL A   1      35.597  31.004  31.125  1.00  0.00    -0.376 OA
BRANCH  29  30
ATOM     30  C   UNL A   1      36.137  30.541  29.902  1.00  0.00     0.202 C 
BRANCH  30  31
ATOM     31  C   UNL A   1      37.103  29.253  29.889  1.00  0.00     0.261 C 
BRANCH  31  32
ATOM     32  O   UNL A   1      37.331  28.444  31.172  1.00  0.00    -0.460 OA
BRANCH  32  33
ATOM     33  C   UNL A   1      38.321  28.298  32.165  1.00  0.00     0.338 C 
ATOM     34  O   UNL A   1      39.183  27.420  32.089  1.00  0.00    -0.246 OA
BRANCH  33  35
ATOM     35  C   UNL A   1      38.805  29.565  32.849  1.00  0.00     0.060 A 
ATOM     36  C   UNL A   1      38.252  30.849  32.857  1.00  0.00     0.016 A 
ATOM     37  C   UNL A   1      39.856  29.435  33.699  1.00  0.00     0.016 A 
ATOM     38  C   UNL A   1      39.054  32.012  33.162  1.00  0.00     0.010 A 
ATOM     39  C   UNL A   1      40.694  30.537  33.793  1.00  0.00     0.010 A 
ATOM     40  C   UNL A   1      40.416  31.885  33.473  1.00  0.00    -0.014 A 
BRANCH  40  41
ATOM     41  C   UNL A   1      41.698  33.063  33.266  1.00  0.00     0.031 A 
ATOM     42  C   UNL A   1      42.001  34.709  34.396  1.00  0.00     0.074 A 
ATOM     43  C   UNL A   1      42.596  32.493  32.179  1.00  0.00     0.049 A 
ATOM     44  N   UNL A   1      43.177  35.243  34.822  1.00  0.00    -0.248 NA
ATOM     45  C   UNL A   1      41.097  35.981  34.841  1.00  0.00     0.031 C 
ATOM     46  C   UNL A   1      44.085  32.835  31.684  1.00  0.00     0.029 A 
ATOM     47  N   UNL A   1      42.508  31.320  31.445  1.00  0.00    -0.354 N 
ATOM     48  C   UNL A   1      43.211  36.595  35.005  1.00  0.00     0.074 A 
ATOM     49  C   UNL A   1      41.897  36.862  35.434  1.00  0.00     0.031 C 
ATOM     50  C   UNL A   1      44.696  31.895  30.980  1.00  0.00     0.029 A 
ATOM     51  C   UNL A   1      43.606  31.102  30.580  1.00  0.00     0.049 A 
ATOM     52  H   UNL A   1      41.749  30.696  31.519  1.00  0.00     0.167 HD
ATOM     53  C   UNL A   1      44.074  37.495  34.421  1.00  0.00     0.031 A 
ATOM     54  C   UNL A   1      43.400  31.037  29.252  1.00  0.00     0.031 A 
ATOM     55  C   UNL A   1      44.897  37.004  33.264  1.00  0.00     0.049 A 
ATOM     56  C   UNL A   1      43.562  32.564  28.706  1.00  0.00     0.074 A 
ATOM     57  C   UNL A   1      46.101  36.341  33.106  1.00  0.00     0.029 A 
ATOM     58  N   UNL A   1      44.428  37.101  31.937  1.00  0.00    -0.354 N 
ATOM     59  N   UNL A   1      43.527  33.662  29.475  1.00  0.00    -0.248 NA
ATOM     60  C   UNL A   1      44.176  32.929  27.427  1.00  0.00     0.031 C 
ATOM     61  C   UNL A   1      46.207  35.853  31.739  1.00  0.00     0.029 A 
ATOM     62  C   UNL A   1      45.072  36.206  31.007  1.00  0.00     0.049 A 
ATOM     63  H   UNL A   1      43.719  37.727  31.667  1.00  0.00     0.167 HD
ATOM     64  C   UNL A   1      44.230  34.746  28.957  1.00  0.00     0.074 A 
ATOM     65  C   UNL A   1      44.549  34.218  27.619  1.00  0.00     0.031 C 
ATOM     66  C   UNL A   1      44.570  35.988  29.544  1.00  0.00     0.031 A 
BRANCH  53  67
ATOM     67  C   UNL A   1      44.293  38.833  35.159  1.00  0.00    -0.014 A 
ATOM     68  C   UNL A   1      44.344  40.021  34.411  1.00  0.00     0.010 A 
ATOM     69  C   UNL A   1      44.619  38.986  36.532  1.00  0.00     0.010 A 
ATOM     70  C   UNL A   1      44.788  41.241  34.970  1.00  0.00     0.020 A 
ATOM     71  C   UNL A   1      45.109  40.177  37.095  1.00  0.00     0.020 A 
ATOM     72  C   UNL A   1      45.203  41.303  36.301  1.00  0.00     0.054 A 
BRANCH  72  73
ATOM     73  S   UNL A   1      45.865  42.849  36.977  1.00  0.00     0.124 S 
ATOM     74  O   UNL A   1      44.968  43.110  38.101  1.00  0.00    -0.237 OA
ATOM     75  O   UNL A   1      47.230  42.476  37.331  1.00  0.00    -0.237 OA
ATOM     76  O   UNL A   1      45.748  43.796  35.869  1.00  0.00    -0.744 OA
ENDBRANCH  72  73
ENDBRANCH  53  67
BRANCH  54  77
ATOM     77  C   UNL A   1      42.728  29.660  29.218  1.00  0.00    -0.014 A 
ATOM     78  C   UNL A   1      41.695  29.557  28.200  1.00  0.00     0.010 A 
ATOM     79  C   UNL A   1      43.431  28.454  29.442  1.00  0.00     0.010 A 
ATOM     80  C   UNL A   1      41.512  28.425  27.366  1.00  0.00     0.020 A 
ATOM     81  C   UNL A   1      43.199  27.290  28.637  1.00  0.00     0.020 A 
ATOM     82  C   UNL A   1      42.273  27.290  27.587  1.00  0.00     0.054 A 
BRANCH  82  83
ATOM     83  S   UNL A   1      42.089  25.876  26.442  1.00  0.00     0.124 S 
ATOM     84  O   UNL A   1      40.886  25.225  26.944  1.00  0.00    -0.237 OA
ATOM     85  O   UNL A   1      41.956  26.524  25.138  1.00  0.00    -0.237 OA
ATOM     86  O   UNL A   1      43.334  25.138  26.620  1.00  0.00    -0.744 OA
ENDBRANCH  82  83
ENDBRANCH  54  77
BRANCH  66  87
ATOM     87  C   UNL A   1      44.345  37.263  28.684  1.00  0.00    -0.014 A 
ATOM     88  C   UNL A   1      43.207  37.468  27.878  1.00  0.00     0.010 A 
ATOM     89  C   UNL A   1      45.217  38.377  28.778  1.00  0.00     0.010 A 
ATOM     90  C   UNL A   1      43.002  38.644  27.143  1.00  0.00     0.020 A 
ATOM     91  C   UNL A   1      44.983  39.594  28.113  1.00  0.00     0.020 A 
ATOM     92  C   UNL A   1      43.895  39.701  27.261  1.00  0.00     0.054 A 
BRANCH  92  93
ATOM     93  S   UNL A   1      43.596  41.196  26.292  1.00  0.00     0.124 S 
ATOM     94  O   UNL A   1      42.138  41.209  26.206  1.00  0.00    -0.237 OA
ATOM     95  O   UNL A   1      44.180  42.243  27.129  1.00  0.00    -0.237 OA
ATOM     96  O   UNL A   1      44.295  40.947  25.035  1.00  0.00    -0.744 OA
ENDBRANCH  92  93
ENDBRANCH  66  87
ENDBRANCH  40  41
ENDBRANCH  33  35
ENDBRANCH  32  33
ENDBRANCH  31  32
ENDBRANCH  30  31
ENDBRANCH  29  30
ENDBRANCH  28  29
ENDBRANCH   1  28
TORSDOF 24
ENDMDL
MODEL 2
REMARK VINA RESULT:     -11.1      4.763      8.055
REMARK SMILES Cc1ccc(NC(=O)C[C@@H](C(=O)OCCOCCOCCOC(=O)c2ccc(-c3c4nc(c(-c5ccc(S(=O)(=O)[O-])cc5)c5ccc([nH]5)c(-c5ccc(S(=O)(=O)[O-])cc5)c5nc(c(-c6ccc(S(=O)(=O)[O-])cc6)c6ccc3[nH]6)C=C5)C=C4)cc2)[NH+]2CCOCC2)cc1
REMARK SMILES IDX 17 1 16 2 15 3 14 4 13 5 11 6 12 7 10 8 9 9 7 10 6 11 8 13
REMARK SMILES IDX 5 14 1 15 2 16 3 17 92 18 4 19 91 20 85 21 86 22 90 23 87 25
REMARK SMILES IDX 89 26 88 27 18 28 19 29 20 30 21 31 22 32 23 33 24 34 25 35
REMARK SMILES IDX 26 36 84 37 27 38 83 39 28 40 29 41 30 42 77 43 31 44 82 45
REMARK SMILES IDX 76 46 78 47 32 48 81 49 75 50 74 51 33 53 63 54 44 55 62 56
REMARK SMILES IDX 45 57 48 58 61 59 79 60 46 61 47 62 60 64 80 65 49 66 34 67
REMARK SMILES IDX 35 68 43 69 36 70 42 71 37 72 38 73 39 74 40 75 41 76 64 77
REMARK SMILES IDX 65 78 73 79 66 80 72 81 67 82 68 83 69 84 70 85 71 86 50 87
REMARK SMILES IDX 51 88 59 89 52 90 58 91 53 92 54 93 55 94 56 95 57 96
REMARK H PARENT 6 12 85 24 78 52 48 63
REMARK Flexibility Score: inf
ROOT
ATOM      1  C   UNL A   1      39.477  27.903  28.194  1.00  0.00     0.188 C 
ENDROOT
BRANCH   1   2
ATOM      2  O   UNL A   1      38.847  28.996  27.505  1.00  0.00    -0.376 OA
BRANCH   2   3
ATOM      3  C   UNL A   1      37.445  29.658  28.088  1.00  0.00     0.202 C 
BRANCH   3   4
ATOM      4  C   UNL A   1      35.347  29.484  27.335  1.00  0.00     0.261 C 
BRANCH   4   5
ATOM      5  O   UNL A   1      33.806  28.357  27.277  1.00  0.00    -0.459 OA
BRANCH   5   6
ATOM      6  C   UNL A   1      32.227  27.739  27.032  1.00  0.00     0.365 C 
ATOM      7  O   UNL A   1      31.365  27.705  27.913  1.00  0.00    -0.245 OA
BRANCH   6   8
ATOM      8  C   UNL A   1      31.601  26.787  25.502  1.00  0.00     0.304 C 
BRANCH   8   9
ATOM      9  C   UNL A   1      30.600  25.203  25.563  1.00  0.00     0.177 C 
BRANCH   9  10
ATOM     10  C   UNL A   1      30.693  23.667  26.682  1.00  0.00     0.231 C 
ATOM     11  N   UNL A   1      31.784  22.667  27.011  1.00  0.00    -0.326 N 
ATOM     12  H   UNL A   1      31.539  22.133  27.800  1.00  0.00     0.169 HD
ATOM     13  O   UNL A   1      29.641  23.455  27.325  1.00  0.00    -0.274 OA
BRANCH  11  14
ATOM     14  C   UNL A   1      33.149  22.242  26.477  1.00  0.00     0.041 A 
ATOM     15  C   UNL A   1      37.344  19.784  24.847  1.00  0.00     0.044 C 
ATOM     16  C   UNL A   1      36.246  20.810  25.027  1.00  0.00    -0.051 A 
ATOM     17  C   UNL A   1      34.713  20.003  24.849  1.00  0.00     0.005 A 
ATOM     18  C   UNL A   1      36.268  22.389  25.886  1.00  0.00     0.005 A 
ATOM     19  C   UNL A   1      33.247  20.705  25.638  1.00  0.00     0.026 A 
ATOM     20  C   UNL A   1      34.745  23.071  26.656  1.00  0.00     0.026 A 
ENDBRANCH  11  14
ENDBRANCH   9  10
ENDBRANCH   8   9
BRANCH   8  21
ATOM     21  N   UNL A   1      32.738  26.826  24.473  1.00  0.00    -0.319 N 
ATOM     22  C   UNL A   1      32.419  27.228  23.089  1.00  0.00     0.291 C 
ATOM     23  C   UNL A   1      33.845  25.866  24.426  1.00  0.00     0.291 C 
ATOM     24  H   UNL A   1      33.117  27.589  25.032  1.00  0.00     0.348 HD
ATOM     25  C   UNL A   1      32.199  26.038  22.162  1.00  0.00     0.221 C 
ATOM     26  C   UNL A   1      33.923  24.864  23.237  1.00  0.00     0.221 C 
ATOM     27  O   UNL A   1      33.449  25.366  21.986  1.00  0.00    -0.370 OA
ENDBRANCH   8  21
ENDBRANCH   6   8
ENDBRANCH   5   6
ENDBRANCH   4   5
ENDBRANCH   3   4
ENDBRANCH   2   3
ENDBRANCH   1   2
BRANCH   1  28
ATOM     28  C   UNL A   1      39.914  26.802  27.223  1.00  0.00     0.188 C 
BRANCH  28  29
ATOM     29  O   UNL A   1      40.674  25.768  27.783  1.00  0.00    -0.376 OA
BRANCH  29  30
ATOM     30  C   UNL A   1      42.000  26.223  27.965  1.00  0.00     0.202 C 
BRANCH  30  31
ATOM     31  C   UNL A   1      42.552  26.511  29.451  1.00  0.00     0.261 C 
BRANCH  31  32
ATOM     32  O   UNL A   1      43.056  27.910  29.830  1.00  0.00    -0.460 OA
BRANCH  32  33
ATOM     33  C   UNL A   1      42.936  29.236  29.368  1.00  0.00     0.338 C 
ATOM     34  O   UNL A   1      41.930  29.909  29.603  1.00  0.00    -0.246 OA
BRANCH  33  35
ATOM     35  C   UNL A   1      44.210  30.057  29.288  1.00  0.00     0.060 A 
ATOM     36  C   UNL A   1      44.843  30.832  30.265  1.00  0.00     0.016 A 
ATOM     37  C   UNL A   1      44.943  29.936  28.151  1.00  0.00     0.016 A 
ATOM     38  C   UNL A   1      45.764  31.888  29.908  1.00  0.00     0.010 A 
ATOM     39  C   UNL A   1      45.655  31.064  27.769  1.00  0.00     0.010 A 
ATOM     40  C   UNL A   1      46.061  32.159  28.565  1.00  0.00    -0.014 A 
BRANCH  40  41
ATOM     41  C   UNL A   1      46.589  33.670  27.847  1.00  0.00     0.031 A 
ATOM     42  C   UNL A   1      48.386  34.025  26.998  1.00  0.00     0.074 A 
ATOM     43  C   UNL A   1      45.364  34.571  27.863  1.00  0.00     0.049 A 
ATOM     44  N   UNL A   1      48.672  34.754  25.885  1.00  0.00    -0.248 NA
ATOM     45  C   UNL A   1      49.931  33.875  27.471  1.00  0.00     0.031 C 
ATOM     46  C   UNL A   1      44.994  35.945  27.119  1.00  0.00     0.029 A 
ATOM     47  N   UNL A   1      44.076  34.352  28.326  1.00  0.00    -0.354 N 
ATOM     48  C   UNL A   1      49.890  35.368  25.845  1.00  0.00     0.074 A 
ATOM     49  C   UNL A   1      50.696  34.456  26.552  1.00  0.00     0.031 C 
ATOM     50  C   UNL A   1      43.706  36.250  27.063  1.00  0.00     0.029 A 
ATOM     51  C   UNL A   1      43.186  35.423  28.074  1.00  0.00     0.049 A 
ATOM     52  H   UNL A   1      43.805  33.525  28.789  1.00  0.00     0.167 HD
ATOM     53  C   UNL A   1      50.143  36.710  25.668  1.00  0.00     0.031 A 
ATOM     54  C   UNL A   1      42.618  36.069  29.108  1.00  0.00     0.031 A 
ATOM     55  C   UNL A   1      48.978  37.650  25.793  1.00  0.00     0.049 A 
ATOM     56  C   UNL A   1      43.630  37.292  29.473  1.00  0.00     0.074 A 
ATOM     57  C   UNL A   1      47.984  38.124  24.954  1.00  0.00     0.029 A 
ATOM     58  N   UNL A   1      48.626  38.221  27.034  1.00  0.00    -0.354 N 
ATOM     59  N   UNL A   1      44.907  37.377  29.073  1.00  0.00    -0.248 NA
ATOM     60  C   UNL A   1      43.203  38.626  29.902  1.00  0.00     0.031 C 
ATOM     61  C   UNL A   1      46.946  38.762  25.750  1.00  0.00     0.029 A 
ATOM     62  C   UNL A   1      47.270  38.705  27.107  1.00  0.00     0.049 A 
ATOM     63  H   UNL A   1      49.254  38.284  27.788  1.00  0.00     0.167 HD
ATOM     64  C   UNL A   1      45.393  38.680  28.984  1.00  0.00     0.074 A 
ATOM     65  C   UNL A   1      44.269  39.405  29.600  1.00  0.00     0.031 C 
ATOM     66  C   UNL A   1      46.601  39.176  28.438  1.00  0.00     0.031 A 
BRANCH  53  67
ATOM     67  C   UNL A   1      51.534  37.092  25.118  1.00  0.00    -0.014 A 
ATOM     68  C   UNL A   1      52.028  36.415  23.991  1.00  0.00     0.010 A 
ATOM     69  C   UNL A   1      52.466  37.965  25.738  1.00  0.00     0.010 A 
ATOM     70  C   UNL A   1      53.377  36.524  23.583  1.00  0.00     0.020 A 
ATOM     71  C   UNL A   1      53.821  38.050  25.378  1.00  0.00     0.020 A 
ATOM     72  C   UNL A   1      54.275  37.314  24.302  1.00  0.00     0.054 A 
BRANCH  72  73
ATOM     73  S   UNL A   1      56.024  37.366  23.828  1.00  0.00     0.124 S 
ATOM     74  O   UNL A   1      56.574  36.206  24.527  1.00  0.00    -0.237 OA
ATOM     75  O   UNL A   1      55.958  37.255  22.375  1.00  0.00    -0.237 OA
ATOM     76  O   UNL A   1      56.487  38.659  24.331  1.00  0.00    -0.744 OA
ENDBRANCH  72  73
ENDBRANCH  53  67
BRANCH  54  77
ATOM     77  C   UNL A   1      41.634  34.968  29.519  1.00  0.00    -0.014 A 
ATOM     78  C   UNL A   1      41.864  34.476  30.868  1.00  0.00     0.010 A 
ATOM     79  C   UNL A   1      40.273  34.967  29.135  1.00  0.00     0.010 A 
ATOM     80  C   UNL A   1      40.830  34.193  31.796  1.00  0.00     0.020 A 
ATOM     81  C   UNL A   1      39.233  34.619  30.059  1.00  0.00     0.020 A 
ATOM     82  C   UNL A   1      39.510  34.269  31.386  1.00  0.00     0.054 A 
BRANCH  82  83
ATOM     83  S   UNL A   1      38.191  33.994  32.623  1.00  0.00     0.124 S 
ATOM     84  O   UNL A   1      38.443  32.621  33.043  1.00  0.00    -0.237 OA
ATOM     85  O   UNL A   1      38.463  35.019  33.628  1.00  0.00    -0.237 OA
ATOM     86  O   UNL A   1      36.967  34.212  31.860  1.00  0.00    -0.744 OA
ENDBRANCH  82  83
ENDBRANCH  54  77
BRANCH  66  87
ATOM     87  C   UNL A   1      47.380  40.225  29.280  1.00  0.00    -0.014 A 
ATOM     88  C   UNL A   1      48.324  39.884  30.270  1.00  0.00     0.010 A 
ATOM     89  C   UNL A   1      47.292  41.611  28.992  1.00  0.00     0.010 A 
ATOM     90  C   UNL A   1      49.047  40.846  30.988  1.00  0.00     0.020 A 
ATOM     91  C   UNL A   1      48.072  42.582  29.646  1.00  0.00     0.020 A 
ATOM     92  C   UNL A   1      48.914  42.192  30.675  1.00  0.00     0.054 A 
BRANCH  92  93
ATOM     93  S   UNL A   1      49.862  43.398  31.630  1.00  0.00     0.124 S 
ATOM     94  O   UNL A   1      50.187  44.395  30.613  1.00  0.00    -0.237 OA
ATOM     95  O   UNL A   1      48.901  43.831  32.642  1.00  0.00    -0.237 OA
ATOM     96  O   UNL A   1      50.996  42.632  32.141  1.00  0.00    -0.744 OA
ENDBRANCH  92  93
ENDBRANCH  66  87
ENDBRANCH  40  41
ENDBRANCH  33  35
ENDBRANCH  32  33
ENDBRANCH  31  32
ENDBRANCH  30  31
ENDBRANCH  29  30
ENDBRANCH  28  29
ENDBRANCH   1  28
TORSDOF 24
ENDMDL
MODEL 3
REMARK VINA RESULT:     -11.1      6.561     15.227
REMARK SMILES Cc1ccc(NC(=O)C[C@@H](C(=O)OCCOCCOCCOC(=O)c2ccc(-c3c4nc(c(-c5ccc(S(=O)(=O)[O-])cc5)c5ccc([nH]5)c(-c5ccc(S(=O)(=O)[O-])cc5)c5nc(c(-c6ccc(S(=O)(=O)[O-])cc6)c6ccc3[nH]6)C=C5)C=C4)cc2)[NH+]2CCOCC2)cc1
REMARK SMILES IDX 17 1 16 2 15 3 14 4 13 5 11 6 12 7 10 8 9 9 7 10 6 11 8 13
REMARK SMILES IDX 5 14 1 15 2 16 3 17 92 18 4 19 91 20 85 21 86 22 90 23 87 25
REMARK SMILES IDX 89 26 88 27 18 28 19 29 20 30 21 31 22 32 23 33 24 34 25 35
REMARK SMILES IDX 26 36 84 37 27 38 83 39 28 40 29 41 30 42 77 43 31 44 82 45
REMARK SMILES IDX 76 46 78 47 32 48 81 49 75 50 74 51 33 53 63 54 44 55 62 56
REMARK SMILES IDX 45 57 48 58 61 59 79 60 46 61 47 62 60 64 80 65 49 66 34 67
REMARK SMILES IDX 35 68 43 69 36 70 42 71 37 72 38 73 39 74 40 75 41 76 64 77
REMARK SMILES IDX 65 78 73 79 66 80 72 81 67 82 68 83 69 84 70 85 71 86 50 87
REMARK SMILES IDX 51 88 59 89 52 90 58 91 53 92 54 93 55 94 56 95 57 96
REMARK H PARENT 6 12 85 24 78 52 48 63
REMARK Flexibility Score: inf
ROOT
ATOM      1  C   UNL A   1      35.893  33.620  33.456  1.00  0.00     0.188 C 
ENDROOT
BRANCH   1   2
ATOM      2  O   UNL A   1      36.571  32.364  33.633  1.00  0.00    -0.376 OA
BRANCH   2   3
ATOM      3  C   UNL A   1      37.836  32.236  34.693  1.00  0.00     0.202 C 
BRANCH   3   4
ATOM      4  C   UNL A   1      37.968  31.178  36.658  1.00  0.00     0.261 C 
BRANCH   4   5
ATOM      5  O   UNL A   1      37.418  31.222  38.487  1.00  0.00    -0.459 OA
BRANCH   5   6
ATOM      6  C   UNL A   1      36.492  31.201  39.927  1.00  0.00     0.365 C 
ATOM      7  O   UNL A   1      35.260  31.144  39.944  1.00  0.00    -0.245 OA
BRANCH   6   8
ATOM      8  C   UNL A   1      37.131  31.509  41.698  1.00  0.00     0.304 C 
BRANCH   8   9
ATOM      9  C   UNL A   1      38.125  30.280  42.706  1.00  0.00     0.177 C 
BRANCH   9  10
ATOM     10  C   UNL A   1      38.060  29.771  44.539  1.00  0.00     0.231 C 
ATOM     11  N   UNL A   1      39.032  29.879  45.697  1.00  0.00    -0.326 N 
ATOM     12  H   UNL A   1      38.574  29.710  46.551  1.00  0.00     0.169 HD
ATOM     13  O   UNL A   1      36.962  29.278  44.880  1.00  0.00    -0.274 OA
BRANCH  11  14
ATOM     14  C   UNL A   1      40.512  30.172  45.929  1.00  0.00     0.041 A 
ATOM     15  C   UNL A   1      45.632  30.165  46.215  1.00  0.00     0.044 C 
ATOM     16  C   UNL A   1      44.189  30.608  46.105  1.00  0.00    -0.051 A 
ATOM     17  C   UNL A   1      43.450  29.733  44.794  1.00  0.00     0.005 A 
ATOM     18  C   UNL A   1      43.108  31.343  47.339  1.00  0.00     0.005 A 
ATOM     19  C   UNL A   1      41.660  29.485  44.795  1.00  0.00     0.026 A 
ATOM     20  C   UNL A   1      41.290  31.078  47.285  1.00  0.00     0.026 A 
ENDBRANCH  11  14
ENDBRANCH   9  10
ENDBRANCH   8   9
BRANCH   8  21
ATOM     21  N   UNL A   1      36.004  32.237  42.444  1.00  0.00    -0.319 N 
ATOM     22  C   UNL A   1      36.342  33.449  43.215  1.00  0.00     0.291 C 
ATOM     23  C   UNL A   1      34.887  31.565  43.114  1.00  0.00     0.291 C 
ATOM     24  H   UNL A   1      35.629  32.445  41.520  1.00  0.00     0.348 HD
ATOM     25  C   UNL A   1      36.557  33.166  44.698  1.00  0.00     0.221 C 
ATOM     26  C   UNL A   1      34.809  31.602  44.668  1.00  0.00     0.221 C 
ATOM     27  O   UNL A   1      35.302  32.799  45.275  1.00  0.00    -0.370 OA
ENDBRANCH   8  21
ENDBRANCH   6   8
ENDBRANCH   5   6
ENDBRANCH   4   5
ENDBRANCH   3   4
ENDBRANCH   2   3
ENDBRANCH   1   2
BRANCH   1  28
ATOM     28  C   UNL A   1      34.373  33.455  33.525  1.00  0.00     0.188 C 
BRANCH  28  29
ATOM     29  O   UNL A   1      33.706  33.467  32.294  1.00  0.00    -0.376 OA
BRANCH  29  30
ATOM     30  C   UNL A   1      33.913  34.722  31.676  1.00  0.00     0.202 C 
BRANCH  30  31
ATOM     31  C   UNL A   1      33.728  34.872  30.083  1.00  0.00     0.261 C 
BRANCH  31  32
ATOM     32  O   UNL A   1      34.406  33.880  29.129  1.00  0.00    -0.460 OA
BRANCH  32  33
ATOM     33  C   UNL A   1      34.884  32.554  29.152  1.00  0.00     0.338 C 
ATOM     34  O   UNL A   1      34.454  31.703  28.369  1.00  0.00    -0.246 OA
BRANCH  33  35
ATOM     35  C   UNL A   1      36.340  32.350  29.529  1.00  0.00     0.060 A 
ATOM     36  C   UNL A   1      37.488  32.997  29.061  1.00  0.00     0.016 A 
ATOM     37  C   UNL A   1      36.590  31.517  30.571  1.00  0.00     0.016 A 
ATOM     38  C   UNL A   1      38.795  32.389  29.175  1.00  0.00     0.010 A 
ATOM     39  C   UNL A   1      37.788  30.819  30.512  1.00  0.00     0.010 A 
ATOM     40  C   UNL A   1      38.952  31.130  29.773  1.00  0.00    -0.014 A 
BRANCH  40  41
ATOM     41  C   UNL A   1      40.210  29.940  29.498  1.00  0.00     0.031 A 
ATOM     42  C   UNL A   1      39.980  28.144  28.605  1.00  0.00     0.074 A 
ATOM     43  C   UNL A   1      41.503  30.617  29.925  1.00  0.00     0.049 A 
ATOM     44  N   UNL A   1      40.820  27.508  27.744  1.00  0.00    -0.248 NA
ATOM     45  C   UNL A   1      39.014  26.860  28.835  1.00  0.00     0.031 C 
ATOM     46  C   UNL A   1      43.056  30.286  29.683  1.00  0.00     0.029 A 
ATOM     47  N   UNL A   1      41.744  31.882  30.438  1.00  0.00    -0.354 N 
ATOM     48  C   UNL A   1      40.803  26.144  27.759  1.00  0.00     0.074 A 
ATOM     49  C   UNL A   1      39.455  25.875  28.059  1.00  0.00     0.031 C 
ATOM     50  C   UNL A   1      43.902  31.288  29.866  1.00  0.00     0.029 A 
ATOM     51  C   UNL A   1      43.117  32.172  30.626  1.00  0.00     0.049 A 
ATOM     52  H   UNL A   1      41.025  32.521  30.653  1.00  0.00     0.167 HD
ATOM     53  C   UNL A   1      41.869  25.298  27.974  1.00  0.00     0.031 A 
ATOM     54  C   UNL A   1      43.575  32.427  31.865  1.00  0.00     0.031 A 
ATOM     55  C   UNL A   1      43.133  25.909  28.509  1.00  0.00     0.049 A 
ATOM     56  C   UNL A   1      44.029  30.985  32.472  1.00  0.00     0.074 A 
ATOM     57  C   UNL A   1      44.242  26.538  27.971  1.00  0.00     0.029 A 
ATOM     58  N   UNL A   1      43.366  26.015  29.896  1.00  0.00    -0.354 N 
ATOM     59  N   UNL A   1      43.660  29.793  31.978  1.00  0.00    -0.248 NA
ATOM     60  C   UNL A   1      45.195  30.774  33.333  1.00  0.00     0.031 C 
ATOM     61  C   UNL A   1      44.980  27.205  29.034  1.00  0.00     0.029 A 
ATOM     62  C   UNL A   1      44.351  27.002  30.264  1.00  0.00     0.049 A 
ATOM     63  H   UNL A   1      42.896  25.461  30.559  1.00  0.00     0.167 HD
ATOM     64  C   UNL A   1      44.560  28.763  32.239  1.00  0.00     0.074 A 
ATOM     65  C   UNL A   1      45.468  29.457  33.167  1.00  0.00     0.031 C 
ATOM     66  C   UNL A   1      44.612  27.439  31.741  1.00  0.00     0.031 A 
BRANCH  53  67
ATOM     67  C   UNL A   1      41.746  23.863  27.417  1.00  0.00    -0.014 A 
ATOM     68  C   UNL A   1      41.549  22.801  28.315  1.00  0.00     0.010 A 
ATOM     69  C   UNL A   1      41.975  23.466  26.073  1.00  0.00     0.010 A 
ATOM     70  C   UNL A   1      41.679  21.451  27.918  1.00  0.00     0.020 A 
ATOM     71  C   UNL A   1      42.156  22.133  25.669  1.00  0.00     0.020 A 
ATOM     72  C   UNL A   1      42.017  21.126  26.604  1.00  0.00     0.054 A 
BRANCH  72  73
ATOM     73  S   UNL A   1      42.279  19.395  26.133  1.00  0.00     0.124 S 
ATOM     74  O   UNL A   1      40.960  19.000  25.642  1.00  0.00    -0.237 OA
ATOM     75  O   UNL A   1      43.324  19.501  25.120  1.00  0.00    -0.237 OA
ATOM     76  O   UNL A   1      42.686  18.749  27.380  1.00  0.00    -0.744 OA
ENDBRANCH  72  73
ENDBRANCH  53  67
BRANCH  54  77
ATOM     77  C   UNL A   1      42.961  33.822  32.025  1.00  0.00    -0.014 A 
ATOM     78  C   UNL A   1      42.919  34.267  33.409  1.00  0.00     0.010 A 
ATOM     79  C   UNL A   1      43.168  34.867  31.095  1.00  0.00     0.010 A 
ATOM     80  C   UNL A   1      43.235  35.584  33.829  1.00  0.00     0.020 A 
ATOM     81  C   UNL A   1      43.426  36.212  31.523  1.00  0.00     0.020 A 
ATOM     82  C   UNL A   1      43.492  36.556  32.878  1.00  0.00     0.054 A 
BRANCH  82  83
ATOM     83  S   UNL A   1      43.992  38.223  33.442  1.00  0.00     0.124 S 
ATOM     84  O   UNL A   1      43.114  38.439  34.585  1.00  0.00    -0.237 OA
ATOM     85  O   UNL A   1      45.408  38.052  33.759  1.00  0.00    -0.237 OA
ATOM     86  O   UNL A   1      43.736  39.061  32.276  1.00  0.00    -0.744 OA
ENDBRANCH  82  83
ENDBRANCH  54  77
BRANCH  66  87
ATOM     87  C   UNL A   1      44.870  26.305  32.771  1.00  0.00    -0.014 A 
ATOM     88  C   UNL A   1      43.974  25.975  33.808  1.00  0.00     0.010 A 
ATOM     89  C   UNL A   1      45.972  25.423  32.634  1.00  0.00     0.010 A 
ATOM     90  C   UNL A   1      44.205  24.921  34.701  1.00  0.00     0.020 A 
ATOM     91  C   UNL A   1      46.175  24.311  33.471  1.00  0.00     0.020 A 
ATOM     92  C   UNL A   1      45.308  24.095  34.530  1.00  0.00     0.054 A 
BRANCH  92  93
ATOM     93  S   UNL A   1      45.570  22.749  35.708  1.00  0.00     0.124 S 
ATOM     94  O   UNL A   1      45.074  23.338  36.949  1.00  0.00    -0.237 OA
ATOM     95  O   UNL A   1      44.748  21.675  35.155  1.00  0.00    -0.237 OA
ATOM     96  O   UNL A   1      47.011  22.514  35.659  1.00  0.00    -0.744 OA
ENDBRANCH  92  93
ENDBRANCH  66  87
ENDBRANCH  40  41
ENDBRANCH  33  35
ENDBRANCH  32  33
ENDBRANCH  31  32
ENDBRANCH  30  31
ENDBRANCH  29  30
ENDBRANCH  28  29
ENDBRANCH   1  28
TORSDOF 24
ENDMDL
