MODEL 1
REMARK VINA RESULT:     -10.0      0.000      0.000
REMARK SMILES Cc1nn(C)c(=O)c(C(=O)N2CCCC[C@H]2C(=O)OCCOCCOCCOC(=O)c2ccc(-c3c4nc(c(-c5ccc(S(=O)(=O)[O-])cc5)c5ccc([nH]5)c(-c5ccc(S(=O)(=O)[O-])cc5)c5nc(c(-c6ccc(S(=O)(=O)[O-])cc6)c6ccc3[nH]6)C=C5)C=C4)cc2)c1C
REMARK SMILES IDX 24 1 23 2 22 3 21 4 20 5 19 6 17 7 18 8 16 9 11 10 12 11
REMARK SMILES IDX 13 12 15 13 14 14 9 15 10 16 8 17 1 18 2 19 3 20 91 21 4 22
REMARK SMILES IDX 92 23 5 24 6 25 7 26 25 27 26 28 27 29 28 30 29 31 30 32
REMARK SMILES IDX 31 33 32 34 90 35 33 36 89 37 34 38 35 39 36 40 83 41 37 42
REMARK SMILES IDX 88 43 82 44 84 45 38 46 87 47 81 48 80 49 39 51 69 52 50 53
REMARK SMILES IDX 68 54 51 55 54 56 67 57 85 58 52 59 53 60 66 62 86 63 55 64
REMARK SMILES IDX 40 65 41 66 49 67 42 68 48 69 43 70 44 71 45 72 46 73 47 74
REMARK SMILES IDX 70 75 71 76 79 77 72 78 78 79 73 80 74 81 75 82 76 83 77 84
REMARK SMILES IDX 56 85 57 86 65 87 58 88 64 89 59 90 60 91 61 92 62 93 63 94
REMARK H PARENT 84 50 54 61
REMARK Flexibility Score: inf
ROOT
ATOM      1  C   UNL A   1      34.158  32.810  28.762  1.00  0.00     0.188 C 
ENDROOT
BRANCH   1   2
ATOM      2  C   UNL A   1      35.245  31.703  28.922  1.00  0.00     0.188 C 
BRANCH   2   3
ATOM      3  O   UNL A   1      35.801  31.220  27.709  1.00  0.00    -0.376 OA
BRANCH   3   4
ATOM      4  C   UNL A   1      35.352  29.924  27.299  1.00  0.00     0.202 C 
BRANCH   4   5
ATOM      5  C   UNL A   1      33.880  29.748  26.840  1.00  0.00     0.261 C 
BRANCH   5   6
ATOM      6  O   UNL A   1      33.647  29.061  25.577  1.00  0.00    -0.462 OA
BRANCH   6   7
ATOM      7  C   UNL A   1      32.383  28.554  25.405  1.00  0.00     0.328 C 
ATOM      8  O   UNL A   1      31.436  28.894  26.113  1.00  0.00    -0.250 OA
BRANCH   7   9
ATOM      9  C   UNL A   1      32.184  27.491  24.241  1.00  0.00     0.195 C 
ATOM     10  N   UNL A   1      31.075  26.476  24.230  1.00  0.00    -0.325 N 
ATOM     11  C   UNL A   1      29.741  27.024  23.953  1.00  0.00     0.121 C 
ATOM     12  C   UNL A   1      29.671  28.028  22.792  1.00  0.00     0.022 C 
ATOM     13  C   UNL A   1      32.126  28.337  22.942  1.00  0.00     0.037 C 
ATOM     14  C   UNL A   1      30.787  29.061  22.848  1.00  0.00     0.005 C 
BRANCH  10  15
ATOM     15  C   UNL A   1      31.256  25.102  23.921  1.00  0.00     0.260 C 
ATOM     16  O   UNL A   1      30.348  24.476  23.372  1.00  0.00    -0.269 OA
BRANCH  15  17
ATOM     17  C   UNL A   1      32.468  24.314  24.461  1.00  0.00     0.111 A 
ATOM     18  C   UNL A   1      33.930  21.665  27.636  1.00  0.00     0.069 C 
ATOM     19  C   UNL A   1      33.910  22.226  26.231  1.00  0.00     0.062 A 
ATOM     20  N   UNL A   1      35.001  21.846  25.178  1.00  0.00    -0.175 NA
ATOM     21  C   UNL A   1      32.519  23.557  25.802  1.00  0.00    -0.010 A 
ATOM     22  N   UNL A   1      35.237  22.930  23.698  1.00  0.00    -0.232 N 
ATOM     23  C   UNL A   1      31.433  23.399  26.732  1.00  0.00     0.047 C 
ATOM     24  C   UNL A   1      36.515  22.853  23.024  1.00  0.00     0.178 C 
ATOM     25  C   UNL A   1      34.041  24.231  23.266  1.00  0.00     0.279 A 
ATOM     26  O   UNL A   1      34.263  25.029  22.362  1.00  0.00    -0.267 OA
ENDBRANCH  15  17
ENDBRANCH  10  15
ENDBRANCH   7   9
ENDBRANCH   6   7
ENDBRANCH   5   6
ENDBRANCH   4   5
ENDBRANCH   3   4
ENDBRANCH   2   3
ENDBRANCH   1   2
BRANCH   1  27
ATOM     27  O   UNL A   1      34.598  33.852  27.890  1.00  0.00    -0.376 OA
BRANCH  27  28
ATOM     28  C   UNL A   1      34.712  35.172  28.444  1.00  0.00     0.202 C 
BRANCH  28  29
ATOM     29  C   UNL A   1      33.447  36.051  28.432  1.00  0.00     0.261 C 
BRANCH  29  30
ATOM     30  O   UNL A   1      32.547  35.642  29.476  1.00  0.00    -0.460 OA
BRANCH  30  31
ATOM     31  C   UNL A   1      32.769  35.771  30.932  1.00  0.00     0.338 C 
ATOM     32  O   UNL A   1      31.806  36.459  31.325  1.00  0.00    -0.246 OA
BRANCH  31  33
ATOM     33  C   UNL A   1      34.360  34.733  31.958  1.00  0.00     0.060 A 
ATOM     34  C   UNL A   1      34.474  33.308  32.406  1.00  0.00     0.016 A 
ATOM     35  C   UNL A   1      35.740  35.266  32.322  1.00  0.00     0.016 A 
ATOM     36  C   UNL A   1      35.659  32.592  32.721  1.00  0.00     0.010 A 
ATOM     37  C   UNL A   1      36.941  34.568  32.490  1.00  0.00     0.010 A 
ATOM     38  C   UNL A   1      36.892  33.219  32.722  1.00  0.00    -0.014 A 
BRANCH  38  39
ATOM     39  C   UNL A   1      38.046  32.589  33.372  1.00  0.00     0.031 A 
ATOM     40  C   UNL A   1      38.890  31.702  32.501  1.00  0.00     0.074 A 
ATOM     41  C   UNL A   1      38.334  32.830  34.661  1.00  0.00     0.049 A 
ATOM     42  N   UNL A   1      40.026  31.126  32.771  1.00  0.00    -0.248 NA
ATOM     43  C   UNL A   1      38.381  31.413  31.142  1.00  0.00     0.031 C 
ATOM     44  C   UNL A   1      37.532  33.645  35.578  1.00  0.00     0.029 A 
ATOM     45  N   UNL A   1      39.402  32.428  35.414  1.00  0.00    -0.354 N 
ATOM     46  C   UNL A   1      40.367  30.438  31.613  1.00  0.00     0.074 A 
ATOM     47  C   UNL A   1      39.283  30.570  30.679  1.00  0.00     0.031 C 
ATOM     48  C   UNL A   1      38.170  33.723  36.760  1.00  0.00     0.029 A 
ATOM     49  C   UNL A   1      39.412  32.957  36.682  1.00  0.00     0.049 A 
ATOM     50  H   UNL A   1      40.097  31.817  35.080  1.00  0.00     0.167 HD
ATOM     51  C   UNL A   1      41.520  29.800  31.331  1.00  0.00     0.031 A 
ATOM     52  C   UNL A   1      40.343  32.849  37.649  1.00  0.00     0.031 A 
ATOM     53  C   UNL A   1      42.587  29.688  32.274  1.00  0.00     0.049 A 
ATOM     54  C   UNL A   1      41.602  32.077  37.335  1.00  0.00     0.074 A 
ATOM     55  C   UNL A   1      43.815  29.083  32.115  1.00  0.00     0.029 A 
ATOM     56  N   UNL A   1      42.538  30.195  33.565  1.00  0.00    -0.354 N 
ATOM     57  N   UNL A   1      41.956  31.507  36.206  1.00  0.00    -0.248 NA
ATOM     58  C   UNL A   1      42.587  31.941  38.415  1.00  0.00     0.031 C 
ATOM     59  C   UNL A   1      44.487  29.166  33.336  1.00  0.00     0.029 A 
ATOM     60  C   UNL A   1      43.701  29.878  34.234  1.00  0.00     0.049 A 
ATOM     61  H   UNL A   1      41.787  30.704  33.946  1.00  0.00     0.167 HD
ATOM     62  C   UNL A   1      43.207  30.946  36.436  1.00  0.00     0.074 A 
ATOM     63  C   UNL A   1      43.558  31.272  37.805  1.00  0.00     0.031 C 
ATOM     64  C   UNL A   1      43.995  30.221  35.604  1.00  0.00     0.031 A 
BRANCH  51  65
ATOM     65  C   UNL A   1      41.651  29.192  29.964  1.00  0.00    -0.014 A 
ATOM     66  C   UNL A   1      41.289  27.851  29.728  1.00  0.00     0.010 A 
ATOM     67  C   UNL A   1      42.158  29.963  28.906  1.00  0.00     0.010 A 
ATOM     68  C   UNL A   1      41.464  27.284  28.465  1.00  0.00     0.020 A 
ATOM     69  C   UNL A   1      42.305  29.408  27.633  1.00  0.00     0.020 A 
ATOM     70  C   UNL A   1      41.969  28.068  27.424  1.00  0.00     0.054 A 
BRANCH  70  71
ATOM     71  S   UNL A   1      42.154  27.315  25.786  1.00  0.00     0.124 S 
ATOM     72  O   UNL A   1      40.964  26.469  25.706  1.00  0.00    -0.237 OA
ATOM     73  O   UNL A   1      42.159  28.476  24.901  1.00  0.00    -0.237 OA
ATOM     74  O   UNL A   1      43.422  26.594  25.875  1.00  0.00    -0.744 OA
ENDBRANCH  70  71
ENDBRANCH  51  65
BRANCH  52  75
ATOM     75  C   UNL A   1      40.133  33.509  38.968  1.00  0.00    -0.014 A 
ATOM     76  C   UNL A   1      40.732  34.745  39.262  1.00  0.00     0.010 A 
ATOM     77  C   UNL A   1      39.290  32.917  39.929  1.00  0.00     0.010 A 
ATOM     78  C   UNL A   1      40.494  35.378  40.488  1.00  0.00     0.020 A 
ATOM     79  C   UNL A   1      39.030  33.557  41.146  1.00  0.00     0.020 A 
ATOM     80  C   UNL A   1      39.637  34.784  41.419  1.00  0.00     0.054 A 
BRANCH  80  81
ATOM     81  S   UNL A   1      39.287  35.659  42.971  1.00  0.00     0.124 S 
ATOM     82  O   UNL A   1      37.848  35.465  43.114  1.00  0.00    -0.237 OA
ATOM     83  O   UNL A   1      40.122  34.940  43.930  1.00  0.00    -0.237 OA
ATOM     84  O   UNL A   1      39.709  37.030  42.694  1.00  0.00    -0.744 OA
ENDBRANCH  80  81
ENDBRANCH  52  75
BRANCH  64  85
ATOM     85  C   UNL A   1      45.295  29.703  36.149  1.00  0.00    -0.014 A 
ATOM     86  C   UNL A   1      45.381  28.393  36.647  1.00  0.00     0.010 A 
ATOM     87  C   UNL A   1      46.463  30.477  36.019  1.00  0.00     0.010 A 
ATOM     88  C   UNL A   1      46.618  27.861  37.008  1.00  0.00     0.020 A 
ATOM     89  C   UNL A   1      47.707  29.937  36.350  1.00  0.00     0.020 A 
ATOM     90  C   UNL A   1      47.774  28.632  36.845  1.00  0.00     0.054 A 
BRANCH  90  91
ATOM     91  S   UNL A   1      49.375  27.877  37.231  1.00  0.00     0.124 S 
ATOM     92  O   UNL A   1      49.760  27.306  35.944  1.00  0.00    -0.237 OA
ATOM     93  O   UNL A   1      50.168  29.022  37.673  1.00  0.00    -0.237 OA
ATOM     94  O   UNL A   1      49.059  26.906  38.275  1.00  0.00    -0.744 OA
ENDBRANCH  90  91
ENDBRANCH  64  85
ENDBRANCH  38  39
ENDBRANCH  31  33
ENDBRANCH  30  31
ENDBRANCH  29  30
ENDBRANCH  28  29
ENDBRANCH  27  28
ENDBRANCH   1  27
TORSDOF 22
ENDMDL
MODEL 2
REMARK VINA RESULT:      -9.9      2.149      8.486
REMARK SMILES Cc1nn(C)c(=O)c(C(=O)N2CCCC[C@H]2C(=O)OCCOCCOCCOC(=O)c2ccc(-c3c4nc(c(-c5ccc(S(=O)(=O)[O-])cc5)c5ccc([nH]5)c(-c5ccc(S(=O)(=O)[O-])cc5)c5nc(c(-c6ccc(S(=O)(=O)[O-])cc6)c6ccc3[nH]6)C=C5)C=C4)cc2)c1C
REMARK SMILES IDX 24 1 23 2 22 3 21 4 20 5 19 6 17 7 18 8 16 9 11 10 12 11
REMARK SMILES IDX 13 12 15 13 14 14 9 15 10 16 8 17 1 18 2 19 3 20 91 21 4 22
REMARK SMILES IDX 92 23 5 24 6 25 7 26 25 27 26 28 27 29 28 30 29 31 30 32
REMARK SMILES IDX 31 33 32 34 90 35 33 36 89 37 34 38 35 39 36 40 83 41 37 42
REMARK SMILES IDX 88 43 82 44 84 45 38 46 87 47 81 48 80 49 39 51 69 52 50 53
REMARK SMILES IDX 68 54 51 55 54 56 67 57 85 58 52 59 53 60 66 62 86 63 55 64
REMARK SMILES IDX 40 65 41 66 49 67 42 68 48 69 43 70 44 71 45 72 46 73 47 74
REMARK SMILES IDX 70 75 71 76 79 77 72 78 78 79 73 80 74 81 75 82 76 83 77 84
REMARK SMILES IDX 56 85 57 86 65 87 58 88 64 89 59 90 60 91 61 92 62 93 63 94
REMARK H PARENT 84 50 54 61
REMARK Flexibility Score: inf
ROOT
ATOM      1  C   UNL A   1      32.392  30.125  25.533  1.00  0.00     0.188 C 
ENDROOT
BRANCH   1   2
ATOM      2  C   UNL A   1      31.413  29.056  24.959  1.00  0.00     0.188 C 
BRANCH   2   3
ATOM      3  O   UNL A   1      31.694  28.624  23.637  1.00  0.00    -0.376 OA
BRANCH   3   4
ATOM      4  C   UNL A   1      30.671  27.840  23.015  1.00  0.00     0.202 C 
BRANCH   4   5
ATOM      5  C   UNL A   1      29.622  27.125  23.909  1.00  0.00     0.261 C 
BRANCH   5   6
ATOM      6  O   UNL A   1      30.106  26.100  24.823  1.00  0.00    -0.462 OA
BRANCH   6   7
ATOM      7  C   UNL A   1      30.642  24.984  24.229  1.00  0.00     0.328 C 
ATOM      8  O   UNL A   1      30.178  24.502  23.197  1.00  0.00    -0.250 OA
BRANCH   7   9
ATOM      9  C   UNL A   1      31.903  24.325  24.938  1.00  0.00     0.195 C 
ATOM     10  N   UNL A   1      32.520  23.031  24.486  1.00  0.00    -0.325 N 
ATOM     11  C   UNL A   1      33.274  23.115  23.228  1.00  0.00     0.121 C 
ATOM     12  C   UNL A   1      34.214  24.324  23.104  1.00  0.00     0.022 C 
ATOM     13  C   UNL A   1      32.980  25.441  24.941  1.00  0.00     0.037 C 
ATOM     14  C   UNL A   1      33.551  25.623  23.539  1.00  0.00     0.005 C 
BRANCH  10  15
ATOM     15  C   UNL A   1      32.893  21.977  25.361  1.00  0.00     0.260 C 
ATOM     16  O   UNL A   1      32.532  22.006  26.538  1.00  0.00    -0.269 OA
BRANCH  15  17
ATOM     17  C   UNL A   1      33.929  20.915  24.937  1.00  0.00     0.111 A 
ATOM     18  C   UNL A   1      38.172  19.803  24.945  1.00  0.00     0.069 C 
ATOM     19  C   UNL A   1      36.687  19.513  24.934  1.00  0.00     0.062 A 
ATOM     20  N   UNL A   1      36.133  18.066  24.720  1.00  0.00    -0.175 NA
ATOM     21  C   UNL A   1      35.457  21.048  25.079  1.00  0.00    -0.010 A 
ATOM     22  N   UNL A   1      34.374  17.846  24.195  1.00  0.00    -0.232 N 
ATOM     23  C   UNL A   1      36.164  22.143  25.688  1.00  0.00     0.047 C 
ATOM     24  C   UNL A   1      34.032  16.598  23.549  1.00  0.00     0.178 C 
ATOM     25  C   UNL A   1      33.187  19.225  24.228  1.00  0.00     0.279 A 
ATOM     26  O   UNL A   1      32.059  19.110  23.761  1.00  0.00    -0.267 OA
ENDBRANCH  15  17
ENDBRANCH  10  15
ENDBRANCH   7   9
ENDBRANCH   6   7
ENDBRANCH   5   6
ENDBRANCH   4   5
ENDBRANCH   3   4
ENDBRANCH   2   3
ENDBRANCH   1   2
BRANCH   1  27
ATOM     27  O   UNL A   1      32.255  30.254  26.949  1.00  0.00    -0.376 OA
BRANCH  27  28
ATOM     28  C   UNL A   1      32.727  31.470  27.549  1.00  0.00     0.202 C 
BRANCH  28  29
ATOM     29  C   UNL A   1      32.360  32.790  26.844  1.00  0.00     0.261 C 
BRANCH  29  30
ATOM     30  O   UNL A   1      32.070  33.809  27.816  1.00  0.00    -0.460 OA
BRANCH  30  31
ATOM     31  C   UNL A   1      33.055  34.613  28.572  1.00  0.00     0.338 C 
ATOM     32  O   UNL A   1      32.494  35.717  28.721  1.00  0.00    -0.246 OA
BRANCH  31  33
ATOM     33  C   UNL A   1      34.898  33.777  29.327  1.00  0.00     0.060 A 
ATOM     34  C   UNL A   1      36.324  34.162  29.080  1.00  0.00     0.016 A 
ATOM     35  C   UNL A   1      35.067  32.676  30.366  1.00  0.00     0.016 A 
ATOM     36  C   UNL A   1      37.456  33.843  29.876  1.00  0.00     0.010 A 
ATOM     37  C   UNL A   1      36.126  32.451  31.252  1.00  0.00     0.010 A 
ATOM     38  C   UNL A   1      37.342  33.021  30.982  1.00  0.00    -0.014 A 
BRANCH  38  39
ATOM     39  C   UNL A   1      38.534  32.418  31.587  1.00  0.00     0.031 A 
ATOM     40  C   UNL A   1      38.949  32.975  32.920  1.00  0.00     0.074 A 
ATOM     41  C   UNL A   1      39.183  31.408  30.985  1.00  0.00     0.049 A 
ATOM     42  N   UNL A   1      39.875  32.555  33.733  1.00  0.00    -0.248 NA
ATOM     43  C   UNL A   1      38.232  34.176  33.400  1.00  0.00     0.031 C 
ATOM     44  C   UNL A   1      38.863  30.850  29.670  1.00  0.00     0.029 A 
ATOM     45  N   UNL A   1      40.237  30.656  31.424  1.00  0.00    -0.354 N 
ATOM     46  C   UNL A   1      39.824  33.422  34.818  1.00  0.00     0.074 A 
ATOM     47  C   UNL A   1      38.866  34.452  34.522  1.00  0.00     0.031 C 
ATOM     48  C   UNL A   1      39.676  29.804  29.433  1.00  0.00     0.029 A 
ATOM     49  C   UNL A   1      40.574  29.632  30.572  1.00  0.00     0.049 A 
ATOM     50  H   UNL A   1      40.710  30.831  32.269  1.00  0.00     0.167 HD
ATOM     51  C   UNL A   1      40.482  33.330  35.991  1.00  0.00     0.031 A 
ATOM     52  C   UNL A   1      41.489  28.655  30.724  1.00  0.00     0.031 A 
ATOM     53  C   UNL A   1      41.425  32.293  36.263  1.00  0.00     0.049 A 
ATOM     54  C   UNL A   1      42.260  28.605  32.021  1.00  0.00     0.074 A 
ATOM     55  C   UNL A   1      42.151  32.072  37.414  1.00  0.00     0.029 A 
ATOM     56  N   UNL A   1      41.775  31.303  35.356  1.00  0.00    -0.354 N 
ATOM     57  N   UNL A   1      42.142  29.377  33.078  1.00  0.00    -0.248 NA
ATOM     58  C   UNL A   1      43.278  27.555  32.151  1.00  0.00     0.031 C 
ATOM     59  C   UNL A   1      42.992  30.982  37.179  1.00  0.00     0.029 A 
ATOM     60  C   UNL A   1      42.743  30.489  35.904  1.00  0.00     0.049 A 
ATOM     61  H   UNL A   1      41.391  31.197  34.455  1.00  0.00     0.167 HD
ATOM     62  C   UNL A   1      43.066  28.904  34.002  1.00  0.00     0.074 A 
ATOM     63  C   UNL A   1      43.715  27.762  33.387  1.00  0.00     0.031 C 
ATOM     64  C   UNL A   1      43.363  29.368  35.241  1.00  0.00     0.031 A 
BRANCH  51  65
ATOM     65  C   UNL A   1      40.189  34.378  37.025  1.00  0.00    -0.014 A 
ATOM     66  C   UNL A   1      39.200  34.173  38.007  1.00  0.00     0.010 A 
ATOM     67  C   UNL A   1      40.900  35.590  37.008  1.00  0.00     0.010 A 
ATOM     68  C   UNL A   1      38.903  35.177  38.930  1.00  0.00     0.020 A 
ATOM     69  C   UNL A   1      40.627  36.584  37.951  1.00  0.00     0.020 A 
ATOM     70  C   UNL A   1      39.621  36.375  38.899  1.00  0.00     0.054 A 
BRANCH  70  71
ATOM     71  S   UNL A   1      39.237  37.646  40.132  1.00  0.00     0.124 S 
ATOM     72  O   UNL A   1      38.862  36.839  41.291  1.00  0.00    -0.237 OA
ATOM     73  O   UNL A   1      40.502  38.365  40.250  1.00  0.00    -0.237 OA
ATOM     74  O   UNL A   1      38.146  38.403  39.523  1.00  0.00    -0.744 OA
ENDBRANCH  70  71
ENDBRANCH  51  65
BRANCH  52  75
ATOM     75  C   UNL A   1      41.692  27.645  29.649  1.00  0.00    -0.014 A 
ATOM     76  C   UNL A   1      40.690  26.711  29.335  1.00  0.00     0.010 A 
ATOM     77  C   UNL A   1      42.883  27.640  28.898  1.00  0.00     0.010 A 
ATOM     78  C   UNL A   1      40.873  25.794  28.294  1.00  0.00     0.020 A 
ATOM     79  C   UNL A   1      43.061  26.740  27.841  1.00  0.00     0.020 A 
ATOM     80  C   UNL A   1      42.055  25.820  27.547  1.00  0.00     0.054 A 
BRANCH  80  81
ATOM     81  S   UNL A   1      42.237  24.667  26.155  1.00  0.00     0.124 S 
ATOM     82  O   UNL A   1      41.126  23.746  26.375  1.00  0.00    -0.237 OA
ATOM     83  O   UNL A   1      42.108  25.551  25.000  1.00  0.00    -0.237 OA
ATOM     84  O   UNL A   1      43.568  24.100  26.352  1.00  0.00    -0.744 OA
ENDBRANCH  80  81
ENDBRANCH  52  75
BRANCH  64  85
ATOM     85  C   UNL A   1      44.452  28.671  36.005  1.00  0.00    -0.014 A 
ATOM     86  C   UNL A   1      44.152  27.557  36.806  1.00  0.00     0.010 A 
ATOM     87  C   UNL A   1      45.795  29.037  35.796  1.00  0.00     0.010 A 
ATOM     88  C   UNL A   1      45.180  26.817  37.388  1.00  0.00     0.020 A 
ATOM     89  C   UNL A   1      46.827  28.280  36.352  1.00  0.00     0.020 A 
ATOM     90  C   UNL A   1      46.511  27.176  37.147  1.00  0.00     0.054 A 
BRANCH  90  91
ATOM     91  S   UNL A   1      47.823  26.136  37.839  1.00  0.00     0.124 S 
ATOM     92  O   UNL A   1      48.488  27.056  38.757  1.00  0.00    -0.237 OA
ATOM     93  O   UNL A   1      47.071  25.054  38.470  1.00  0.00    -0.237 OA
ATOM     94  O   UNL A   1      48.608  25.743  36.672  1.00  0.00    -0.744 OA
ENDBRANCH  90  91
ENDBRANCH  64  85
ENDBRANCH  38  39
ENDBRANCH  31  33
ENDBRANCH  30  31
ENDBRANCH  29  30
ENDBRANCH  28  29
ENDBRANCH  27  28
ENDBRANCH   1  27
TORSDOF 22
ENDMDL
MODEL 3
REMARK VINA RESULT:      -9.9      5.533      9.260
REMARK SMILES Cc1nn(C)c(=O)c(C(=O)N2CCCC[C@H]2C(=O)OCCOCCOCCOC(=O)c2ccc(-c3c4nc(c(-c5ccc(S(=O)(=O)[O-])cc5)c5ccc([nH]5)c(-c5ccc(S(=O)(=O)[O-])cc5)c5nc(c(-c6ccc(S(=O)(=O)[O-])cc6)c6ccc3[nH]6)C=C5)C=C4)cc2)c1C
REMARK SMILES IDX 24 1 23 2 22 3 21 4 20 5 19 6 17 7 18 8 16 9 11 10 12 11
REMARK SMILES IDX 13 12 15 13 14 14 9 15 10 16 8 17 1 18 2 19 3 20 91 21 4 22
REMARK SMILES IDX 92 23 5 24 6 25 7 26 25 27 26 28 27 29 28 30 29 31 30 32
REMARK SMILES IDX 31 33 32 34 90 35 33 36 89 37 34 38 35 39 36 40 83 41 37 42
REMARK SMILES IDX 88 43 82 44 84 45 38 46 87 47 81 48 80 49 39 51 69 52 50 53
REMARK SMILES IDX 68 54 51 55 54 56 67 57 85 58 52 59 53 60 66 62 86 63 55 64
REMARK SMILES IDX 40 65 41 66 49 67 42 68 48 69 43 70 44 71 45 72 46 73 47 74
REMARK SMILES IDX 70 75 71 76 79 77 72 78 78 79 73 80 74 81 75 82 76 83 77 84
REMARK SMILES IDX 56 85 57 86 65 87 58 88 64 89 59 90 60 91 61 92 62 93 63 94
REMARK H PARENT 84 50 54 61
REMARK Flexibility Score: inf
ROOT
ATOM      1  C   UNL A   1      34.401  22.511  26.461  1.00  0.00     0.188 C 
ENDROOT
BRANCH   1   2
ATOM      2  C   UNL A   1      33.632  22.169  27.774  1.00  0.00     0.188 C 
BRANCH   2   3
ATOM      3  O   UNL A   1      32.296  22.647  27.836  1.00  0.00    -0.376 OA
BRANCH   3   4
ATOM      4  C   UNL A   1      31.979  23.707  26.927  1.00  0.00     0.202 C 
BRANCH   4   5
ATOM      5  C   UNL A   1      30.717  23.578  26.033  1.00  0.00     0.261 C 
BRANCH   5   6
ATOM      6  O   UNL A   1      30.471  24.636  25.063  1.00  0.00    -0.462 OA
BRANCH   6   7
ATOM      7  C   UNL A   1      30.825  24.344  23.769  1.00  0.00     0.328 C 
ATOM      8  O   UNL A   1      30.443  23.324  23.197  1.00  0.00    -0.250 OA
BRANCH   7   9
ATOM      9  C   UNL A   1      31.765  25.388  23.025  1.00  0.00     0.195 C 
ATOM     10  N   UNL A   1      32.508  26.483  23.737  1.00  0.00    -0.325 N 
ATOM     11  C   UNL A   1      33.651  26.029  24.540  1.00  0.00     0.121 C 
ATOM     12  C   UNL A   1      34.568  25.003  23.857  1.00  0.00     0.022 C 
ATOM     13  C   UNL A   1      32.767  24.514  22.226  1.00  0.00     0.037 C 
ATOM     14  C   UNL A   1      33.788  23.891  23.171  1.00  0.00     0.005 C 
BRANCH  10  15
ATOM     15  C   UNL A   1      32.559  27.830  23.294  1.00  0.00     0.260 C 
ATOM     16  O   UNL A   1      33.460  28.188  22.533  1.00  0.00    -0.269 OA
BRANCH  15  17
ATOM     17  C   UNL A   1      31.654  28.912  23.920  1.00  0.00     0.111 A 
ATOM     18  C   UNL A   1      31.366  32.071  26.950  1.00  0.00     0.069 C 
ATOM     19  C   UNL A   1      31.019  31.408  25.634  1.00  0.00     0.062 A 
ATOM     20  N   UNL A   1      29.861  31.938  24.727  1.00  0.00    -0.175 NA
ATOM     21  C   UNL A   1      32.003  29.768  25.153  1.00  0.00    -0.010 A 
ATOM     22  N   UNL A   1      29.145  30.820  23.440  1.00  0.00    -0.232 N 
ATOM     23  C   UNL A   1      33.245  29.750  25.878  1.00  0.00     0.047 C 
ATOM     24  C   UNL A   1      27.812  31.129  22.970  1.00  0.00     0.178 C 
ATOM     25  C   UNL A   1      29.946  29.252  22.983  1.00  0.00     0.279 A 
ATOM     26  O   UNL A   1      29.405  28.454  22.225  1.00  0.00    -0.267 OA
ENDBRANCH  15  17
ENDBRANCH  10  15
ENDBRANCH   7   9
ENDBRANCH   6   7
ENDBRANCH   5   6
ENDBRANCH   4   5
ENDBRANCH   3   4
ENDBRANCH   2   3
ENDBRANCH   1   2
BRANCH   1  27
ATOM     27  O   UNL A   1      35.185  21.405  26.010  1.00  0.00    -0.376 OA
BRANCH  27  28
ATOM     28  C   UNL A   1      36.112  21.646  24.942  1.00  0.00     0.202 C 
BRANCH  28  29
ATOM     29  C   UNL A   1      37.398  22.421  25.289  1.00  0.00     0.261 C 
BRANCH  29  30
ATOM     30  O   UNL A   1      38.271  21.603  26.086  1.00  0.00    -0.460 OA
BRANCH  30  31
ATOM     31  C   UNL A   1      39.709  21.839  26.345  1.00  0.00     0.338 C 
ATOM     32  O   UNL A   1      40.249  20.751  26.062  1.00  0.00    -0.246 OA
BRANCH  31  33
ATOM     33  C   UNL A   1      40.486  23.780  26.882  1.00  0.00     0.060 A 
ATOM     34  C   UNL A   1      40.266  25.130  26.269  1.00  0.00     0.016 A 
ATOM     35  C   UNL A   1      41.340  24.142  28.090  1.00  0.00     0.016 A 
ATOM     36  C   UNL A   1      40.481  26.398  26.871  1.00  0.00     0.010 A 
ATOM     37  C   UNL A   1      41.438  25.361  28.771  1.00  0.00     0.010 A 
ATOM     38  C   UNL A   1      41.029  26.504  28.136  1.00  0.00    -0.014 A 
BRANCH  38  39
ATOM     39  C   UNL A   1      41.566  27.784  28.609  1.00  0.00     0.031 A 
ATOM     40  C   UNL A   1      43.045  27.984  28.430  1.00  0.00     0.074 A 
ATOM     41  C   UNL A   1      40.763  28.721  29.138  1.00  0.00     0.049 A 
ATOM     42  N   UNL A   1      43.761  29.051  28.637  1.00  0.00    -0.248 NA
ATOM     43  C   UNL A   1      43.830  26.818  27.966  1.00  0.00     0.031 C 
ATOM     44  C   UNL A   1      39.326  28.577  29.383  1.00  0.00     0.029 A 
ATOM     45  N   UNL A   1      41.047  29.997  29.540  1.00  0.00    -0.354 N 
ATOM     46  C   UNL A   1      45.059  28.687  28.303  1.00  0.00     0.074 A 
ATOM     47  C   UNL A   1      45.063  27.285  27.988  1.00  0.00     0.031 C 
ATOM     48  C   UNL A   1      38.846  29.744  29.847  1.00  0.00     0.029 A 
ATOM     49  C   UNL A   1      39.941  30.707  29.940  1.00  0.00     0.049 A 
ATOM     50  H   UNL A   1      41.958  30.372  29.543  1.00  0.00     0.167 HD
ATOM     51  C   UNL A   1      46.149  29.475  28.208  1.00  0.00     0.031 A 
ATOM     52  C   UNL A   1      39.838  31.999  30.309  1.00  0.00     0.031 A 
ATOM     53  C   UNL A   1      46.118  30.868  28.520  1.00  0.00     0.049 A 
ATOM     54  C   UNL A   1      41.083  32.851  30.255  1.00  0.00     0.074 A 
ATOM     55  C   UNL A   1      47.144  31.786  28.452  1.00  0.00     0.029 A 
ATOM     56  N   UNL A   1      44.989  31.539  28.969  1.00  0.00    -0.354 N 
ATOM     57  N   UNL A   1      42.288  32.519  29.851  1.00  0.00    -0.248 NA
ATOM     58  C   UNL A   1      40.955  34.245  30.695  1.00  0.00     0.031 C 
ATOM     59  C   UNL A   1      46.651  33.005  28.926  1.00  0.00     0.029 A 
ATOM     60  C   UNL A   1      45.302  32.857  29.227  1.00  0.00     0.049 A 
ATOM     61  H   UNL A   1      44.099  31.136  29.086  1.00  0.00     0.167 HD
ATOM     62  C   UNL A   1      43.065  33.665  29.984  1.00  0.00     0.074 A 
ATOM     63  C   UNL A   1      42.182  34.704  30.480  1.00  0.00     0.031 C 
ATOM     64  C   UNL A   1      44.384  33.848  29.731  1.00  0.00     0.031 A 
BRANCH  51  65
ATOM     65  C   UNL A   1      47.426  28.828  27.757  1.00  0.00    -0.014 A 
ATOM     66  C   UNL A   1      47.748  28.731  26.389  1.00  0.00     0.010 A 
ATOM     67  C   UNL A   1      48.310  28.295  28.710  1.00  0.00     0.010 A 
ATOM     68  C   UNL A   1      48.915  28.081  25.983  1.00  0.00     0.020 A 
ATOM     69  C   UNL A   1      49.493  27.672  28.308  1.00  0.00     0.020 A 
ATOM     70  C   UNL A   1      49.782  27.559  26.945  1.00  0.00     0.054 A 
BRANCH  70  71
ATOM     71  S   UNL A   1      51.306  26.751  26.389  1.00  0.00     0.124 S 
ATOM     72  O   UNL A   1      50.807  25.839  25.362  1.00  0.00    -0.237 OA
ATOM     73  O   UNL A   1      52.100  27.874  25.900  1.00  0.00    -0.237 OA
ATOM     74  O   UNL A   1      51.818  26.105  27.595  1.00  0.00    -0.744 OA
ENDBRANCH  70  71
ENDBRANCH  51  65
BRANCH  52  75
ATOM     75  C   UNL A   1      38.519  32.557  30.719  1.00  0.00    -0.014 A 
ATOM     76  C   UNL A   1      37.610  33.041  29.764  1.00  0.00     0.010 A 
ATOM     77  C   UNL A   1      38.147  32.568  32.077  1.00  0.00     0.010 A 
ATOM     78  C   UNL A   1      36.356  33.524  30.155  1.00  0.00     0.020 A 
ATOM     79  C   UNL A   1      36.885  33.027  32.471  1.00  0.00     0.020 A 
ATOM     80  C   UNL A   1      35.998  33.506  31.507  1.00  0.00     0.054 A 
BRANCH  80  81
ATOM     81  S   UNL A   1      34.338  34.070  31.981  1.00  0.00     0.124 S 
ATOM     82  O   UNL A   1      33.765  32.867  32.576  1.00  0.00    -0.237 OA
ATOM     83  O   UNL A   1      34.632  35.158  32.910  1.00  0.00    -0.237 OA
ATOM     84  O   UNL A   1      33.742  34.486  30.713  1.00  0.00    -0.744 OA
ENDBRANCH  80  81
ENDBRANCH  52  75
BRANCH  64  85
ATOM     85  C   UNL A   1      44.966  35.204  30.012  1.00  0.00    -0.014 A 
ATOM     86  C   UNL A   1      45.487  35.500  31.281  1.00  0.00     0.010 A 
ATOM     87  C   UNL A   1      45.130  36.124  28.960  1.00  0.00     0.010 A 
ATOM     88  C   UNL A   1      46.167  36.699  31.497  1.00  0.00     0.020 A 
ATOM     89  C   UNL A   1      45.835  37.311  29.164  1.00  0.00     0.020 A 
ATOM     90  C   UNL A   1      46.347  37.590  30.433  1.00  0.00     0.054 A 
BRANCH  90  91
ATOM     91  S   UNL A   1      47.317  39.092  30.724  1.00  0.00     0.124 S 
ATOM     92  O   UNL A   1      47.222  39.769  29.434  1.00  0.00    -0.237 OA
ATOM     93  O   UNL A   1      46.595  39.729  31.822  1.00  0.00    -0.237 OA
ATOM     94  O   UNL A   1      48.644  38.589  31.067  1.00  0.00    -0.744 OA
ENDBRANCH  90  91
ENDBRANCH  64  85
ENDBRANCH  38  39
ENDBRANCH  31  33
ENDBRANCH  30  31
ENDBRANCH  29  30
ENDBRANCH  28  29
ENDBRANCH  27  28
ENDBRANCH   1  27
TORSDOF 22
ENDMDL
