MODEL 1
REMARK VINA RESULT:      -9.9      0.000      0.000
REMARK SMILES COc1cc(/C=C2\SC(=S)N(CC(=O)OCCOCCOCCOC(=O)c3ccc(-c4c5nc(c(-c6ccc(S(=O)(=O)[O-])cc6)c6ccc([nH]6)c(-c6ccc(S(=O)(=O)[O-])cc6)c6nc(c(-c7ccc(S(=O)(=O)[O-])cc7)c7ccc4[nH]7)C=C6)C=C5)cc3)C2=O)cc2c1OCO2
REMARK SMILES IDX 19 1 18 2 17 3 16 4 15 5 13 6 14 7 12 8 11 9 6 10 7 11 8 12
REMARK SMILES IDX 87 13 9 14 88 15 10 16 5 17 3 18 4 19 91 20 90 21 92 22
REMARK SMILES IDX 89 23 94 24 93 25 2 26 1 27 20 28 21 29 22 30 23 31 24 32
REMARK SMILES IDX 25 33 26 34 27 35 28 36 86 37 29 38 85 39 30 40 31 41 32 42
REMARK SMILES IDX 79 43 33 44 84 45 78 46 80 47 34 48 83 49 77 50 76 51 35 53
REMARK SMILES IDX 65 54 46 55 64 56 47 57 50 58 63 59 81 60 48 61 49 62 62 64
REMARK SMILES IDX 82 65 51 66 36 67 37 68 45 69 38 70 44 71 39 72 40 73 41 74
REMARK SMILES IDX 42 75 43 76 66 77 67 78 75 79 68 80 74 81 69 82 70 83 71 84
REMARK SMILES IDX 72 85 73 86 52 87 53 88 61 89 54 90 60 91 55 92 56 93 57 94
REMARK SMILES IDX 58 95 59 96
REMARK H PARENT 80 52 50 63
REMARK Flexibility Score: inf
ROOT
ATOM      1  C   UNL A   1      34.114  31.588  28.152  1.00  0.00     0.188 C 
ENDROOT
BRANCH   1   2
ATOM      2  O   UNL A   1      33.612  30.822  27.059  1.00  0.00    -0.376 OA
BRANCH   2   3
ATOM      3  C   UNL A   1      32.208  30.749  26.842  1.00  0.00     0.202 C 
BRANCH   3   4
ATOM      4  C   UNL A   1      31.723  30.194  25.494  1.00  0.00     0.261 C 
BRANCH   4   5
ATOM      5  O   UNL A   1      32.678  29.363  24.790  1.00  0.00    -0.462 OA
BRANCH   5   6
ATOM      6  C   UNL A   1      32.200  28.189  24.299  1.00  0.00     0.326 C 
ATOM      7  O   UNL A   1      31.050  27.794  24.473  1.00  0.00    -0.250 OA
BRANCH   6   8
ATOM      8  C   UNL A   1      33.178  27.393  23.420  1.00  0.00     0.250 C 
BRANCH   8   9
ATOM      9  N   UNL A   1      33.202  25.920  23.412  1.00  0.00    -0.282 N 
ATOM     10  C   UNL A   1      33.851  22.880  25.296  1.00  0.00     0.029 C 
ATOM     11  C   UNL A   1      33.616  23.765  24.313  1.00  0.00     0.081 C 
ATOM     12  S   UNL A   1      33.264  23.446  22.663  1.00  0.00    -0.054 SA
ATOM     13  C   UNL A   1      33.647  25.239  24.531  1.00  0.00     0.266 C 
ATOM     14  C   UNL A   1      32.969  25.147  22.296  1.00  0.00     0.148 C 
ATOM     15  O   UNL A   1      34.049  25.758  25.563  1.00  0.00    -0.268 OA
ATOM     16  S   UNL A   1      32.498  25.658  20.781  1.00  0.00    -0.052 S 
BRANCH  10  17
ATOM     17  C   UNL A   1      34.036  21.433  25.111  1.00  0.00    -0.017 A 
ATOM     18  C   UNL A   1      35.447  19.436  24.866  1.00  0.00     0.165 A 
ATOM     19  C   UNL A   1      35.309  20.828  25.042  1.00  0.00     0.058 A 
ATOM     20  C   UNL A   1      34.287  18.682  24.789  1.00  0.00     0.207 A 
ATOM     21  C   UNL A   1      33.047  19.282  24.841  1.00  0.00     0.170 A 
ATOM     22  O   UNL A   1      34.171  17.327  24.683  1.00  0.00    -0.450 OA
ATOM     23  C   UNL A   1      32.888  20.643  24.984  1.00  0.00     0.059 A 
ATOM     24  O   UNL A   1      32.020  18.393  24.760  1.00  0.00    -0.453 OA
ATOM     25  C   UNL A   1      32.744  17.152  24.750  1.00  0.00     0.468 C 
BRANCH  18  26
ATOM     26  O   UNL A   1      36.734  18.973  24.833  1.00  0.00    -0.493 OA
ATOM     27  C   UNL A   1      37.763  19.959  24.815  1.00  0.00     0.278 C 
ENDBRANCH  18  26
ENDBRANCH  10  17
ENDBRANCH   8   9
ENDBRANCH   6   8
ENDBRANCH   5   6
ENDBRANCH   4   5
ENDBRANCH   3   4
ENDBRANCH   2   3
ENDBRANCH   1   2
BRANCH   1  28
ATOM     28  C   UNL A   1      35.372  32.439  27.931  1.00  0.00     0.188 C 
BRANCH  28  29
ATOM     29  O   UNL A   1      35.095  33.775  27.575  1.00  0.00    -0.376 OA
BRANCH  29  30
ATOM     30  C   UNL A   1      33.764  34.225  27.678  1.00  0.00     0.202 C 
BRANCH  30  31
ATOM     31  C   UNL A   1      33.465  35.334  28.697  1.00  0.00     0.261 C 
BRANCH  31  32
ATOM     32  O   UNL A   1      32.564  35.017  29.770  1.00  0.00    -0.460 OA
BRANCH  32  33
ATOM     33  C   UNL A   1      32.688  35.734  30.912  1.00  0.00     0.338 C 
ATOM     34  O   UNL A   1      31.889  36.536  31.356  1.00  0.00    -0.246 OA
BRANCH  33  35
ATOM     35  C   UNL A   1      33.876  35.232  31.641  1.00  0.00     0.060 A 
ATOM     36  C   UNL A   1      34.437  36.023  32.650  1.00  0.00     0.016 A 
ATOM     37  C   UNL A   1      34.451  34.004  31.319  1.00  0.00     0.016 A 
ATOM     38  C   UNL A   1      35.582  35.606  33.329  1.00  0.00     0.010 A 
ATOM     39  C   UNL A   1      35.613  33.593  31.985  1.00  0.00     0.010 A 
ATOM     40  C   UNL A   1      36.201  34.403  32.977  1.00  0.00    -0.014 A 
BRANCH  40  41
ATOM     41  C   UNL A   1      37.539  34.060  33.521  1.00  0.00     0.031 A 
ATOM     42  C   UNL A   1      37.669  33.790  34.997  1.00  0.00     0.074 A 
ATOM     43  C   UNL A   1      38.622  33.978  32.726  1.00  0.00     0.049 A 
ATOM     44  N   UNL A   1      38.745  33.602  35.716  1.00  0.00    -0.248 NA
ATOM     45  C   UNL A   1      36.413  33.731  35.764  1.00  0.00     0.031 C 
ATOM     46  C   UNL A   1      38.620  34.137  31.272  1.00  0.00     0.029 A 
ATOM     47  N   UNL A   1      39.940  33.749  33.036  1.00  0.00    -0.354 N 
ATOM     48  C   UNL A   1      38.300  33.431  37.022  1.00  0.00     0.074 A 
ATOM     49  C   UNL A   1      36.859  33.555  36.999  1.00  0.00     0.031 C 
ATOM     50  C   UNL A   1      39.880  34.016  30.818  1.00  0.00     0.029 A 
ATOM     51  C   UNL A   1      40.782  33.823  31.952  1.00  0.00     0.049 A 
ATOM     52  H   UNL A   1      40.252  33.551  33.950  1.00  0.00     0.167 HD
ATOM     53  C   UNL A   1      39.027  33.194  38.140  1.00  0.00     0.031 A 
ATOM     54  C   UNL A   1      42.129  33.777  31.885  1.00  0.00     0.031 A 
ATOM     55  C   UNL A   1      40.461  33.075  38.158  1.00  0.00     0.049 A 
ATOM     56  C   UNL A   1      42.925  33.603  33.155  1.00  0.00     0.074 A 
ATOM     57  C   UNL A   1      41.292  32.832  39.238  1.00  0.00     0.029 A 
ATOM     58  N   UNL A   1      41.279  33.195  37.044  1.00  0.00    -0.354 N 
ATOM     59  N   UNL A   1      42.494  33.453  34.386  1.00  0.00    -0.248 NA
ATOM     60  C   UNL A   1      44.389  33.591  33.026  1.00  0.00     0.031 C 
ATOM     61  C   UNL A   1      42.615  32.867  38.787  1.00  0.00     0.029 A 
ATOM     62  C   UNL A   1      42.607  33.057  37.415  1.00  0.00     0.049 A 
ATOM     63  H   UNL A   1      40.963  33.353  36.124  1.00  0.00     0.167 HD
ATOM     64  C   UNL A   1      43.633  33.297  35.170  1.00  0.00     0.074 A 
ATOM     65  C   UNL A   1      44.769  33.358  34.274  1.00  0.00     0.031 C 
ATOM     66  C   UNL A   1      43.729  33.117  36.512  1.00  0.00     0.031 A 
BRANCH  53  67
ATOM     67  C   UNL A   1      38.284  33.097  39.447  1.00  0.00    -0.014 A 
ATOM     68  C   UNL A   1      37.675  31.898  39.861  1.00  0.00     0.010 A 
ATOM     69  C   UNL A   1      38.222  34.220  40.293  1.00  0.00     0.010 A 
ATOM     70  C   UNL A   1      36.985  31.837  41.076  1.00  0.00     0.020 A 
ATOM     71  C   UNL A   1      37.561  34.154  41.522  1.00  0.00     0.020 A 
ATOM     72  C   UNL A   1      36.932  32.966  41.898  1.00  0.00     0.054 A 
BRANCH  72  73
ATOM     73  S   UNL A   1      36.047  32.851  43.477  1.00  0.00     0.124 S 
ATOM     74  O   UNL A   1      37.135  32.577  44.413  1.00  0.00    -0.237 OA
ATOM     75  O   UNL A   1      35.435  34.172  43.597  1.00  0.00    -0.237 OA
ATOM     76  O   UNL A   1      35.111  31.749  43.273  1.00  0.00    -0.744 OA
ENDBRANCH  72  73
ENDBRANCH  53  67
BRANCH  54  77
ATOM     77  C   UNL A   1      42.818  33.935  30.573  1.00  0.00    -0.014 A 
ATOM     78  C   UNL A   1      43.215  35.205  30.118  1.00  0.00     0.010 A 
ATOM     79  C   UNL A   1      43.075  32.813  29.764  1.00  0.00     0.010 A 
ATOM     80  C   UNL A   1      43.841  35.351  28.876  1.00  0.00     0.020 A 
ATOM     81  C   UNL A   1      43.727  32.949  28.536  1.00  0.00     0.020 A 
ATOM     82  C   UNL A   1      44.097  34.220  28.094  1.00  0.00     0.054 A 
BRANCH  82  83
ATOM     83  S   UNL A   1      44.954  34.430  26.509  1.00  0.00     0.124 S 
ATOM     84  O   UNL A   1      45.087  35.880  26.423  1.00  0.00    -0.237 OA
ATOM     85  O   UNL A   1      46.197  33.692  26.724  1.00  0.00    -0.237 OA
ATOM     86  O   UNL A   1      44.039  33.826  25.541  1.00  0.00    -0.744 OA
ENDBRANCH  82  83
ENDBRANCH  54  77
BRANCH  66  87
ATOM     87  C   UNL A   1      45.106  32.921  37.094  1.00  0.00    -0.014 A 
ATOM     88  C   UNL A   1      45.851  34.001  37.598  1.00  0.00     0.010 A 
ATOM     89  C   UNL A   1      45.635  31.621  37.194  1.00  0.00     0.010 A 
ATOM     90  C   UNL A   1      47.113  33.787  38.160  1.00  0.00     0.020 A 
ATOM     91  C   UNL A   1      46.881  31.398  37.784  1.00  0.00     0.020 A 
ATOM     92  C   UNL A   1      47.620  32.486  38.250  1.00  0.00     0.054 A 
BRANCH  92  93
ATOM     93  S   UNL A   1      49.240  32.232  39.026  1.00  0.00     0.124 S 
ATOM     94  O   UNL A   1      50.133  32.928  38.104  1.00  0.00    -0.237 OA
ATOM     95  O   UNL A   1      49.072  32.861  40.334  1.00  0.00    -0.237 OA
ATOM     96  O   UNL A   1      49.387  30.778  39.055  1.00  0.00    -0.744 OA
ENDBRANCH  92  93
ENDBRANCH  66  87
ENDBRANCH  40  41
ENDBRANCH  33  35
ENDBRANCH  32  33
ENDBRANCH  31  32
ENDBRANCH  30  31
ENDBRANCH  29  30
ENDBRANCH  28  29
ENDBRANCH   1  28
TORSDOF 23
ENDMDL
MODEL 2
REMARK VINA RESULT:      -9.6      2.530      2.981
REMARK SMILES COc1cc(/C=C2\SC(=S)N(CC(=O)OCCOCCOCCOC(=O)c3ccc(-c4c5nc(c(-c6ccc(S(=O)(=O)[O-])cc6)c6ccc([nH]6)c(-c6ccc(S(=O)(=O)[O-])cc6)c6nc(c(-c7ccc(S(=O)(=O)[O-])cc7)c7ccc4[nH]7)C=C6)C=C5)cc3)C2=O)cc2c1OCO2
REMARK SMILES IDX 19 1 18 2 17 3 16 4 15 5 13 6 14 7 12 8 11 9 6 10 7 11 8 12
REMARK SMILES IDX 87 13 9 14 88 15 10 16 5 17 3 18 4 19 91 20 90 21 92 22
REMARK SMILES IDX 89 23 94 24 93 25 2 26 1 27 20 28 21 29 22 30 23 31 24 32
REMARK SMILES IDX 25 33 26 34 27 35 28 36 86 37 29 38 85 39 30 40 31 41 32 42
REMARK SMILES IDX 79 43 33 44 84 45 78 46 80 47 34 48 83 49 77 50 76 51 35 53
REMARK SMILES IDX 65 54 46 55 64 56 47 57 50 58 63 59 81 60 48 61 49 62 62 64
REMARK SMILES IDX 82 65 51 66 36 67 37 68 45 69 38 70 44 71 39 72 40 73 41 74
REMARK SMILES IDX 42 75 43 76 66 77 67 78 75 79 68 80 74 81 69 82 70 83 71 84
REMARK SMILES IDX 72 85 73 86 52 87 53 88 61 89 54 90 60 91 55 92 56 93 57 94
REMARK SMILES IDX 58 95 59 96
REMARK H PARENT 80 52 50 63
REMARK Flexibility Score: inf
ROOT
ATOM      1  C   UNL A   1      33.968  31.487  27.955  1.00  0.00     0.188 C 
ENDROOT
BRANCH   1   2
ATOM      2  O   UNL A   1      33.415  30.686  26.913  1.00  0.00    -0.376 OA
BRANCH   2   3
ATOM      3  C   UNL A   1      32.003  30.560  26.802  1.00  0.00     0.202 C 
BRANCH   3   4
ATOM      4  C   UNL A   1      31.437  30.005  25.485  1.00  0.00     0.261 C 
BRANCH   4   5
ATOM      5  O   UNL A   1      32.415  29.404  24.601  1.00  0.00    -0.462 OA
BRANCH   5   6
ATOM      6  C   UNL A   1      32.084  28.191  24.081  1.00  0.00     0.326 C 
ATOM      7  O   UNL A   1      30.932  27.772  24.008  1.00  0.00    -0.250 OA
BRANCH   6   8
ATOM      8  C   UNL A   1      33.253  27.381  23.500  1.00  0.00     0.250 C 
BRANCH   8   9
ATOM      9  N   UNL A   1      33.258  25.907  23.495  1.00  0.00    -0.282 N 
ATOM     10  C   UNL A   1      33.774  22.865  25.416  1.00  0.00     0.029 C 
ATOM     11  C   UNL A   1      33.600  23.750  24.421  1.00  0.00     0.081 C 
ATOM     12  S   UNL A   1      33.325  23.430  22.756  1.00  0.00    -0.054 SA
ATOM     13  C   UNL A   1      33.638  25.224  24.637  1.00  0.00     0.266 C 
ATOM     14  C   UNL A   1      33.071  25.134  22.371  1.00  0.00     0.148 C 
ATOM     15  O   UNL A   1      33.996  25.741  25.686  1.00  0.00    -0.268 OA
ATOM     16  S   UNL A   1      32.681  25.647  20.834  1.00  0.00    -0.052 S 
BRANCH  10  17
ATOM     17  C   UNL A   1      33.949  21.414  25.243  1.00  0.00    -0.017 A 
ATOM     18  C   UNL A   1      35.326  19.431  24.791  1.00  0.00     0.165 A 
ATOM     19  C   UNL A   1      35.197  20.825  24.947  1.00  0.00     0.058 A 
ATOM     20  C   UNL A   1      34.190  18.658  24.964  1.00  0.00     0.207 A 
ATOM     21  C   UNL A   1      32.971  19.242  25.237  1.00  0.00     0.170 A 
ATOM     22  O   UNL A   1      34.083  17.299  24.924  1.00  0.00    -0.450 OA
ATOM     23  C   UNL A   1      32.815  20.604  25.366  1.00  0.00     0.059 A 
ATOM     24  O   UNL A   1      31.966  18.336  25.385  1.00  0.00    -0.453 OA
ATOM     25  C   UNL A   1      32.699  17.107  25.273  1.00  0.00     0.468 C 
BRANCH  18  26
ATOM     26  O   UNL A   1      36.592  18.985  24.523  1.00  0.00    -0.493 OA
ATOM     27  C   UNL A   1      37.664  19.798  24.993  1.00  0.00     0.278 C 
ENDBRANCH  18  26
ENDBRANCH  10  17
ENDBRANCH   8   9
ENDBRANCH   6   8
ENDBRANCH   5   6
ENDBRANCH   4   5
ENDBRANCH   3   4
ENDBRANCH   2   3
ENDBRANCH   1   2
BRANCH   1  28
ATOM     28  C   UNL A   1      35.363  32.093  27.749  1.00  0.00     0.188 C 
BRANCH  28  29
ATOM     29  O   UNL A   1      35.350  33.490  27.563  1.00  0.00    -0.376 OA
BRANCH  29  30
ATOM     30  C   UNL A   1      34.243  34.213  28.049  1.00  0.00     0.202 C 
BRANCH  30  31
ATOM     31  C   UNL A   1      34.317  34.745  29.487  1.00  0.00     0.261 C 
BRANCH  31  32
ATOM     32  O   UNL A   1      33.137  34.620  30.297  1.00  0.00    -0.460 OA
BRANCH  32  33
ATOM     33  C   UNL A   1      33.186  35.146  31.544  1.00  0.00     0.338 C 
ATOM     34  O   UNL A   1      32.354  35.863  32.063  1.00  0.00    -0.246 OA
BRANCH  33  35
ATOM     35  C   UNL A   1      34.337  34.536  32.252  1.00  0.00     0.060 A 
ATOM     36  C   UNL A   1      35.464  35.322  32.515  1.00  0.00     0.016 A 
ATOM     37  C   UNL A   1      34.319  33.195  32.632  1.00  0.00     0.016 A 
ATOM     38  C   UNL A   1      36.585  34.774  33.139  1.00  0.00     0.010 A 
ATOM     39  C   UNL A   1      35.451  32.638  33.240  1.00  0.00     0.010 A 
ATOM     40  C   UNL A   1      36.601  33.417  33.474  1.00  0.00    -0.014 A 
BRANCH  40  41
ATOM     41  C   UNL A   1      37.861  32.769  33.920  1.00  0.00     0.031 A 
ATOM     42  C   UNL A   1      38.320  32.985  35.338  1.00  0.00     0.074 A 
ATOM     43  C   UNL A   1      38.584  31.994  33.091  1.00  0.00     0.049 A 
ATOM     44  N   UNL A   1      39.441  32.634  35.911  1.00  0.00    -0.248 NA
ATOM     45  C   UNL A   1      37.387  33.701  36.225  1.00  0.00     0.031 C 
ATOM     46  C   UNL A   1      38.213  31.639  31.722  1.00  0.00     0.029 A 
ATOM     47  N   UNL A   1      39.794  31.372  33.282  1.00  0.00    -0.354 N 
ATOM     48  C   UNL A   1      39.362  33.109  37.215  1.00  0.00     0.074 A 
ATOM     49  C   UNL A   1      38.091  33.788  37.344  1.00  0.00     0.031 C 
ATOM     50  C   UNL A   1      39.183  30.875  31.190  1.00  0.00     0.029 A 
ATOM     51  C   UNL A   1      40.266  30.730  32.162  1.00  0.00     0.049 A 
ATOM     52  H   UNL A   1      40.278  31.387  34.140  1.00  0.00     0.167 HD
ATOM     53  C   UNL A   1      40.268  32.992  38.216  1.00  0.00     0.031 A 
ATOM     54  C   UNL A   1      41.451  30.124  31.934  1.00  0.00     0.031 A 
ATOM     55  C   UNL A   1      41.533  32.318  38.082  1.00  0.00     0.049 A 
ATOM     56  C   UNL A   1      42.482  30.084  33.033  1.00  0.00     0.074 A 
ATOM     57  C   UNL A   1      42.519  32.141  39.036  1.00  0.00     0.029 A 
ATOM     58  N   UNL A   1      41.988  31.714  36.920  1.00  0.00    -0.354 N 
ATOM     59  N   UNL A   1      42.401  30.546  34.260  1.00  0.00    -0.248 NA
ATOM     60  C   UNL A   1      43.765  29.439  32.719  1.00  0.00     0.031 C 
ATOM     61  C   UNL A   1      43.597  31.485  38.434  1.00  0.00     0.029 A 
ATOM     62  C   UNL A   1      43.253  31.187  37.125  1.00  0.00     0.049 A 
ATOM     63  H   UNL A   1      41.487  31.666  36.073  1.00  0.00     0.167 HD
ATOM     64  C   UNL A   1      43.608  30.219  34.869  1.00  0.00     0.074 A 
ATOM     65  C   UNL A   1      44.396  29.510  33.883  1.00  0.00     0.031 C 
ATOM     66  C   UNL A   1      44.025  30.480  36.134  1.00  0.00     0.031 A 
BRANCH  53  67
ATOM     67  C   UNL A   1      39.943  33.650  39.531  1.00  0.00    -0.014 A 
ATOM     68  C   UNL A   1      39.348  32.934  40.586  1.00  0.00     0.010 A 
ATOM     69  C   UNL A   1      40.269  35.006  39.726  1.00  0.00     0.010 A 
ATOM     70  C   UNL A   1      39.050  33.572  41.795  1.00  0.00     0.020 A 
ATOM     71  C   UNL A   1      40.002  35.637  40.943  1.00  0.00     0.020 A 
ATOM     72  C   UNL A   1      39.378  34.920  41.965  1.00  0.00     0.054 A 
BRANCH  72  73
ATOM     73  S   UNL A   1      38.998  35.714  43.550  1.00  0.00     0.124 S 
ATOM     74  O   UNL A   1      39.345  37.108  43.280  1.00  0.00    -0.237 OA
ATOM     75  O   UNL A   1      37.571  35.442  43.710  1.00  0.00    -0.237 OA
ATOM     76  O   UNL A   1      39.871  35.030  44.501  1.00  0.00    -0.744 OA
ENDBRANCH  72  73
ENDBRANCH  53  67
BRANCH  54  77
ATOM     77  C   UNL A   1      41.745  29.538  30.595  1.00  0.00    -0.014 A 
ATOM     78  C   UNL A   1      42.363  30.307  29.594  1.00  0.00     0.010 A 
ATOM     79  C   UNL A   1      41.399  28.204  30.311  1.00  0.00     0.010 A 
ATOM     80  C   UNL A   1      42.616  29.759  28.332  1.00  0.00     0.020 A 
ATOM     81  C   UNL A   1      41.677  27.642  29.063  1.00  0.00     0.020 A 
ATOM     82  C   UNL A   1      42.275  28.428  28.076  1.00  0.00     0.054 A 
BRANCH  82  83
ATOM     83  S   UNL A   1      42.658  27.725  26.448  1.00  0.00     0.124 S 
ATOM     84  O   UNL A   1      41.331  27.569  25.863  1.00  0.00    -0.237 OA
ATOM     85  O   UNL A   1      43.497  28.759  25.848  1.00  0.00    -0.237 OA
ATOM     86  O   UNL A   1      43.351  26.477  26.767  1.00  0.00    -0.744 OA
ENDBRANCH  82  83
ENDBRANCH  54  77
BRANCH  66  87
ATOM     87  C   UNL A   1      45.377  29.954  36.547  1.00  0.00    -0.014 A 
ATOM     88  C   UNL A   1      46.538  30.740  36.432  1.00  0.00     0.010 A 
ATOM     89  C   UNL A   1      45.475  28.672  37.117  1.00  0.00     0.010 A 
ATOM     90  C   UNL A   1      47.774  30.239  36.849  1.00  0.00     0.020 A 
ATOM     91  C   UNL A   1      46.703  28.179  37.566  1.00  0.00     0.020 A 
ATOM     92  C   UNL A   1      47.849  28.961  37.415  1.00  0.00     0.054 A 
BRANCH  92  93
ATOM     93  S   UNL A   1      49.458  28.354  37.992  1.00  0.00     0.124 S 
ATOM     94  O   UNL A   1      49.259  26.907  37.982  1.00  0.00    -0.237 OA
ATOM     95  O   UNL A   1      50.376  28.869  36.979  1.00  0.00    -0.237 OA
ATOM     96  O   UNL A   1      49.601  28.953  39.317  1.00  0.00    -0.744 OA
ENDBRANCH  92  93
ENDBRANCH  66  87
ENDBRANCH  40  41
ENDBRANCH  33  35
ENDBRANCH  32  33
ENDBRANCH  31  32
ENDBRANCH  30  31
ENDBRANCH  29  30
ENDBRANCH  28  29
ENDBRANCH   1  28
TORSDOF 23
ENDMDL
MODEL 3
REMARK VINA RESULT:      -9.5      7.323     11.294
REMARK SMILES COc1cc(/C=C2\SC(=S)N(CC(=O)OCCOCCOCCOC(=O)c3ccc(-c4c5nc(c(-c6ccc(S(=O)(=O)[O-])cc6)c6ccc([nH]6)c(-c6ccc(S(=O)(=O)[O-])cc6)c6nc(c(-c7ccc(S(=O)(=O)[O-])cc7)c7ccc4[nH]7)C=C6)C=C5)cc3)C2=O)cc2c1OCO2
REMARK SMILES IDX 19 1 18 2 17 3 16 4 15 5 13 6 14 7 12 8 11 9 6 10 7 11 8 12
REMARK SMILES IDX 87 13 9 14 88 15 10 16 5 17 3 18 4 19 91 20 90 21 92 22
REMARK SMILES IDX 89 23 94 24 93 25 2 26 1 27 20 28 21 29 22 30 23 31 24 32
REMARK SMILES IDX 25 33 26 34 27 35 28 36 86 37 29 38 85 39 30 40 31 41 32 42
REMARK SMILES IDX 79 43 33 44 84 45 78 46 80 47 34 48 83 49 77 50 76 51 35 53
REMARK SMILES IDX 65 54 46 55 64 56 47 57 50 58 63 59 81 60 48 61 49 62 62 64
REMARK SMILES IDX 82 65 51 66 36 67 37 68 45 69 38 70 44 71 39 72 40 73 41 74
REMARK SMILES IDX 42 75 43 76 66 77 67 78 75 79 68 80 74 81 69 82 70 83 71 84
REMARK SMILES IDX 72 85 73 86 52 87 53 88 61 89 54 90 60 91 55 92 56 93 57 94
REMARK SMILES IDX 58 95 59 96
REMARK H PARENT 80 52 50 63
REMARK Flexibility Score: inf
ROOT
ATOM      1  C   UNL A   1      31.510  28.330  24.616  1.00  0.00     0.188 C 
ENDROOT
BRANCH   1   2
ATOM      2  O   UNL A   1      31.080  27.816  25.875  1.00  0.00    -0.376 OA
BRANCH   2   3
ATOM      3  C   UNL A   1      30.898  26.414  26.033  1.00  0.00     0.202 C 
BRANCH   3   4
ATOM      4  C   UNL A   1      32.026  25.488  25.552  1.00  0.00     0.261 C 
BRANCH   4   5
ATOM      5  O   UNL A   1      31.817  24.890  24.249  1.00  0.00    -0.462 OA
BRANCH   5   6
ATOM      6  C   UNL A   1      31.818  23.531  24.209  1.00  0.00     0.326 C 
ATOM      7  O   UNL A   1      30.883  22.836  24.599  1.00  0.00    -0.250 OA
BRANCH   6   8
ATOM      8  C   UNL A   1      33.053  22.890  23.557  1.00  0.00     0.250 C 
BRANCH   8   9
ATOM      9  N   UNL A   1      34.235  22.493  24.342  1.00  0.00    -0.282 N 
ATOM     10  C   UNL A   1      37.420  23.512  25.766  1.00  0.00     0.029 C 
ATOM     11  C   UNL A   1      36.375  22.796  25.321  1.00  0.00     0.081 C 
ATOM     12  S   UNL A   1      36.076  21.117  25.527  1.00  0.00    -0.054 SA
ATOM     13  C   UNL A   1      35.267  23.396  24.524  1.00  0.00     0.266 C 
ATOM     14  C   UNL A   1      34.479  21.211  24.781  1.00  0.00     0.148 C 
ATOM     15  O   UNL A   1      35.303  24.531  24.070  1.00  0.00    -0.268 OA
ATOM     16  S   UNL A   1      33.482  19.881  24.652  1.00  0.00    -0.052 S 
BRANCH  10  17
ATOM     17  C   UNL A   1      38.636  22.952  26.377  1.00  0.00    -0.017 A 
ATOM     18  C   UNL A   1      40.242  21.130  26.743  1.00  0.00     0.165 A 
ATOM     19  C   UNL A   1      39.070  21.630  26.141  1.00  0.00     0.058 A 
ATOM     20  C   UNL A   1      40.964  21.990  27.553  1.00  0.00     0.207 A 
ATOM     21  C   UNL A   1      40.525  23.275  27.791  1.00  0.00     0.170 A 
ATOM     22  O   UNL A   1      42.150  21.753  28.185  1.00  0.00    -0.450 OA
ATOM     23  C   UNL A   1      39.369  23.777  27.237  1.00  0.00     0.059 A 
ATOM     24  O   UNL A   1      41.360  23.983  28.600  1.00  0.00    -0.453 OA
ATOM     25  C   UNL A   1      42.428  23.039  28.770  1.00  0.00     0.468 C 
BRANCH  18  26
ATOM     26  O   UNL A   1      40.562  19.839  26.420  1.00  0.00    -0.493 OA
ATOM     27  C   UNL A   1      39.708  19.189  25.482  1.00  0.00     0.278 C 
ENDBRANCH  18  26
ENDBRANCH  10  17
ENDBRANCH   8   9
ENDBRANCH   6   8
ENDBRANCH   5   6
ENDBRANCH   4   5
ENDBRANCH   3   4
ENDBRANCH   2   3
ENDBRANCH   1   2
BRANCH   1  28
ATOM     28  C   UNL A   1      32.658  29.348  24.596  1.00  0.00     0.188 C 
BRANCH  28  29
ATOM     29  O   UNL A   1      33.265  29.538  25.854  1.00  0.00    -0.376 OA
BRANCH  29  30
ATOM     30  C   UNL A   1      34.483  28.878  26.109  1.00  0.00     0.202 C 
BRANCH  30  31
ATOM     31  C   UNL A   1      35.139  29.099  27.478  1.00  0.00     0.261 C 
BRANCH  31  32
ATOM     32  O   UNL A   1      36.568  28.959  27.555  1.00  0.00    -0.460 OA
BRANCH  32  33
ATOM     33  C   UNL A   1      37.176  29.441  28.665  1.00  0.00     0.338 C 
ATOM     34  O   UNL A   1      36.652  29.675  29.736  1.00  0.00    -0.246 OA
BRANCH  33  35
ATOM     35  C   UNL A   1      38.637  29.449  28.418  1.00  0.00     0.060 A 
ATOM     36  C   UNL A   1      39.110  29.144  27.137  1.00  0.00     0.016 A 
ATOM     37  C   UNL A   1      39.539  29.728  29.444  1.00  0.00     0.016 A 
ATOM     38  C   UNL A   1      40.480  29.097  26.875  1.00  0.00     0.010 A 
ATOM     39  C   UNL A   1      40.914  29.661  29.189  1.00  0.00     0.010 A 
ATOM     40  C   UNL A   1      41.394  29.320  27.909  1.00  0.00    -0.014 A 
BRANCH  40  41
ATOM     41  C   UNL A   1      42.839  29.045  27.704  1.00  0.00     0.031 A 
ATOM     42  C   UNL A   1      43.826  30.156  27.951  1.00  0.00     0.074 A 
ATOM     43  C   UNL A   1      43.276  27.833  27.317  1.00  0.00     0.049 A 
ATOM     44  N   UNL A   1      45.111  30.193  27.716  1.00  0.00    -0.248 NA
ATOM     45  C   UNL A   1      43.283  31.394  28.536  1.00  0.00     0.031 C 
ATOM     46  C   UNL A   1      42.437  26.652  27.120  1.00  0.00     0.029 A 
ATOM     47  N   UNL A   1      44.542  27.399  27.008  1.00  0.00    -0.354 N 
ATOM     48  C   UNL A   1      45.528  31.463  28.098  1.00  0.00     0.074 A 
ATOM     49  C   UNL A   1      44.355  32.173  28.562  1.00  0.00     0.031 C 
ATOM     50  C   UNL A   1      43.209  25.631  26.709  1.00  0.00     0.029 A 
ATOM     51  C   UNL A   1      44.587  26.100  26.564  1.00  0.00     0.049 A 
ATOM     52  H   UNL A   1      45.343  27.967  27.096  1.00  0.00     0.167 HD
ATOM     53  C   UNL A   1      46.774  31.993  28.062  1.00  0.00     0.031 A 
ATOM     54  C   UNL A   1      45.613  25.379  26.063  1.00  0.00     0.031 A 
ATOM     55  C   UNL A   1      47.936  31.284  27.595  1.00  0.00     0.049 A 
ATOM     56  C   UNL A   1      46.974  26.018  25.947  1.00  0.00     0.074 A 
ATOM     57  C   UNL A   1      49.244  31.730  27.523  1.00  0.00     0.029 A 
ATOM     58  N   UNL A   1      47.931  29.982  27.119  1.00  0.00    -0.354 N 
ATOM     59  N   UNL A   1      47.354  27.224  26.301  1.00  0.00    -0.248 NA
ATOM     60  C   UNL A   1      48.046  25.198  25.367  1.00  0.00     0.031 C 
ATOM     61  C   UNL A   1      50.018  30.720  26.944  1.00  0.00     0.029 A 
ATOM     62  C   UNL A   1      49.208  29.618  26.725  1.00  0.00     0.049 A 
ATOM     63  H   UNL A   1      47.137  29.401  27.068  1.00  0.00     0.167 HD
ATOM     64  C   UNL A   1      48.714  27.293  26.014  1.00  0.00     0.074 A 
ATOM     65  C   UNL A   1      49.092  26.006  25.471  1.00  0.00     0.031 C 
ATOM     66  C   UNL A   1      49.572  28.330  26.188  1.00  0.00     0.031 A 
BRANCH  53  67
ATOM     67  C   UNL A   1      46.935  33.427  28.496  1.00  0.00    -0.014 A 
ATOM     68  C   UNL A   1      46.483  34.494  27.697  1.00  0.00     0.010 A 
ATOM     69  C   UNL A   1      47.521  33.710  29.744  1.00  0.00     0.010 A 
ATOM     70  C   UNL A   1      46.651  35.815  28.121  1.00  0.00     0.020 A 
ATOM     71  C   UNL A   1      47.663  35.028  30.184  1.00  0.00     0.020 A 
ATOM     72  C   UNL A   1      47.241  36.074  29.361  1.00  0.00     0.054 A 
BRANCH  72  73
ATOM     73  S   UNL A   1      47.428  37.798  29.893  1.00  0.00     0.124 S 
ATOM     74  O   UNL A   1      48.431  38.296  28.955  1.00  0.00    -0.237 OA
ATOM     75  O   UNL A   1      46.081  38.335  29.715  1.00  0.00    -0.237 OA
ATOM     76  O   UNL A   1      47.875  37.689  31.279  1.00  0.00    -0.744 OA
ENDBRANCH  72  73
ENDBRANCH  53  67
BRANCH  54  77
ATOM     77  C   UNL A   1      45.387  23.983  25.595  1.00  0.00    -0.014 A 
ATOM     78  C   UNL A   1      44.960  23.725  24.281  1.00  0.00     0.010 A 
ATOM     79  C   UNL A   1      45.591  22.898  26.468  1.00  0.00     0.010 A 
ATOM     80  C   UNL A   1      44.728  22.413  23.853  1.00  0.00     0.020 A 
ATOM     81  C   UNL A   1      45.391  21.584  26.038  1.00  0.00     0.020 A 
ATOM     82  C   UNL A   1      44.949  21.350  24.734  1.00  0.00     0.054 A 
BRANCH  82  83
ATOM     83  S   UNL A   1      44.689  19.655  24.142  1.00  0.00     0.124 S 
ATOM     84  O   UNL A   1      43.513  19.244  24.902  1.00  0.00    -0.237 OA
ATOM     85  O   UNL A   1      44.480  19.851  22.709  1.00  0.00    -0.237 OA
ATOM     86  O   UNL A   1      45.933  18.973  24.496  1.00  0.00    -0.744 OA
ENDBRANCH  82  83
ENDBRANCH  54  77
BRANCH  66  87
ATOM     87  C   UNL A   1      51.021  28.104  25.835  1.00  0.00    -0.014 A 
ATOM     88  C   UNL A   1      51.946  27.641  26.787  1.00  0.00     0.010 A 
ATOM     89  C   UNL A   1      51.447  28.302  24.508  1.00  0.00     0.010 A 
ATOM     90  C   UNL A   1      53.277  27.412  26.425  1.00  0.00     0.020 A 
ATOM     91  C   UNL A   1      52.768  28.044  24.135  1.00  0.00     0.020 A 
ATOM     92  C   UNL A   1      53.679  27.614  25.100  1.00  0.00     0.054 A 
BRANCH  92  93
ATOM     93  S   UNL A   1      55.401  27.264  24.647  1.00  0.00     0.124 S 
ATOM     94  O   UNL A   1      55.242  26.489  23.420  1.00  0.00    -0.237 OA
ATOM     95  O   UNL A   1      55.965  28.601  24.479  1.00  0.00    -0.237 OA
ATOM     96  O   UNL A   1      55.916  26.516  25.792  1.00  0.00    -0.744 OA
ENDBRANCH  92  93
ENDBRANCH  66  87
ENDBRANCH  40  41
ENDBRANCH  33  35
ENDBRANCH  32  33
ENDBRANCH  31  32
ENDBRANCH  30  31
ENDBRANCH  29  30
ENDBRANCH  28  29
ENDBRANCH   1  28
TORSDOF 23
ENDMDL
